MODEL 1
REMARK minimizedAffinity -4.17947149
REMARK minimizedRMSD -1
REMARK  0 active torsions:
REMARK  status: ('A' for Active; 'I' for Inactive)
ROOT
ATOM      1  C   UNL d   1       0.347   1.006   0.605  0.00  0.00     0.020 A 
ATOM      2  C1  UNL d   1      -0.299  -0.092   1.172  0.00  0.00     0.020 A 
ATOM      3  C2  UNL d   1      -0.466  -1.263   0.431  0.00  0.00     0.034 A 
ATOM      4  C3  UNL d   1       0.014  -1.340  -0.882  0.00  0.00     0.017 A 
ATOM      5  C4  UNL d   1       0.663  -0.238  -1.450  0.00  0.00     0.017 A 
ATOM      6  C5  UNL d   1       0.827   0.933  -0.703  0.00  0.00     0.034 A 
ATOM      7 Cl   UNL d   1       1.283  -0.258  -3.064  0.00  0.00    -0.070 Cl
ATOM      8 Cl1  UNL d   1      -0.227  -2.821  -1.740  0.00  0.00    -0.070 Cl
ENDROOT
TORSDOF 0
ENDMDL
