MODEL 1
REMARK minimizedAffinity -4.42737389
REMARK minimizedRMSD -1
REMARK  0 active torsions:
REMARK  status: ('A' for Active; 'I' for Inactive)
ROOT
ATOM      1  C   UNL d   1      -0.003   1.291   0.584  0.00  0.00     0.020 A 
ATOM      2  C1  UNL d   1      -0.518   0.143   1.185  0.00  0.00     0.020 A 
ATOM      3  C2  UNL d   1      -0.367  -1.098   0.563  0.00  0.00     0.034 A 
ATOM      4  C3  UNL d   1       0.299  -1.194  -0.664  0.00  0.00     0.017 A 
ATOM      5  C4  UNL d   1       0.815  -0.041  -1.267  0.00  0.00     0.017 A 
ATOM      6  C5  UNL d   1       0.661   1.199  -0.640  0.00  0.00     0.034 A 
ATOM      7 Cl   UNL d   1       1.649  -0.081  -2.780  0.00  0.00    -0.070 Cl
ATOM      8 Cl1  UNL d   1       0.449  -2.761  -1.376  0.00  0.00    -0.070 Cl
ENDROOT
TORSDOF 0
ENDMDL
