MODEL 1
REMARK minimizedAffinity -0.124342203
REMARK minimizedRMSD -1
REMARK  0 active torsions:
REMARK  status: ('A' for Active; 'I' for Inactive)
ROOT
ATOM      1  C   UNL d   1      -3.471  -0.662   1.382  0.00  0.00     0.020 A 
ATOM      2  C1  UNL d   1      -3.174   0.589   1.919  0.00  0.00     0.020 A 
ATOM      3  C2  UNL d   1      -1.885   1.114   1.796  0.00  0.00     0.034 A 
ATOM      4  C3  UNL d   1      -0.890   0.386   1.134  0.00  0.00     0.017 A 
ATOM      5  C4  UNL d   1      -1.190  -0.870   0.594  0.00  0.00     0.017 A 
ATOM      6  C5  UNL d   1      -2.481  -1.390   0.721  0.00  0.00     0.034 A 
ATOM      7 Cl   UNL d   1      -0.014  -1.826  -0.237  0.00  0.00    -0.070 Cl
ATOM      8 Cl1  UNL d   1       0.681   1.096   1.018  0.00  0.00    -0.070 Cl
ENDROOT
TORSDOF 0
ENDMDL
