MODEL 1
REMARK minimizedAffinity -1.78004289
REMARK minimizedRMSD -1
REMARK  0 active torsions:
REMARK  status: ('A' for Active; 'I' for Inactive)
ROOT
ATOM      1  C   UNL d   1       1.969   1.547  -1.059  0.00  0.00     0.020 A 
ATOM      2  C1  UNL d   1       0.796   1.282  -0.354  0.00  0.00     0.020 A 
ATOM      3  C2  UNL d   1       0.389  -0.037  -0.146  0.00  0.00     0.034 A 
ATOM      4  C3  UNL d   1       1.155  -1.097  -0.645  0.00  0.00     0.017 A 
ATOM      5  C4  UNL d   1       2.333  -0.830  -1.353  0.00  0.00     0.017 A 
ATOM      6  C5  UNL d   1       2.736   0.493  -1.557  0.00  0.00     0.034 A 
ATOM      7 Cl   UNL d   1       3.331  -2.085  -1.998  0.00  0.00    -0.070 Cl
ATOM      8 Cl1  UNL d   1       0.592  -2.704  -0.351  0.00  0.00    -0.070 Cl
ENDROOT
TORSDOF 0
ENDMDL
