MODEL 1
REMARK minimizedAffinity -1.25907338
REMARK minimizedRMSD -1
REMARK  0 active torsions:
REMARK  status: ('A' for Active; 'I' for Inactive)
ROOT
ATOM      1  C   UNL d   1       2.089   0.026  -2.830  0.00  0.00     0.020 A 
ATOM      2  C1  UNL d   1       1.501   1.002  -2.027  0.00  0.00     0.020 A 
ATOM      3  C2  UNL d   1       0.744   0.629  -0.915  0.00  0.00     0.034 A 
ATOM      4  C3  UNL d   1       0.573  -0.724  -0.602  0.00  0.00     0.017 A 
ATOM      5  C4  UNL d   1       1.164  -1.704  -1.408  0.00  0.00     0.017 A 
ATOM      6  C5  UNL d   1       1.921  -1.325  -2.520  0.00  0.00     0.034 A 
ATOM      7 Cl   UNL d   1       0.998  -3.394  -1.085  0.00  0.00    -0.070 Cl
ATOM      8 Cl1  UNL d   1      -0.376  -1.114   0.789  0.00  0.00    -0.070 Cl
ENDROOT
TORSDOF 0
ENDMDL
