MODEL 1
REMARK minimizedAffinity -3.86824608
REMARK minimizedRMSD -1
REMARK  0 active torsions:
REMARK  status: ('A' for Active; 'I' for Inactive)
ROOT
ATOM      1  C   UNL d   1       1.186  -2.755  -1.245  0.00  0.00     0.020 A 
ATOM      2  C1  UNL d   1       1.979  -2.121  -2.200  0.00  0.00     0.020 A 
ATOM      3  C2  UNL d   1       1.946  -0.730  -2.323  0.00  0.00     0.034 A 
ATOM      4  C3  UNL d   1       1.118   0.031  -1.489  0.00  0.00     0.017 A 
ATOM      5  C4  UNL d   1       0.322  -0.607  -0.531  0.00  0.00     0.017 A 
ATOM      6  C5  UNL d   1       0.359  -2.000  -0.412  0.00  0.00     0.034 A 
ATOM      7 Cl   UNL d   1      -0.725   0.264   0.533  0.00  0.00    -0.070 Cl
ATOM      8 Cl1  UNL d   1       1.128   1.746  -1.696  0.00  0.00    -0.070 Cl
ENDROOT
TORSDOF 0
ENDMDL
