MODEL 1
REMARK minimizedAffinity -3.47456813
REMARK minimizedRMSD -1
REMARK  0 active torsions:
REMARK  status: ('A' for Active; 'I' for Inactive)
ROOT
ATOM      1  C   UNL d   1       1.636   0.810  -2.630  0.00  0.00     0.020 A 
ATOM      2  C1  UNL d   1       1.436   1.619  -1.513  0.00  0.00     0.020 A 
ATOM      3  C2  UNL d   1       0.779   1.111  -0.390  0.00  0.00     0.034 A 
ATOM      4  C3  UNL d   1       0.320  -0.211  -0.382  0.00  0.00     0.017 A 
ATOM      5  C4  UNL d   1       0.522  -1.024  -1.504  0.00  0.00     0.017 A 
ATOM      6  C5  UNL d   1       1.180  -0.509  -2.625  0.00  0.00     0.034 A 
ATOM      7 Cl   UNL d   1      -0.016  -2.665  -1.569  0.00  0.00    -0.070 Cl
ATOM      8 Cl1  UNL d   1      -0.484  -0.775   1.040  0.00  0.00    -0.070 Cl
ENDROOT
TORSDOF 0
ENDMDL
