MODEL 1
REMARK minimizedAffinity -3.68904305
REMARK minimizedRMSD -1
REMARK  1 active torsions:
REMARK  status: ('A' for Active; 'I' for Inactive)
REMARK    1  A    between atoms: C1_2  and  C2_3 
ROOT
ATOM      1  C2  UNL d   1       1.308   0.617   0.414  0.00  0.00    -0.076 A 
ATOM      2  C3  UNL d   1       0.973  -0.746   0.332  0.00  0.00     0.004 A 
ATOM      3  C4  UNL d   1      -0.298  -1.149  -0.072  0.00  0.00    -0.003 A 
ATOM      4  C5  UNL d   1      -1.256  -0.196  -0.402  0.00  0.00     0.000 A 
ATOM      5  C6  UNL d   1      -0.935   1.160  -0.343  0.00  0.00     0.000 A 
ATOM      6  C7  UNL d   1       0.347   1.583   0.046  0.00  0.00    -0.073 A 
ATOM      7  C8  UNL d   1       0.636   3.058   0.097  0.00  0.00     0.078 C 
ENDROOT
BRANCH   1   8
ATOM      8  C1  UNL d   1       2.695   0.995   0.884  0.00  0.00     0.053 C 
ATOM      9  C   UNL d   1       3.391  -0.141   1.618  0.00  0.00     0.018 C 
ENDBRANCH   1   8
TORSDOF 1
ENDMDL
