MODEL 1
REMARK minimizedAffinity -5.50795746
REMARK minimizedRMSD -1
REMARK  1 active torsions:
REMARK  status: ('A' for Active; 'I' for Inactive)
REMARK    1  A    between atoms: C1_2  and  C2_3 
ROOT
ATOM      1  C2  UNL d   1      -0.343  -0.075   0.194  0.00  0.00    -0.076 A 
ATOM      2  C3  UNL d   1       0.345   1.046  -0.302  0.00  0.00     0.004 A 
ATOM      3  C4  UNL d   1       1.691   1.253  -0.002  0.00  0.00    -0.003 A 
ATOM      4  C5  UNL d   1       2.370   0.342   0.799  0.00  0.00     0.000 A 
ATOM      5  C6  UNL d   1       1.708  -0.785   1.285  0.00  0.00     0.000 A 
ATOM      6  C7  UNL d   1       0.357  -1.017   0.978  0.00  0.00    -0.073 A 
ATOM      7  C8  UNL d   1      -0.309  -2.246   1.535  0.00  0.00     0.078 C 
ENDROOT
BRANCH   1   8
ATOM      8  C1  UNL d   1      -1.808  -0.233  -0.142  0.00  0.00     0.053 C 
ATOM      9  C   UNL d   1      -2.076  -0.145  -1.637  0.00  0.00     0.018 C 
ENDBRANCH   1   8
TORSDOF 1
ENDMDL
