MODEL 1
REMARK minimizedAffinity -2.8928268
REMARK minimizedRMSD -1
REMARK  1 active torsions:
REMARK  status: ('A' for Active; 'I' for Inactive)
REMARK    1  A    between atoms: C1_2  and  C2_3 
ROOT
ATOM      1  C2  UNL d   1      -0.105  -0.154  -0.080  0.00  0.00    -0.076 A 
ATOM      2  C3  UNL d   1       0.474   1.045  -0.531  0.00  0.00     0.004 A 
ATOM      3  C4  UNL d   1       1.632   1.549   0.059  0.00  0.00    -0.003 A 
ATOM      4  C5  UNL d   1       2.231   0.862   1.109  0.00  0.00     0.000 A 
ATOM      5  C6  UNL d   1       1.681  -0.339   1.557  0.00  0.00     0.000 A 
ATOM      6  C7  UNL d   1       0.523  -0.869   0.963  0.00  0.00    -0.073 A 
ATOM      7  C8  UNL d   1      -0.031  -2.164   1.491  0.00  0.00     0.078 C 
ENDROOT
BRANCH   1   8
ATOM      8  C1  UNL d   1      -1.376  -0.637  -0.740  0.00  0.00     0.053 C 
ATOM      9  C   UNL d   1      -2.071   0.456  -1.537  0.00  0.00     0.018 C 
ENDBRANCH   1   8
TORSDOF 1
ENDMDL
