MODEL 1
REMARK minimizedAffinity -2.12639761
REMARK minimizedRMSD -1
REMARK  1 active torsions:
REMARK  status: ('A' for Active; 'I' for Inactive)
REMARK    1  A    between atoms: C1_2  and  C2_3 
ROOT
ATOM      1  C2  UNL d   1       1.613  -0.208   1.494  0.00  0.00    -0.076 A 
ATOM      2  C3  UNL d   1       1.497  -1.504   2.025  0.00  0.00     0.004 A 
ATOM      3  C4  UNL d   1       0.352  -2.268   1.809  0.00  0.00    -0.003 A 
ATOM      4  C5  UNL d   1      -0.696  -1.749   1.056  0.00  0.00     0.000 A 
ATOM      5  C6  UNL d   1      -0.591  -0.471   0.507  0.00  0.00     0.000 A 
ATOM      6  C7  UNL d   1       0.564   0.306   0.702  0.00  0.00    -0.073 A 
ATOM      7  C8  UNL d   1       0.621   1.679   0.092  0.00  0.00     0.078 C 
ENDROOT
BRANCH   1   8
ATOM      8  C1  UNL d   1       2.868   0.585   1.785  0.00  0.00     0.053 C 
ATOM      9  C   UNL d   1       4.125  -0.269   1.719  0.00  0.00     0.018 C 
ENDBRANCH   1   8
TORSDOF 1
ENDMDL
