MODEL 1
REMARK minimizedAffinity -4.0187254
REMARK minimizedRMSD -1
REMARK  1 active torsions:
REMARK  status: ('A' for Active; 'I' for Inactive)
REMARK    1  A    between atoms: C1_2  and  C2_3 
ROOT
ATOM      1  C2  UNL d   1      -0.813   0.728  -0.359  0.00  0.00    -0.076 A 
ATOM      2  C3  UNL d   1       0.005   1.830  -0.663  0.00  0.00     0.004 A 
ATOM      3  C4  UNL d   1       1.270   1.963  -0.093  0.00  0.00    -0.003 A 
ATOM      4  C5  UNL d   1       1.737   0.996   0.790  0.00  0.00     0.000 A 
ATOM      5  C6  UNL d   1       0.946  -0.113   1.089  0.00  0.00     0.000 A 
ATOM      6  C7  UNL d   1      -0.325  -0.270   0.510  0.00  0.00    -0.073 A 
ATOM      7  C8  UNL d   1      -1.138  -1.482   0.873  0.00  0.00     0.078 C 
ENDROOT
BRANCH   1   8
ATOM      8  C1  UNL d   1      -2.187   0.651  -0.987  0.00  0.00     0.053 C 
ATOM      9  C   UNL d   1      -2.187  -0.122  -2.297  0.00  0.00     0.018 C 
ENDBRANCH   1   8
TORSDOF 1
ENDMDL
