MODEL 1
REMARK minimizedAffinity -4.29450274
REMARK minimizedRMSD -1
REMARK  1 active torsions:
REMARK  status: ('A' for Active; 'I' for Inactive)
REMARK    1  A    between atoms: C1_2  and  C2_3 
ROOT
ATOM      1  C2  UNL d   1       0.857   0.220   0.701  0.00  0.00    -0.076 A 
ATOM      2  C3  UNL d   1       2.175   0.548   1.062  0.00  0.00     0.004 A 
ATOM      3  C4  UNL d   1       2.951  -0.328   1.818  0.00  0.00    -0.003 A 
ATOM      4  C5  UNL d   1       2.422  -1.548   2.226  0.00  0.00     0.000 A 
ATOM      5  C6  UNL d   1       1.122  -1.897   1.862  0.00  0.00     0.000 A 
ATOM      6  C7  UNL d   1       0.332  -1.032   1.086  0.00  0.00    -0.073 A 
ATOM      7  C8  UNL d   1      -1.066  -1.457   0.728  0.00  0.00     0.078 C 
ENDROOT
BRANCH   1   8
ATOM      8  C1  UNL d   1       0.054   1.222  -0.098  0.00  0.00     0.053 C 
ATOM      9  C   UNL d   1       0.496   2.655   0.153  0.00  0.00     0.018 C 
ENDBRANCH   1   8
TORSDOF 1
ENDMDL
