MODEL 1
REMARK minimizedAffinity 0.597247362
REMARK minimizedRMSD -1
REMARK  2 active torsions:
REMARK  status: ('A' for Active; 'I' for Inactive)
REMARK    1  A    between atoms: C1_2  and  C2_3 
REMARK    2  A    between atoms: C2_3  and  C3_4 
ROOT
ATOM      1  C3  UNL d   1      -2.038   2.129   1.832  0.00  0.00    -0.075 A 
ATOM      2  C4  UNL d   1      -3.270   1.459   1.833  0.00  0.00     0.002 A 
ATOM      3  C5  UNL d   1      -4.462   2.168   1.687  0.00  0.00     0.002 A 
ATOM      4  C6  UNL d   1      -4.440   3.554   1.550  0.00  0.00    -0.004 A 
ATOM      5  C7  UNL d   1      -3.223   4.232   1.565  0.00  0.00     0.002 A 
ATOM      6  C8  UNL d   1      -2.028   3.525   1.706  0.00  0.00     0.002 A 
ENDROOT
BRANCH   1   7
ATOM      7  C2  UNL d   1      -0.742   1.365   1.960  0.00  0.00     0.056 C 
BRANCH   7   8
ATOM      8  C1  UNL d   1      -0.209   1.276   3.394  0.00  0.00     0.007 C 
ATOM      9  C   UNL d   1       0.288  -0.116   3.764  0.00  0.00     0.009 C 
ENDBRANCH   7   8
ENDBRANCH   1   7
TORSDOF 2
ENDMDL
