MODEL 1
REMARK minimizedAffinity 9.33628845
REMARK minimizedRMSD -1
REMARK  2 active torsions:
REMARK  status: ('A' for Active; 'I' for Inactive)
REMARK    1  A    between atoms: C1_2  and  C2_3 
REMARK    2  A    between atoms: C2_3  and  C3_4 
ROOT
ATOM      1  C3  UNL d   1       2.914  -0.551  -0.663  0.00  0.00    -0.075 A 
ATOM      2  C4  UNL d   1       2.776  -1.020  -1.977  0.00  0.00     0.002 A 
ATOM      3  C5  UNL d   1       2.391  -2.338  -2.222  0.00  0.00     0.002 A 
ATOM      4  C6  UNL d   1       2.150  -3.205  -1.158  0.00  0.00    -0.004 A 
ATOM      5  C7  UNL d   1       2.300  -2.754   0.151  0.00  0.00     0.002 A 
ATOM      6  C8  UNL d   1       2.681  -1.434   0.399  0.00  0.00     0.002 A 
ENDROOT
BRANCH   1   7
ATOM      7  C2  UNL d   1       3.302   0.883  -0.391  0.00  0.00     0.056 C 
BRANCH   7   8
ATOM      8  C1  UNL d   1       4.641   1.296  -1.012  0.00  0.00     0.007 C 
ATOM      9  C   UNL d   1       5.768   1.399   0.007  0.00  0.00     0.009 C 
ENDBRANCH   7   8
ENDBRANCH   1   7
TORSDOF 2
ENDMDL
