MODEL 1
REMARK minimizedAffinity 2.89932108
REMARK minimizedRMSD -1
REMARK  2 active torsions:
REMARK  status: ('A' for Active; 'I' for Inactive)
REMARK    1  A    between atoms: C1_2  and  C2_3 
REMARK    2  A    between atoms: C2_3  and  C3_4 
ROOT
ATOM      1  C3  UNL d   1       1.415  -2.334  -0.750  0.00  0.00    -0.075 A 
ATOM      2  C4  UNL d   1       0.728  -1.743  -1.820  0.00  0.00     0.002 A 
ATOM      3  C5  UNL d   1      -0.438  -2.324  -2.320  0.00  0.00     0.002 A 
ATOM      4  C6  UNL d   1      -0.925  -3.505  -1.765  0.00  0.00    -0.004 A 
ATOM      5  C7  UNL d   1      -0.240  -4.110  -0.713  0.00  0.00     0.002 A 
ATOM      6  C8  UNL d   1       0.924  -3.529  -0.208  0.00  0.00     0.002 A 
ENDROOT
BRANCH   1   7
ATOM      7  C2  UNL d   1       2.661  -1.695  -0.185  0.00  0.00     0.056 C 
BRANCH   7   8
ATOM      8  C1  UNL d   1       2.765  -0.189  -0.450  0.00  0.00     0.007 C 
ATOM      9  C   UNL d   1       4.189   0.275  -0.729  0.00  0.00     0.009 C 
ENDBRANCH   7   8
ENDBRANCH   1   7
TORSDOF 2
ENDMDL
