MODEL 1
REMARK minimizedAffinity 3.50345659
REMARK minimizedRMSD -1
REMARK  2 active torsions:
REMARK  status: ('A' for Active; 'I' for Inactive)
REMARK    1  A    between atoms: C1_2  and  C2_3 
REMARK    2  A    between atoms: C2_3  and  C3_4 
ROOT
ATOM      1  C3  UNL d   1       2.932  -1.279  -0.561  0.00  0.00    -0.075 A 
ATOM      2  C4  UNL d   1       3.268  -0.184   0.249  0.00  0.00     0.002 A 
ATOM      3  C5  UNL d   1       4.151   0.793  -0.212  0.00  0.00     0.002 A 
ATOM      4  C6  UNL d   1       4.716   0.684  -1.481  0.00  0.00    -0.004 A 
ATOM      5  C7  UNL d   1       4.401  -0.408  -2.287  0.00  0.00     0.002 A 
ATOM      6  C8  UNL d   1       3.515  -1.385  -1.831  0.00  0.00     0.002 A 
ENDROOT
BRANCH   1   7
ATOM      7  C2  UNL d   1       1.954  -2.324  -0.080  0.00  0.00     0.056 C 
BRANCH   7   8
ATOM      8  C1  UNL d   1       1.303  -3.134  -1.206  0.00  0.00     0.007 C 
ATOM      9  C   UNL d   1       0.074  -3.911  -0.753  0.00  0.00     0.009 C 
ENDBRANCH   7   8
ENDBRANCH   1   7
TORSDOF 2
ENDMDL
