MODEL 1
REMARK minimizedAffinity 5.31363106
REMARK minimizedRMSD -1
REMARK  2 active torsions:
REMARK  status: ('A' for Active; 'I' for Inactive)
REMARK    1  A    between atoms: C1_2  and  C2_3 
REMARK    2  A    between atoms: C2_3  and  C3_4 
ROOT
ATOM      1  C3  UNL d   1       4.048   0.536  -1.410  0.00  0.00    -0.075 A 
ATOM      2  C4  UNL d   1       4.305  -0.080  -2.644  0.00  0.00     0.002 A 
ATOM      3  C5  UNL d   1       3.747  -1.323  -2.943  0.00  0.00     0.002 A 
ATOM      4  C6  UNL d   1       2.936  -1.969  -2.013  0.00  0.00    -0.004 A 
ATOM      5  C7  UNL d   1       2.688  -1.373  -0.778  0.00  0.00     0.002 A 
ATOM      6  C8  UNL d   1       3.241  -0.128  -0.477  0.00  0.00     0.002 A 
ENDROOT
BRANCH   1   7
ATOM      7  C2  UNL d   1       4.625   1.895  -1.091  0.00  0.00     0.056 C 
BRANCH   7   8
ATOM      8  C1  UNL d   1       5.997   1.846  -0.410  0.00  0.00     0.007 C 
ATOM      9  C   UNL d   1       5.956   2.268   1.053  0.00  0.00     0.009 C 
ENDBRANCH   7   8
ENDBRANCH   1   7
TORSDOF 2
ENDMDL
