MODEL 1
REMARK minimizedAffinity 5.83773708
REMARK minimizedRMSD -1
REMARK  2 active torsions:
REMARK  status: ('A' for Active; 'I' for Inactive)
REMARK    1  A    between atoms: C1_2  and  C2_3 
REMARK    2  A    between atoms: C2_3  and  C3_4 
ROOT
ATOM      1  C3  UNL d   1       3.219  -0.971  -0.010  0.00  0.00    -0.075 A 
ATOM      2  C4  UNL d   1       2.992   0.117  -0.866  0.00  0.00     0.002 A 
ATOM      3  C5  UNL d   1       3.929   1.146  -0.967  0.00  0.00     0.002 A 
ATOM      4  C6  UNL d   1       5.096   1.107  -0.209  0.00  0.00    -0.004 A 
ATOM      5  C7  UNL d   1       5.324   0.040   0.658  0.00  0.00     0.002 A 
ATOM      6  C8  UNL d   1       4.391  -0.994   0.758  0.00  0.00     0.002 A 
ENDROOT
BRANCH   1   7
ATOM      7  C2  UNL d   1       2.224  -2.102   0.083  0.00  0.00     0.056 C 
BRANCH   7   8
ATOM      8  C1  UNL d   1       1.828  -2.698  -1.273  0.00  0.00     0.007 C 
ATOM      9  C   UNL d   1       0.652  -3.660  -1.186  0.00  0.00     0.009 C 
ENDBRANCH   7   8
ENDBRANCH   1   7
TORSDOF 2
ENDMDL
