MODEL 1
REMARK minimizedAffinity 4.49888325
REMARK minimizedRMSD -1
REMARK  2 active torsions:
REMARK  status: ('A' for Active; 'I' for Inactive)
REMARK    1  A    between atoms: C1_2  and  C2_3 
REMARK    2  A    between atoms: C2_3  and  C3_4 
ROOT
ATOM      1  C3  UNL d   1       2.017  -1.937  -0.822  0.00  0.00    -0.075 A 
ATOM      2  C4  UNL d   1       2.087  -0.772  -0.045  0.00  0.00     0.002 A 
ATOM      3  C5  UNL d   1       2.976   0.250  -0.379  0.00  0.00     0.002 A 
ATOM      4  C6  UNL d   1       3.812   0.117  -1.485  0.00  0.00    -0.004 A 
ATOM      5  C7  UNL d   1       3.763  -1.043  -2.255  0.00  0.00     0.002 A 
ATOM      6  C8  UNL d   1       2.871  -2.066  -1.926  0.00  0.00     0.002 A 
ENDROOT
BRANCH   1   7
ATOM      7  C2  UNL d   1       1.036  -3.034  -0.484  0.00  0.00     0.056 C 
BRANCH   7   8
ATOM      8  C1  UNL d   1      -0.209  -3.054  -1.377  0.00  0.00     0.007 C 
ATOM      9  C   UNL d   1      -1.047  -4.315  -1.209  0.00  0.00     0.009 C 
ENDBRANCH   7   8
ENDBRANCH   1   7
TORSDOF 2
ENDMDL
