MODEL 1
REMARK minimizedAffinity 3.63494229
REMARK minimizedRMSD -1
REMARK  2 active torsions:
REMARK  status: ('A' for Active; 'I' for Inactive)
REMARK    1  A    between atoms: C1_2  and  C2_3 
REMARK    2  A    between atoms: C2_3  and  C3_4 
ROOT
ATOM      1  C3  UNL d   1      -4.992   1.790  -2.693  0.00  0.00    -0.075 A 
ATOM      2  C4  UNL d   1      -5.588   1.140  -1.602  0.00  0.00     0.002 A 
ATOM      3  C5  UNL d   1      -4.844   0.274  -0.801  0.00  0.00     0.002 A 
ATOM      4  C6  UNL d   1      -3.500   0.039  -1.085  0.00  0.00    -0.004 A 
ATOM      5  C7  UNL d   1      -2.902   0.666  -2.175  0.00  0.00     0.002 A 
ATOM      6  C8  UNL d   1      -3.643   1.537  -2.976  0.00  0.00     0.002 A 
ENDROOT
BRANCH   1   7
ATOM      7  C2  UNL d   1      -5.784   2.751  -3.546  0.00  0.00     0.056 C 
BRANCH   7   8
ATOM      8  C1  UNL d   1      -5.597   4.224  -3.165  0.00  0.00     0.007 C 
ATOM      9  C   UNL d   1      -4.390   4.868  -3.834  0.00  0.00     0.009 C 
ENDBRANCH   7   8
ENDBRANCH   1   7
TORSDOF 2
ENDMDL
