MODEL 1
REMARK minimizedAffinity -3.43262315
REMARK minimizedRMSD -1
REMARK  0 active torsions:
REMARK  status: ('A' for Active; 'I' for Inactive)
ROOT
ATOM      1  C   UNL d   1       2.040   0.281   1.140  0.00  0.00     0.020 A 
ATOM      2  C1  UNL d   1       2.525  -0.780   0.376  0.00  0.00     0.020 A 
ATOM      3  C2  UNL d   1       1.675  -1.450  -0.507  0.00  0.00     0.034 A 
ATOM      4  C3  UNL d   1       0.337  -1.059  -0.629  0.00  0.00     0.017 A 
ATOM      5  C4  UNL d   1      -0.149   0.006   0.138  0.00  0.00     0.017 A 
ATOM      6  C5  UNL d   1       0.706   0.673   1.021  0.00  0.00     0.034 A 
ATOM      7 Cl   UNL d   1      -1.788   0.545   0.042  0.00  0.00    -0.070 Cl
ATOM      8 Cl1  UNL d   1      -0.657  -1.932  -1.741  0.00  0.00    -0.070 Cl
ENDROOT
TORSDOF 0
ENDMDL
