MODEL 1
REMARK minimizedAffinity -4.70342159
REMARK minimizedRMSD -1
REMARK  0 active torsions:
REMARK  status: ('A' for Active; 'I' for Inactive)
ROOT
ATOM      1  C   UNL d   1       2.152  -1.905   0.262  0.00  0.00     0.020 A 
ATOM      2  C1  UNL d   1       0.970  -2.494  -0.184  0.00  0.00     0.020 A 
ATOM      3  C2  UNL d   1      -0.164  -1.708  -0.400  0.00  0.00     0.034 A 
ATOM      4  C3  UNL d   1      -0.118  -0.328  -0.171  0.00  0.00     0.017 A 
ATOM      5  C4  UNL d   1       1.070   0.263   0.277  0.00  0.00     0.017 A 
ATOM      6  C5  UNL d   1       2.202  -0.529   0.491  0.00  0.00     0.034 A 
ATOM      7 Cl   UNL d   1       1.204   1.959   0.582  0.00  0.00    -0.070 Cl
ATOM      8 Cl1  UNL d   1      -1.557   0.583  -0.459  0.00  0.00    -0.070 Cl
ENDROOT
TORSDOF 0
ENDMDL
