MODEL 1
REMARK minimizedAffinity -4.71086168
REMARK minimizedRMSD -1
REMARK  0 active torsions:
REMARK  status: ('A' for Active; 'I' for Inactive)
ROOT
ATOM      1  C   UNL d   1       2.194   0.282   0.762  0.00  0.00     0.020 A 
ATOM      2  C1  UNL d   1       2.580  -1.023   0.457  0.00  0.00     0.020 A 
ATOM      3  C2  UNL d   1       1.666  -1.903  -0.127  0.00  0.00     0.034 A 
ATOM      4  C3  UNL d   1       0.362  -1.480  -0.407  0.00  0.00     0.017 A 
ATOM      5  C4  UNL d   1      -0.024  -0.170  -0.101  0.00  0.00     0.017 A 
ATOM      6  C5  UNL d   1       0.895   0.707   0.483  0.00  0.00     0.034 A 
ATOM      7 Cl   UNL d   1      -1.616   0.425  -0.417  0.00  0.00    -0.070 Cl
ATOM      8 Cl1  UNL d   1      -0.716  -2.621  -1.129  0.00  0.00    -0.070 Cl
ENDROOT
TORSDOF 0
ENDMDL
