MODEL 1
REMARK minimizedAffinity -3.77342367
REMARK minimizedRMSD -1
REMARK  0 active torsions:
REMARK  status: ('A' for Active; 'I' for Inactive)
ROOT
ATOM      1  C   UNL d   1       2.846  -1.133   1.075  0.00  0.00     0.020 A 
ATOM      2  C1  UNL d   1       2.035  -0.408   1.947  0.00  0.00     0.020 A 
ATOM      3  C2  UNL d   1       0.768   0.011   1.537  0.00  0.00     0.034 A 
ATOM      4  C3  UNL d   1       0.308  -0.294   0.251  0.00  0.00     0.017 A 
ATOM      5  C4  UNL d   1       1.123  -1.022  -0.624  0.00  0.00     0.017 A 
ATOM      6  C5  UNL d   1       2.391  -1.440  -0.208  0.00  0.00     0.034 A 
ATOM      7 Cl   UNL d   1       0.624  -1.437  -2.226  0.00  0.00    -0.070 Cl
ATOM      8 Cl1  UNL d   1      -1.270   0.256  -0.190  0.00  0.00    -0.070 Cl
ENDROOT
TORSDOF 0
ENDMDL
