MODEL 1
REMARK minimizedAffinity -4.5238471
REMARK minimizedRMSD -1
REMARK  0 active torsions:
REMARK  status: ('A' for Active; 'I' for Inactive)
ROOT
ATOM      1  C   UNL d   1      -1.225  -0.995  -0.487  0.00  0.00     0.020 A 
ATOM      2  C1  UNL d   1      -1.418   0.386  -0.451  0.00  0.00     0.020 A 
ATOM      3  C2  UNL d   1      -0.370   1.227  -0.070  0.00  0.00     0.034 A 
ATOM      4  C3  UNL d   1       0.875   0.689   0.275  0.00  0.00     0.017 A 
ATOM      5  C4  UNL d   1       1.067  -0.697   0.238  0.00  0.00     0.017 A 
ATOM      6  C5  UNL d   1       0.014  -1.535  -0.144  0.00  0.00     0.034 A 
ATOM      7 Cl   UNL d   1       2.575  -1.435   0.649  0.00  0.00    -0.070 Cl
ATOM      8 Cl1  UNL d   1       2.126   1.788   0.735  0.00  0.00    -0.070 Cl
ENDROOT
TORSDOF 0
ENDMDL
