MODEL 1
REMARK minimizedAffinity -2.04849195
REMARK minimizedRMSD -1
REMARK  0 active torsions:
REMARK  status: ('A' for Active; 'I' for Inactive)
ROOT
ATOM      1  C   UNL d   1      -3.778  -0.299   1.566  0.00  0.00     0.020 A 
ATOM      2  C1  UNL d   1      -4.159   0.856   0.884  0.00  0.00     0.020 A 
ATOM      3  C2  UNL d   1      -3.245   1.512   0.057  0.00  0.00     0.034 A 
ATOM      4  C3  UNL d   1      -1.945   1.013  -0.091  0.00  0.00     0.017 A 
ATOM      5  C4  UNL d   1      -1.564  -0.146   0.594  0.00  0.00     0.017 A 
ATOM      6  C5  UNL d   1      -2.483  -0.799   1.421  0.00  0.00     0.034 A 
ATOM      7 Cl   UNL d   1       0.021  -0.822   0.462  0.00  0.00    -0.070 Cl
ATOM      8 Cl1  UNL d   1      -0.868   1.875  -1.131  0.00  0.00    -0.070 Cl
ENDROOT
TORSDOF 0
ENDMDL
