MODEL 1
REMARK minimizedAffinity -5.17887115
REMARK minimizedRMSD -1
REMARK  0 active torsions:
REMARK  status: ('A' for Active; 'I' for Inactive)
ROOT
ATOM      1  C   UNL d   1       3.168  -1.159   0.682  0.00  0.00     0.020 A 
ATOM      2  C1  UNL d   1       3.931  -0.005   0.505  0.00  0.00     0.020 A 
ATOM      3  C2  UNL d   1       3.307   1.200   0.175  0.00  0.00     0.034 A 
ATOM      4  C3  UNL d   1       1.917   1.254   0.021  0.00  0.00     0.017 A 
ATOM      5  C4  UNL d   1       1.152   0.095   0.200  0.00  0.00     0.017 A 
ATOM      6  C5  UNL d   1       1.782  -1.109   0.530  0.00  0.00     0.034 A 
ATOM      7 Cl   UNL d   1      -0.567   0.084   0.027  0.00  0.00    -0.070 Cl
ATOM      8 Cl1  UNL d   1       1.212   2.778  -0.386  0.00  0.00    -0.070 Cl
ENDROOT
TORSDOF 0
ENDMDL
