MODEL 1
REMARK minimizedAffinity 13.1121607
REMARK minimizedRMSD -1
REMARK  2 active torsions:
REMARK  status: ('A' for Active; 'I' for Inactive)
REMARK    1  A    between atoms: C1_2  and  C2_3 
REMARK    2  A    between atoms: C2_3  and  C3_4 
ROOT
ATOM      1  C3  UNL d   1      -0.837  -0.620  -1.758  0.00  0.00    -0.075 A 
ATOM      2  C4  UNL d   1      -2.004  -1.392  -1.850  0.00  0.00     0.002 A 
ATOM      3  C5  UNL d   1      -3.229  -0.877  -1.424  0.00  0.00     0.002 A 
ATOM      4  C6  UNL d   1      -3.301   0.409  -0.893  0.00  0.00    -0.004 A 
ATOM      5  C7  UNL d   1      -2.145   1.178  -0.782  0.00  0.00     0.002 A 
ATOM      6  C8  UNL d   1      -0.919   0.667  -1.211  0.00  0.00     0.002 A 
ENDROOT
BRANCH   1   7
ATOM      7  C2  UNL d   1       0.486  -1.161  -2.245  0.00  0.00     0.056 C 
BRANCH   7   8
ATOM      8  C1  UNL d   1       1.250  -1.976  -1.196  0.00  0.00     0.007 C 
ATOM      9  C   UNL d   1       2.436  -1.228  -0.600  0.00  0.00     0.009 C 
ENDBRANCH   7   8
ENDBRANCH   1   7
TORSDOF 2
ENDMDL
