MODEL 1
REMARK minimizedAffinity 11.4913349
REMARK minimizedRMSD -1
REMARK  2 active torsions:
REMARK  status: ('A' for Active; 'I' for Inactive)
REMARK    1  A    between atoms: C1_2  and  C2_3 
REMARK    2  A    between atoms: C2_3  and  C3_4 
ROOT
ATOM      1  C3  UNL d   1       3.619  -2.700   0.194  0.00  0.00    -0.075 A 
ATOM      2  C4  UNL d   1       3.955  -4.062   0.194  0.00  0.00     0.002 A 
ATOM      3  C5  UNL d   1       5.065  -4.517  -0.518  0.00  0.00     0.002 A 
ATOM      4  C6  UNL d   1       5.845  -3.621  -1.246  0.00  0.00    -0.004 A 
ATOM      5  C7  UNL d   1       5.511  -2.269  -1.266  0.00  0.00     0.002 A 
ATOM      6  C8  UNL d   1       4.404  -1.810  -0.551  0.00  0.00     0.002 A 
ENDROOT
BRANCH   1   7
ATOM      7  C2  UNL d   1       2.437  -2.196   0.987  0.00  0.00     0.056 C 
BRANCH   7   8
ATOM      8  C1  UNL d   1       2.305  -2.826   2.378  0.00  0.00     0.007 C 
ATOM      9  C   UNL d   1       1.987  -1.811   3.469  0.00  0.00     0.009 C 
ENDBRANCH   7   8
ENDBRANCH   1   7
TORSDOF 2
ENDMDL
