MODEL 1
REMARK minimizedAffinity 3.30550408
REMARK minimizedRMSD -1
REMARK  2 active torsions:
REMARK  status: ('A' for Active; 'I' for Inactive)
REMARK    1  A    between atoms: C1_2  and  C2_3 
REMARK    2  A    between atoms: C2_3  and  C3_4 
ROOT
ATOM      1  C3  UNL d   1      -5.097  -2.000   5.603  0.00  0.00    -0.075 A 
ATOM      2  C4  UNL d   1      -5.998  -3.000   5.998  0.00  0.00     0.002 A 
ATOM      3  C5  UNL d   1      -5.690  -4.347   5.805  0.00  0.00     0.002 A 
ATOM      4  C6  UNL d   1      -4.484  -4.711   5.209  0.00  0.00    -0.004 A 
ATOM      5  C7  UNL d   1      -3.589  -3.725   4.798  0.00  0.00     0.002 A 
ATOM      6  C8  UNL d   1      -3.893  -2.377   4.993  0.00  0.00     0.002 A 
ENDROOT
BRANCH   1   7
ATOM      7  C2  UNL d   1      -5.412  -0.542   5.835  0.00  0.00     0.056 C 
BRANCH   7   8
ATOM      8  C1  UNL d   1      -5.699   0.246   4.553  0.00  0.00     0.007 C 
ATOM      9  C   UNL d   1      -5.999  -0.646   3.355  0.00  0.00     0.009 C 
ENDBRANCH   7   8
ENDBRANCH   1   7
TORSDOF 2
ENDMDL
