MODEL 1
REMARK minimizedAffinity 3.00370336
REMARK minimizedRMSD -1
REMARK  0 active torsions:
REMARK  status: ('A' for Active; 'I' for Inactive)
ROOT
ATOM      1  C   UNL d   1       1.224  -0.717  -0.438  0.00  0.00    -0.002 A 
ATOM      2  C1  UNL d   1       1.907  -0.407  -1.605  0.00  0.00     0.010 A 
ATOM      3  C2  UNL d   1       2.151   0.922  -1.954  0.00  0.00     0.041 A 
ATOM      4  C3  UNL d   1       1.695   1.946  -1.100  0.00  0.00    -0.075 A 
ATOM      5  S   UNL d   1       1.880   3.645  -1.322  0.00  0.00     0.015 SA
ATOM      6  C4  UNL d   1       1.059   4.000   0.128  0.00  0.00     0.022 A 
ATOM      7  C5  UNL d   1       0.646   2.862   0.779  0.00  0.00     0.026 A 
ATOM      8  C6  UNL d   1       1.006   1.659   0.082  0.00  0.00    -0.082 A 
ATOM      9  C7  UNL d   1       0.773   0.301   0.407  0.00  0.00     0.045 A 
ENDROOT
TORSDOF 0
ENDMDL
