MODEL 1
REMARK minimizedAffinity 6.71356726
REMARK minimizedRMSD -1
REMARK  0 active torsions:
REMARK  status: ('A' for Active; 'I' for Inactive)
ROOT
ATOM      1  C   UNL d   1       1.119   2.474  -1.840  0.00  0.00    -0.002 A 
ATOM      2  C1  UNL d   1       0.266   2.200  -0.780  0.00  0.00     0.010 A 
ATOM      3  C2  UNL d   1       0.580   1.200   0.143  0.00  0.00     0.041 A 
ATOM      4  C3  UNL d   1       1.777   0.475  -0.018  0.00  0.00    -0.075 A 
ATOM      5  S   UNL d   1       2.367  -0.794   0.990  0.00  0.00     0.015 SA
ATOM      6  C4  UNL d   1       3.765  -1.001   0.037  0.00  0.00     0.022 A 
ATOM      7  C5  UNL d   1       3.797  -0.132  -1.028  0.00  0.00     0.026 A 
ATOM      8  C6  UNL d   1       2.652   0.733  -1.077  0.00  0.00    -0.082 A 
ATOM      9  C7  UNL d   1       2.305   1.752  -1.996  0.00  0.00     0.045 A 
ENDROOT
TORSDOF 0
ENDMDL
