MODEL 1
REMARK minimizedAffinity -2.48167014
REMARK minimizedRMSD -1
REMARK  0 active torsions:
REMARK  status: ('A' for Active; 'I' for Inactive)
ROOT
ATOM      1  C   UNL d   1       0.961   0.184  -0.466  0.00  0.00    -0.002 A 
ATOM      2  C1  UNL d   1       1.442   0.659  -1.679  0.00  0.00     0.010 A 
ATOM      3  C2  UNL d   1       1.632   2.027  -1.881  0.00  0.00     0.041 A 
ATOM      4  C3  UNL d   1       1.329   2.919  -0.833  0.00  0.00    -0.075 A 
ATOM      5  S   UNL d   1       1.484   4.636  -0.853  0.00  0.00     0.015 SA
ATOM      6  C4  UNL d   1       0.917   4.781   0.747  0.00  0.00     0.022 A 
ATOM      7  C5  UNL d   1       0.612   3.559   1.298  0.00  0.00     0.026 A 
ATOM      8  C6  UNL d   1       0.845   2.466   0.397  0.00  0.00    -0.082 A 
ATOM      9  C7  UNL d   1       0.662   1.073   0.570  0.00  0.00     0.045 A 
ENDROOT
TORSDOF 0
ENDMDL
