MODEL 1
REMARK minimizedAffinity 3.75279713
REMARK minimizedRMSD -1
REMARK  0 active torsions:
REMARK  status: ('A' for Active; 'I' for Inactive)
ROOT
ATOM      1  C   UNL d   1       1.531  -0.429   0.597  0.00  0.00    -0.002 A 
ATOM      2  C1  UNL d   1       1.109  -0.859  -0.653  0.00  0.00     0.010 A 
ATOM      3  C2  UNL d   1       0.833   0.062  -1.665  0.00  0.00     0.041 A 
ATOM      4  C3  UNL d   1       0.990   1.436  -1.398  0.00  0.00    -0.075 A 
ATOM      5  S   UNL d   1       0.711   2.745  -2.484  0.00  0.00     0.015 SA
ATOM      6  C4  UNL d   1       1.145   3.906  -1.314  0.00  0.00     0.022 A 
ATOM      7  C5  UNL d   1       1.497   3.327  -0.118  0.00  0.00     0.026 A 
ATOM      8  C6  UNL d   1       1.414   1.894  -0.147  0.00  0.00    -0.082 A 
ATOM      9  C7  UNL d   1       1.685   0.935   0.859  0.00  0.00     0.045 A 
ENDROOT
TORSDOF 0
ENDMDL
