MODEL 1
REMARK minimizedAffinity 0.284257352
REMARK minimizedRMSD -1
REMARK  0 active torsions:
REMARK  status: ('A' for Active; 'I' for Inactive)
ROOT
ATOM      1  C   UNL d   1       1.027  -0.001  -1.307  0.00  0.00    -0.002 A 
ATOM      2  C1  UNL d   1       0.999   0.044   0.079  0.00  0.00     0.010 A 
ATOM      3  C2  UNL d   1       1.146   1.257   0.754  0.00  0.00     0.041 A 
ATOM      4  C3  UNL d   1       1.321   2.437   0.004  0.00  0.00    -0.075 A 
ATOM      5  S   UNL d   1       1.520   4.037   0.615  0.00  0.00     0.015 SA
ATOM      6  C4  UNL d   1       1.645   4.699  -0.950  0.00  0.00     0.022 A 
ATOM      7  C5  UNL d   1       1.541   3.737  -1.927  0.00  0.00     0.026 A 
ATOM      8  C6  UNL d   1       1.351   2.418  -1.393  0.00  0.00    -0.082 A 
ATOM      9  C7  UNL d   1       1.201   1.172  -2.048  0.00  0.00     0.045 A 
ENDROOT
TORSDOF 0
ENDMDL
