MODEL 1
REMARK minimizedAffinity 0.674839199
REMARK minimizedRMSD -1
REMARK  0 active torsions:
REMARK  status: ('A' for Active; 'I' for Inactive)
ROOT
ATOM      1  C   UNL d   1       1.082   0.858  -1.556  0.00  0.00    -0.002 A 
ATOM      2  C1  UNL d   1       0.946   0.565  -0.207  0.00  0.00     0.010 A 
ATOM      3  C2  UNL d   1       1.081   1.569   0.754  0.00  0.00     0.041 A 
ATOM      4  C3  UNL d   1       1.355   2.885   0.332  0.00  0.00    -0.075 A 
ATOM      5  S   UNL d   1       1.560   4.276   1.330  0.00  0.00     0.015 SA
ATOM      6  C4  UNL d   1       1.832   5.291  -0.012  0.00  0.00     0.022 A 
ATOM      7  C5  UNL d   1       1.772   4.602  -1.200  0.00  0.00     0.026 A 
ATOM      8  C6  UNL d   1       1.496   3.204  -1.022  0.00  0.00    -0.082 A 
ATOM      9  C7  UNL d   1       1.354   2.164  -1.972  0.00  0.00     0.045 A 
ENDROOT
TORSDOF 0
ENDMDL
