MODEL 1
REMARK minimizedAffinity 11.2990723
REMARK minimizedRMSD -1
REMARK  0 active torsions:
REMARK  status: ('A' for Active; 'I' for Inactive)
ROOT
ATOM      1  C   UNL d   1       0.417   3.796  -2.180  0.00  0.00    -0.002 A 
ATOM      2  C1  UNL d   1       0.838   4.160  -0.908  0.00  0.00     0.010 A 
ATOM      3  C2  UNL d   1       1.315   3.198  -0.016  0.00  0.00     0.041 A 
ATOM      4  C3  UNL d   1       1.366   1.851  -0.428  0.00  0.00    -0.075 A 
ATOM      5  S   UNL d   1       1.914   0.502   0.494  0.00  0.00     0.015 SA
ATOM      6  C4  UNL d   1       1.604  -0.589  -0.779  0.00  0.00     0.022 A 
ATOM      7  C5  UNL d   1       1.094   0.044  -1.887  0.00  0.00     0.026 A 
ATOM      8  C6  UNL d   1       0.949   1.461  -1.704  0.00  0.00    -0.082 A 
ATOM      9  C7  UNL d   1       0.469   2.460  -2.585  0.00  0.00     0.045 A 
ENDROOT
TORSDOF 0
ENDMDL
