MODEL 1
REMARK minimizedAffinity 7.52725935
REMARK minimizedRMSD -1
REMARK  0 active torsions:
REMARK  status: ('A' for Active; 'I' for Inactive)
ROOT
ATOM      1  C   UNL d   1       1.581   5.033   0.957  0.00  0.00    -0.002 A 
ATOM      2  C1  UNL d   1       1.788   4.154   2.011  0.00  0.00     0.010 A 
ATOM      3  C2  UNL d   1       1.905   2.782   1.779  0.00  0.00     0.041 A 
ATOM      4  C3  UNL d   1       1.812   2.304   0.457  0.00  0.00    -0.075 A 
ATOM      5  S   UNL d   1       1.927   0.665  -0.067  0.00  0.00     0.015 SA
ATOM      6  C4  UNL d   1       1.704   1.094  -1.702  0.00  0.00     0.022 A 
ATOM      7  C5  UNL d   1       1.545   2.450  -1.862  0.00  0.00     0.026 A 
ATOM      8  C6  UNL d   1       1.605   3.170  -0.621  0.00  0.00    -0.082 A 
ATOM      9  C7  UNL d   1       1.489   4.555  -0.353  0.00  0.00     0.045 A 
ENDROOT
TORSDOF 0
ENDMDL
