MODEL 1
REMARK minimizedAffinity 8.20910931
REMARK minimizedRMSD -1
REMARK  0 active torsions:
REMARK  status: ('A' for Active; 'I' for Inactive)
ROOT
ATOM      1  C   UNL d   1       1.233  -0.885  -0.360  0.00  0.00    -0.002 A 
ATOM      2  C1  UNL d   1       1.802  -0.221   0.717  0.00  0.00     0.010 A 
ATOM      3  C2  UNL d   1       2.019   1.157   0.667  0.00  0.00     0.041 A 
ATOM      4  C3  UNL d   1       1.649   1.864  -0.494  0.00  0.00    -0.075 A 
ATOM      5  S   UNL d   1       1.819   3.556  -0.780  0.00  0.00     0.015 SA
ATOM      6  C4  UNL d   1       1.139   3.437  -2.338  0.00  0.00     0.022 A 
ATOM      7  C5  UNL d   1       0.785   2.145  -2.649  0.00  0.00     0.026 A 
ATOM      8  C6  UNL d   1       1.073   1.218  -1.591  0.00  0.00    -0.082 A 
ATOM      9  C7  UNL d   1       0.867  -0.181  -1.510  0.00  0.00     0.045 A 
ENDROOT
TORSDOF 0
ENDMDL
