MODEL 1
REMARK minimizedAffinity -0.0290407483
REMARK minimizedRMSD -1
REMARK  0 active torsions:
REMARK  status: ('A' for Active; 'I' for Inactive)
ROOT
ATOM      1  C   UNL d   1       0.997   0.029   0.917  0.00  0.00    -0.002 A 
ATOM      2  C1  UNL d   1       0.835  -0.650  -0.283  0.00  0.00     0.010 A 
ATOM      3  C2  UNL d   1       0.850   0.040  -1.497  0.00  0.00     0.041 A 
ATOM      4  C3  UNL d   1       1.035   1.437  -1.485  0.00  0.00    -0.075 A 
ATOM      5  S   UNL d   1       1.090   2.490  -2.849  0.00  0.00     0.015 SA
ATOM      6  C4  UNL d   1       1.331   3.865  -1.871  0.00  0.00     0.022 A 
ATOM      7  C5  UNL d   1       1.371   3.547  -0.534  0.00  0.00     0.026 A 
ATOM      8  C6  UNL d   1       1.202   2.142  -0.290  0.00  0.00    -0.082 A 
ATOM      9  C7  UNL d   1       1.180   1.414   0.925  0.00  0.00     0.045 A 
ENDROOT
TORSDOF 0
ENDMDL
