MODEL 1
REMARK minimizedAffinity 5.90141249
REMARK minimizedRMSD -1
REMARK  0 active torsions:
REMARK  status: ('A' for Active; 'I' for Inactive)
ROOT
ATOM      1  C   UNL d   1       0.988   1.430  -0.953  0.00  0.00    -0.002 A 
ATOM      2  C1  UNL d   1       1.738   1.121   0.173  0.00  0.00     0.010 A 
ATOM      3  C2  UNL d   1       1.899  -0.206   0.577  0.00  0.00     0.041 A 
ATOM      4  C3  UNL d   1       1.289  -1.227  -0.178  0.00  0.00    -0.075 A 
ATOM      5  S   UNL d   1       1.350  -2.923   0.127  0.00  0.00     0.015 SA
ATOM      6  C4  UNL d   1       0.382  -3.277  -1.231  0.00  0.00     0.022 A 
ATOM      7  C5  UNL d   1       0.012  -2.141  -1.911  0.00  0.00     0.026 A 
ATOM      8  C6  UNL d   1       0.529  -0.941  -1.316  0.00  0.00    -0.082 A 
ATOM      9  C7  UNL d   1       0.384   0.414  -1.699  0.00  0.00     0.045 A 
ENDROOT
TORSDOF 0
ENDMDL
