MODEL 1
REMARK minimizedAffinity -1.19972587
REMARK minimizedRMSD -1
REMARK  0 active torsions:
REMARK  status: ('A' for Active; 'I' for Inactive)
ROOT
ATOM      1  C   UNL d   1       1.501   4.928  -1.775  0.00  0.00    -0.002 A 
ATOM      2  C1  UNL d   1       1.691   5.185  -0.424  0.00  0.00     0.010 A 
ATOM      3  C2  UNL d   1       1.589   4.158   0.516  0.00  0.00     0.041 A 
ATOM      4  C3  UNL d   1       1.292   2.855   0.071  0.00  0.00    -0.075 A 
ATOM      5  S   UNL d   1       1.118   1.440   1.041  0.00  0.00     0.015 SA
ATOM      6  C4  UNL d   1       0.789   0.460  -0.314  0.00  0.00     0.022 A 
ATOM      7  C5  UNL d   1       0.806   1.179  -1.486  0.00  0.00     0.026 A 
ATOM      8  C6  UNL d   1       1.097   2.570  -1.283  0.00  0.00    -0.082 A 
ATOM      9  C7  UNL d   1       1.206   3.634  -2.212  0.00  0.00     0.045 A 
ENDROOT
TORSDOF 0
ENDMDL
