MODEL 1
REMARK minimizedAffinity 1.99196506
REMARK minimizedRMSD -1
REMARK  0 active torsions:
REMARK  status: ('A' for Active; 'I' for Inactive)
ROOT
ATOM      1  C   UNL d   1       1.624   1.225  -0.154  0.00  0.00    -0.002 A 
ATOM      2  C1  UNL d   1       1.754   1.516  -1.505  0.00  0.00     0.010 A 
ATOM      3  C2  UNL d   1       1.840   2.840  -1.941  0.00  0.00     0.041 A 
ATOM      4  C3  UNL d   1       1.796   3.876  -0.988  0.00  0.00    -0.075 A 
ATOM      5  S   UNL d   1       1.885   5.571  -1.289  0.00  0.00     0.015 SA
ATOM      6  C4  UNL d   1       1.754   5.949   0.367  0.00  0.00     0.022 A 
ATOM      7  C5  UNL d   1       1.643   4.821   1.146  0.00  0.00     0.026 A 
ATOM      8  C6  UNL d   1       1.666   3.608   0.378  0.00  0.00    -0.082 A 
ATOM      9  C7  UNL d   1       1.580   2.256   0.789  0.00  0.00     0.045 A 
ENDROOT
TORSDOF 0
ENDMDL
