MODEL 1
REMARK minimizedAffinity 2.11129761
REMARK minimizedRMSD -1
REMARK  0 active torsions:
REMARK  status: ('A' for Active; 'I' for Inactive)
ROOT
ATOM      1  C   UNL d   1       1.124  -1.440   1.258  0.00  0.00     0.124 A 
ATOM      2  C1  UNL d   1       1.536  -1.243  -0.053  0.00  0.00     0.062 A 
ATOM      3  C2  UNL d   1       0.797  -0.426  -0.903  0.00  0.00     0.162 A 
ATOM      4  C3  UNL d   1      -0.361   0.202  -0.445  0.00  0.00    -0.034 A 
ATOM      5  C4  UNL d   1      -0.769  -0.000   0.874  0.00  0.00     0.162 A 
ATOM      6  C5  UNL d   1      -0.027  -0.818   1.721  0.00  0.00     0.062 A 
ATOM      7  F   UNL d   1      -0.426  -1.007   2.987  0.00  0.00    -0.097 F 
ATOM      8  F1  UNL d   1      -1.877   0.589   1.348  0.00  0.00    -0.096 F 
ATOM      9  I   UNL d   1      -1.469   1.425  -1.714  0.00  0.00    -0.060 I 
ATOM     10  F2  UNL d   1       1.218  -0.255  -2.165  0.00  0.00    -0.096 F 
ATOM     11  F3  UNL d   1       2.647  -1.843  -0.502  0.00  0.00    -0.097 F 
ATOM     12  F4  UNL d   1       1.837  -2.227   2.074  0.00  0.00    -0.092 F 
ENDROOT
TORSDOF 0
ENDMDL
