MODEL 1
REMARK minimizedAffinity -4.48865414
REMARK minimizedRMSD -1
REMARK  0 active torsions:
REMARK  status: ('A' for Active; 'I' for Inactive)
ROOT
ATOM      1  C   UNL d   1       0.680  -1.474   1.811  0.00  0.00     0.124 A 
ATOM      2  C1  UNL d   1       1.143  -1.328   0.511  0.00  0.00     0.062 A 
ATOM      3  C2  UNL d   1       0.520  -0.437  -0.358  0.00  0.00     0.162 A 
ATOM      4  C3  UNL d   1      -0.574   0.315   0.070  0.00  0.00    -0.034 A 
ATOM      5  C4  UNL d   1      -1.035   0.162   1.379  0.00  0.00     0.162 A 
ATOM      6  C5  UNL d   1      -0.409  -0.730   2.243  0.00  0.00     0.062 A 
ATOM      7  F   UNL d   1      -0.858  -0.870   3.499  0.00  0.00    -0.097 F 
ATOM      8  F1  UNL d   1      -2.084   0.869   1.823  0.00  0.00    -0.096 F 
ATOM      9  I   UNL d   1      -1.508   1.649  -1.226  0.00  0.00    -0.060 I 
ATOM     10  F2  UNL d   1       0.990  -0.315  -1.609  0.00  0.00    -0.096 F 
ATOM     11  F3  UNL d   1       2.194  -2.047   0.090  0.00  0.00    -0.097 F 
ATOM     12  F4  UNL d   1       1.280  -2.333   2.645  0.00  0.00    -0.092 F 
ENDROOT
TORSDOF 0
ENDMDL
