MODEL 1
REMARK minimizedAffinity 2.65605903
REMARK minimizedRMSD -1
REMARK  0 active torsions:
REMARK  status: ('A' for Active; 'I' for Inactive)
ROOT
ATOM      1  C   UNL d   1       0.743  -1.326   1.670  0.00  0.00     0.124 A 
ATOM      2  C1  UNL d   1      -0.431  -0.614   1.875  0.00  0.00     0.062 A 
ATOM      3  C2  UNL d   1      -0.897   0.263   0.899  0.00  0.00     0.162 A 
ATOM      4  C3  UNL d   1      -0.189   0.432  -0.291  0.00  0.00    -0.034 A 
ATOM      5  C4  UNL d   1       0.992  -0.286  -0.489  0.00  0.00     0.162 A 
ATOM      6  C5  UNL d   1       1.453  -1.161   0.489  0.00  0.00     0.062 A 
ATOM      7  F   UNL d   1       2.587  -1.848   0.290  0.00  0.00    -0.097 F 
ATOM      8  F1  UNL d   1       1.697  -0.147  -1.621  0.00  0.00    -0.096 F 
ATOM      9  I   UNL d   1      -0.882   1.743  -1.752  0.00  0.00    -0.060 I 
ATOM     10  F2  UNL d   1      -2.034   0.938   1.123  0.00  0.00    -0.096 F 
ATOM     11  F3  UNL d   1      -1.119  -0.770   3.015  0.00  0.00    -0.097 F 
ATOM     12  F4  UNL d   1       1.189  -2.168   2.611  0.00  0.00    -0.092 F 
ENDROOT
TORSDOF 0
ENDMDL
