MODEL 1
REMARK minimizedAffinity -2.48285151
REMARK minimizedRMSD -1
REMARK  0 active torsions:
REMARK  status: ('A' for Active; 'I' for Inactive)
ROOT
ATOM      1  C   UNL d   1       0.827  -1.305   1.692  0.00  0.00     0.124 A 
ATOM      2  C1  UNL d   1       1.319  -0.974   0.437  0.00  0.00     0.062 A 
ATOM      3  C2  UNL d   1       0.657  -0.034  -0.348  0.00  0.00     0.162 A 
ATOM      4  C3  UNL d   1      -0.503   0.583   0.120  0.00  0.00    -0.034 A 
ATOM      5  C4  UNL d   1      -0.992   0.244   1.382  0.00  0.00     0.162 A 
ATOM      6  C5  UNL d   1      -0.327  -0.696   2.163  0.00  0.00     0.062 A 
ATOM      7  F   UNL d   1      -0.804  -1.015   3.376  0.00  0.00    -0.097 F 
ATOM      8  F1  UNL d   1      -2.105   0.817   1.863  0.00  0.00    -0.096 F 
ATOM      9  I   UNL d   1      -1.495   1.988  -1.051  0.00  0.00    -0.060 I 
ATOM     10  F2  UNL d   1       1.155   0.267  -1.557  0.00  0.00    -0.096 F 
ATOM     11  F3  UNL d   1       2.433  -1.561  -0.021  0.00  0.00    -0.097 F 
ATOM     12  F4  UNL d   1       1.465  -2.210   2.445  0.00  0.00    -0.092 F 
ENDROOT
TORSDOF 0
ENDMDL
