MODEL 1
REMARK minimizedAffinity 1.94633269
REMARK minimizedRMSD -1
REMARK  0 active torsions:
REMARK  status: ('A' for Active; 'I' for Inactive)
ROOT
ATOM      1  C   UNL d   1      -0.062  -0.313   0.895  0.00  0.00     0.124 A 
ATOM      2  C1  UNL d   1       0.576  -0.350  -0.337  0.00  0.00     0.062 A 
ATOM      3  C2  UNL d   1       0.052   0.353  -1.419  0.00  0.00     0.162 A 
ATOM      4  C3  UNL d   1      -1.117   1.100  -1.273  0.00  0.00    -0.034 A 
ATOM      5  C4  UNL d   1      -1.754   1.132  -0.031  0.00  0.00     0.162 A 
ATOM      6  C5  UNL d   1      -1.226   0.428   1.046  0.00  0.00     0.062 A 
ATOM      7  F   UNL d   1      -1.845   0.465   2.236  0.00  0.00    -0.097 F 
ATOM      8  F1  UNL d   1      -2.879   1.840   0.144  0.00  0.00    -0.096 F 
ATOM      9  I   UNL d   1      -1.903   2.152  -2.887  0.00  0.00    -0.060 I 
ATOM     10  F2  UNL d   1       0.690   0.299  -2.597  0.00  0.00    -0.096 F 
ATOM     11  F3  UNL d   1       1.700  -1.065  -0.487  0.00  0.00    -0.097 F 
ATOM     12  F4  UNL d   1       0.443  -0.990   1.933  0.00  0.00    -0.092 F 
ENDROOT
TORSDOF 0
ENDMDL
