MODEL 1
REMARK minimizedAffinity 4.33260202
REMARK minimizedRMSD -1
REMARK  0 active torsions:
REMARK  status: ('A' for Active; 'I' for Inactive)
ROOT
ATOM      1  C   UNL d   1       0.864  -1.425   1.723  0.00  0.00     0.124 A 
ATOM      2  C1  UNL d   1       1.637  -1.013   0.646  0.00  0.00     0.062 A 
ATOM      3  C2  UNL d   1       1.147  -0.064  -0.246  0.00  0.00     0.162 A 
ATOM      4  C3  UNL d   1      -0.124   0.482  -0.064  0.00  0.00    -0.034 A 
ATOM      5  C4  UNL d   1      -0.896   0.063   1.020  0.00  0.00     0.162 A 
ATOM      6  C5  UNL d   1      -0.402  -0.886   1.909  0.00  0.00     0.062 A 
ATOM      7  F   UNL d   1      -1.150  -1.282   2.949  0.00  0.00    -0.097 F 
ATOM      8  F1  UNL d   1      -2.122   0.567   1.225  0.00  0.00    -0.096 F 
ATOM      9  I   UNL d   1      -0.861   1.902  -1.396  0.00  0.00    -0.060 I 
ATOM     10  F2  UNL d   1       1.916   0.315  -1.278  0.00  0.00    -0.096 F 
ATOM     11  F3  UNL d   1       2.860  -1.532   0.464  0.00  0.00    -0.097 F 
ATOM     12  F4  UNL d   1       1.338  -2.339   2.579  0.00  0.00    -0.092 F 
ENDROOT
TORSDOF 0
ENDMDL
