MODEL 1
REMARK minimizedAffinity -2.67920208
REMARK minimizedRMSD -1
REMARK  0 active torsions:
REMARK  status: ('A' for Active; 'I' for Inactive)
ROOT
ATOM      1  C   UNL d   1       0.397  -0.719   1.182  0.00  0.00     0.124 A 
ATOM      2  C1  UNL d   1      -0.829  -0.095   1.360  0.00  0.00     0.062 A 
ATOM      3  C2  UNL d   1      -1.455   0.538   0.290  0.00  0.00     0.162 A 
ATOM      4  C3  UNL d   1      -0.855   0.548  -0.970  0.00  0.00    -0.034 A 
ATOM      5  C4  UNL d   1       0.379  -0.081  -1.141  0.00  0.00     0.162 A 
ATOM      6  C5  UNL d   1       1.000  -0.712  -0.068  0.00  0.00     0.062 A 
ATOM      7  F   UNL d   1       2.185  -1.315  -0.243  0.00  0.00    -0.097 F 
ATOM      8  F1  UNL d   1       0.983  -0.090  -2.339  0.00  0.00    -0.096 F 
ATOM      9  I   UNL d   1      -1.787   1.493  -2.573  0.00  0.00    -0.060 I 
ATOM     10  F2  UNL d   1      -2.640   1.134   0.491  0.00  0.00    -0.096 F 
ATOM     11  F3  UNL d   1      -1.413  -0.100   2.567  0.00  0.00    -0.097 F 
ATOM     12  F4  UNL d   1       0.997  -1.327   2.213  0.00  0.00    -0.092 F 
ENDROOT
TORSDOF 0
ENDMDL
