MODEL 1
REMARK minimizedAffinity -2.19515228
REMARK minimizedRMSD -1
REMARK  0 active torsions:
REMARK  status: ('A' for Active; 'I' for Inactive)
ROOT
ATOM      1  C   UNL d   1       0.855  -1.232   1.860  0.00  0.00     0.124 A 
ATOM      2  C1  UNL d   1      -0.392  -0.638   1.999  0.00  0.00     0.062 A 
ATOM      3  C2  UNL d   1      -0.898   0.173   0.988  0.00  0.00     0.162 A 
ATOM      4  C3  UNL d   1      -0.157   0.394  -0.173  0.00  0.00    -0.034 A 
ATOM      5  C4  UNL d   1       1.096  -0.205  -0.306  0.00  0.00     0.162 A 
ATOM      6  C5  UNL d   1       1.598  -1.015   0.708  0.00  0.00     0.062 A 
ATOM      7  F   UNL d   1       2.802  -1.588   0.572  0.00  0.00    -0.097 F 
ATOM      8  F1  UNL d   1       1.835  -0.014  -1.409  0.00  0.00    -0.096 F 
ATOM      9  I   UNL d   1      -0.911   1.607  -1.688  0.00  0.00    -0.060 I 
ATOM     10  F2  UNL d   1      -2.105   0.734   1.150  0.00  0.00    -0.096 F 
ATOM     11  F3  UNL d   1      -1.111  -0.845   3.112  0.00  0.00    -0.097 F 
ATOM     12  F4  UNL d   1       1.340  -2.011   2.835  0.00  0.00    -0.092 F 
ENDROOT
TORSDOF 0
ENDMDL
