MODEL 1
REMARK minimizedAffinity 0.844945371
REMARK minimizedRMSD -1
REMARK  0 active torsions:
REMARK  status: ('A' for Active; 'I' for Inactive)
ROOT
ATOM      1  C   UNL d   1      -2.022   1.808  -2.511  0.00  0.00     0.124 A 
ATOM      2  C1  UNL d   1      -1.371   0.622  -2.821  0.00  0.00     0.062 A 
ATOM      3  C2  UNL d   1      -0.545   0.011  -1.882  0.00  0.00     0.162 A 
ATOM      4  C3  UNL d   1      -0.366   0.584  -0.623  0.00  0.00    -0.034 A 
ATOM      5  C4  UNL d   1      -1.024   1.777  -0.319  0.00  0.00     0.162 A 
ATOM      6  C5  UNL d   1      -1.848   2.384  -1.260  0.00  0.00     0.062 A 
ATOM      7  F   UNL d   1      -2.477   3.530  -0.959  0.00  0.00    -0.097 F 
ATOM      8  F1  UNL d   1      -0.874   2.355   0.883  0.00  0.00    -0.096 F 
ATOM      9  I   UNL d   1       0.868  -0.327   0.784  0.00  0.00    -0.060 I 
ATOM     10  F2  UNL d   1       0.072  -1.134  -2.209  0.00  0.00    -0.096 F 
ATOM     11  F3  UNL d   1      -1.537   0.064  -4.028  0.00  0.00    -0.097 F 
ATOM     12  F4  UNL d   1      -2.816   2.394  -3.416  0.00  0.00    -0.092 F 
ENDROOT
TORSDOF 0
ENDMDL
