MODEL 1
REMARK minimizedAffinity -0.652174115
REMARK minimizedRMSD -1
REMARK  0 active torsions:
REMARK  status: ('A' for Active; 'I' for Inactive)
ROOT
ATOM      1  C   UNL d   1       1.106  -0.975   0.773  0.00  0.00     0.124 A 
ATOM      2  C1  UNL d   1       1.730  -0.730  -0.443  0.00  0.00     0.062 A 
ATOM      3  C2  UNL d   1       1.205   0.215  -1.321  0.00  0.00     0.162 A 
ATOM      4  C3  UNL d   1       0.051   0.922  -0.985  0.00  0.00    -0.034 A 
ATOM      5  C4  UNL d   1      -0.571   0.670   0.239  0.00  0.00     0.162 A 
ATOM      6  C5  UNL d   1      -0.043  -0.275   1.112  0.00  0.00     0.062 A 
ATOM      7  F   UNL d   1      -0.646  -0.511   2.287  0.00  0.00    -0.097 F 
ATOM      8  F1  UNL d   1      -1.682   1.332   0.593  0.00  0.00    -0.096 F 
ATOM      9  I   UNL d   1      -0.737   2.336  -2.295  0.00  0.00    -0.060 I 
ATOM     10  F2  UNL d   1       1.828   0.431  -2.489  0.00  0.00    -0.096 F 
ATOM     11  F3  UNL d   1       2.839  -1.406  -0.774  0.00  0.00    -0.097 F 
ATOM     12  F4  UNL d   1       1.613  -1.885   1.615  0.00  0.00    -0.092 F 
ENDROOT
TORSDOF 0
ENDMDL
