MODEL 1
REMARK minimizedAffinity -1.16619778
REMARK minimizedRMSD -1
REMARK  0 active torsions:
REMARK  status: ('A' for Active; 'I' for Inactive)
ROOT
ATOM      1  C   UNL d   1       0.789  -1.054   1.173  0.00  0.00     0.124 A 
ATOM      2  C1  UNL d   1      -0.403  -0.395   1.440  0.00  0.00     0.062 A 
ATOM      3  C2  UNL d   1      -1.075   0.277   0.423  0.00  0.00     0.162 A 
ATOM      4  C3  UNL d   1      -0.556   0.293  -0.872  0.00  0.00    -0.034 A 
ATOM      5  C4  UNL d   1       0.644  -0.371  -1.133  0.00  0.00     0.162 A 
ATOM      6  C5  UNL d   1       1.311  -1.041  -0.113  0.00  0.00     0.062 A 
ATOM      7  F   UNL d   1       2.463  -1.677  -0.373  0.00  0.00    -0.097 F 
ATOM      8  F1  UNL d   1       1.171  -0.375  -2.366  0.00  0.00    -0.096 F 
ATOM      9  I   UNL d   1      -1.557   1.297  -2.395  0.00  0.00    -0.060 I 
ATOM     10  F2  UNL d   1      -2.224   0.905   0.710  0.00  0.00    -0.096 F 
ATOM     11  F3  UNL d   1      -0.909  -0.405   2.682  0.00  0.00    -0.097 F 
ATOM     12  F4  UNL d   1       1.433  -1.699   2.154  0.00  0.00    -0.092 F 
ENDROOT
TORSDOF 0
ENDMDL
