MODEL 1
REMARK minimizedAffinity -3.7936883
REMARK minimizedRMSD -1
REMARK  0 active torsions:
REMARK  status: ('A' for Active; 'I' for Inactive)
ROOT
ATOM      1  C   UNL d   1       1.012  -1.486   2.200  0.00  0.00     0.124 A 
ATOM      2  C1  UNL d   1       1.627  -1.175   0.995  0.00  0.00     0.062 A 
ATOM      3  C2  UNL d   1       1.022  -0.287   0.110  0.00  0.00     0.162 A 
ATOM      4  C3  UNL d   1      -0.205   0.297   0.428  0.00  0.00    -0.034 A 
ATOM      5  C4  UNL d   1      -0.817  -0.022   1.641  0.00  0.00     0.162 A 
ATOM      6  C5  UNL d   1      -0.208  -0.910   2.522  0.00  0.00     0.062 A 
ATOM      7  F   UNL d   1      -0.803  -1.210   3.686  0.00  0.00    -0.097 F 
ATOM      8  F1  UNL d   1      -1.996   0.521   1.977  0.00  0.00    -0.096 F 
ATOM      9  I   UNL d   1      -1.112   1.625  -0.893  0.00  0.00    -0.060 I 
ATOM     10  F2  UNL d   1       1.638  -0.004  -1.047  0.00  0.00    -0.096 F 
ATOM     11  F3  UNL d   1       2.806  -1.731   0.682  0.00  0.00    -0.097 F 
ATOM     12  F4  UNL d   1       1.596  -2.342   3.050  0.00  0.00    -0.092 F 
ENDROOT
TORSDOF 0
ENDMDL
