MODEL 1
REMARK minimizedAffinity -0.228620902
REMARK minimizedRMSD -1
REMARK  0 active torsions:
REMARK  status: ('A' for Active; 'I' for Inactive)
ROOT
ATOM      1  C   UNL d   1       1.130  -1.344   1.954  0.00  0.00     0.124 A 
ATOM      2  C1  UNL d   1      -0.166  -0.864   2.082  0.00  0.00     0.062 A 
ATOM      3  C2  UNL d   1      -0.713  -0.052   1.092  0.00  0.00     0.162 A 
ATOM      4  C3  UNL d   1       0.036   0.284  -0.035  0.00  0.00    -0.034 A 
ATOM      5  C4  UNL d   1       1.339  -0.202  -0.157  0.00  0.00     0.162 A 
ATOM      6  C5  UNL d   1       1.881  -1.013   0.835  0.00  0.00     0.062 A 
ATOM      7  F   UNL d   1       3.133  -1.476   0.710  0.00  0.00    -0.097 F 
ATOM      8  F1  UNL d   1       2.087   0.102  -1.228  0.00  0.00    -0.096 F 
ATOM      9  I   UNL d   1      -0.778   1.497  -1.517  0.00  0.00    -0.060 I 
ATOM     10  F2  UNL d   1      -1.968   0.397   1.242  0.00  0.00    -0.096 F 
ATOM     11  F3  UNL d   1      -0.894  -1.182   3.162  0.00  0.00    -0.097 F 
ATOM     12  F4  UNL d   1       1.654  -2.125   2.908  0.00  0.00    -0.092 F 
ENDROOT
TORSDOF 0
ENDMDL
