MODEL 1
REMARK minimizedAffinity 3.42537642
REMARK minimizedRMSD -1
REMARK  0 active torsions:
REMARK  status: ('A' for Active; 'I' for Inactive)
ROOT
ATOM      1  C   UNL d   1       1.496  -0.791  -0.188  0.00  0.00     0.124 A 
ATOM      2  C1  UNL d   1       0.526  -0.287   0.668  0.00  0.00     0.062 A 
ATOM      3  C2  UNL d   1      -0.529   0.468   0.164  0.00  0.00     0.162 A 
ATOM      4  C3  UNL d   1      -0.620   0.724  -1.204  0.00  0.00    -0.034 A 
ATOM      5  C4  UNL d   1       0.360   0.215  -2.059  0.00  0.00     0.162 A 
ATOM      6  C5  UNL d   1       1.412  -0.539  -1.550  0.00  0.00     0.062 A 
ATOM      7  F   UNL d   1       2.348  -1.025  -2.378  0.00  0.00    -0.097 F 
ATOM      8  F1  UNL d   1       0.303   0.442  -3.379  0.00  0.00    -0.096 F 
ATOM      9  I   UNL d   1      -2.195   1.854  -1.962  0.00  0.00    -0.060 I 
ATOM     10  F2  UNL d   1      -1.451   0.942   1.014  0.00  0.00    -0.096 F 
ATOM     11  F3  UNL d   1       0.605  -0.528   1.985  0.00  0.00    -0.097 F 
ATOM     12  F4  UNL d   1       2.510  -1.517   0.300  0.00  0.00    -0.092 F 
ENDROOT
TORSDOF 0
ENDMDL
