MODEL 1
REMARK minimizedAffinity -0.969818473
REMARK minimizedRMSD -1
REMARK  0 active torsions:
REMARK  status: ('A' for Active; 'I' for Inactive)
ROOT
ATOM      1  C   UNL d   1       1.069  -1.498   2.102  0.00  0.00     0.124 A 
ATOM      2  C1  UNL d   1      -0.158  -0.885   2.318  0.00  0.00     0.062 A 
ATOM      3  C2  UNL d   1      -0.674  -0.001   1.374  0.00  0.00     0.162 A 
ATOM      4  C3  UNL d   1       0.036   0.274   0.206  0.00  0.00    -0.034 A 
ATOM      5  C4  UNL d   1       1.270  -0.345  -0.003  0.00  0.00     0.162 A 
ATOM      6  C5  UNL d   1       1.781  -1.228   0.942  0.00  0.00     0.062 A 
ATOM      7  F   UNL d   1       2.966  -1.820   0.732  0.00  0.00    -0.097 F 
ATOM      8  F1  UNL d   1       1.979  -0.103  -1.116  0.00  0.00    -0.096 F 
ATOM      9  I   UNL d   1      -0.732   1.596  -1.207  0.00  0.00    -0.060 I 
ATOM     10  F2  UNL d   1      -1.861   0.577   1.609  0.00  0.00    -0.096 F 
ATOM     11  F3  UNL d   1      -0.847  -1.144   3.438  0.00  0.00    -0.097 F 
ATOM     12  F4  UNL d   1       1.563  -2.348   3.012  0.00  0.00    -0.092 F 
ENDROOT
TORSDOF 0
ENDMDL
