MODEL 1
REMARK minimizedAffinity 23.1349621
REMARK minimizedRMSD -1
REMARK  0 active torsions:
REMARK  status: ('A' for Active; 'I' for Inactive)
ROOT
ATOM      1  C   UNL d   1      -2.251   1.072   0.378  0.00  0.00     0.124 A 
ATOM      2  C1  UNL d   1      -2.992   1.481  -0.723  0.00  0.00     0.062 A 
ATOM      3  C2  UNL d   1      -2.361   2.085  -1.806  0.00  0.00     0.162 A 
ATOM      4  C3  UNL d   1      -0.980   2.284  -1.795  0.00  0.00    -0.034 A 
ATOM      5  C4  UNL d   1      -0.242   1.871  -0.684  0.00  0.00     0.162 A 
ATOM      6  C5  UNL d   1      -0.877   1.267   0.396  0.00  0.00     0.062 A 
ATOM      7  F   UNL d   1      -0.160   0.873   1.458  0.00  0.00    -0.097 F 
ATOM      8  F1  UNL d   1       1.087   2.047  -0.641  0.00  0.00    -0.096 F 
ATOM      9  I   UNL d   1      -0.032   3.187  -3.413  0.00  0.00    -0.060 I 
ATOM     10  F2  UNL d   1      -3.101   2.470  -2.856  0.00  0.00    -0.096 F 
ATOM     11  F3  UNL d   1      -4.319   1.294  -0.742  0.00  0.00    -0.097 F 
ATOM     12  F4  UNL d   1      -2.861   0.491   1.419  0.00  0.00    -0.092 F 
ENDROOT
TORSDOF 0
ENDMDL
