MODEL 1
REMARK minimizedAffinity 5.28330278
REMARK minimizedRMSD -1
REMARK  1 active torsions:
REMARK  status: ('A' for Active; 'I' for Inactive)
REMARK    1  A    between atoms: C1_2  and  C2_3 
ROOT
ATOM      1  C2  UNL d   1       5.160  -3.809   4.868  0.00  0.00    -0.081 A 
ATOM      2  C3  UNL d   1       3.894  -4.339   4.593  0.00  0.00     0.006 A 
ATOM      3  C4  UNL d   1       3.148  -3.866   3.510  0.00  0.00     0.002 A 
ATOM      4  C5  UNL d   1       3.660  -2.863   2.680  0.00  0.00    -0.080 A 
ATOM      5  C6  UNL d   1       2.883  -2.369   1.497  0.00  0.00     0.076 C 
ATOM      6  C7  UNL d   1       4.918  -2.321   2.965  0.00  0.00     0.002 A 
ATOM      7  C8  UNL d   1       5.663  -2.793   4.048  0.00  0.00     0.006 A 
ENDROOT
BRANCH   1   8
ATOM      8  C1  UNL d   1       5.994  -4.361   5.996  0.00  0.00     0.054 C 
ATOM      9  C   UNL d   1       5.984  -5.883   5.998  0.00  0.00     0.018 C 
ENDBRANCH   1   8
TORSDOF 1
ENDMDL
