MODEL 1
REMARK minimizedAffinity 2.81372213
REMARK minimizedRMSD -1
REMARK  1 active torsions:
REMARK  status: ('A' for Active; 'I' for Inactive)
REMARK    1  A    between atoms: C1_2  and  C2_3 
ROOT
ATOM      1  C2  UNL d   1       5.916  -3.929   4.570  0.00  0.00    -0.081 A 
ATOM      2  C3  UNL d   1       5.958  -4.783   3.461  0.00  0.00     0.006 A 
ATOM      3  C4  UNL d   1       5.973  -4.260   2.165  0.00  0.00     0.002 A 
ATOM      4  C5  UNL d   1       5.954  -2.877   1.958  0.00  0.00    -0.080 A 
ATOM      5  C6  UNL d   1       6.000  -2.302   0.573  0.00  0.00     0.076 C 
ATOM      6  C7  UNL d   1       5.894  -2.025   3.065  0.00  0.00     0.002 A 
ATOM      7  C8  UNL d   1       5.879  -2.546   4.361  0.00  0.00     0.006 A 
ENDROOT
BRANCH   1   8
ATOM      8  C1  UNL d   1       5.966  -4.488   5.969  0.00  0.00     0.054 C 
ATOM      9  C   UNL d   1       5.522  -5.943   6.000  0.00  0.00     0.018 C 
ENDBRANCH   1   8
TORSDOF 1
ENDMDL
