MODEL 1
REMARK minimizedAffinity -1.14932752
REMARK minimizedRMSD -1
REMARK  1 active torsions:
REMARK  status: ('A' for Active; 'I' for Inactive)
REMARK    1  A    between atoms: C1_2  and  C2_3 
ROOT
ATOM      1  C2  UNL d   1       4.597  -4.499   3.970  0.00  0.00    -0.081 A 
ATOM      2  C3  UNL d   1       4.135  -3.179   4.040  0.00  0.00     0.006 A 
ATOM      3  C4  UNL d   1       4.595  -2.218   3.137  0.00  0.00     0.002 A 
ATOM      4  C5  UNL d   1       5.520  -2.562   2.145  0.00  0.00    -0.080 A 
ATOM      5  C6  UNL d   1       6.000  -1.547   1.150  0.00  0.00     0.076 C 
ATOM      6  C7  UNL d   1       5.995  -3.876   2.085  0.00  0.00     0.002 A 
ATOM      7  C8  UNL d   1       5.536  -4.837   2.988  0.00  0.00     0.006 A 
ENDROOT
BRANCH   1   8
ATOM      8  C1  UNL d   1       4.054  -5.552   4.901  0.00  0.00     0.054 C 
ATOM      9  C   UNL d   1       2.617  -5.912   4.550  0.00  0.00     0.018 C 
ENDBRANCH   1   8
TORSDOF 1
ENDMDL
