MODEL 1
REMARK minimizedAffinity -1.70552444
REMARK minimizedRMSD -1
REMARK  1 active torsions:
REMARK  status: ('A' for Active; 'I' for Inactive)
REMARK    1  A    between atoms: C1_2  and  C2_3 
ROOT
ATOM      1  C2  UNL d   1       5.859  -2.879   2.999  0.00  0.00    -0.081 A 
ATOM      2  C3  UNL d   1       5.998  -4.233   2.672  0.00  0.00     0.006 A 
ATOM      3  C4  UNL d   1       5.808  -5.219   3.644  0.00  0.00     0.002 A 
ATOM      4  C5  UNL d   1       5.469  -4.868   4.955  0.00  0.00    -0.080 A 
ATOM      5  C6  UNL d   1       5.232  -5.917   5.999  0.00  0.00     0.076 C 
ATOM      6  C7  UNL d   1       5.347  -3.514   5.285  0.00  0.00     0.002 A 
ATOM      7  C8  UNL d   1       5.537  -2.528   4.315  0.00  0.00     0.006 A 
ENDROOT
BRANCH   1   8
ATOM      8  C1  UNL d   1       6.000  -1.816   1.939  0.00  0.00     0.054 C 
ATOM      9  C   UNL d   1       6.000  -2.424   0.543  0.00  0.00     0.018 C 
ENDBRANCH   1   8
TORSDOF 1
ENDMDL
