MODEL 1
REMARK minimizedAffinity -2.3053503
REMARK minimizedRMSD -1
REMARK  1 active torsions:
REMARK  status: ('A' for Active; 'I' for Inactive)
REMARK    1  A    between atoms: C1_2  and  C2_3 
ROOT
ATOM      1  C2  UNL d   1       4.366  -4.170   4.836  0.00  0.00    -0.081 A 
ATOM      2  C3  UNL d   1       3.789  -4.298   3.567  0.00  0.00     0.006 A 
ATOM      3  C4  UNL d   1       4.307  -3.591   2.479  0.00  0.00     0.002 A 
ATOM      4  C5  UNL d   1       5.415  -2.752   2.641  0.00  0.00    -0.080 A 
ATOM      5  C6  UNL d   1       6.000  -2.011   1.475  0.00  0.00     0.076 C 
ATOM      6  C7  UNL d   1       5.981  -2.610   3.912  0.00  0.00     0.002 A 
ATOM      7  C8  UNL d   1       5.462  -3.316   5.000  0.00  0.00     0.006 A 
ENDROOT
BRANCH   1   8
ATOM      8  C1  UNL d   1       3.850  -4.980   5.998  0.00  0.00     0.054 C 
ATOM      9  C   UNL d   1       2.334  -5.112   5.950  0.00  0.00     0.018 C 
ENDBRANCH   1   8
TORSDOF 1
ENDMDL
