MODEL 1
REMARK minimizedAffinity -2.50466967
REMARK minimizedRMSD -1
REMARK  1 active torsions:
REMARK  status: ('A' for Active; 'I' for Inactive)
REMARK    1  A    between atoms: C1_2  and  C2_3 
ROOT
ATOM      1  C2  UNL d   1       5.698  -3.929   4.656  0.00  0.00    -0.081 A 
ATOM      2  C3  UNL d   1       5.485  -2.548   4.567  0.00  0.00     0.006 A 
ATOM      3  C4  UNL d   1       5.263  -1.944   3.328  0.00  0.00     0.002 A 
ATOM      4  C5  UNL d   1       5.241  -2.711   2.158  0.00  0.00    -0.080 A 
ATOM      5  C6  UNL d   1       4.973  -2.080   0.824  0.00  0.00     0.076 C 
ATOM      6  C7  UNL d   1       5.471  -4.089   2.245  0.00  0.00     0.002 A 
ATOM      7  C8  UNL d   1       5.694  -4.693   3.484  0.00  0.00     0.006 A 
ENDROOT
BRANCH   1   8
ATOM      8  C1  UNL d   1       5.874  -4.592   5.998  0.00  0.00     0.054 C 
ATOM      9  C   UNL d   1       5.295  -6.000   6.000  0.00  0.00     0.018 C 
ENDBRANCH   1   8
TORSDOF 1
ENDMDL
