MODEL 1
REMARK minimizedAffinity -0.708885312
REMARK minimizedRMSD -1
REMARK  1 active torsions:
REMARK  status: ('A' for Active; 'I' for Inactive)
REMARK    1  A    between atoms: C1_2  and  C2_3 
ROOT
ATOM      1  C2  UNL d   1       5.940  -4.474   4.288  0.00  0.00    -0.081 A 
ATOM      2  C3  UNL d   1       5.952  -3.081   4.146  0.00  0.00     0.006 A 
ATOM      3  C4  UNL d   1       5.983  -2.498   2.877  0.00  0.00     0.002 A 
ATOM      4  C5  UNL d   1       5.993  -3.298   1.729  0.00  0.00    -0.080 A 
ATOM      5  C6  UNL d   1       5.995  -2.685   0.360  0.00  0.00     0.076 C 
ATOM      6  C7  UNL d   1       5.999  -4.690   1.871  0.00  0.00     0.002 A 
ATOM      7  C8  UNL d   1       5.969  -5.273   3.139  0.00  0.00     0.006 A 
ENDROOT
BRANCH   1   8
ATOM      8  C1  UNL d   1       5.842  -5.105   5.653  0.00  0.00     0.054 C 
ATOM      9  C   UNL d   1       4.539  -5.873   5.815  0.00  0.00     0.018 C 
ENDBRANCH   1   8
TORSDOF 1
ENDMDL
