MODEL 1
REMARK minimizedAffinity -2.44282818
REMARK minimizedRMSD -1
REMARK  1 active torsions:
REMARK  status: ('A' for Active; 'I' for Inactive)
REMARK    1  A    between atoms: C1_2  and  C2_3 
ROOT
ATOM      1  C2  UNL d   1       5.687  -2.974   3.032  0.00  0.00    -0.081 A 
ATOM      2  C3  UNL d   1       6.000  -4.316   2.781  0.00  0.00     0.006 A 
ATOM      3  C4  UNL d   1       5.743  -5.295   3.744  0.00  0.00     0.002 A 
ATOM      4  C5  UNL d   1       5.163  -4.950   4.969  0.00  0.00    -0.080 A 
ATOM      5  C6  UNL d   1       4.854  -5.995   6.000  0.00  0.00     0.076 C 
ATOM      6  C7  UNL d   1       4.866  -3.607   5.227  0.00  0.00     0.002 A 
ATOM      7  C8  UNL d   1       5.123  -2.628   4.265  0.00  0.00     0.006 A 
ENDROOT
BRANCH   1   8
ATOM      8  C1  UNL d   1       5.903  -1.926   1.971  0.00  0.00     0.054 C 
ATOM      9  C   UNL d   1       5.969  -2.548   0.583  0.00  0.00     0.018 C 
ENDBRANCH   1   8
TORSDOF 1
ENDMDL
