MODEL 1
REMARK minimizedAffinity -1.7454623
REMARK minimizedRMSD -1
REMARK  1 active torsions:
REMARK  status: ('A' for Active; 'I' for Inactive)
REMARK    1  A    between atoms: C1_2  and  C2_3 
ROOT
ATOM      1  C2  UNL d   1       5.246  -4.480   4.641  0.00  0.00    -0.081 A 
ATOM      2  C3  UNL d   1       5.026  -3.106   4.799  0.00  0.00     0.006 A 
ATOM      3  C4  UNL d   1       5.020  -2.257   3.689  0.00  0.00     0.002 A 
ATOM      4  C5  UNL d   1       5.226  -2.769   2.404  0.00  0.00    -0.080 A 
ATOM      5  C6  UNL d   1       5.193  -1.873   1.201  0.00  0.00     0.076 C 
ATOM      6  C7  UNL d   1       5.464  -4.138   2.247  0.00  0.00     0.002 A 
ATOM      7  C8  UNL d   1       5.470  -4.987   3.356  0.00  0.00     0.006 A 
ENDROOT
BRANCH   1   8
ATOM      8  C1  UNL d   1       5.189  -5.407   5.828  0.00  0.00     0.054 C 
ATOM      9  C   UNL d   1       3.798  -6.000   6.000  0.00  0.00     0.018 C 
ENDBRANCH   1   8
TORSDOF 1
ENDMDL
