MODEL 1
REMARK minimizedAffinity 0.381698698
REMARK minimizedRMSD -1
REMARK  1 active torsions:
REMARK  status: ('A' for Active; 'I' for Inactive)
REMARK    1  A    between atoms: C1_2  and  C2_3 
ROOT
ATOM      1  C2  UNL d   1       5.737  -4.895   2.867  0.00  0.00    -0.081 A 
ATOM      2  C3  UNL d   1       5.950  -3.540   2.582  0.00  0.00     0.006 A 
ATOM      3  C4  UNL d   1       5.764  -2.571   3.571  0.00  0.00     0.002 A 
ATOM      4  C5  UNL d   1       5.369  -2.940   4.861  0.00  0.00    -0.080 A 
ATOM      5  C6  UNL d   1       5.195  -1.913   5.940  0.00  0.00     0.076 C 
ATOM      6  C7  UNL d   1       5.139  -4.292   5.141  0.00  0.00     0.002 A 
ATOM      7  C8  UNL d   1       5.325  -5.261   4.153  0.00  0.00     0.006 A 
ENDROOT
BRANCH   1   8
ATOM      8  C1  UNL d   1       6.000  -5.948   1.821  0.00  0.00     0.054 C 
ATOM      9  C   UNL d   1       6.000  -5.351   0.422  0.00  0.00     0.018 C 
ENDBRANCH   1   8
TORSDOF 1
ENDMDL
