MODEL 1
REMARK minimizedAffinity -3.09361243
REMARK minimizedRMSD -1
REMARK  1 active torsions:
REMARK  status: ('A' for Active; 'I' for Inactive)
REMARK    1  A    between atoms: C1_2  and  C2_3 
ROOT
ATOM      1  C2  UNL d   1       5.993  -3.566   4.647  0.00  0.00    -0.081 A 
ATOM      2  C3  UNL d   1       5.997  -2.800   3.475  0.00  0.00     0.006 A 
ATOM      3  C4  UNL d   1       5.996  -3.421   2.223  0.00  0.00     0.002 A 
ATOM      4  C5  UNL d   1       5.983  -4.816   2.123  0.00  0.00    -0.080 A 
ATOM      5  C6  UNL d   1       5.951  -5.495   0.786  0.00  0.00     0.076 C 
ATOM      6  C7  UNL d   1       5.997  -5.582   3.294  0.00  0.00     0.002 A 
ATOM      7  C8  UNL d   1       5.999  -4.961   4.546  0.00  0.00     0.006 A 
ENDROOT
BRANCH   1   8
ATOM      8  C1  UNL d   1       5.929  -2.899   5.997  0.00  0.00     0.054 C 
ATOM      9  C   UNL d   1       5.982  -1.384   5.870  0.00  0.00     0.018 C 
ENDBRANCH   1   8
TORSDOF 1
ENDMDL
