MODEL 1
REMARK minimizedAffinity -5.49374437
REMARK minimizedRMSD -1
REMARK  1 active torsions:
REMARK  status: ('A' for Active; 'I' for Inactive)
REMARK    1  A    between atoms: C1_2  and  C2_3 
ROOT
ATOM      1  C2  UNL d   1      -0.544  -0.323  -1.302  0.00  0.00    -0.077 A 
ATOM      2  C3  UNL d   1       0.701   0.302  -1.151  0.00  0.00     0.002 A 
ATOM      3  C4  UNL d   1       1.486   0.592  -2.268  0.00  0.00     0.002 A 
ATOM      4  C5  UNL d   1       1.033   0.264  -3.544  0.00  0.00    -0.004 A 
ATOM      5  C6  UNL d   1      -0.203  -0.361  -3.705  0.00  0.00     0.002 A 
ATOM      6  C7  UNL d   1      -0.989  -0.652  -2.589  0.00  0.00     0.002 A 
ENDROOT
BRANCH   1   7
ATOM      7  C1  UNL d   1      -1.414  -0.592  -0.101  0.00  0.00     0.055 C 
ATOM      8  C   UNL d   1      -1.296   0.522   0.929  0.00  0.00     0.019 C 
ENDBRANCH   1   7
TORSDOF 1
ENDMDL
