MODEL 1
REMARK minimizedAffinity -4.36353397
REMARK minimizedRMSD -1
REMARK  1 active torsions:
REMARK  status: ('A' for Active; 'I' for Inactive)
REMARK    1  A    between atoms: C1_2  and  C2_3 
ROOT
ATOM      1  C2  UNL d   1       0.696  -0.154  -1.281  0.00  0.00    -0.077 A 
ATOM      2  C3  UNL d   1       0.114  -1.065  -2.173  0.00  0.00     0.002 A 
ATOM      3  C4  UNL d   1       0.414  -1.009  -3.536  0.00  0.00     0.002 A 
ATOM      4  C5  UNL d   1       1.299  -0.046  -4.017  0.00  0.00    -0.004 A 
ATOM      5  C6  UNL d   1       1.881   0.866  -3.137  0.00  0.00     0.002 A 
ATOM      6  C7  UNL d   1       1.582   0.812  -1.775  0.00  0.00     0.002 A 
ENDROOT
BRANCH   1   7
ATOM      7  C1  UNL d   1       0.412  -0.245   0.196  0.00  0.00     0.055 C 
ATOM      8  C   UNL d   1      -1.027   0.140   0.508  0.00  0.00     0.019 C 
ENDBRANCH   1   7
TORSDOF 1
ENDMDL
