MODEL 1
REMARK minimizedAffinity -3.18184996
REMARK minimizedRMSD -1
REMARK  1 active torsions:
REMARK  status: ('A' for Active; 'I' for Inactive)
REMARK    1  A    between atoms: C1_2  and  C2_3 
ROOT
ATOM      1  C2  UNL d   1       0.720  -0.330  -1.598  0.00  0.00    -0.077 A 
ATOM      2  C3  UNL d   1       1.970   0.177  -1.982  0.00  0.00     0.002 A 
ATOM      3  C4  UNL d   1       2.276   0.350  -3.333  0.00  0.00     0.002 A 
ATOM      4  C5  UNL d   1       1.338   0.023  -4.310  0.00  0.00    -0.004 A 
ATOM      5  C6  UNL d   1       0.093  -0.483  -3.937  0.00  0.00     0.002 A 
ATOM      6  C7  UNL d   1      -0.215  -0.658  -2.588  0.00  0.00     0.002 A 
ENDROOT
BRANCH   1   7
ATOM      7  C1  UNL d   1       0.369  -0.471  -0.139  0.00  0.00     0.055 C 
ATOM      8  C   UNL d   1      -0.739   0.493   0.259  0.00  0.00     0.019 C 
ENDBRANCH   1   7
TORSDOF 1
ENDMDL
