MODEL 1
REMARK minimizedAffinity -4.42337179
REMARK minimizedRMSD -1
REMARK  1 active torsions:
REMARK  status: ('A' for Active; 'I' for Inactive)
REMARK    1  A    between atoms: C1_2  and  C2_3 
ROOT
ATOM      1  C2  UNL d   1       0.314  -0.212   0.773  0.00  0.00    -0.077 A 
ATOM      2  C3  UNL d   1      -0.818   0.584   1.000  0.00  0.00     0.002 A 
ATOM      3  C4  UNL d   1      -0.899   1.388   2.138  0.00  0.00     0.002 A 
ATOM      4  C5  UNL d   1       0.149   1.408   3.056  0.00  0.00    -0.004 A 
ATOM      5  C6  UNL d   1       1.278   0.619   2.840  0.00  0.00     0.002 A 
ATOM      6  C7  UNL d   1       1.361  -0.186   1.703  0.00  0.00     0.002 A 
ENDROOT
BRANCH   1   7
ATOM      7  C1  UNL d   1       0.425  -1.042  -0.479  0.00  0.00     0.055 C 
ATOM      8  C   UNL d   1       0.531  -0.165  -1.718  0.00  0.00     0.019 C 
ENDBRANCH   1   7
TORSDOF 1
ENDMDL
