MODEL 1
REMARK minimizedAffinity -2.27104759
REMARK minimizedRMSD -1
REMARK  1 active torsions:
REMARK  status: ('A' for Active; 'I' for Inactive)
REMARK    1  A    between atoms: C1_2  and  C2_3 
ROOT
ATOM      1  C2  UNL d   1       0.189   0.433   0.666  0.00  0.00    -0.077 A 
ATOM      2  C3  UNL d   1       0.841   1.500   1.301  0.00  0.00     0.002 A 
ATOM      3  C4  UNL d   1       0.349   2.013   2.502  0.00  0.00     0.002 A 
ATOM      4  C5  UNL d   1      -0.793   1.465   3.082  0.00  0.00    -0.004 A 
ATOM      5  C6  UNL d   1      -1.450   0.405   2.457  0.00  0.00     0.002 A 
ATOM      6  C7  UNL d   1      -0.961  -0.109   1.256  0.00  0.00     0.002 A 
ENDROOT
BRANCH   1   7
ATOM      7  C1  UNL d   1       0.745  -0.155  -0.604  0.00  0.00     0.055 C 
ATOM      8  C   UNL d   1       0.420  -1.637  -0.717  0.00  0.00     0.019 C 
ENDBRANCH   1   7
TORSDOF 1
ENDMDL
