MODEL 1
REMARK minimizedAffinity -4.35027313
REMARK minimizedRMSD -1
REMARK  1 active torsions:
REMARK  status: ('A' for Active; 'I' for Inactive)
REMARK    1  A    between atoms: C1_2  and  C2_3 
ROOT
ATOM      1  C2  UNL d   1       0.325  -0.219   0.236  0.00  0.00    -0.077 A 
ATOM      2  C3  UNL d   1       1.034   0.416   1.265  0.00  0.00     0.002 A 
ATOM      3  C4  UNL d   1       0.355   1.112   2.267  0.00  0.00     0.002 A 
ATOM      4  C5  UNL d   1      -1.037   1.176   2.252  0.00  0.00    -0.004 A 
ATOM      5  C6  UNL d   1      -1.752   0.549   1.232  0.00  0.00     0.002 A 
ATOM      6  C7  UNL d   1      -1.074  -0.145   0.229  0.00  0.00     0.002 A 
ENDROOT
BRANCH   1   7
ATOM      7  C1  UNL d   1       1.053  -1.011  -0.818  0.00  0.00     0.055 C 
ATOM      8  C   UNL d   1       0.417  -0.826  -2.188  0.00  0.00     0.019 C 
ENDBRANCH   1   7
TORSDOF 1
ENDMDL
