MODEL 1
REMARK minimizedAffinity 6.36724281
REMARK minimizedRMSD -1
REMARK  0 active torsions:
REMARK  status: ('A' for Active; 'I' for Inactive)
ROOT
ATOM      1  C4' PXY d   1       3.001   3.440   3.087  0.00  0.00     0.077 C 
ATOM      2  C1' PXY d   1       3.137   0.417  -1.838  0.00  0.00     0.077 C 
ATOM      3  C1  PXY d   1       3.104   1.198  -0.540  0.00  0.00    -0.082 A 
ATOM      4  C2  PXY d   1       2.478   2.363  -0.494  0.00  0.00     0.003 A 
ATOM      5  C3  PXY d   1       2.465   3.098   0.664  0.00  0.00     0.003 A 
ATOM      6  C4  PXY d   1       3.053   2.612   1.800  0.00  0.00    -0.082 A 
ATOM      7  C5  PXY d   1       3.684   1.419   1.764  0.00  0.00     0.003 A 
ATOM      8  C6  PXY d   1       3.721   0.707   0.569  0.00  0.00     0.003 A 
ENDROOT
TORSDOF 0
ENDMDL
