MODEL 1
REMARK minimizedAffinity -2.02165675
REMARK minimizedRMSD -1
REMARK  0 active torsions:
REMARK  status: ('A' for Active; 'I' for Inactive)
ROOT
ATOM      1  C4' PXY d   1      -5.164   6.000   0.285  0.00  0.00     0.077 C 
ATOM      2  C1' PXY d   1      -4.342   5.722   6.000  0.00  0.00     0.077 C 
ATOM      3  C1  PXY d   1      -4.545   5.799   4.500  0.00  0.00    -0.082 A 
ATOM      4  C2  PXY d   1      -5.765   5.960   4.012  0.00  0.00     0.003 A 
ATOM      5  C3  PXY d   1      -5.970   6.000   2.657  0.00  0.00     0.003 A 
ATOM      6  C4  PXY d   1      -4.910   5.926   1.793  0.00  0.00    -0.082 A 
ATOM      7  C5  PXY d   1      -3.662   5.772   2.283  0.00  0.00     0.003 A 
ATOM      8  C6  PXY d   1      -3.479   5.693   3.661  0.00  0.00     0.003 A 
ENDROOT
TORSDOF 0
ENDMDL
