MODEL 1
REMARK minimizedAffinity -0.511927485
REMARK minimizedRMSD -1
REMARK  0 active torsions:
REMARK  status: ('A' for Active; 'I' for Inactive)
ROOT
ATOM      1  C4' PXY d   1      -1.195  -6.000   5.983  0.00  0.00     0.077 C 
ATOM      2  C1' PXY d   1       1.423  -1.054   4.533  0.00  0.00     0.077 C 
ATOM      3  C1  PXY d   1       0.748  -2.357   4.914  0.00  0.00    -0.082 A 
ATOM      4  C2  PXY d   1      -0.499  -2.583   4.535  0.00  0.00     0.003 A 
ATOM      5  C3  PXY d   1      -1.135  -3.742   4.898  0.00  0.00     0.003 A 
ATOM      6  C4  PXY d   1      -0.471  -4.703   5.613  0.00  0.00    -0.082 A 
ATOM      7  C5  PXY d   1       0.805  -4.484   5.995  0.00  0.00     0.003 A 
ATOM      8  C6  PXY d   1       1.420  -3.283   5.651  0.00  0.00     0.003 A 
ENDROOT
TORSDOF 0
ENDMDL
