MODEL 1
REMARK minimizedAffinity 9.49739933
REMARK minimizedRMSD -1
REMARK  0 active torsions:
REMARK  status: ('A' for Active; 'I' for Inactive)
ROOT
ATOM      1  C4' PXY d   1       1.261   0.036  -0.590  0.00  0.00     0.077 C 
ATOM      2  C1' PXY d   1       5.998   3.137   0.577  0.00  0.00     0.077 C 
ATOM      3  C1  PXY d   1       4.750   2.328   0.282  0.00  0.00    -0.082 A 
ATOM      4  C2  PXY d   1       4.826   1.277  -0.519  0.00  0.00     0.003 A 
ATOM      5  C3  PXY d   1       3.702   0.553  -0.822  0.00  0.00     0.003 A 
ATOM      6  C4  PXY d   1       2.497   0.876  -0.257  0.00  0.00    -0.082 A 
ATOM      7  C5  PXY d   1       2.413   1.940   0.569  0.00  0.00     0.003 A 
ATOM      8  C6  PXY d   1       3.558   2.687   0.831  0.00  0.00     0.003 A 
ENDROOT
TORSDOF 0
ENDMDL
