MODEL 1
REMARK minimizedAffinity -2.33382154
REMARK minimizedRMSD -1
REMARK  0 active torsions:
REMARK  status: ('A' for Active; 'I' for Inactive)
ROOT
ATOM      1  C4' PXY d   1      -5.935   5.917   5.977  0.00  0.00     0.077 C 
ATOM      2  C1' PXY d   1      -3.152   5.959   0.911  0.00  0.00     0.077 C 
ATOM      3  C1  PXY d   1      -3.871   5.943   2.245  0.00  0.00    -0.082 A 
ATOM      4  C2  PXY d   1      -5.193   5.884   2.276  0.00  0.00     0.003 A 
ATOM      5  C3  PXY d   1      -5.860   5.901   3.473  0.00  0.00     0.003 A 
ATOM      6  C4  PXY d   1      -5.166   5.926   4.653  0.00  0.00    -0.082 A 
ATOM      7  C5  PXY d   1      -3.817   5.975   4.631  0.00  0.00     0.003 A 
ATOM      8  C6  PXY d   1      -3.160   5.999   3.404  0.00  0.00     0.003 A 
ENDROOT
TORSDOF 0
ENDMDL
