MODEL 1
REMARK minimizedAffinity 4.11987972
REMARK minimizedRMSD -1
REMARK  0 active torsions:
REMARK  status: ('A' for Active; 'I' for Inactive)
ROOT
ATOM      1  C4' PXY d   1       2.909  -0.569  -0.705  0.00  0.00     0.077 C 
ATOM      2  C1' PXY d   1      -0.729  -5.056  -0.931  0.00  0.00     0.077 C 
ATOM      3  C1  PXY d   1       0.227  -3.881  -0.859  0.00  0.00    -0.082 A 
ATOM      4  C2  PXY d   1       0.175  -2.937  -1.786  0.00  0.00     0.003 A 
ATOM      5  C3  PXY d   1       1.053  -1.885  -1.753  0.00  0.00     0.003 A 
ATOM      6  C4  PXY d   1       1.958  -1.768  -0.733  0.00  0.00    -0.082 A 
ATOM      7  C5  PXY d   1       2.010  -2.721   0.222  0.00  0.00     0.003 A 
ATOM      8  C6  PXY d   1       1.138  -3.803   0.149  0.00  0.00     0.003 A 
ENDROOT
TORSDOF 0
ENDMDL
