MODEL 1
REMARK minimizedAffinity -2.17964983
REMARK minimizedRMSD -1
REMARK  0 active torsions:
REMARK  status: ('A' for Active; 'I' for Inactive)
ROOT
ATOM      1  C4' PXY d   1      -4.706   5.848   0.191  0.00  0.00     0.077 C 
ATOM      2  C1' PXY d   1      -4.867   6.000   5.967  0.00  0.00     0.077 C 
ATOM      3  C1  PXY d   1      -4.837   5.954   4.452  0.00  0.00    -0.082 A 
ATOM      4  C2  PXY d   1      -3.675   6.000   3.820  0.00  0.00     0.003 A 
ATOM      5  C3  PXY d   1      -3.631   5.992   2.450  0.00  0.00     0.003 A 
ATOM      6  C4  PXY d   1      -4.784   5.882   1.720  0.00  0.00    -0.082 A 
ATOM      7  C5  PXY d   1      -5.973   5.825   2.358  0.00  0.00     0.003 A 
ATOM      8  C6  PXY d   1      -5.999   5.876   3.749  0.00  0.00     0.003 A 
ENDROOT
TORSDOF 0
ENDMDL
