MODEL 1
REMARK minimizedAffinity -1.83699548
REMARK minimizedRMSD -1
REMARK  0 active torsions:
REMARK  status: ('A' for Active; 'I' for Inactive)
ROOT
ATOM      1  C4' PXY d   1      -4.564   5.890   0.183  0.00  0.00     0.077 C 
ATOM      2  C1' PXY d   1      -5.058   5.908   5.942  0.00  0.00     0.077 C 
ATOM      3  C1  PXY d   1      -4.917   5.909   4.433  0.00  0.00    -0.082 A 
ATOM      4  C2  PXY d   1      -6.000   5.865   3.675  0.00  0.00     0.003 A 
ATOM      5  C3  PXY d   1      -5.889   5.832   2.308  0.00  0.00     0.003 A 
ATOM      6  C4  PXY d   1      -4.659   5.900   1.711  0.00  0.00    -0.082 A 
ATOM      7  C5  PXY d   1      -3.550   5.957   2.478  0.00  0.00     0.003 A 
ATOM      8  C6  PXY d   1      -3.682   5.947   3.863  0.00  0.00     0.003 A 
ENDROOT
TORSDOF 0
ENDMDL
