MODEL 1
REMARK minimizedAffinity -1.43650579
REMARK minimizedRMSD -1
REMARK  0 active torsions:
REMARK  status: ('A' for Active; 'I' for Inactive)
ROOT
ATOM      1  C4' PXY d   1      -4.449   5.971   0.224  0.00  0.00     0.077 C 
ATOM      2  C1' PXY d   1      -4.191   5.952   5.999  0.00  0.00     0.077 C 
ATOM      3  C1  PXY d   1      -4.247   5.962   4.484  0.00  0.00    -0.082 A 
ATOM      4  C2  PXY d   1      -5.420   5.963   3.873  0.00  0.00     0.003 A 
ATOM      5  C3  PXY d   1      -5.489   5.940   2.504  0.00  0.00     0.003 A 
ATOM      6  C4  PXY d   1      -4.345   5.970   1.752  0.00  0.00    -0.082 A 
ATOM      7  C5  PXY d   1      -3.144   5.980   2.368  0.00  0.00     0.003 A 
ATOM      8  C6  PXY d   1      -3.095   5.962   3.759  0.00  0.00     0.003 A 
ENDROOT
TORSDOF 0
ENDMDL
