MODEL 1
REMARK minimizedAffinity -4.94883537
REMARK minimizedRMSD -1
REMARK  0 active torsions:
REMARK  status: ('A' for Active; 'I' for Inactive)
ROOT
ATOM      1  C1  DEN d   1       0.929  -1.125   0.361  0.00  0.00     0.130 A 
ATOM      2  C2  DEN d   1       0.949   0.232  -0.178  0.00  0.00    -0.031 A 
ATOM      3  C3  DEN d   1      -0.347   0.867   0.136  0.00  0.00     0.027 A 
ATOM      4  C4  DEN d   1      -2.370  -0.113   1.401  0.00  0.00     0.027 A 
ATOM      5  C5  DEN d   1      -2.861  -1.231   2.038  0.00  0.00    -0.003 A 
ATOM      6  C6  DEN d   1      -2.142  -2.394   2.130  0.00  0.00     0.001 A 
ATOM      7  C7  DEN d   1      -0.874  -2.451   1.616  0.00  0.00     0.017 A 
ATOM      8  C8  DEN d   1      -0.375  -1.330   0.965  0.00  0.00    -0.094 A 
ATOM      9  C9  DEN d   1      -1.112  -0.160   0.893  0.00  0.00    -0.072 A 
ENDROOT
TORSDOF 0
ENDMDL
