MODEL 1
REMARK minimizedAffinity -3.31148434
REMARK minimizedRMSD -1
REMARK  0 active torsions:
REMARK  status: ('A' for Active; 'I' for Inactive)
ROOT
ATOM      1  C1  DEN d   1      -2.718   0.486   1.802  0.00  0.00     0.130 A 
ATOM      2  C2  DEN d   1      -3.280  -0.156   2.987  0.00  0.00    -0.031 A 
ATOM      3  C3  DEN d   1      -2.512  -1.391   3.245  0.00  0.00     0.027 A 
ATOM      4  C4  DEN d   1      -0.515  -2.364   1.934  0.00  0.00     0.027 A 
ATOM      5  C5  DEN d   1       0.311  -2.179   0.847  0.00  0.00    -0.003 A 
ATOM      6  C6  DEN d   1       0.165  -1.121  -0.010  0.00  0.00     0.001 A 
ATOM      7  C7  DEN d   1      -0.802  -0.181   0.231  0.00  0.00     0.017 A 
ATOM      8  C8  DEN d   1      -1.643  -0.364   1.320  0.00  0.00    -0.094 A 
ATOM      9  C9  DEN d   1      -1.472  -1.434   2.182  0.00  0.00    -0.072 A 
ENDROOT
TORSDOF 0
ENDMDL
