MODEL 1
REMARK minimizedAffinity -6.37704992
REMARK minimizedRMSD -1
REMARK  0 active torsions:
REMARK  status: ('A' for Active; 'I' for Inactive)
ROOT
ATOM      1  C1  DEN d   1       0.554  -0.748   0.272  0.00  0.00     0.130 A 
ATOM      2  C2  DEN d   1       0.609   0.701   0.444  0.00  0.00    -0.031 A 
ATOM      3  C3  DEN d   1      -0.615   1.123   1.154  0.00  0.00     0.027 A 
ATOM      4  C4  DEN d   1      -2.577  -0.320   2.004  0.00  0.00     0.027 A 
ATOM      5  C5  DEN d   1      -3.078  -1.601   2.080  0.00  0.00    -0.003 A 
ATOM      6  C6  DEN d   1      -2.425  -2.674   1.534  0.00  0.00     0.001 A 
ATOM      7  C7  DEN d   1      -1.211  -2.492   0.926  0.00  0.00     0.017 A 
ATOM      8  C8  DEN d   1      -0.703  -1.202   0.838  0.00  0.00    -0.094 A 
ATOM      9  C9  DEN d   1      -1.373  -0.132   1.408  0.00  0.00    -0.072 A 
ENDROOT
TORSDOF 0
ENDMDL
