MODEL 1
REMARK minimizedAffinity -3.45403934
REMARK minimizedRMSD -1
REMARK  0 active torsions:
REMARK  status: ('A' for Active; 'I' for Inactive)
ROOT
ATOM      1  C1  DEN d   1      -1.027   1.459   0.767  0.00  0.00     0.130 A 
ATOM      2  C2  DEN d   1       0.227   1.476   0.020  0.00  0.00    -0.031 A 
ATOM      3  C3  DEN d   1       0.749   0.096  -0.027  0.00  0.00     0.027 A 
ATOM      4  C4  DEN d   1      -0.261  -2.056   0.975  0.00  0.00     0.027 A 
ATOM      5  C5  DEN d   1      -1.309  -2.569   1.707  0.00  0.00    -0.003 A 
ATOM      6  C6  DEN d   1      -2.311  -1.777   2.202  0.00  0.00     0.001 A 
ATOM      7  C7  DEN d   1      -2.309  -0.433   1.933  0.00  0.00     0.017 A 
ATOM      8  C8  DEN d   1      -1.252   0.092   1.202  0.00  0.00    -0.094 A 
ATOM      9  C9  DEN d   1      -0.255  -0.727   0.700  0.00  0.00    -0.072 A 
ENDROOT
TORSDOF 0
ENDMDL
