MODEL 1
REMARK minimizedAffinity -5.72808981
REMARK minimizedRMSD -1
REMARK  0 active torsions:
REMARK  status: ('A' for Active; 'I' for Inactive)
ROOT
ATOM      1  C1  DEN d   1      -2.504   0.723   1.860  0.00  0.00     0.130 A 
ATOM      2  C2  DEN d   1      -3.322  -0.234   2.600  0.00  0.00    -0.031 A 
ATOM      3  C3  DEN d   1      -2.702  -1.567   2.462  0.00  0.00     0.027 A 
ATOM      4  C4  DEN d   1      -0.564  -2.238   1.184  0.00  0.00     0.027 A 
ATOM      5  C5  DEN d   1       0.463  -1.773   0.393  0.00  0.00    -0.003 A 
ATOM      6  C6  DEN d   1       0.554  -0.461   0.010  0.00  0.00     0.001 A 
ATOM      7  C7  DEN d   1      -0.375   0.441   0.456  0.00  0.00     0.017 A 
ATOM      8  C8  DEN d   1      -1.417  -0.021   1.248  0.00  0.00    -0.094 A 
ATOM      9  C9  DEN d   1      -1.485  -1.349   1.634  0.00  0.00    -0.072 A 
ENDROOT
TORSDOF 0
ENDMDL
