MODEL 1
REMARK minimizedAffinity 0.592427731
REMARK minimizedRMSD -1
REMARK  0 active torsions:
REMARK  status: ('A' for Active; 'I' for Inactive)
ROOT
ATOM      1  C1  DEN d   1       0.989  -2.354   0.976  0.00  0.00     0.130 A 
ATOM      2  C2  DEN d   1      -0.046  -2.793   1.908  0.00  0.00    -0.031 A 
ATOM      3  C3  DEN d   1      -1.063  -1.726   1.997  0.00  0.00     0.027 A 
ATOM      4  C4  DEN d   1      -1.138   0.549   0.784  0.00  0.00     0.027 A 
ATOM      5  C5  DEN d   1      -0.475   1.374  -0.098  0.00  0.00    -0.003 A 
ATOM      6  C6  DEN d   1       0.729   1.031  -0.653  0.00  0.00     0.001 A 
ATOM      7  C7  DEN d   1       1.286  -0.187  -0.367  0.00  0.00     0.017 A 
ATOM      8  C8  DEN d   1       0.627  -1.021   0.527  0.00  0.00    -0.094 A 
ATOM      9  C9  DEN d   1      -0.595  -0.661   1.069  0.00  0.00    -0.072 A 
ENDROOT
TORSDOF 0
ENDMDL
