MODEL 1
REMARK minimizedAffinity -4.7525425
REMARK minimizedRMSD -1
REMARK  0 active torsions:
REMARK  status: ('A' for Active; 'I' for Inactive)
ROOT
ATOM      1  C1  DEN d   1       1.733  -1.167   0.621  0.00  0.00     0.130 A 
ATOM      2  C2  DEN d   1       1.043  -2.372   1.072  0.00  0.00    -0.031 A 
ATOM      3  C3  DEN d   1      -0.372  -2.024   1.314  0.00  0.00     0.027 A 
ATOM      4  C4  DEN d   1      -1.555   0.250   1.031  0.00  0.00     0.027 A 
ATOM      5  C5  DEN d   1      -1.379   1.571   0.683  0.00  0.00    -0.003 A 
ATOM      6  C6  DEN d   1      -0.157   2.075   0.325  0.00  0.00     0.001 A 
ATOM      7  C7  DEN d   1       0.930   1.243   0.264  0.00  0.00     0.017 A 
ATOM      8  C8  DEN d   1       0.762  -0.088   0.621  0.00  0.00    -0.094 A 
ATOM      9  C9  DEN d   1      -0.484  -0.582   0.968  0.00  0.00    -0.072 A 
ENDROOT
TORSDOF 0
ENDMDL
