MODEL 1
REMARK minimizedAffinity -2.67078567
REMARK minimizedRMSD -1
REMARK  0 active torsions:
REMARK  status: ('A' for Active; 'I' for Inactive)
ROOT
ATOM      1  C1  DEN d   1       0.632   0.119   0.789  0.00  0.00     0.130 A 
ATOM      2  C2  DEN d   1       1.529  -1.020   0.959  0.00  0.00    -0.031 A 
ATOM      3  C3  DEN d   1       0.707  -2.208   1.265  0.00  0.00     0.027 A 
ATOM      4  C4  DEN d   1      -1.857  -2.392   1.487  0.00  0.00     0.027 A 
ATOM      5  C5  DEN d   1      -3.041  -1.690   1.441  0.00  0.00    -0.003 A 
ATOM      6  C6  DEN d   1      -3.081  -0.340   1.209  0.00  0.00     0.001 A 
ATOM      7  C7  DEN d   1      -1.917   0.342   0.970  0.00  0.00     0.017 A 
ATOM      8  C8  DEN d   1      -0.719  -0.357   1.023  0.00  0.00    -0.094 A 
ATOM      9  C9  DEN d   1      -0.700  -1.724   1.247  0.00  0.00    -0.072 A 
ENDROOT
TORSDOF 0
ENDMDL
