MODEL 1
REMARK minimizedAffinity -6.39604568
REMARK minimizedRMSD -1
REMARK  0 active torsions:
REMARK  status: ('A' for Active; 'I' for Inactive)
ROOT
ATOM      1  C1  DEN d   1      -0.417   0.843  -0.001  0.00  0.00     0.130 A 
ATOM      2  C2  DEN d   1       1.002   0.640   0.277  0.00  0.00    -0.031 A 
ATOM      3  C3  DEN d   1       1.141  -0.606   1.057  0.00  0.00     0.027 A 
ATOM      4  C4  DEN d   1      -0.693  -2.235   1.855  0.00  0.00     0.027 A 
ATOM      5  C5  DEN d   1      -2.049  -2.477   1.871  0.00  0.00    -0.003 A 
ATOM      6  C6  DEN d   1      -2.951  -1.620   1.299  0.00  0.00     0.001 A 
ATOM      7  C7  DEN d   1      -2.505  -0.502   0.646  0.00  0.00     0.017 A 
ATOM      8  C8  DEN d   1      -1.140  -0.246   0.632  0.00  0.00    -0.094 A 
ATOM      9  C9  DEN d   1      -0.243  -1.131   1.206  0.00  0.00    -0.072 A 
ENDROOT
TORSDOF 0
ENDMDL
