MODEL 1
REMARK minimizedAffinity -5.98205948
REMARK minimizedRMSD -1
REMARK  0 active torsions:
REMARK  status: ('A' for Active; 'I' for Inactive)
ROOT
ATOM      1  C1  DEN d   1      -0.871   1.089   0.425  0.00  0.00     0.130 A 
ATOM      2  C2  DEN d   1       0.158   0.535  -0.450  0.00  0.00    -0.031 A 
ATOM      3  C3  DEN d   1       0.047  -0.937  -0.410  0.00  0.00     0.027 A 
ATOM      4  C4  DEN d   1      -1.613  -2.404   0.912  0.00  0.00     0.027 A 
ATOM      5  C5  DEN d   1      -2.665  -2.386   1.801  0.00  0.00    -0.003 A 
ATOM      6  C6  DEN d   1      -3.166  -1.220   2.316  0.00  0.00     0.001 A 
ATOM      7  C7  DEN d   1      -2.645  -0.020   1.910  0.00  0.00     0.017 A 
ATOM      8  C8  DEN d   1      -1.580  -0.030   1.020  0.00  0.00    -0.094 A 
ATOM      9  C9  DEN d   1      -1.095  -1.218   0.501  0.00  0.00    -0.072 A 
ENDROOT
TORSDOF 0
ENDMDL
