MODEL 1
REMARK minimizedAffinity -2.61107588
REMARK minimizedRMSD -1
REMARK  0 active torsions:
REMARK  status: ('A' for Active; 'I' for Inactive)
ROOT
ATOM      1  C1  DEN d   1       0.141  -0.157   0.262  0.00  0.00     0.130 A 
ATOM      2  C2  DEN d   1       1.045  -1.300   0.168  0.00  0.00    -0.031 A 
ATOM      3  C3  DEN d   1       0.325  -2.493   0.658  0.00  0.00     0.027 A 
ATOM      4  C4  DEN d   1      -2.089  -2.680   1.546  0.00  0.00     0.027 A 
ATOM      5  C5  DEN d   1      -3.240  -1.977   1.826  0.00  0.00    -0.003 A 
ATOM      6  C6  DEN d   1      -3.332  -0.623   1.639  0.00  0.00     0.001 A 
ATOM      7  C7  DEN d   1      -2.269   0.063   1.114  0.00  0.00     0.017 A 
ATOM      8  C8  DEN d   1      -1.103  -0.637   0.836  0.00  0.00    -0.094 A 
ATOM      9  C9  DEN d   1      -1.034  -2.008   1.021  0.00  0.00    -0.072 A 
ENDROOT
TORSDOF 0
ENDMDL
