MODEL 1
REMARK minimizedAffinity -0.729838252
REMARK minimizedRMSD -1
REMARK  0 active torsions:
REMARK  status: ('A' for Active; 'I' for Inactive)
ROOT
ATOM      1  C1  DEN d   1       0.016   1.416   0.523  0.00  0.00     0.130 A 
ATOM      2  C2  DEN d   1      -1.284   1.690   1.128  0.00  0.00    -0.031 A 
ATOM      3  C3  DEN d   1      -1.763   0.446   1.763  0.00  0.00     0.027 A 
ATOM      4  C4  DEN d   1      -0.623  -1.864   1.871  0.00  0.00     0.027 A 
ATOM      5  C5  DEN d   1       0.487  -2.588   1.492  0.00  0.00    -0.003 A 
ATOM      6  C6  DEN d   1       1.493  -2.041   0.740  0.00  0.00     0.001 A 
ATOM      7  C7  DEN d   1       1.431  -0.720   0.381  0.00  0.00     0.017 A 
ATOM      8  C8  DEN d   1       0.312   0.013   0.754  0.00  0.00    -0.094 A 
ATOM      9  C9  DEN d   1      -0.688  -0.554   1.525  0.00  0.00    -0.072 A 
ENDROOT
TORSDOF 0
ENDMDL
