MODEL 1
REMARK minimizedAffinity -1.76007521
REMARK minimizedRMSD -1
REMARK  0 active torsions:
REMARK  status: ('A' for Active; 'I' for Inactive)
ROOT
ATOM      1  C   UNL d   1       4.502   1.027  -1.207  0.00  0.00     0.172 C 
ATOM      2  N   UNL d   1       5.110   2.153  -0.537  0.00  0.00    -0.070 N 
ATOM      3  C1  UNL d   1       5.448   2.205   0.789  0.00  0.00    -0.004 A 
ATOM      4  C2  UNL d   1       6.000   3.444   1.035  0.00  0.00    -0.047 A 
ATOM      5  C3  UNL d   1       5.993   4.161  -0.185  0.00  0.00    -0.047 A 
ATOM      6  C4  UNL d   1       5.436   3.338  -1.141  0.00  0.00    -0.004 A 
ENDROOT
TORSDOF 0
ENDMDL
