MODEL 1
REMARK minimizedAffinity 4.59587049
REMARK minimizedRMSD -1
REMARK  0 active torsions:
REMARK  status: ('A' for Active; 'I' for Inactive)
ROOT
ATOM      1  C   UNL d   1       1.990  -0.092  -0.695  0.00  0.00     0.172 C 
ATOM      2  N   UNL d   1       3.377   0.310  -0.724  0.00  0.00    -0.070 N 
ATOM      3  C1  UNL d   1       3.929   1.211  -1.594  0.00  0.00    -0.004 A 
ATOM      4  C2  UNL d   1       5.270   1.320  -1.296  0.00  0.00    -0.047 A 
ATOM      5  C3  UNL d   1       5.533   0.453  -0.208  0.00  0.00    -0.047 A 
ATOM      6  C4  UNL d   1       4.344  -0.160   0.126  0.00  0.00    -0.004 A 
ENDROOT
TORSDOF 0
ENDMDL
