MODEL 1
REMARK minimizedAffinity 2.2044332
REMARK minimizedRMSD -1
REMARK  0 active torsions:
REMARK  status: ('A' for Active; 'I' for Inactive)
ROOT
ATOM      1  C   UNL d   1       1.654   2.361   2.771  0.00  0.00     0.172 C 
ATOM      2  N   UNL d   1       0.454   2.339   1.969  0.00  0.00    -0.070 N 
ATOM      3  C1  UNL d   1      -0.364   3.410   1.725  0.00  0.00    -0.004 A 
ATOM      4  C2  UNL d   1      -1.395   2.980   0.919  0.00  0.00    -0.047 A 
ATOM      5  C3  UNL d   1      -1.191   1.601   0.671  0.00  0.00    -0.047 A 
ATOM      6  C4  UNL d   1      -0.040   1.231   1.332  0.00  0.00    -0.004 A 
ENDROOT
TORSDOF 0
ENDMDL
