MODEL 1
REMARK minimizedAffinity 3.25314307
REMARK minimizedRMSD -1
REMARK  0 active torsions:
REMARK  status: ('A' for Active; 'I' for Inactive)
ROOT
ATOM      1  C   UNL d   1      -5.964   5.678   2.641  0.00  0.00     0.172 C 
ATOM      2  N   UNL d   1      -5.978   4.816   3.799  0.00  0.00    -0.070 N 
ATOM      3  C1  UNL d   1      -5.987   3.447   3.775  0.00  0.00    -0.004 A 
ATOM      4  C2  UNL d   1      -6.000   3.001   5.079  0.00  0.00    -0.047 A 
ATOM      5  C3  UNL d   1      -6.000   4.142   5.916  0.00  0.00    -0.047 A 
ATOM      6  C4  UNL d   1      -5.987   5.252   5.098  0.00  0.00    -0.004 A 
ENDROOT
TORSDOF 0
ENDMDL
