MODEL 1
REMARK minimizedAffinity 0.742026448
REMARK minimizedRMSD -1
REMARK  0 active torsions:
REMARK  status: ('A' for Active; 'I' for Inactive)
ROOT
ATOM      1  C   UNL d   1       3.390  -1.623  -0.741  0.00  0.00     0.172 C 
ATOM      2  N   UNL d   1       4.204  -0.435  -0.839  0.00  0.00    -0.070 N 
ATOM      3  C1  UNL d   1       5.573  -0.406  -0.876  0.00  0.00    -0.004 A 
ATOM      4  C2  UNL d   1       5.964   0.912  -0.973  0.00  0.00    -0.047 A 
ATOM      5  C3  UNL d   1       4.791   1.702  -0.994  0.00  0.00    -0.047 A 
ATOM      6  C4  UNL d   1       3.716   0.843  -0.910  0.00  0.00    -0.004 A 
ENDROOT
TORSDOF 0
ENDMDL
