MODEL 1
REMARK minimizedAffinity 5.44773293
REMARK minimizedRMSD -1
REMARK  0 active torsions:
REMARK  status: ('A' for Active; 'I' for Inactive)
ROOT
ATOM      1  C   UNL d   1       2.515  -1.705  -1.045  0.00  0.00     0.172 C 
ATOM      2  N   UNL d   1       3.267  -0.482  -0.897  0.00  0.00    -0.070 N 
ATOM      3  C1  UNL d   1       2.928   0.572  -0.092  0.00  0.00    -0.004 A 
ATOM      4  C2  UNL d   1       3.898   1.541  -0.232  0.00  0.00    -0.047 A 
ATOM      5  C3  UNL d   1       4.854   1.052  -1.154  0.00  0.00    -0.047 A 
ATOM      6  C4  UNL d   1       4.439  -0.202  -1.550  0.00  0.00    -0.004 A 
ENDROOT
TORSDOF 0
ENDMDL
