MODEL 1
REMARK minimizedAffinity 4.06915903
REMARK minimizedRMSD -1
REMARK  0 active torsions:
REMARK  status: ('A' for Active; 'I' for Inactive)
ROOT
ATOM      1  C   UNL d   1      -4.771   2.983  -4.150  0.00  0.00     0.172 C 
ATOM      2  N   UNL d   1      -3.949   1.844  -4.488  0.00  0.00    -0.070 N 
ATOM      3  C1  UNL d   1      -3.701   1.387  -5.755  0.00  0.00    -0.004 A 
ATOM      4  C2  UNL d   1      -2.876   0.288  -5.653  0.00  0.00    -0.047 A 
ATOM      5  C3  UNL d   1      -2.621   0.076  -4.277  0.00  0.00    -0.047 A 
ATOM      6  C4  UNL d   1      -3.298   1.054  -3.579  0.00  0.00    -0.004 A 
ENDROOT
TORSDOF 0
ENDMDL
