MODEL 1
REMARK minimizedAffinity 1.09256089
REMARK minimizedRMSD -1
REMARK  0 active torsions:
REMARK  status: ('A' for Active; 'I' for Inactive)
ROOT
ATOM      1  C   UNL d   1       0.166  -5.300   5.617  0.00  0.00     0.172 C 
ATOM      2  N   UNL d   1       0.292  -4.064   4.881  0.00  0.00    -0.070 N 
ATOM      3  C1  UNL d   1       1.149  -3.040   5.182  0.00  0.00    -0.004 A 
ATOM      4  C2  UNL d   1       0.965  -2.046   4.245  0.00  0.00    -0.047 A 
ATOM      5  C3  UNL d   1      -0.039  -2.488   3.350  0.00  0.00    -0.047 A 
ATOM      6  C4  UNL d   1      -0.438  -3.741   3.768  0.00  0.00    -0.004 A 
ENDROOT
TORSDOF 0
ENDMDL
