MODEL 1
REMARK minimizedAffinity 1.021456
REMARK minimizedRMSD -1
REMARK  0 active torsions:
REMARK  status: ('A' for Active; 'I' for Inactive)
ROOT
ATOM      1  C   UNL d   1       5.815   2.952  -0.076  0.00  0.00     0.172 C 
ATOM      2  N   UNL d   1       4.967   1.785  -0.145  0.00  0.00    -0.070 N 
ATOM      3  C1  UNL d   1       4.623   0.985   0.911  0.00  0.00    -0.004 A 
ATOM      4  C2  UNL d   1       3.805  -0.016   0.433  0.00  0.00    -0.047 A 
ATOM      5  C3  UNL d   1       3.653   0.189  -0.959  0.00  0.00    -0.047 A 
ATOM      6  C4  UNL d   1       4.384   1.311  -1.290  0.00  0.00    -0.004 A 
ENDROOT
TORSDOF 0
ENDMDL
