MODEL 1
REMARK minimizedAffinity -2.97567606
REMARK minimizedRMSD -1
REMARK  0 active torsions:
REMARK  status: ('A' for Active; 'I' for Inactive)
ROOT
ATOM      1  C   UNL d   1      -5.628   2.303  -2.970  0.00  0.00     0.172 C 
ATOM      2  N   UNL d   1      -4.589   1.637  -3.720  0.00  0.00    -0.070 N 
ATOM      3  C1  UNL d   1      -3.427   1.134  -3.199  0.00  0.00    -0.004 A 
ATOM      4  C2  UNL d   1      -2.705   0.581  -4.235  0.00  0.00    -0.047 A 
ATOM      5  C3  UNL d   1      -3.460   0.758  -5.419  0.00  0.00    -0.047 A 
ATOM      6  C4  UNL d   1      -4.621   1.415  -5.071  0.00  0.00    -0.004 A 
ENDROOT
TORSDOF 0
ENDMDL
