MODEL 1
REMARK minimizedAffinity -1.62798011
REMARK minimizedRMSD -1
REMARK  0 active torsions:
REMARK  status: ('A' for Active; 'I' for Inactive)
ROOT
ATOM      1  C   UNL d   1      -1.322   1.282  -0.412  0.00  0.00     0.078 C 
ATOM      2  C1  UNL d   1      -0.103   0.445  -0.164  0.00  0.00    -0.077 A 
ATOM      3  C2  UNL d   1      -0.184  -0.747   0.567  0.00  0.00    -0.001 A 
ATOM      4  C3  UNL d   1       0.960  -1.512   0.799  0.00  0.00     0.003 A 
ATOM      5  C4  UNL d   1       2.194  -1.093   0.304  0.00  0.00    -0.005 A 
ATOM      6  C5  UNL d   1       2.285   0.093  -0.422  0.00  0.00     0.003 A 
ATOM      7  C6  UNL d   1       1.141   0.859  -0.655  0.00  0.00    -0.001 A 
ENDROOT
TORSDOF 0
ENDMDL
