MODEL 1
REMARK minimizedAffinity -2.5935955
REMARK minimizedRMSD -1
REMARK  0 active torsions:
REMARK  status: ('A' for Active; 'I' for Inactive)
ROOT
ATOM      1  C   UNL d   1      -0.699   1.148  -0.834  0.00  0.00     0.078 C 
ATOM      2  C1  UNL d   1       0.069   0.140  -0.033  0.00  0.00    -0.077 A 
ATOM      3  C2  UNL d   1       1.326  -0.311  -0.456  0.00  0.00    -0.001 A 
ATOM      4  C3  UNL d   1       2.026  -1.257   0.294  0.00  0.00     0.003 A 
ATOM      5  C4  UNL d   1       1.477  -1.762   1.471  0.00  0.00    -0.005 A 
ATOM      6  C5  UNL d   1       0.226  -1.322   1.898  0.00  0.00     0.003 A 
ATOM      7  C6  UNL d   1      -0.476  -0.375   1.150  0.00  0.00    -0.001 A 
ENDROOT
TORSDOF 0
ENDMDL
