MODEL 1
REMARK minimizedAffinity -1.99181926
REMARK minimizedRMSD -1
REMARK  0 active torsions:
REMARK  status: ('A' for Active; 'I' for Inactive)
ROOT
ATOM      1  C   UNL d   1      -0.331   0.093   0.170  0.00  0.00     0.078 C 
ATOM      2  C1  UNL d   1      -1.033   0.942  -0.847  0.00  0.00    -0.077 A 
ATOM      3  C2  UNL d   1      -1.924   0.377  -1.768  0.00  0.00    -0.001 A 
ATOM      4  C3  UNL d   1      -2.564   1.178  -2.714  0.00  0.00     0.003 A 
ATOM      5  C4  UNL d   1      -2.319   2.549  -2.751  0.00  0.00    -0.005 A 
ATOM      6  C5  UNL d   1      -1.432   3.121  -1.840  0.00  0.00     0.003 A 
ATOM      7  C6  UNL d   1      -0.792   2.321  -0.892  0.00  0.00    -0.001 A 
ENDROOT
TORSDOF 0
ENDMDL
