MODEL 1
REMARK minimizedAffinity -3.4861145
REMARK minimizedRMSD -1
REMARK  0 active torsions:
REMARK  status: ('A' for Active; 'I' for Inactive)
ROOT
ATOM      1  C   UNL d   1       0.980   0.268  -0.134  0.00  0.00     0.078 C 
ATOM      2  C1  UNL d   1      -0.124   0.711  -1.047  0.00  0.00    -0.077 A 
ATOM      3  C2  UNL d   1      -0.772   1.937  -0.852  0.00  0.00    -0.001 A 
ATOM      4  C3  UNL d   1      -1.805   2.332  -1.704  0.00  0.00     0.003 A 
ATOM      5  C4  UNL d   1      -2.199   1.507  -2.755  0.00  0.00    -0.005 A 
ATOM      6  C5  UNL d   1      -1.562   0.284  -2.955  0.00  0.00     0.003 A 
ATOM      7  C6  UNL d   1      -0.529  -0.113  -2.105  0.00  0.00    -0.001 A 
ENDROOT
TORSDOF 0
ENDMDL
