MODEL 1
REMARK minimizedAffinity -1.90500927
REMARK minimizedRMSD -1
REMARK  0 active torsions:
REMARK  status: ('A' for Active; 'I' for Inactive)
ROOT
ATOM      1  C   UNL d   1       1.217  -2.201   1.768  0.00  0.00     0.078 C 
ATOM      2  C1  UNL d   1       0.288  -1.088   1.387  0.00  0.00    -0.077 A 
ATOM      3  C2  UNL d   1      -0.858  -0.813   2.144  0.00  0.00    -0.001 A 
ATOM      4  C3  UNL d   1      -1.719   0.220   1.772  0.00  0.00     0.003 A 
ATOM      5  C4  UNL d   1      -1.445   0.986   0.641  0.00  0.00    -0.005 A 
ATOM      6  C5  UNL d   1      -0.308   0.719  -0.120  0.00  0.00     0.003 A 
ATOM      7  C6  UNL d   1       0.554  -0.314   0.251  0.00  0.00    -0.001 A 
ENDROOT
TORSDOF 0
ENDMDL
