MODEL 1
REMARK minimizedAffinity 2.22499228
REMARK minimizedRMSD -1
REMARK  0 active torsions:
REMARK  status: ('A' for Active; 'I' for Inactive)
ROOT
ATOM      1  C   UNL d   1      -2.736  -4.966  -2.227  0.00  0.00     0.078 C 
ATOM      2  C1  UNL d   1      -2.115  -5.314  -3.548  0.00  0.00    -0.077 A 
ATOM      3  C2  UNL d   1      -2.908  -5.668  -4.646  0.00  0.00    -0.001 A 
ATOM      4  C3  UNL d   1      -2.316  -5.998  -5.866  0.00  0.00     0.003 A 
ATOM      5  C4  UNL d   1      -0.929  -5.979  -6.000  0.00  0.00    -0.005 A 
ATOM      6  C5  UNL d   1      -0.132  -5.630  -4.911  0.00  0.00     0.003 A 
ATOM      7  C6  UNL d   1      -0.722  -5.299  -3.690  0.00  0.00    -0.001 A 
ENDROOT
TORSDOF 0
ENDMDL
