MODEL 1
REMARK minimizedAffinity -4.01592493
REMARK minimizedRMSD -1
REMARK  0 active torsions:
REMARK  status: ('A' for Active; 'I' for Inactive)
ROOT
ATOM      1  C   UNL d   1      -0.894   0.780  -0.973  0.00  0.00     0.078 C 
ATOM      2  C1  UNL d   1      -0.002  -0.097  -0.146  0.00  0.00    -0.077 A 
ATOM      3  C2  UNL d   1       1.301  -0.398  -0.562  0.00  0.00    -0.001 A 
ATOM      4  C3  UNL d   1       2.117  -1.223   0.213  0.00  0.00     0.003 A 
ATOM      5  C4  UNL d   1       1.638  -1.756   1.409  0.00  0.00    -0.005 A 
ATOM      6  C5  UNL d   1       0.343  -1.465   1.830  0.00  0.00     0.003 A 
ATOM      7  C6  UNL d   1      -0.475  -0.639   1.056  0.00  0.00    -0.001 A 
ENDROOT
TORSDOF 0
ENDMDL
