MODEL 1
REMARK minimizedAffinity -4.0354743
REMARK minimizedRMSD -1
REMARK  0 active torsions:
REMARK  status: ('A' for Active; 'I' for Inactive)
ROOT
ATOM      1  C   UNL d   1       0.126  -1.563   3.390  0.00  0.00     0.078 C 
ATOM      2  C1  UNL d   1       0.601  -1.073   2.055  0.00  0.00    -0.077 A 
ATOM      3  C2  UNL d   1       1.789  -1.553   1.491  0.00  0.00    -0.001 A 
ATOM      4  C3  UNL d   1       2.223  -1.081   0.251  0.00  0.00     0.003 A 
ATOM      5  C4  UNL d   1       1.477  -0.125  -0.434  0.00  0.00    -0.005 A 
ATOM      6  C5  UNL d   1       0.294   0.361   0.120  0.00  0.00     0.003 A 
ATOM      7  C6  UNL d   1      -0.142  -0.110   1.359  0.00  0.00    -0.001 A 
ENDROOT
TORSDOF 0
ENDMDL
