MODEL 1
REMARK minimizedAffinity -2.55315542
REMARK minimizedRMSD -1
REMARK  0 active torsions:
REMARK  status: ('A' for Active; 'I' for Inactive)
ROOT
ATOM      1  C   UNL d   1       1.126  -2.299   2.581  0.00  0.00     0.078 C 
ATOM      2  C1  UNL d   1       0.895  -1.248   1.537  0.00  0.00    -0.077 A 
ATOM      3  C2  UNL d   1       1.935  -0.821   0.701  0.00  0.00    -0.001 A 
ATOM      4  C3  UNL d   1       1.708   0.165  -0.260  0.00  0.00     0.003 A 
ATOM      5  C4  UNL d   1       0.443   0.734  -0.395  0.00  0.00    -0.005 A 
ATOM      6  C5  UNL d   1      -0.597   0.317   0.434  0.00  0.00     0.003 A 
ATOM      7  C6  UNL d   1      -0.372  -0.669   1.396  0.00  0.00    -0.001 A 
ENDROOT
TORSDOF 0
ENDMDL
