MODEL 1
REMARK minimizedAffinity -3.06786871
REMARK minimizedRMSD -1
REMARK  0 active torsions:
REMARK  status: ('A' for Active; 'I' for Inactive)
ROOT
ATOM      1  C   UNL d   1      -1.093   1.287  -0.658  0.00  0.00     0.078 C 
ATOM      2  C1  UNL d   1      -0.312   0.254   0.097  0.00  0.00    -0.077 A 
ATOM      3  C2  UNL d   1       0.978  -0.114  -0.307  0.00  0.00    -0.001 A 
ATOM      4  C3  UNL d   1       1.690  -1.084   0.400  0.00  0.00     0.003 A 
ATOM      5  C4  UNL d   1       1.120  -1.695   1.515  0.00  0.00    -0.005 A 
ATOM      6  C5  UNL d   1      -0.163  -1.338   1.924  0.00  0.00     0.003 A 
ATOM      7  C6  UNL d   1      -0.876  -0.368   1.218  0.00  0.00    -0.001 A 
ENDROOT
TORSDOF 0
ENDMDL
