MODEL 1
REMARK minimizedAffinity -3.35001469
REMARK minimizedRMSD -1
REMARK  0 active torsions:
REMARK  status: ('A' for Active; 'I' for Inactive)
ROOT
ATOM      1  C   UNL d   1       0.402  -2.242   2.967  0.00  0.00     0.078 C 
ATOM      2  C1  UNL d   1       0.773  -1.534   1.698  0.00  0.00    -0.077 A 
ATOM      3  C2  UNL d   1       2.080  -1.587   1.198  0.00  0.00    -0.001 A 
ATOM      4  C3  UNL d   1       2.413  -0.916   0.021  0.00  0.00     0.003 A 
ATOM      5  C4  UNL d   1       1.446  -0.186  -0.666  0.00  0.00    -0.005 A 
ATOM      6  C5  UNL d   1       0.143  -0.126  -0.176  0.00  0.00     0.003 A 
ATOM      7  C6  UNL d   1      -0.192  -0.796   1.002  0.00  0.00    -0.001 A 
ENDROOT
TORSDOF 0
ENDMDL
