MODEL 1
REMARK minimizedAffinity -4.24803305
REMARK minimizedRMSD -1
REMARK  0 active torsions:
REMARK  status: ('A' for Active; 'I' for Inactive)
ROOT
ATOM      1  C   UNL d   1      -0.651   3.637  -3.187  0.00  0.00     0.078 C 
ATOM      2  C1  UNL d   1      -1.542   2.447  -2.992  0.00  0.00    -0.077 A 
ATOM      3  C2  UNL d   1      -2.773   2.567  -2.336  0.00  0.00    -0.001 A 
ATOM      4  C3  UNL d   1      -3.587   1.448  -2.152  0.00  0.00     0.003 A 
ATOM      5  C4  UNL d   1      -3.179   0.201  -2.621  0.00  0.00    -0.005 A 
ATOM      6  C5  UNL d   1      -1.955   0.072  -3.274  0.00  0.00     0.003 A 
ATOM      7  C6  UNL d   1      -1.139   1.189  -3.458  0.00  0.00    -0.001 A 
ENDROOT
TORSDOF 0
ENDMDL
