MODEL 1
REMARK minimizedAffinity -4.12807465
REMARK minimizedRMSD -1
REMARK  0 active torsions:
REMARK  status: ('A' for Active; 'I' for Inactive)
ROOT
ATOM      1  C   UNL d   1      -0.596   0.959  -1.203  0.00  0.00     0.078 C 
ATOM      2  C1  UNL d   1       0.393   0.133  -0.436  0.00  0.00    -0.077 A 
ATOM      3  C2  UNL d   1       0.284  -0.018   0.952  0.00  0.00    -0.001 A 
ATOM      4  C3  UNL d   1       1.218  -0.782   1.654  0.00  0.00     0.003 A 
ATOM      5  C4  UNL d   1       2.267  -1.400   0.978  0.00  0.00    -0.005 A 
ATOM      6  C5  UNL d   1       2.385  -1.253  -0.403  0.00  0.00     0.003 A 
ATOM      7  C6  UNL d   1       1.453  -0.490  -1.107  0.00  0.00    -0.001 A 
ENDROOT
TORSDOF 0
ENDMDL
