MODEL 1
REMARK minimizedAffinity -4.22015142
REMARK minimizedRMSD -1
REMARK  0 active torsions:
REMARK  status: ('A' for Active; 'I' for Inactive)
ROOT
ATOM      1  C   UNL d   1       0.760  -3.034   1.693  0.00  0.00     0.078 C 
ATOM      2  C1  UNL d   1       0.741  -1.669   1.073  0.00  0.00    -0.077 A 
ATOM      3  C2  UNL d   1      -0.414  -0.877   1.107  0.00  0.00    -0.001 A 
ATOM      4  C3  UNL d   1      -0.421   0.388   0.517  0.00  0.00     0.003 A 
ATOM      5  C4  UNL d   1       0.724   0.872  -0.113  0.00  0.00    -0.005 A 
ATOM      6  C5  UNL d   1       1.877   0.091  -0.154  0.00  0.00     0.003 A 
ATOM      7  C6  UNL d   1       1.886  -1.174   0.436  0.00  0.00    -0.001 A 
ENDROOT
TORSDOF 0
ENDMDL
