MODEL 1
REMARK minimizedAffinity -2.21744847
REMARK minimizedRMSD -1
REMARK  0 active torsions:
REMARK  status: ('A' for Active; 'I' for Inactive)
ROOT
ATOM      1  C   UNL d   1       1.651  -1.226   0.668  0.00  0.00     0.078 C 
ATOM      2  C1  UNL d   1       0.400  -0.409   0.540  0.00  0.00    -0.077 A 
ATOM      3  C2  UNL d   1      -0.636  -0.525   1.475  0.00  0.00    -0.001 A 
ATOM      4  C3  UNL d   1      -1.798   0.235   1.339  0.00  0.00     0.003 A 
ATOM      5  C4  UNL d   1      -1.937   1.115   0.267  0.00  0.00    -0.005 A 
ATOM      6  C5  UNL d   1      -0.913   1.235  -0.670  0.00  0.00     0.003 A 
ATOM      7  C6  UNL d   1       0.250   0.476  -0.535  0.00  0.00    -0.001 A 
ENDROOT
TORSDOF 0
ENDMDL
