MODEL 1
REMARK minimizedAffinity -3.45863891
REMARK minimizedRMSD -1
REMARK  0 active torsions:
REMARK  status: ('A' for Active; 'I' for Inactive)
ROOT
ATOM      1  C   UNL d   1      -1.490  -0.566   1.077  0.00  0.00     0.078 C 
ATOM      2  C1  UNL d   1      -1.628   0.334  -0.115  0.00  0.00    -0.077 A 
ATOM      3  C2  UNL d   1      -0.580   1.176  -0.508  0.00  0.00    -0.001 A 
ATOM      4  C3  UNL d   1      -0.725   2.015  -1.613  0.00  0.00     0.003 A 
ATOM      5  C4  UNL d   1      -1.917   2.022  -2.334  0.00  0.00    -0.005 A 
ATOM      6  C5  UNL d   1      -2.967   1.190  -1.949  0.00  0.00     0.003 A 
ATOM      7  C6  UNL d   1      -2.823   0.350  -0.844  0.00  0.00    -0.001 A 
ENDROOT
TORSDOF 0
ENDMDL
