MODEL 1
REMARK minimizedAffinity 1.63825345
REMARK minimizedRMSD -1
REMARK  0 active torsions:
REMARK  status: ('A' for Active; 'I' for Inactive)
ROOT
ATOM      1  C1  DEN d   1      -5.963   0.073  -2.173  0.00  0.00     0.130 A 
ATOM      2  C2  DEN d   1      -5.982  -1.352  -2.490  0.00  0.00    -0.031 A 
ATOM      3  C3  DEN d   1      -5.993  -1.493  -3.959  0.00  0.00     0.027 A 
ATOM      4  C4  DEN d   1      -5.976   0.348  -5.766  0.00  0.00     0.027 A 
ATOM      5  C5  DEN d   1      -5.972   1.708  -5.982  0.00  0.00    -0.003 A 
ATOM      6  C6  DEN d   1      -5.999   2.611  -4.953  0.00  0.00     0.001 A 
ATOM      7  C7  DEN d   1      -5.986   2.165  -3.658  0.00  0.00     0.017 A 
ATOM      8  C8  DEN d   1      -5.997   0.795  -3.432  0.00  0.00    -0.094 A 
ATOM      9  C9  DEN d   1      -5.958  -0.102  -4.486  0.00  0.00    -0.072 A 
ENDROOT
TORSDOF 0
ENDMDL
