MODEL 1
REMARK minimizedAffinity 5.33342409
REMARK minimizedRMSD -1
REMARK  0 active torsions:
REMARK  status: ('A' for Active; 'I' for Inactive)
ROOT
ATOM      1  C1  DEN d   1       0.529   3.105  -3.047  0.00  0.00     0.130 A 
ATOM      2  C2  DEN d   1       1.883   3.379  -2.573  0.00  0.00    -0.031 A 
ATOM      3  C3  DEN d   1       2.420   4.511  -3.354  0.00  0.00     0.027 A 
ATOM      4  C4  DEN d   1       1.291   5.864  -5.237  0.00  0.00     0.027 A 
ATOM      5  C5  DEN d   1       0.149   5.995  -5.995  0.00  0.00    -0.003 A 
ATOM      6  C6  DEN d   1      -0.925   5.157  -5.848  0.00  0.00     0.001 A 
ATOM      7  C7  DEN d   1      -0.896   4.178  -4.890  0.00  0.00     0.017 A 
ATOM      8  C8  DEN d   1       0.255   4.036  -4.127  0.00  0.00    -0.094 A 
ATOM      9  C9  DEN d   1       1.325   4.900  -4.282  0.00  0.00    -0.072 A 
ENDROOT
TORSDOF 0
ENDMDL
