MODEL 1
REMARK minimizedAffinity 7.18743038
REMARK minimizedRMSD -1
REMARK  0 active torsions:
REMARK  status: ('A' for Active; 'I' for Inactive)
ROOT
ATOM      1  C1  DEN d   1       0.352   4.116  -2.293  0.00  0.00     0.130 A 
ATOM      2  C2  DEN d   1       1.507   3.302  -2.660  0.00  0.00    -0.031 A 
ATOM      3  C3  DEN d   1       1.707   3.423  -4.118  0.00  0.00     0.027 A 
ATOM      4  C4  DEN d   1       0.351   4.789  -5.834  0.00  0.00     0.027 A 
ATOM      5  C5  DEN d   1      -0.727   5.630  -5.999  0.00  0.00    -0.003 A 
ATOM      6  C6  DEN d   1      -1.534   5.996  -4.955  0.00  0.00     0.001 A 
ATOM      7  C7  DEN d   1      -1.250   5.554  -3.690  0.00  0.00     0.017 A 
ATOM      8  C8  DEN d   1      -0.169   4.700  -3.517  0.00  0.00    -0.094 A 
ATOM      9  C9  DEN d   1       0.643   4.352  -4.583  0.00  0.00    -0.072 A 
ENDROOT
TORSDOF 0
ENDMDL
