MODEL 1
REMARK minimizedAffinity 0.64843297
REMARK minimizedRMSD -1
REMARK  0 active torsions:
REMARK  status: ('A' for Active; 'I' for Inactive)
ROOT
ATOM      1  C1  DEN d   1       0.047   3.376  -2.553  0.00  0.00     0.130 A 
ATOM      2  C2  DEN d   1       1.499   3.243  -2.626  0.00  0.00    -0.031 A 
ATOM      3  C3  DEN d   1       1.960   3.930  -3.849  0.00  0.00     0.027 A 
ATOM      4  C4  DEN d   1       0.573   5.185  -5.625  0.00  0.00     0.027 A 
ATOM      5  C5  DEN d   1      -0.699   5.555  -6.000  0.00  0.00    -0.003 A 
ATOM      6  C6  DEN d   1      -1.806   5.199  -5.277  0.00  0.00     0.001 A 
ATOM      7  C7  DEN d   1      -1.658   4.488  -4.115  0.00  0.00     0.017 A 
ATOM      8  C8  DEN d   1      -0.379   4.105  -3.734  0.00  0.00    -0.094 A 
ATOM      9  C9  DEN d   1       0.729   4.485  -4.473  0.00  0.00    -0.072 A 
ENDROOT
TORSDOF 0
ENDMDL
