MODEL 1
REMARK minimizedAffinity 9.64727497
REMARK minimizedRMSD -1
REMARK  0 active torsions:
REMARK  status: ('A' for Active; 'I' for Inactive)
ROOT
ATOM      1  C1  DEN d   1       1.137  -1.437   3.873  0.00  0.00     0.130 A 
ATOM      2  C2  DEN d   1       1.971  -2.533   3.388  0.00  0.00    -0.031 A 
ATOM      3  C3  DEN d   1       1.203  -3.273   2.366  0.00  0.00     0.027 A 
ATOM      4  C4  DEN d   1      -1.182  -2.828   1.491  0.00  0.00     0.027 A 
ATOM      5  C5  DEN d   1      -2.289  -2.017   1.611  0.00  0.00    -0.003 A 
ATOM      6  C6  DEN d   1      -2.343  -0.985   2.509  0.00  0.00     0.001 A 
ATOM      7  C7  DEN d   1      -1.254  -0.708   3.293  0.00  0.00     0.017 A 
ATOM      8  C8  DEN d   1      -0.138  -1.527   3.183  0.00  0.00    -0.094 A 
ATOM      9  C9  DEN d   1      -0.097  -2.558   2.260  0.00  0.00    -0.072 A 
ENDROOT
TORSDOF 0
ENDMDL
