MODEL 1
REMARK minimizedAffinity 16.1640587
REMARK minimizedRMSD -1
REMARK  0 active torsions:
REMARK  status: ('A' for Active; 'I' for Inactive)
ROOT
ATOM      1  C1  DEN d   1       5.212   1.033  -1.572  0.00  0.00     0.130 A 
ATOM      2  C2  DEN d   1       5.492   1.837  -2.759  0.00  0.00    -0.031 A 
ATOM      3  C3  DEN d   1       4.253   2.548  -3.132  0.00  0.00     0.027 A 
ATOM      4  C4  DEN d   1       1.940   2.486  -1.991  0.00  0.00     0.027 A 
ATOM      5  C5  DEN d   1       1.213   1.938  -0.958  0.00  0.00    -0.003 A 
ATOM      6  C6  DEN d   1       1.753   1.032  -0.085  0.00  0.00     0.001 A 
ATOM      7  C7  DEN d   1       3.072   0.680  -0.201  0.00  0.00     0.017 A 
ATOM      8  C8  DEN d   1       3.810   1.222  -1.245  0.00  0.00    -0.094 A 
ATOM      9  C9  DEN d   1       3.249   2.146  -2.110  0.00  0.00    -0.072 A 
ENDROOT
TORSDOF 0
ENDMDL
