MODEL 1
REMARK minimizedAffinity 9.65816021
REMARK minimizedRMSD -1
REMARK  0 active torsions:
REMARK  status: ('A' for Active; 'I' for Inactive)
ROOT
ATOM      1  C1  DEN d   1      -0.324  -5.264  -2.900  0.00  0.00     0.130 A 
ATOM      2  C2  DEN d   1      -1.757  -5.201  -3.169  0.00  0.00    -0.031 A 
ATOM      3  C3  DEN d   1      -2.439  -4.803  -1.921  0.00  0.00     0.027 A 
ATOM      4  C4  DEN d   1      -1.418  -4.277   0.388  0.00  0.00     0.027 A 
ATOM      5  C5  DEN d   1      -0.246  -4.207   1.108  0.00  0.00    -0.003 A 
ATOM      6  C6  DEN d   1       0.969  -4.514   0.555  0.00  0.00     0.001 A 
ATOM      7  C7  DEN d   1       1.045  -4.863  -0.767  0.00  0.00     0.017 A 
ATOM      8  C8  DEN d   1      -0.134  -4.944  -1.497  0.00  0.00    -0.094 A 
ATOM      9  C9  DEN d   1      -1.351  -4.617  -0.924  0.00  0.00    -0.072 A 
ENDROOT
TORSDOF 0
ENDMDL
