MODEL 1
REMARK minimizedAffinity 14.3294582
REMARK minimizedRMSD -1
REMARK  0 active torsions:
REMARK  status: ('A' for Active; 'I' for Inactive)
ROOT
ATOM      1  C1  DEN d   1       3.512  -0.799  -0.207  0.00  0.00     0.130 A 
ATOM      2  C2  DEN d   1       3.857  -0.978   1.200  0.00  0.00    -0.031 A 
ATOM      3  C3  DEN d   1       3.276   0.148   1.959  0.00  0.00     0.027 A 
ATOM      4  C4  DEN d   1       1.881   2.138   1.097  0.00  0.00     0.027 A 
ATOM      5  C5  DEN d   1       1.339   2.727  -0.024  0.00  0.00    -0.003 A 
ATOM      6  C6  DEN d   1       1.511   2.205  -1.279  0.00  0.00     0.001 A 
ATOM      7  C7  DEN d   1       2.205   1.035  -1.438  0.00  0.00     0.017 A 
ATOM      8  C8  DEN d   1       2.760   0.439  -0.313  0.00  0.00    -0.094 A 
ATOM      9  C9  DEN d   1       2.565   0.976   0.948  0.00  0.00    -0.072 A 
ENDROOT
TORSDOF 0
ENDMDL
