MODEL 1
REMARK minimizedAffinity 9.3968792
REMARK minimizedRMSD -1
REMARK  0 active torsions:
REMARK  status: ('A' for Active; 'I' for Inactive)
ROOT
ATOM      1  C1  DEN d   1      -3.030  -2.067   1.682  0.00  0.00     0.130 A 
ATOM      2  C2  DEN d   1      -1.651  -2.458   1.402  0.00  0.00    -0.031 A 
ATOM      3  C3  DEN d   1      -0.767  -1.684   2.298  0.00  0.00     0.027 A 
ATOM      4  C4  DEN d   1      -1.398   0.067   4.083  0.00  0.00     0.027 A 
ATOM      5  C5  DEN d   1      -2.444   0.740   4.675  0.00  0.00    -0.003 A 
ATOM      6  C6  DEN d   1      -3.745   0.551   4.291  0.00  0.00     0.001 A 
ATOM      7  C7  DEN d   1      -4.038  -0.366   3.317  0.00  0.00     0.017 A 
ATOM      8  C8  DEN d   1      -2.988  -1.043   2.710  0.00  0.00    -0.094 A 
ATOM      9  C9  DEN d   1      -1.681  -0.847   3.121  0.00  0.00    -0.072 A 
ENDROOT
TORSDOF 0
ENDMDL
