MODEL 1
REMARK minimizedAffinity 9.19838428
REMARK minimizedRMSD -1
REMARK  0 active torsions:
REMARK  status: ('A' for Active; 'I' for Inactive)
ROOT
ATOM      1  C1  DEN d   1       1.212   6.000  -5.191  0.00  0.00     0.130 A 
ATOM      2  C2  DEN d   1      -0.001   5.915  -6.000  0.00  0.00    -0.031 A 
ATOM      3  C3  DEN d   1      -0.756   4.722  -5.567  0.00  0.00     0.027 A 
ATOM      4  C4  DEN d   1      -0.169   3.009  -3.731  0.00  0.00     0.027 A 
ATOM      5  C5  DEN d   1       0.765   2.656  -2.782  0.00  0.00    -0.003 A 
ATOM      6  C6  DEN d   1       1.920   3.368  -2.594  0.00  0.00     0.001 A 
ATOM      7  C7  DEN d   1       2.150   4.496  -3.336  0.00  0.00     0.017 A 
ATOM      8  C8  DEN d   1       1.217   4.854  -4.300  0.00  0.00    -0.094 A 
ATOM      9  C9  DEN d   1       0.049   4.128  -4.466  0.00  0.00    -0.072 A 
ENDROOT
TORSDOF 0
ENDMDL
