MODEL 1
REMARK minimizedAffinity 11.2126846
REMARK minimizedRMSD -1
REMARK  0 active torsions:
REMARK  status: ('A' for Active; 'I' for Inactive)
ROOT
ATOM      1  C1  DEN d   1       3.905  -1.011   0.344  0.00  0.00     0.130 A 
ATOM      2  C2  DEN d   1       3.331  -1.208   1.673  0.00  0.00    -0.031 A 
ATOM      3  C3  DEN d   1       2.234  -0.235   1.845  0.00  0.00     0.027 A 
ATOM      4  C4  DEN d   1       1.369   1.545   0.192  0.00  0.00     0.027 A 
ATOM      5  C5  DEN d   1       1.548   2.099  -1.057  0.00  0.00    -0.003 A 
ATOM      6  C6  DEN d   1       2.539   1.682  -1.905  0.00  0.00     0.001 A 
ATOM      7  C7  DEN d   1       3.361   0.650  -1.534  0.00  0.00     0.017 A 
ATOM      8  C8  DEN d   1       3.191   0.092  -0.274  0.00  0.00    -0.094 A 
ATOM      9  C9  DEN d   1       2.176   0.520   0.565  0.00  0.00    -0.072 A 
ENDROOT
TORSDOF 0
ENDMDL
