MODEL 1
REMARK minimizedAffinity -1.3340013
REMARK minimizedRMSD -1
REMARK  0 active torsions:
REMARK  status: ('A' for Active; 'I' for Inactive)
ROOT
ATOM      1  C1  DEN d   1       2.543   2.022  -2.050  0.00  0.00     0.130 A 
ATOM      2  C2  DEN d   1       1.434   1.154  -1.662  0.00  0.00    -0.031 A 
ATOM      3  C3  DEN d   1       0.248   1.550  -2.448  0.00  0.00     0.027 A 
ATOM      4  C4  DEN d   1       0.023   3.408  -4.222  0.00  0.00     0.027 A 
ATOM      5  C5  DEN d   1       0.690   4.417  -4.882  0.00  0.00    -0.003 A 
ATOM      6  C6  DEN d   1       2.001   4.718  -4.622  0.00  0.00     0.001 A 
ATOM      7  C7  DEN d   1       2.700   3.973  -3.710  0.00  0.00     0.017 A 
ATOM      8  C8  DEN d   1       2.033   2.959  -3.035  0.00  0.00    -0.094 A 
ATOM      9  C9  DEN d   1       0.711   2.662  -3.321  0.00  0.00    -0.072 A 
ENDROOT
TORSDOF 0
ENDMDL
