MODEL 1
REMARK minimizedAffinity 9.80523586
REMARK minimizedRMSD -1
REMARK  0 active torsions:
REMARK  status: ('A' for Active; 'I' for Inactive)
ROOT
ATOM      1  C1  DEN d   1       2.681   2.799  -0.781  0.00  0.00     0.130 A 
ATOM      2  C2  DEN d   1       1.830   2.163  -1.783  0.00  0.00    -0.031 A 
ATOM      3  C3  DEN d   1       1.673   0.742  -1.413  0.00  0.00     0.027 A 
ATOM      4  C4  DEN d   1       2.654  -0.527   0.606  0.00  0.00     0.027 A 
ATOM      5  C5  DEN d   1       3.448  -0.412   1.726  0.00  0.00    -0.003 A 
ATOM      6  C6  DEN d   1       4.065   0.763   2.067  0.00  0.00     0.001 A 
ATOM      7  C7  DEN d   1       3.861   1.882   1.305  0.00  0.00     0.017 A 
ATOM      8  C8  DEN d   1       3.067   1.773   0.170  0.00  0.00    -0.094 A 
ATOM      9  C9  DEN d   1       2.443   0.579  -0.151  0.00  0.00    -0.072 A 
ENDROOT
TORSDOF 0
ENDMDL
