MODEL 1
REMARK minimizedAffinity 4.26056194
REMARK minimizedRMSD -1
REMARK  0 active torsions:
REMARK  status: ('A' for Active; 'I' for Inactive)
ROOT
ATOM      1  C1  DEN d   1       1.975   4.633  -5.305  0.00  0.00     0.130 A 
ATOM      2  C2  DEN d   1       0.681   4.812  -4.653  0.00  0.00    -0.031 A 
ATOM      3  C3  DEN d   1       0.701   4.058  -3.384  0.00  0.00     0.027 A 
ATOM      4  C4  DEN d   1       2.602   2.643  -2.367  0.00  0.00     0.027 A 
ATOM      5  C5  DEN d   1       3.887   2.185  -2.559  0.00  0.00    -0.003 A 
ATOM      6  C6  DEN d   1       4.606   2.481  -3.686  0.00  0.00     0.001 A 
ATOM      7  C7  DEN d   1       4.062   3.294  -4.645  0.00  0.00     0.017 A 
ATOM      8  C8  DEN d   1       2.764   3.753  -4.462  0.00  0.00    -0.094 A 
ATOM      9  C9  DEN d   1       2.058   3.453  -3.310  0.00  0.00    -0.072 A 
ENDROOT
TORSDOF 0
ENDMDL
