MODEL 1
REMARK minimizedAffinity 1.79400539
REMARK minimizedRMSD -1
REMARK  0 active torsions:
REMARK  status: ('A' for Active; 'I' for Inactive)
ROOT
ATOM      1  C1  DEN d   1       3.387   3.603  -1.815  0.00  0.00     0.130 A 
ATOM      2  C2  DEN d   1       3.073   3.069  -3.137  0.00  0.00    -0.031 A 
ATOM      3  C3  DEN d   1       2.140   1.938  -2.962  0.00  0.00     0.027 A 
ATOM      4  C4  DEN d   1       1.153   0.971  -0.784  0.00  0.00     0.027 A 
ATOM      5  C5  DEN d   1       1.136   1.085   0.588  0.00  0.00    -0.003 A 
ATOM      6  C6  DEN d   1       1.889   2.017   1.253  0.00  0.00     0.001 A 
ATOM      7  C7  DEN d   1       2.656   2.902   0.542  0.00  0.00     0.017 A 
ATOM      8  C8  DEN d   1       2.684   2.788  -0.842  0.00  0.00    -0.094 A 
ATOM      9  C9  DEN d   1       1.906   1.847  -1.496  0.00  0.00    -0.072 A 
ENDROOT
TORSDOF 0
ENDMDL
