MODEL 1
REMARK minimizedAffinity 12.4550819
REMARK minimizedRMSD -1
REMARK  0 active torsions:
REMARK  status: ('A' for Active; 'I' for Inactive)
ROOT
ATOM      1  C1  DEN d   1      -1.127   0.953   1.398  0.00  0.00     0.130 A 
ATOM      2  C2  DEN d   1      -1.932  -0.003   2.153  0.00  0.00    -0.031 A 
ATOM      3  C3  DEN d   1      -1.059  -1.129   2.541  0.00  0.00     0.027 A 
ATOM      4  C4  DEN d   1       1.449  -1.480   2.054  0.00  0.00     0.027 A 
ATOM      5  C5  DEN d   1       2.558  -0.945   1.437  0.00  0.00    -0.003 A 
ATOM      6  C6  DEN d   1       2.510   0.234   0.742  0.00  0.00     0.001 A 
ATOM      7  C7  DEN d   1       1.337   0.940   0.683  0.00  0.00     0.017 A 
ATOM      8  C8  DEN d   1       0.212   0.403   1.296  0.00  0.00    -0.094 A 
ATOM      9  C9  DEN d   1       0.285  -0.784   2.005  0.00  0.00    -0.072 A 
ENDROOT
TORSDOF 0
ENDMDL
