MODEL 1
REMARK minimizedAffinity 1.36670685
REMARK minimizedRMSD -1
REMARK  0 active torsions:
REMARK  status: ('A' for Active; 'I' for Inactive)
ROOT
ATOM      1  C1  DEN d   1       1.337   4.594  -4.379  0.00  0.00     0.130 A 
ATOM      2  C2  DEN d   1       0.425   4.630  -3.239  0.00  0.00    -0.031 A 
ATOM      3  C3  DEN d   1       1.000   3.792  -2.168  0.00  0.00     0.027 A 
ATOM      4  C4  DEN d   1       3.203   2.452  -2.161  0.00  0.00     0.027 A 
ATOM      5  C5  DEN d   1       4.308   2.105  -2.907  0.00  0.00    -0.003 A 
ATOM      6  C6  DEN d   1       4.482   2.531  -4.197  0.00  0.00     0.001 A 
ATOM      7  C7  DEN d   1       3.558   3.368  -4.766  0.00  0.00     0.017 A 
ATOM      8  C8  DEN d   1       2.438   3.716  -4.023  0.00  0.00    -0.094 A 
ATOM      9  C9  DEN d   1       2.286   3.285  -2.716  0.00  0.00    -0.072 A 
ENDROOT
TORSDOF 0
ENDMDL
