MODEL 1
REMARK minimizedAffinity -1.93080854
REMARK minimizedRMSD -1
REMARK  1 active torsions:
REMARK  status: ('A' for Active; 'I' for Inactive)
REMARK    1  A    between atoms: N_2  and  C1_3 
ROOT
ATOM      1  C1  UNL d   1      -1.659   2.205  -1.546  0.00  0.00     0.143 A 
ATOM      2  C2  UNL d   1      -1.141   2.083  -0.252  0.00  0.00    -0.057 A 
ATOM      3  C3  UNL d   1      -0.097   2.904   0.192  0.00  0.00     0.033 A 
ATOM      4  C4  UNL d   1       0.469   3.844  -0.663  0.00  0.00    -0.042 A 
ATOM      5  C5  UNL d   1      -0.013   3.965  -1.961  0.00  0.00     0.033 A 
ATOM      6  C6  UNL d   1      -1.061   3.147  -2.397  0.00  0.00    -0.057 A 
ENDROOT
BRANCH   1   7
ATOM      7  N   UNL d   1      -2.630   1.352  -2.078  0.00  0.00    -0.732 N 
ATOM      8  C   UNL d   1      -3.366   1.726  -3.267  0.00  0.00     0.284 C 
ATOM      9  H3  UNL d   1      -2.344   0.376  -2.056  0.00  0.00     0.395 HD
ENDBRANCH   1   7
TORSDOF 1
ENDMDL
