MODEL 1
REMARK minimizedAffinity 4.22674417
REMARK minimizedRMSD -1
REMARK  1 active torsions:
REMARK  status: ('A' for Active; 'I' for Inactive)
REMARK    1  A    between atoms: N_2  and  C1_3 
ROOT
ATOM      1  C1  UNL d   1      -0.218   2.291   0.649  0.00  0.00     0.143 A 
ATOM      2  C2  UNL d   1      -1.506   1.874   1.003  0.00  0.00    -0.057 A 
ATOM      3  C3  UNL d   1      -1.881   1.737   2.345  0.00  0.00     0.033 A 
ATOM      4  C4  UNL d   1      -0.964   1.987   3.360  0.00  0.00    -0.042 A 
ATOM      5  C5  UNL d   1       0.330   2.378   3.031  0.00  0.00     0.033 A 
ATOM      6  C6  UNL d   1       0.697   2.520   1.689  0.00  0.00    -0.057 A 
ENDROOT
BRANCH   1   7
ATOM      7  N   UNL d   1       0.246   2.352  -0.667  0.00  0.00    -0.732 N 
ATOM      8  C   UNL d   1      -0.292   3.323  -1.594  0.00  0.00     0.284 C 
ATOM      9  H3  UNL d   1       1.255   2.232  -0.729  0.00  0.00     0.395 HD
ENDBRANCH   1   7
TORSDOF 1
ENDMDL
