MODEL 1
REMARK minimizedAffinity 18.0382195
REMARK minimizedRMSD -1
REMARK  1 active torsions:
REMARK  status: ('A' for Active; 'I' for Inactive)
REMARK    1  A    between atoms: N_2  and  C1_3 
ROOT
ATOM      1  C1  UNL d   1      -4.641   5.774   1.083  0.00  0.00     0.143 A 
ATOM      2  C2  UNL d   1      -3.343   5.266   0.967  0.00  0.00    -0.057 A 
ATOM      3  C3  UNL d   1      -2.790   4.964  -0.284  0.00  0.00     0.033 A 
ATOM      4  C4  UNL d   1      -3.540   5.139  -1.443  0.00  0.00    -0.042 A 
ATOM      5  C5  UNL d   1      -4.841   5.619  -1.349  0.00  0.00     0.033 A 
ATOM      6  C6  UNL d   1      -5.385   5.924  -0.098  0.00  0.00    -0.057 A 
ENDROOT
BRANCH   1   7
ATOM      7  N   UNL d   1      -5.281   6.000   2.303  0.00  0.00    -0.732 N 
ATOM      8  C   UNL d   1      -4.531   5.999   3.541  0.00  0.00     0.284 C 
ATOM      9  H3  UNL d   1      -5.984   6.734   2.243  0.00  0.00     0.395 HD
ENDBRANCH   1   7
TORSDOF 1
ENDMDL
