MODEL 1
REMARK minimizedAffinity 11.881773
REMARK minimizedRMSD -1
REMARK  1 active torsions:
REMARK  status: ('A' for Active; 'I' for Inactive)
REMARK    1  A    between atoms: N_2  and  C1_3 
ROOT
ATOM      1  C1  UNL d   1      -0.209   3.497  -1.645  0.00  0.00     0.143 A 
ATOM      2  C2  UNL d   1       0.879   4.050  -0.962  0.00  0.00    -0.057 A 
ATOM      3  C3  UNL d   1       1.189   3.662   0.347  0.00  0.00     0.033 A 
ATOM      4  C4  UNL d   1       0.395   2.730   1.009  0.00  0.00    -0.042 A 
ATOM      5  C5  UNL d   1      -0.706   2.186   0.358  0.00  0.00     0.033 A 
ATOM      6  C6  UNL d   1      -1.006   2.573  -0.951  0.00  0.00    -0.057 A 
ENDROOT
BRANCH   1   7
ATOM      7  N   UNL d   1      -0.627   3.914  -2.911  0.00  0.00    -0.732 N 
ATOM      8  C   UNL d   1      -1.532   3.100  -3.694  0.00  0.00     0.284 C 
ATOM      9  H3  UNL d   1      -0.829   4.910  -2.945  0.00  0.00     0.395 HD
ENDBRANCH   1   7
TORSDOF 1
ENDMDL
