MODEL 1
REMARK minimizedAffinity -2.03159142
REMARK minimizedRMSD -1
REMARK  1 active torsions:
REMARK  status: ('A' for Active; 'I' for Inactive)
REMARK    1  A    between atoms: N_2  and  C1_3 
ROOT
ATOM      1  C1  UNL d   1      -0.998   1.775   1.904  0.00  0.00     0.143 A 
ATOM      2  C2  UNL d   1      -0.593   3.090   2.158  0.00  0.00    -0.057 A 
ATOM      3  C3  UNL d   1       0.000   3.872   1.159  0.00  0.00     0.033 A 
ATOM      4  C4  UNL d   1       0.226   3.341  -0.107  0.00  0.00    -0.042 A 
ATOM      5  C5  UNL d   1      -0.146   2.028  -0.374  0.00  0.00     0.033 A 
ATOM      6  C6  UNL d   1      -0.744   1.254   0.626  0.00  0.00    -0.057 A 
ENDROOT
BRANCH   1   7
ATOM      7  N   UNL d   1      -1.502   0.914   2.882  0.00  0.00    -0.732 N 
ATOM      8  C   UNL d   1      -1.025  -0.448   2.983  0.00  0.00     0.284 C 
ATOM      9  H3  UNL d   1      -1.629   1.378   3.779  0.00  0.00     0.395 HD
ENDBRANCH   1   7
TORSDOF 1
ENDMDL
