MODEL 1
REMARK minimizedAffinity 3.29302144
REMARK minimizedRMSD -1
REMARK  1 active torsions:
REMARK  status: ('A' for Active; 'I' for Inactive)
REMARK    1  A    between atoms: N_2  and  C1_3 
ROOT
ATOM      1  C1  UNL d   1      -1.492  -1.180   3.414  0.00  0.00     0.143 A 
ATOM      2  C2  UNL d   1      -0.301  -1.541   2.775  0.00  0.00    -0.057 A 
ATOM      3  C3  UNL d   1       0.117  -2.876   2.717  0.00  0.00     0.033 A 
ATOM      4  C4  UNL d   1      -0.638  -3.874   3.324  0.00  0.00    -0.042 A 
ATOM      5  C5  UNL d   1      -1.813  -3.536   3.986  0.00  0.00     0.033 A 
ATOM      6  C6  UNL d   1      -2.228  -2.201   4.035  0.00  0.00    -0.057 A 
ENDROOT
BRANCH   1   7
ATOM      7  N   UNL d   1      -1.911   0.141   3.591  0.00  0.00    -0.732 N 
ATOM      8  C   UNL d   1      -1.478   1.180   2.681  0.00  0.00     0.284 C 
ATOM      9  H3  UNL d   1      -2.890   0.205   3.859  0.00  0.00     0.395 HD
ENDBRANCH   1   7
TORSDOF 1
ENDMDL
