MODEL 1
REMARK minimizedAffinity 4.08711863
REMARK minimizedRMSD -1
REMARK  1 active torsions:
REMARK  status: ('A' for Active; 'I' for Inactive)
REMARK    1  A    between atoms: N_2  and  C1_3 
ROOT
ATOM      1  C1  UNL d   1      -1.738  -0.059   2.832  0.00  0.00     0.143 A 
ATOM      2  C2  UNL d   1      -0.362   0.131   2.669  0.00  0.00    -0.057 A 
ATOM      3  C3  UNL d   1       0.142   1.244   1.986  0.00  0.00     0.033 A 
ATOM      4  C4  UNL d   1      -0.726   2.176   1.427  0.00  0.00    -0.042 A 
ATOM      5  C5  UNL d   1      -2.098   1.995   1.555  0.00  0.00     0.033 A 
ATOM      6  C6  UNL d   1      -2.595   0.885   2.244  0.00  0.00    -0.057 A 
ENDROOT
BRANCH   1   7
ATOM      7  N   UNL d   1      -2.303  -1.196   3.415  0.00  0.00    -0.732 N 
ATOM      8  C   UNL d   1      -1.485  -2.124   4.165  0.00  0.00     0.284 C 
ATOM      9  H3  UNL d   1      -3.210  -1.006   3.836  0.00  0.00     0.395 HD
ENDBRANCH   1   7
TORSDOF 1
ENDMDL
