MODEL 1
REMARK minimizedAffinity -4.88069963
REMARK minimizedRMSD -1
REMARK  1 active torsions:
REMARK  status: ('A' for Active; 'I' for Inactive)
REMARK    1  A    between atoms: N_2  and  C1_3 
ROOT
ATOM      1  C1  UNL d   1       0.268   3.414   0.870  0.00  0.00     0.143 A 
ATOM      2  C2  UNL d   1      -0.769   2.489   0.709  0.00  0.00    -0.057 A 
ATOM      3  C3  UNL d   1      -1.200   1.689   1.775  0.00  0.00     0.033 A 
ATOM      4  C4  UNL d   1      -0.580   1.780   3.016  0.00  0.00    -0.042 A 
ATOM      5  C5  UNL d   1       0.469   2.675   3.193  0.00  0.00     0.033 A 
ATOM      6  C6  UNL d   1       0.891   3.476   2.127  0.00  0.00    -0.057 A 
ENDROOT
BRANCH   1   7
ATOM      7  N   UNL d   1       0.807   4.167  -0.175  0.00  0.00    -0.732 N 
ATOM      8  C   UNL d   1       0.114   5.334  -0.678  0.00  0.00     0.284 C 
ATOM      9  H3  UNL d   1       1.814   4.287  -0.088  0.00  0.00     0.395 HD
ENDBRANCH   1   7
TORSDOF 1
ENDMDL
