MODEL 1
REMARK minimizedAffinity -0.723724425
REMARK minimizedRMSD -1
REMARK  1 active torsions:
REMARK  status: ('A' for Active; 'I' for Inactive)
REMARK    1  A    between atoms: N_2  and  C1_3 
ROOT
ATOM      1  C1  UNL d   1      -0.825   2.374   1.866  0.00  0.00     0.143 A 
ATOM      2  C2  UNL d   1       0.076   3.403   2.158  0.00  0.00    -0.057 A 
ATOM      3  C3  UNL d   1       0.720   4.116   1.140  0.00  0.00     0.033 A 
ATOM      4  C4  UNL d   1       0.495   3.791  -0.194  0.00  0.00    -0.042 A 
ATOM      5  C5  UNL d   1      -0.378   2.756  -0.508  0.00  0.00     0.033 A 
ATOM      6  C6  UNL d   1      -1.023   2.052   0.514  0.00  0.00    -0.057 A 
ENDROOT
BRANCH   1   7
ATOM      7  N   UNL d   1      -1.421   1.563   2.835  0.00  0.00    -0.732 N 
ATOM      8  C   UNL d   1      -2.642   0.842   2.543  0.00  0.00     0.284 C 
ATOM      9  H3  UNL d   1      -0.739   1.028   3.366  0.00  0.00     0.395 HD
ENDBRANCH   1   7
TORSDOF 1
ENDMDL
