MODEL 1
REMARK minimizedAffinity -0.165959448
REMARK minimizedRMSD -1
REMARK  1 active torsions:
REMARK  status: ('A' for Active; 'I' for Inactive)
REMARK    1  A    between atoms: N_2  and  C1_3 
ROOT
ATOM      1  C1  UNL d   1       0.183   2.313   0.779  0.00  0.00     0.143 A 
ATOM      2  C2  UNL d   1      -0.423   1.089   1.084  0.00  0.00    -0.057 A 
ATOM      3  C3  UNL d   1      -0.861   0.799   2.382  0.00  0.00     0.033 A 
ATOM      4  C4  UNL d   1      -0.675   1.720   3.407  0.00  0.00    -0.042 A 
ATOM      5  C5  UNL d   1      -0.053   2.933   3.133  0.00  0.00     0.033 A 
ATOM      6  C6  UNL d   1       0.377   3.219   1.834  0.00  0.00    -0.057 A 
ENDROOT
BRANCH   1   7
ATOM      7  N   UNL d   1       0.729   2.621  -0.469  0.00  0.00    -0.732 N 
ATOM      8  C   UNL d   1      -0.122   3.032  -1.565  0.00  0.00     0.284 C 
ATOM      9  H3  UNL d   1       1.595   3.150  -0.394  0.00  0.00     0.395 HD
ENDBRANCH   1   7
TORSDOF 1
ENDMDL
