MODEL 1
REMARK minimizedAffinity -0.804545343
REMARK minimizedRMSD -1
REMARK  1 active torsions:
REMARK  status: ('A' for Active; 'I' for Inactive)
REMARK    1  A    between atoms: N_2  and  C1_3 
ROOT
ATOM      1  C1  UNL d   1      -0.361   2.631   1.414  0.00  0.00     0.143 A 
ATOM      2  C2  UNL d   1       0.168   3.909   1.199  0.00  0.00    -0.057 A 
ATOM      3  C3  UNL d   1       0.361   4.406  -0.095  0.00  0.00     0.033 A 
ATOM      4  C4  UNL d   1       0.056   3.621  -1.202  0.00  0.00    -0.042 A 
ATOM      5  C5  UNL d   1      -0.447   2.339  -1.013  0.00  0.00     0.033 A 
ATOM      6  C6  UNL d   1      -0.644   1.850   0.282  0.00  0.00    -0.057 A 
ENDROOT
BRANCH   1   7
ATOM      7  N   UNL d   1      -0.484   2.042   2.674  0.00  0.00    -0.732 N 
ATOM      8  C   UNL d   1      -1.475   1.015   2.914  0.00  0.00     0.284 C 
ATOM      9  H3  UNL d   1       0.418   1.859   3.108  0.00  0.00     0.395 HD
ENDBRANCH   1   7
TORSDOF 1
ENDMDL
