MODEL 1
REMARK minimizedAffinity 12.6744165
REMARK minimizedRMSD -1
REMARK  2 active torsions:
REMARK  status: ('A' for Active; 'I' for Inactive)
REMARK    1  A    between atoms: C2'_3  and  C1'_4 
REMARK    2  A    between atoms: C1'_4  and  C1_5 
ROOT
ATOM      1  C1  I4B d   1      -0.959   2.441  -1.213  0.00  0.00    -0.075 A 
ATOM      2  C2  I4B d   1      -0.523   3.731  -1.389  0.00  0.00     0.003 A 
ATOM      3  C3  I4B d   1      -0.008   4.465  -0.293  0.00  0.00     0.002 A 
ATOM      4  C4  I4B d   1       0.005   3.892   0.963  0.00  0.00    -0.004 A 
ATOM      5  C5  I4B d   1      -0.416   2.577   1.135  0.00  0.00     0.002 A 
ATOM      6  C6  I4B d   1      -0.890   1.842   0.038  0.00  0.00     0.003 A 
ENDROOT
BRANCH   1   7
ATOM      7  C1' I4B d   1      -1.527   1.707  -2.385  0.00  0.00     0.060 C 
BRANCH   7   8
ATOM      8  C2' I4B d   1      -1.929   0.322  -1.918  0.00  0.00    -0.013 C 
ATOM      9  C4' I4B d   1      -3.418   0.123  -2.023  0.00  0.00     0.013 C 
ATOM     10  C3' I4B d   1      -1.189  -0.681  -2.751  0.00  0.00     0.013 C 
ENDBRANCH   7   8
ENDBRANCH   1   7
TORSDOF 2
ENDMDL
