MODEL 1
REMARK minimizedAffinity 8.34633827
REMARK minimizedRMSD -1
REMARK  2 active torsions:
REMARK  status: ('A' for Active; 'I' for Inactive)
REMARK    1  A    between atoms: C2'_3  and  C1'_4 
REMARK    2  A    between atoms: C1'_4  and  C1_5 
ROOT
ATOM      1  C1  I4B d   1      -3.437   1.955  -2.415  0.00  0.00    -0.075 A 
ATOM      2  C2  I4B d   1      -2.164   2.419  -2.637  0.00  0.00     0.003 A 
ATOM      3  C3  I4B d   1      -1.052   1.558  -2.472  0.00  0.00     0.002 A 
ATOM      4  C4  I4B d   1      -1.254   0.263  -2.038  0.00  0.00    -0.004 A 
ATOM      5  C5  I4B d   1      -2.546  -0.212  -1.836  0.00  0.00     0.002 A 
ATOM      6  C6  I4B d   1      -3.646   0.635  -2.037  0.00  0.00     0.003 A 
ENDROOT
BRANCH   1   7
ATOM      7  C1' I4B d   1      -4.586   2.900  -2.567  0.00  0.00     0.060 C 
BRANCH   7   8
ATOM      8  C2' I4B d   1      -4.149   4.021  -3.489  0.00  0.00    -0.013 C 
ATOM      9  C4' I4B d   1      -5.098   4.175  -4.648  0.00  0.00     0.013 C 
ATOM     10  C3' I4B d   1      -4.073   5.282  -2.681  0.00  0.00     0.013 C 
ENDBRANCH   7   8
ENDBRANCH   1   7
TORSDOF 2
ENDMDL
