MODEL 1
REMARK minimizedAffinity 2.68992567
REMARK minimizedRMSD -1
REMARK  2 active torsions:
REMARK  status: ('A' for Active; 'I' for Inactive)
REMARK    1  A    between atoms: C2'_3  and  C1'_4 
REMARK    2  A    between atoms: C1'_4  and  C1_5 
ROOT
ATOM      1  C1  I4B d   1      -0.656   3.161  -1.384  0.00  0.00    -0.075 A 
ATOM      2  C2  I4B d   1      -1.745   3.381  -2.190  0.00  0.00     0.003 A 
ATOM      3  C3  I4B d   1      -2.067   4.695  -2.609  0.00  0.00     0.002 A 
ATOM      4  C4  I4B d   1      -1.309   5.757  -2.161  0.00  0.00    -0.004 A 
ATOM      5  C5  I4B d   1      -0.192   5.530  -1.362  0.00  0.00     0.002 A 
ATOM      6  C6  I4B d   1       0.145   4.222  -0.981  0.00  0.00     0.003 A 
ENDROOT
BRANCH   1   7
ATOM      7  C1' I4B d   1      -0.363   1.765  -0.933  0.00  0.00     0.060 C 
BRANCH   7   8
ATOM      8  C2' I4B d   1      -0.846   0.816  -2.010  0.00  0.00    -0.013 C 
ATOM      9  C4' I4B d   1       0.043  -0.396  -2.108  0.00  0.00     0.013 C 
ATOM     10  C3' I4B d   1      -2.257   0.427  -1.686  0.00  0.00     0.013 C 
ENDBRANCH   7   8
ENDBRANCH   1   7
TORSDOF 2
ENDMDL
