MODEL 1
REMARK minimizedAffinity -1.73730159
REMARK minimizedRMSD -1
REMARK  2 active torsions:
REMARK  status: ('A' for Active; 'I' for Inactive)
REMARK    1  A    between atoms: C2'_3  and  C1'_4 
REMARK    2  A    between atoms: C1'_4  and  C1_5 
ROOT
ATOM      1  C1  I4B d   1      -0.378   2.047  -0.309  0.00  0.00    -0.075 A 
ATOM      2  C2  I4B d   1      -0.051   0.821  -0.831  0.00  0.00     0.003 A 
ATOM      3  C3  I4B d   1       0.344  -0.236   0.024  0.00  0.00     0.002 A 
ATOM      4  C4  I4B d   1       0.446  -0.009   1.382  0.00  0.00    -0.004 A 
ATOM      5  C5  I4B d   1       0.092   1.228   1.912  0.00  0.00     0.002 A 
ATOM      6  C6  I4B d   1      -0.334   2.260   1.062  0.00  0.00     0.003 A 
ENDROOT
BRANCH   1   7
ATOM      7  C1' I4B d   1      -0.759   3.151  -1.245  0.00  0.00     0.060 C 
BRANCH   7   8
ATOM      8  C2' I4B d   1      -0.359   4.465  -0.605  0.00  0.00    -0.013 C 
ATOM      9  C4' I4B d   1       1.138   4.595  -0.517  0.00  0.00     0.013 C 
ATOM     10  C3' I4B d   1      -0.953   5.575  -1.418  0.00  0.00     0.013 C 
ENDBRANCH   7   8
ENDBRANCH   1   7
TORSDOF 2
ENDMDL
