MODEL 1
REMARK minimizedAffinity 3.88781333
REMARK minimizedRMSD -1
REMARK  1 active torsions:
REMARK  status: ('A' for Active; 'I' for Inactive)
REMARK    1  A    between atoms: C1_2  and  C2_3 
ROOT
ATOM      1  C2  UNL d   1      -3.849   1.669   5.131  0.00  0.00    -0.081 A 
ATOM      2  C3  UNL d   1      -3.833   1.870   3.745  0.00  0.00     0.006 A 
ATOM      3  C4  UNL d   1      -2.948   1.155   2.935  0.00  0.00     0.002 A 
ATOM      4  C5  UNL d   1      -2.070   0.221   3.496  0.00  0.00    -0.080 A 
ATOM      5  C6  UNL d   1      -1.135  -0.575   2.634  0.00  0.00     0.076 C 
ATOM      6  C7  UNL d   1      -2.073   0.033   4.882  0.00  0.00     0.002 A 
ATOM      7  C8  UNL d   1      -2.957   0.748   5.692  0.00  0.00     0.006 A 
ENDROOT
BRANCH   1   8
ATOM      8  C1  UNL d   1      -4.847   2.391   5.999  0.00  0.00     0.054 C 
ATOM      9  C   UNL d   1      -4.922   3.869   5.643  0.00  0.00     0.018 C 
ENDBRANCH   1   8
TORSDOF 1
ENDMDL
