MODEL 1
REMARK minimizedAffinity 5.78978109
REMARK minimizedRMSD -1
REMARK  1 active torsions:
REMARK  status: ('A' for Active; 'I' for Inactive)
REMARK    1  A    between atoms: C1_2  and  C2_3 
ROOT
ATOM      1  C2  UNL d   1      -2.821   1.339   3.917  0.00  0.00    -0.081 A 
ATOM      2  C3  UNL d   1      -2.019   0.499   4.699  0.00  0.00     0.006 A 
ATOM      3  C4  UNL d   1      -1.309  -0.551   4.112  0.00  0.00     0.002 A 
ATOM      4  C5  UNL d   1      -1.384  -0.774   2.733  0.00  0.00    -0.080 A 
ATOM      5  C6  UNL d   1      -0.604  -1.880   2.085  0.00  0.00     0.076 C 
ATOM      6  C7  UNL d   1      -2.200   0.053   1.954  0.00  0.00     0.002 A 
ATOM      7  C8  UNL d   1      -2.910   1.103   2.541  0.00  0.00     0.006 A 
ENDROOT
BRANCH   1   8
ATOM      8  C1  UNL d   1      -3.536   2.512   4.538  0.00  0.00     0.054 C 
ATOM      9  C   UNL d   1      -4.241   2.112   5.826  0.00  0.00     0.018 C 
ENDBRANCH   1   8
TORSDOF 1
ENDMDL
