MODEL 1
REMARK minimizedAffinity 8.86104202
REMARK minimizedRMSD -1
REMARK  1 active torsions:
REMARK  status: ('A' for Active; 'I' for Inactive)
REMARK    1  A    between atoms: C1_2  and  C2_3 
ROOT
ATOM      1  C2  UNL d   1      -4.064   1.855   5.125  0.00  0.00    -0.081 A 
ATOM      2  C3  UNL d   1      -4.176   1.897   3.730  0.00  0.00     0.006 A 
ATOM      3  C4  UNL d   1      -3.262   1.213   2.925  0.00  0.00     0.002 A 
ATOM      4  C5  UNL d   1      -2.226   0.470   3.502  0.00  0.00    -0.080 A 
ATOM      5  C6  UNL d   1      -1.256  -0.294   2.650  0.00  0.00     0.076 C 
ATOM      6  C7  UNL d   1      -2.103   0.443   4.895  0.00  0.00     0.002 A 
ATOM      7  C8  UNL d   1      -3.017   1.127   5.700  0.00  0.00     0.006 A 
ENDROOT
BRANCH   1   8
ATOM      8  C1  UNL d   1      -5.086   2.539   5.997  0.00  0.00     0.054 C 
ATOM      9  C   UNL d   1      -4.891   4.048   5.999  0.00  0.00     0.018 C 
ENDBRANCH   1   8
TORSDOF 1
ENDMDL
