MODEL 1
REMARK minimizedAffinity 10.4979429
REMARK minimizedRMSD -1
REMARK  1 active torsions:
REMARK  status: ('A' for Active; 'I' for Inactive)
REMARK    1  A    between atoms: C1_2  and  C2_3 
ROOT
ATOM      1  C2  UNL d   1      -3.305   1.324   4.191  0.00  0.00    -0.081 A 
ATOM      2  C3  UNL d   1      -3.422   1.092   2.815  0.00  0.00     0.006 A 
ATOM      3  C4  UNL d   1      -2.491   0.291   2.150  0.00  0.00     0.002 A 
ATOM      4  C5  UNL d   1      -1.433  -0.298   2.850  0.00  0.00    -0.080 A 
ATOM      5  C6  UNL d   1      -0.444  -1.184   2.153  0.00  0.00     0.076 C 
ATOM      6  C7  UNL d   1      -1.305  -0.052   4.221  0.00  0.00     0.002 A 
ATOM      7  C8  UNL d   1      -2.235   0.749   4.887  0.00  0.00     0.006 A 
ENDROOT
BRANCH   1   8
ATOM      8  C1  UNL d   1      -4.344   2.134   4.924  0.00  0.00     0.054 C 
ATOM      9  C   UNL d   1      -5.738   1.872   4.374  0.00  0.00     0.018 C 
ENDBRANCH   1   8
TORSDOF 1
ENDMDL
