MODEL 1
REMARK minimizedAffinity 10.4865513
REMARK minimizedRMSD -1
REMARK  1 active torsions:
REMARK  status: ('A' for Active; 'I' for Inactive)
REMARK    1  A    between atoms: C1_2  and  C2_3 
ROOT
ATOM      1  C2  UNL d   1      -5.718  -0.248  -1.395  0.00  0.00    -0.081 A 
ATOM      2  C3  UNL d   1      -5.994   1.121  -1.507  0.00  0.00     0.006 A 
ATOM      3  C4  UNL d   1      -6.000   1.937  -0.374  0.00  0.00     0.002 A 
ATOM      4  C5  UNL d   1      -5.722   1.401   0.889  0.00  0.00    -0.080 A 
ATOM      5  C6  UNL d   1      -5.695   2.273   2.109  0.00  0.00     0.076 C 
ATOM      6  C7  UNL d   1      -5.463   0.031   1.003  0.00  0.00     0.002 A 
ATOM      7  C8  UNL d   1      -5.458  -0.786  -0.130  0.00  0.00     0.006 A 
ENDROOT
BRANCH   1   8
ATOM      8  C1  UNL d   1      -5.648  -1.118  -2.623  0.00  0.00     0.054 C 
ATOM      9  C   UNL d   1      -6.000  -0.333  -3.879  0.00  0.00     0.018 C 
ENDBRANCH   1   8
TORSDOF 1
ENDMDL
