MODEL 1
REMARK minimizedAffinity 12.8753328
REMARK minimizedRMSD -1
REMARK  1 active torsions:
REMARK  status: ('A' for Active; 'I' for Inactive)
REMARK    1  A    between atoms: C1_2  and  C2_3 
ROOT
ATOM      1  C2  UNL d   1      -2.754   1.682   4.164  0.00  0.00    -0.081 A 
ATOM      2  C3  UNL d   1      -1.773   0.912   4.801  0.00  0.00     0.006 A 
ATOM      3  C4  UNL d   1      -1.045  -0.042   4.086  0.00  0.00     0.002 A 
ATOM      4  C5  UNL d   1      -1.280  -0.237   2.721  0.00  0.00    -0.080 A 
ATOM      5  C6  UNL d   1      -0.485  -1.237   1.935  0.00  0.00     0.076 C 
ATOM      6  C7  UNL d   1      -2.272   0.519   2.087  0.00  0.00     0.002 A 
ATOM      7  C8  UNL d   1      -3.001   1.473   2.802  0.00  0.00     0.006 A 
ENDROOT
BRANCH   1   8
ATOM      8  C1  UNL d   1      -3.495   2.756   4.917  0.00  0.00     0.054 C 
ATOM      9  C   UNL d   1      -4.961   2.391   5.102  0.00  0.00     0.018 C 
ENDBRANCH   1   8
TORSDOF 1
ENDMDL
