MODEL 1
REMARK minimizedAffinity 13.596756
REMARK minimizedRMSD -1
REMARK  1 active torsions:
REMARK  status: ('A' for Active; 'I' for Inactive)
REMARK    1  A    between atoms: C1_2  and  C2_3 
ROOT
ATOM      1  C2  UNL d   1       0.047  -1.208   2.535  0.00  0.00    -0.081 A 
ATOM      2  C3  UNL d   1      -0.584  -2.036   1.599  0.00  0.00     0.006 A 
ATOM      3  C4  UNL d   1      -1.956  -1.917   1.360  0.00  0.00     0.002 A 
ATOM      4  C5  UNL d   1      -2.716  -0.964   2.047  0.00  0.00    -0.080 A 
ATOM      5  C6  UNL d   1      -4.183  -0.806   1.778  0.00  0.00     0.076 C 
ATOM      6  C7  UNL d   1      -2.088  -0.149   2.995  0.00  0.00     0.002 A 
ATOM      7  C8  UNL d   1      -0.717  -0.268   3.234  0.00  0.00     0.006 A 
ENDROOT
BRANCH   1   8
ATOM      8  C1  UNL d   1       1.537  -1.289   2.748  0.00  0.00     0.054 C 
ATOM      9  C   UNL d   1       2.278  -0.298   1.861  0.00  0.00     0.018 C 
ENDBRANCH   1   8
TORSDOF 1
ENDMDL
