MODEL 1
REMARK minimizedAffinity 15.9979362
REMARK minimizedRMSD -1
REMARK  1 active torsions:
REMARK  status: ('A' for Active; 'I' for Inactive)
REMARK    1  A    between atoms: C1_2  and  C2_3 
ROOT
ATOM      1  C2  UNL d   1      -1.220  -0.210   3.052  0.00  0.00    -0.081 A 
ATOM      2  C3  UNL d   1      -1.220  -0.071   4.446  0.00  0.00     0.006 A 
ATOM      3  C4  UNL d   1      -2.120   0.794   5.072  0.00  0.00     0.002 A 
ATOM      4  C5  UNL d   1      -3.040   1.529   4.316  0.00  0.00    -0.080 A 
ATOM      5  C6  UNL d   1      -4.033   2.439   4.978  0.00  0.00     0.076 C 
ATOM      6  C7  UNL d   1      -3.029   1.404   2.923  0.00  0.00     0.002 A 
ATOM      7  C8  UNL d   1      -2.129   0.539   2.297  0.00  0.00     0.006 A 
ENDROOT
BRANCH   1   8
ATOM      8  C1  UNL d   1      -0.294  -1.190   2.379  0.00  0.00     0.054 C 
ATOM      9  C   UNL d   1      -0.998  -1.930   1.251  0.00  0.00     0.018 C 
ENDBRANCH   1   8
TORSDOF 1
ENDMDL
