MODEL 1
REMARK minimizedAffinity 9.03726101
REMARK minimizedRMSD -1
REMARK  1 active torsions:
REMARK  status: ('A' for Active; 'I' for Inactive)
REMARK    1  A    between atoms: C1_2  and  C2_3 
ROOT
ATOM      1  C2  UNL d   1       0.119  -1.413   3.409  0.00  0.00    -0.081 A 
ATOM      2  C3  UNL d   1      -0.892  -1.062   2.507  0.00  0.00     0.006 A 
ATOM      3  C4  UNL d   1      -1.295  -1.956   1.512  0.00  0.00     0.002 A 
ATOM      4  C5  UNL d   1      -0.700  -3.217   1.407  0.00  0.00    -0.080 A 
ATOM      5  C6  UNL d   1      -1.144  -4.198   0.363  0.00  0.00     0.076 C 
ATOM      6  C7  UNL d   1       0.323  -3.562   2.298  0.00  0.00     0.002 A 
ATOM      7  C8  UNL d   1       0.726  -2.668   3.293  0.00  0.00     0.006 A 
ENDROOT
BRANCH   1   8
ATOM      8  C1  UNL d   1       0.510  -0.477   4.524  0.00  0.00     0.054 C 
ATOM      9  C   UNL d   1      -0.714   0.055   5.255  0.00  0.00     0.018 C 
ENDBRANCH   1   8
TORSDOF 1
ENDMDL
