MODEL 1
REMARK minimizedAffinity 5.52715158
REMARK minimizedRMSD -1
REMARK  1 active torsions:
REMARK  status: ('A' for Active; 'I' for Inactive)
REMARK    1  A    between atoms: C1_2  and  C2_3 
ROOT
ATOM      1  C2  UNL d   1      -2.813  -5.873  -3.846  0.00  0.00    -0.081 A 
ATOM      2  C3  UNL d   1      -2.273  -5.582  -2.587  0.00  0.00     0.006 A 
ATOM      3  C4  UNL d   1      -0.896  -5.412  -2.429  0.00  0.00     0.002 A 
ATOM      4  C5  UNL d   1      -0.037  -5.521  -3.528  0.00  0.00    -0.080 A 
ATOM      5  C6  UNL d   1       1.441  -5.310  -3.377  0.00  0.00     0.076 C 
ATOM      6  C7  UNL d   1      -0.574  -5.828  -4.782  0.00  0.00     0.002 A 
ATOM      7  C8  UNL d   1      -1.951  -6.000  -4.941  0.00  0.00     0.006 A 
ENDROOT
BRANCH   1   8
ATOM      8  C1  UNL d   1      -4.304  -5.993  -4.032  0.00  0.00     0.054 C 
ATOM      9  C   UNL d   1      -4.679  -6.000  -5.507  0.00  0.00     0.018 C 
ENDBRANCH   1   8
TORSDOF 1
ENDMDL
