MODEL 1
REMARK minimizedAffinity 9.25832939
REMARK minimizedRMSD -1
REMARK  1 active torsions:
REMARK  status: ('A' for Active; 'I' for Inactive)
REMARK    1  A    between atoms: C1_2  and  C2_3 
ROOT
ATOM      1  C2  UNL d   1       0.139  -0.496   3.014  0.00  0.00    -0.081 A 
ATOM      2  C3  UNL d   1      -0.748   0.418   3.596  0.00  0.00     0.006 A 
ATOM      3  C4  UNL d   1      -1.985   0.681   3.002  0.00  0.00     0.002 A 
ATOM      4  C5  UNL d   1      -2.359   0.030   1.822  0.00  0.00    -0.080 A 
ATOM      5  C6  UNL d   1      -3.696   0.280   1.191  0.00  0.00     0.076 C 
ATOM      6  C7  UNL d   1      -1.466  -0.871   1.231  0.00  0.00     0.002 A 
ATOM      7  C8  UNL d   1      -0.229  -1.134   1.824  0.00  0.00     0.006 A 
ENDROOT
BRANCH   1   8
ATOM      8  C1  UNL d   1       1.446  -0.830   3.686  0.00  0.00     0.054 C 
ATOM      9  C   UNL d   1       2.117  -2.027   3.027  0.00  0.00     0.018 C 
ENDBRANCH   1   8
TORSDOF 1
ENDMDL
