MODEL 1
REMARK minimizedAffinity 13.4096403
REMARK minimizedRMSD -1
REMARK  1 active torsions:
REMARK  status: ('A' for Active; 'I' for Inactive)
REMARK    1  A    between atoms: C1_2  and  C2_3 
ROOT
ATOM      1  C2  UNL d   1      -3.933   0.406   2.058  0.00  0.00    -0.081 A 
ATOM      2  C3  UNL d   1      -4.045   0.910   3.359  0.00  0.00     0.006 A 
ATOM      3  C4  UNL d   1      -2.936   0.930   4.209  0.00  0.00     0.002 A 
ATOM      4  C5  UNL d   1      -1.696   0.454   3.770  0.00  0.00    -0.080 A 
ATOM      5  C6  UNL d   1      -0.491   0.497   4.662  0.00  0.00     0.076 C 
ATOM      6  C7  UNL d   1      -1.588  -0.066   2.476  0.00  0.00     0.002 A 
ATOM      7  C8  UNL d   1      -2.696  -0.087   1.626  0.00  0.00     0.006 A 
ENDROOT
BRANCH   1   8
ATOM      8  C1  UNL d   1      -5.110   0.443   1.118  0.00  0.00     0.054 C 
ATOM      9  C   UNL d   1      -5.019   1.624   0.162  0.00  0.00     0.018 C 
ENDBRANCH   1   8
TORSDOF 1
ENDMDL
