MODEL 1
REMARK minimizedAffinity 25.4848423
REMARK minimizedRMSD -1
REMARK  0 active torsions:
REMARK  status: ('A' for Active; 'I' for Inactive)
ROOT
ATOM      1  C   UNL d   1       5.939  -5.997   4.105  0.00  0.00    -0.002 A 
ATOM      2  C1  UNL d   1       5.765  -5.797   5.468  0.00  0.00     0.010 A 
ATOM      3  C2  UNL d   1       4.511  -5.461   5.982  0.00  0.00     0.041 A 
ATOM      4  C3  UNL d   1       3.424  -5.330   5.096  0.00  0.00    -0.075 A 
ATOM      5  S   UNL d   1       1.797  -4.926   5.499  0.00  0.00     0.015 SA
ATOM      6  C4  UNL d   1       1.294  -5.010   3.873  0.00  0.00     0.022 A 
ATOM      7  C5  UNL d   1       2.330  -5.336   3.029  0.00  0.00     0.026 A 
ATOM      8  C6  UNL d   1       3.574  -5.526   3.720  0.00  0.00    -0.082 A 
ATOM      9  C7  UNL d   1       4.858  -5.865   3.229  0.00  0.00     0.045 A 
ENDROOT
TORSDOF 0
ENDMDL
