MODEL 1
REMARK minimizedAffinity 18.0941906
REMARK minimizedRMSD -1
REMARK  0 active torsions:
REMARK  status: ('A' for Active; 'I' for Inactive)
ROOT
ATOM      1  C   UNL d   1       5.678  -2.469  -6.000  0.00  0.00    -0.002 A 
ATOM      2  C1  UNL d   1       6.000  -3.352  -4.979  0.00  0.00     0.010 A 
ATOM      3  C2  UNL d   1       5.820  -2.989  -3.643  0.00  0.00     0.041 A 
ATOM      4  C3  UNL d   1       5.304  -1.712  -3.347  0.00  0.00    -0.075 A 
ATOM      5  S   UNL d   1       4.998  -1.050  -1.785  0.00  0.00     0.015 SA
ATOM      6  C4  UNL d   1       4.432   0.419  -2.435  0.00  0.00     0.022 A 
ATOM      7  C5  UNL d   1       4.468   0.423  -3.810  0.00  0.00     0.026 A 
ATOM      8  C6  UNL d   1       4.971  -0.805  -4.358  0.00  0.00    -0.082 A 
ATOM      9  C7  UNL d   1       5.166  -1.203  -5.703  0.00  0.00     0.045 A 
ENDROOT
TORSDOF 0
ENDMDL
