MODEL 1
REMARK minimizedAffinity 13.6764679
REMARK minimizedRMSD -1
REMARK  0 active torsions:
REMARK  status: ('A' for Active; 'I' for Inactive)
ROOT
ATOM      1  C   UNL d   1       4.044  -0.279   2.658  0.00  0.00    -0.002 A 
ATOM      2  C1  UNL d   1       3.545   0.345   3.793  0.00  0.00     0.010 A 
ATOM      3  C2  UNL d   1       2.184   0.278   4.099  0.00  0.00     0.041 A 
ATOM      4  C3  UNL d   1       1.326  -0.434   3.238  0.00  0.00    -0.075 A 
ATOM      5  S   UNL d   1      -0.376  -0.650   3.412  0.00  0.00     0.015 SA
ATOM      6  C4  UNL d   1      -0.479  -1.576   1.984  0.00  0.00     0.022 A 
ATOM      7  C5  UNL d   1       0.745  -1.726   1.377  0.00  0.00     0.026 A 
ATOM      8  C6  UNL d   1       1.806  -1.070   2.090  0.00  0.00    -0.082 A 
ATOM      9  C7  UNL d   1       3.190  -0.984   1.807  0.00  0.00     0.045 A 
ENDROOT
TORSDOF 0
ENDMDL
