MODEL 1
REMARK minimizedAffinity 9.18909073
REMARK minimizedRMSD -1
REMARK  0 active torsions:
REMARK  status: ('A' for Active; 'I' for Inactive)
ROOT
ATOM      1  C   UNL d   1      -1.414  -2.601   2.240  0.00  0.00    -0.002 A 
ATOM      2  C1  UNL d   1      -1.545  -1.680   3.270  0.00  0.00     0.010 A 
ATOM      3  C2  UNL d   1      -0.485  -0.837   3.608  0.00  0.00     0.041 A 
ATOM      4  C3  UNL d   1       0.720  -0.933   2.885  0.00  0.00    -0.075 A 
ATOM      5  S   UNL d   1       2.152  -0.002   3.121  0.00  0.00     0.015 SA
ATOM      6  C4  UNL d   1       2.971  -0.804   1.860  0.00  0.00     0.022 A 
ATOM      7  C5  UNL d   1       2.187  -1.762   1.262  0.00  0.00     0.026 A 
ATOM      8  C6  UNL d   1       0.876  -1.852   1.843  0.00  0.00    -0.082 A 
ATOM      9  C7  UNL d   1      -0.216  -2.694   1.525  0.00  0.00     0.045 A 
ENDROOT
TORSDOF 0
ENDMDL
