MODEL 1
REMARK minimizedAffinity 19.4509449
REMARK minimizedRMSD -1
REMARK  0 active torsions:
REMARK  status: ('A' for Active; 'I' for Inactive)
ROOT
ATOM      1  C   UNL d   1      -0.909  -2.220   2.543  0.00  0.00    -0.002 A 
ATOM      2  C1  UNL d   1      -0.861  -1.181   3.461  0.00  0.00     0.010 A 
ATOM      3  C2  UNL d   1       0.261  -0.353   3.540  0.00  0.00     0.041 A 
ATOM      4  C3  UNL d   1       1.344  -0.589   2.670  0.00  0.00    -0.075 A 
ATOM      5  S   UNL d   1       2.821   0.296   2.586  0.00  0.00     0.015 SA
ATOM      6  C4  UNL d   1       3.423  -0.684   1.328  0.00  0.00     0.022 A 
ATOM      7  C5  UNL d   1       2.532  -1.668   0.969  0.00  0.00     0.026 A 
ATOM      8  C6  UNL d   1       1.319  -1.629   1.737  0.00  0.00    -0.082 A 
ATOM      9  C7  UNL d   1       0.167  -2.451   1.682  0.00  0.00     0.045 A 
ENDROOT
TORSDOF 0
ENDMDL
