MODEL 1
REMARK minimizedAffinity 20.3216991
REMARK minimizedRMSD -1
REMARK  0 active torsions:
REMARK  status: ('A' for Active; 'I' for Inactive)
ROOT
ATOM      1  C   UNL d   1      -5.144   3.656  -0.588  0.00  0.00    -0.002 A 
ATOM      2  C1  UNL d   1      -5.155   5.044  -0.615  0.00  0.00     0.010 A 
ATOM      3  C2  UNL d   1      -4.271   5.745  -1.438  0.00  0.00     0.041 A 
ATOM      4  C3  UNL d   1      -3.368   5.022  -2.241  0.00  0.00    -0.075 A 
ATOM      5  S   UNL d   1      -2.195   5.668  -3.327  0.00  0.00     0.015 SA
ATOM      6  C4  UNL d   1      -1.651   4.118  -3.780  0.00  0.00     0.022 A 
ATOM      7  C5  UNL d   1      -2.337   3.120  -3.129  0.00  0.00     0.026 A 
ATOM      8  C6  UNL d   1      -3.338   3.624  -2.232  0.00  0.00    -0.082 A 
ATOM      9  C7  UNL d   1      -4.247   2.942  -1.387  0.00  0.00     0.045 A 
ENDROOT
TORSDOF 0
ENDMDL
