MODEL 1
REMARK minimizedAffinity 19.5931187
REMARK minimizedRMSD -1
REMARK  0 active torsions:
REMARK  status: ('A' for Active; 'I' for Inactive)
ROOT
ATOM      1  C   UNL d   1       5.350  -2.972  -6.000  0.00  0.00    -0.002 A 
ATOM      2  C1  UNL d   1       5.999  -3.487  -4.886  0.00  0.00     0.010 A 
ATOM      3  C2  UNL d   1       5.999  -2.788  -3.678  0.00  0.00     0.041 A 
ATOM      4  C3  UNL d   1       5.328  -1.551  -3.606  0.00  0.00    -0.075 A 
ATOM      5  S   UNL d   1       5.195  -0.519  -2.232  0.00  0.00     0.015 SA
ATOM      6  C4  UNL d   1       4.273   0.629  -3.090  0.00  0.00     0.022 A 
ATOM      7  C5  UNL d   1       4.063   0.250  -4.395  0.00  0.00     0.026 A 
ATOM      8  C6  UNL d   1       4.667  -1.013  -4.714  0.00  0.00    -0.082 A 
ATOM      9  C7  UNL d   1       4.686  -1.745  -5.925  0.00  0.00     0.045 A 
ENDROOT
TORSDOF 0
ENDMDL
