MODEL 1
REMARK minimizedAffinity 28.3873367
REMARK minimizedRMSD -1
REMARK  0 active torsions:
REMARK  status: ('A' for Active; 'I' for Inactive)
ROOT
ATOM      1  C   UNL d   1       0.394  -0.085   3.988  0.00  0.00    -0.002 A 
ATOM      2  C1  UNL d   1       0.002  -0.526   2.733  0.00  0.00     0.010 A 
ATOM      3  C2  UNL d   1       0.848  -0.379   1.632  0.00  0.00     0.041 A 
ATOM      4  C3  UNL d   1       2.108   0.224   1.816  0.00  0.00    -0.075 A 
ATOM      5  S   UNL d   1       3.311   0.508   0.614  0.00  0.00     0.015 SA
ATOM      6  C4  UNL d   1       4.374   1.221   1.739  0.00  0.00     0.022 A 
ATOM      7  C5  UNL d   1       3.840   1.250   3.006  0.00  0.00     0.026 A 
ATOM      8  C6  UNL d   1       2.526   0.675   3.071  0.00  0.00    -0.082 A 
ATOM      9  C7  UNL d   1       1.645   0.512   4.168  0.00  0.00     0.045 A 
ENDROOT
TORSDOF 0
ENDMDL
