MODEL 1
REMARK minimizedAffinity 12.911376
REMARK minimizedRMSD -1
REMARK  0 active torsions:
REMARK  status: ('A' for Active; 'I' for Inactive)
ROOT
ATOM      1  C   UNL d   1      -0.148  -0.606   4.873  0.00  0.00    -0.002 A 
ATOM      2  C1  UNL d   1       0.804  -0.137   5.767  0.00  0.00     0.010 A 
ATOM      3  C2  UNL d   1       2.089   0.192   5.330  0.00  0.00     0.041 A 
ATOM      4  C3  UNL d   1       2.403   0.043   3.965  0.00  0.00    -0.075 A 
ATOM      5  S   UNL d   1       3.911   0.385   3.202  0.00  0.00     0.015 SA
ATOM      6  C4  UNL d   1       3.327  -0.082   1.670  0.00  0.00     0.022 A 
ATOM      7  C5  UNL d   1       2.015  -0.492   1.721  0.00  0.00     0.026 A 
ATOM      8  C6  UNL d   1       1.461  -0.426   3.044  0.00  0.00    -0.082 A 
ATOM      9  C7  UNL d   1       0.168  -0.752   3.519  0.00  0.00     0.045 A 
ENDROOT
TORSDOF 0
ENDMDL
