MODEL 1
REMARK minimizedAffinity 11.0945721
REMARK minimizedRMSD -1
REMARK  0 active torsions:
REMARK  status: ('A' for Active; 'I' for Inactive)
ROOT
ATOM      1  C   UNL d   1      -1.525  -1.753   3.769  0.00  0.00    -0.002 A 
ATOM      2  C1  UNL d   1      -1.662  -2.952   3.084  0.00  0.00     0.010 A 
ATOM      3  C2  UNL d   1      -0.706  -3.347   2.146  0.00  0.00     0.041 A 
ATOM      4  C3  UNL d   1       0.401  -2.509   1.907  0.00  0.00    -0.075 A 
ATOM      5  S   UNL d   1       1.697  -2.788   0.804  0.00  0.00     0.015 SA
ATOM      6  C4  UNL d   1       2.463  -1.323   1.217  0.00  0.00     0.022 A 
ATOM      7  C5  UNL d   1       1.761  -0.625   2.171  0.00  0.00     0.026 A 
ATOM      8  C6  UNL d   1       0.561  -1.298   2.585  0.00  0.00    -0.082 A 
ATOM      9  C7  UNL d   1      -0.426  -0.925   3.529  0.00  0.00     0.045 A 
ENDROOT
TORSDOF 0
ENDMDL
