MODEL 1
REMARK minimizedAffinity 9.19102001
REMARK minimizedRMSD -1
REMARK  0 active torsions:
REMARK  status: ('A' for Active; 'I' for Inactive)
ROOT
ATOM      1  C   UNL d   1      -1.196  -2.132   3.376  0.00  0.00    -0.002 A 
ATOM      2  C1  UNL d   1      -0.754  -1.352   4.436  0.00  0.00     0.010 A 
ATOM      3  C2  UNL d   1       0.481  -0.705   4.376  0.00  0.00     0.041 A 
ATOM      4  C3  UNL d   1       1.273  -0.854   3.220  0.00  0.00    -0.075 A 
ATOM      5  S   UNL d   1       2.820  -0.153   2.922  0.00  0.00     0.015 SA
ATOM      6  C4  UNL d   1       2.931  -0.872   1.381  0.00  0.00     0.022 A 
ATOM      7  C5  UNL d   1       1.824  -1.631   1.084  0.00  0.00     0.026 A 
ATOM      8  C6  UNL d   1       0.850  -1.633   2.139  0.00  0.00    -0.082 A 
ATOM      9  C7  UNL d   1      -0.407  -2.277   2.231  0.00  0.00     0.045 A 
ENDROOT
TORSDOF 0
ENDMDL
