MODEL 1
REMARK minimizedAffinity 7.55438757
REMARK minimizedRMSD -1
REMARK  0 active torsions:
REMARK  status: ('A' for Active; 'I' for Inactive)
ROOT
ATOM      1  C   UNL d   1      -1.859  -0.019   6.000  0.00  0.00     0.078 C 
ATOM      2  C1  UNL d   1      -1.141  -0.578   4.808  0.00  0.00    -0.077 A 
ATOM      3  C2  UNL d   1      -1.653  -1.677   4.107  0.00  0.00    -0.001 A 
ATOM      4  C3  UNL d   1      -0.970  -2.193   3.005  0.00  0.00     0.003 A 
ATOM      5  C4  UNL d   1       0.231  -1.617   2.595  0.00  0.00    -0.005 A 
ATOM      6  C5  UNL d   1       0.750  -0.525   3.287  0.00  0.00     0.003 A 
ATOM      7  C6  UNL d   1       0.068  -0.008   4.389  0.00  0.00    -0.001 A 
ENDROOT
TORSDOF 0
ENDMDL
