MODEL 1
REMARK minimizedAffinity 3.98084521
REMARK minimizedRMSD -1
REMARK  0 active torsions:
REMARK  status: ('A' for Active; 'I' for Inactive)
ROOT
ATOM      1  C   UNL d   1      -5.254  -2.494   1.833  0.00  0.00     0.078 C 
ATOM      2  C1  UNL d   1      -4.747  -3.714   1.122  0.00  0.00    -0.077 A 
ATOM      3  C2  UNL d   1      -3.477  -3.729   0.533  0.00  0.00    -0.001 A 
ATOM      4  C3  UNL d   1      -3.022  -4.868  -0.134  0.00  0.00     0.003 A 
ATOM      5  C4  UNL d   1      -3.832  -5.999  -0.219  0.00  0.00    -0.005 A 
ATOM      6  C5  UNL d   1      -5.098  -5.992   0.362  0.00  0.00     0.003 A 
ATOM      7  C6  UNL d   1      -5.555  -4.854   1.029  0.00  0.00    -0.001 A 
ENDROOT
TORSDOF 0
ENDMDL
