MODEL 1
REMARK minimizedAffinity -0.255788028
REMARK minimizedRMSD -1
REMARK  0 active torsions:
REMARK  status: ('A' for Active; 'I' for Inactive)
ROOT
ATOM      1  C   UNL d   1       2.898  -2.936  -5.996  0.00  0.00     0.078 C 
ATOM      2  C1  UNL d   1       2.001  -3.924  -5.313  0.00  0.00    -0.077 A 
ATOM      3  C2  UNL d   1       1.592  -3.732  -3.988  0.00  0.00    -0.001 A 
ATOM      4  C3  UNL d   1       0.764  -4.666  -3.362  0.00  0.00     0.003 A 
ATOM      5  C4  UNL d   1       0.339  -5.798  -4.053  0.00  0.00    -0.005 A 
ATOM      6  C5  UNL d   1       0.743  -6.000  -5.371  0.00  0.00     0.003 A 
ATOM      7  C6  UNL d   1       1.570  -5.067  -5.999  0.00  0.00    -0.001 A 
ENDROOT
TORSDOF 0
ENDMDL
