MODEL 1
REMARK minimizedAffinity 3.86819077
REMARK minimizedRMSD -1
REMARK  0 active torsions:
REMARK  status: ('A' for Active; 'I' for Inactive)
ROOT
ATOM      1  C   UNL d   1      -4.083  -5.295  -0.599  0.00  0.00     0.078 C 
ATOM      2  C1  UNL d   1      -4.063  -4.897   0.847  0.00  0.00    -0.077 A 
ATOM      3  C2  UNL d   1      -4.423  -3.604   1.245  0.00  0.00    -0.001 A 
ATOM      4  C3  UNL d   1      -4.390  -3.245   2.593  0.00  0.00     0.003 A 
ATOM      5  C4  UNL d   1      -3.997  -4.174   3.555  0.00  0.00    -0.005 A 
ATOM      6  C5  UNL d   1      -3.634  -5.462   3.169  0.00  0.00     0.003 A 
ATOM      7  C6  UNL d   1      -3.666  -5.823   1.821  0.00  0.00    -0.001 A 
ENDROOT
TORSDOF 0
ENDMDL
