MODEL 1
REMARK minimizedAffinity 4.32810688
REMARK minimizedRMSD -1
REMARK  0 active torsions:
REMARK  status: ('A' for Active; 'I' for Inactive)
ROOT
ATOM      1  C   UNL d   1       0.917  -1.722   0.794  0.00  0.00     0.078 C 
ATOM      2  C1  UNL d   1       0.025  -1.573   1.991  0.00  0.00    -0.077 A 
ATOM      3  C2  UNL d   1       0.465  -0.903   3.139  0.00  0.00    -0.001 A 
ATOM      4  C3  UNL d   1      -0.372  -0.781   4.249  0.00  0.00     0.003 A 
ATOM      5  C4  UNL d   1      -1.653  -1.327   4.223  0.00  0.00    -0.005 A 
ATOM      6  C5  UNL d   1      -2.099  -1.997   3.086  0.00  0.00     0.003 A 
ATOM      7  C6  UNL d   1      -1.264  -2.120   1.975  0.00  0.00    -0.001 A 
ENDROOT
TORSDOF 0
ENDMDL
