MODEL 1
REMARK minimizedAffinity 13.8130369
REMARK minimizedRMSD -1
REMARK  0 active torsions:
REMARK  status: ('A' for Active; 'I' for Inactive)
ROOT
ATOM      1  C   UNL d   1      -2.864  -3.014   2.279  0.00  0.00     0.078 C 
ATOM      2  C1  UNL d   1      -1.512  -2.368   2.207  0.00  0.00    -0.077 A 
ATOM      3  C2  UNL d   1      -1.286  -1.105   2.767  0.00  0.00    -0.001 A 
ATOM      4  C3  UNL d   1      -0.025  -0.512   2.683  0.00  0.00     0.003 A 
ATOM      5  C4  UNL d   1       1.019  -1.174   2.039  0.00  0.00    -0.005 A 
ATOM      6  C5  UNL d   1       0.802  -2.430   1.477  0.00  0.00     0.003 A 
ATOM      7  C6  UNL d   1      -0.458  -3.025   1.559  0.00  0.00    -0.001 A 
ENDROOT
TORSDOF 0
ENDMDL
