MODEL 1
REMARK minimizedAffinity 7.7596674
REMARK minimizedRMSD -1
REMARK  0 active torsions:
REMARK  status: ('A' for Active; 'I' for Inactive)
ROOT
ATOM      1  C   UNL d   1      -2.211  -3.071   2.689  0.00  0.00     0.078 C 
ATOM      2  C1  UNL d   1      -1.042  -2.193   2.356  0.00  0.00    -0.077 A 
ATOM      3  C2  UNL d   1      -0.829  -0.986   3.035  0.00  0.00    -0.001 A 
ATOM      4  C3  UNL d   1       0.258  -0.175   2.708  0.00  0.00     0.003 A 
ATOM      5  C4  UNL d   1       1.141  -0.560   1.701  0.00  0.00    -0.005 A 
ATOM      6  C5  UNL d   1       0.937  -1.757   1.019  0.00  0.00     0.003 A 
ATOM      7  C6  UNL d   1      -0.150  -2.570   1.344  0.00  0.00    -0.001 A 
ENDROOT
TORSDOF 0
ENDMDL
