MODEL 1
REMARK minimizedAffinity 12.1182604
REMARK minimizedRMSD -1
REMARK  0 active torsions:
REMARK  status: ('A' for Active; 'I' for Inactive)
ROOT
ATOM      1  C   UNL d   1       0.408  -4.268  -1.887  0.00  0.00     0.078 C 
ATOM      2  C1  UNL d   1       0.775  -4.510  -3.321  0.00  0.00    -0.077 A 
ATOM      3  C2  UNL d   1       0.666  -5.785  -3.888  0.00  0.00    -0.001 A 
ATOM      4  C3  UNL d   1       1.021  -5.998  -5.221  0.00  0.00     0.003 A 
ATOM      5  C4  UNL d   1       1.488  -4.940  -5.998  0.00  0.00    -0.005 A 
ATOM      6  C5  UNL d   1       1.601  -3.667  -5.442  0.00  0.00     0.003 A 
ATOM      7  C6  UNL d   1       1.247  -3.453  -4.109  0.00  0.00    -0.001 A 
ENDROOT
TORSDOF 0
ENDMDL
