MODEL 1
REMARK minimizedAffinity 13.2445374
REMARK minimizedRMSD -1
REMARK  0 active torsions:
REMARK  status: ('A' for Active; 'I' for Inactive)
ROOT
ATOM      1  C   UNL d   1       3.330   0.369   2.201  0.00  0.00     0.078 C 
ATOM      2  C1  UNL d   1       2.195  -0.550   1.860  0.00  0.00    -0.077 A 
ATOM      3  C2  UNL d   1       0.871  -0.197   2.144  0.00  0.00    -0.001 A 
ATOM      4  C3  UNL d   1      -0.175  -1.067   1.830  0.00  0.00     0.003 A 
ATOM      5  C4  UNL d   1       0.094  -2.296   1.231  0.00  0.00    -0.005 A 
ATOM      6  C5  UNL d   1       1.409  -2.657   0.947  0.00  0.00     0.003 A 
ATOM      7  C6  UNL d   1       2.456  -1.789   1.261  0.00  0.00    -0.001 A 
ENDROOT
TORSDOF 0
ENDMDL
