MODEL 1
REMARK minimizedAffinity 5.18601179
REMARK minimizedRMSD -1
REMARK  0 active torsions:
REMARK  status: ('A' for Active; 'I' for Inactive)
ROOT
ATOM      1  C   UNL d   1       3.641  -0.203   2.898  0.00  0.00     0.078 C 
ATOM      2  C1  UNL d   1       2.406  -0.987   2.568  0.00  0.00    -0.077 A 
ATOM      3  C2  UNL d   1       2.346  -1.789   1.421  0.00  0.00    -0.001 A 
ATOM      4  C3  UNL d   1       1.187  -2.506   1.121  0.00  0.00     0.003 A 
ATOM      5  C4  UNL d   1       0.079  -2.429   1.962  0.00  0.00    -0.005 A 
ATOM      6  C5  UNL d   1       0.129  -1.632   3.104  0.00  0.00     0.003 A 
ATOM      7  C6  UNL d   1       1.287  -0.914   3.406  0.00  0.00    -0.001 A 
ENDROOT
TORSDOF 0
ENDMDL
