MODEL 1
REMARK minimizedAffinity 8.39512825
REMARK minimizedRMSD -1
REMARK  0 active torsions:
REMARK  status: ('A' for Active; 'I' for Inactive)
ROOT
ATOM      1  C   UNL d   1      -3.908  -5.127  -0.743  0.00  0.00     0.078 C 
ATOM      2  C1  UNL d   1      -4.005  -4.719   0.697  0.00  0.00    -0.077 A 
ATOM      3  C2  UNL d   1      -4.231  -3.384   1.054  0.00  0.00    -0.001 A 
ATOM      4  C3  UNL d   1      -4.309  -3.017   2.399  0.00  0.00     0.003 A 
ATOM      5  C4  UNL d   1      -4.162  -3.979   3.396  0.00  0.00    -0.005 A 
ATOM      6  C5  UNL d   1      -3.935  -5.309   3.050  0.00  0.00     0.003 A 
ATOM      7  C6  UNL d   1      -3.856  -5.678   1.706  0.00  0.00    -0.001 A 
ENDROOT
TORSDOF 0
ENDMDL
