MODEL 1
REMARK minimizedAffinity 3.53667521
REMARK minimizedRMSD -1
REMARK  0 active torsions:
REMARK  status: ('A' for Active; 'I' for Inactive)
ROOT
ATOM      1  C   UNL d   1      -5.877  -4.985   4.662  0.00  0.00     0.078 C 
ATOM      2  C1  UNL d   1      -4.968  -4.572   3.543  0.00  0.00    -0.077 A 
ATOM      3  C2  UNL d   1      -3.576  -4.584   3.703  0.00  0.00    -0.001 A 
ATOM      4  C3  UNL d   1      -2.743  -4.187   2.656  0.00  0.00     0.003 A 
ATOM      5  C4  UNL d   1      -3.290  -3.774   1.443  0.00  0.00    -0.005 A 
ATOM      6  C5  UNL d   1      -4.673  -3.756   1.276  0.00  0.00     0.003 A 
ATOM      7  C6  UNL d   1      -5.509  -4.153   2.322  0.00  0.00    -0.001 A 
ENDROOT
TORSDOF 0
ENDMDL
