MODEL 1
REMARK minimizedAffinity -0.670404434
REMARK minimizedRMSD -1
REMARK  0 active torsions:
REMARK  status: ('A' for Active; 'I' for Inactive)
ROOT
ATOM      1  C   UNL d   1      -4.847  -4.808   4.189  0.00  0.00     0.078 C 
ATOM      2  C1  UNL d   1      -4.489  -4.781   2.734  0.00  0.00    -0.077 A 
ATOM      3  C2  UNL d   1      -4.308  -3.567   2.058  0.00  0.00    -0.001 A 
ATOM      4  C3  UNL d   1      -3.984  -3.557   0.701  0.00  0.00     0.003 A 
ATOM      5  C4  UNL d   1      -3.840  -4.756   0.006  0.00  0.00    -0.005 A 
ATOM      6  C5  UNL d   1      -4.020  -5.968   0.669  0.00  0.00     0.003 A 
ATOM      7  C6  UNL d   1      -4.344  -5.981   2.027  0.00  0.00    -0.001 A 
ENDROOT
TORSDOF 0
ENDMDL
