MODEL 1
REMARK minimizedAffinity -2.44292903
REMARK minimizedRMSD -1
REMARK  0 active torsions:
REMARK  status: ('A' for Active; 'I' for Inactive)
ROOT
ATOM      1  C   UNL d   1      -5.270  -4.783   1.708  0.00  0.00     0.078 C 
ATOM      2  C1  UNL d   1      -5.259  -4.882   3.204  0.00  0.00    -0.077 A 
ATOM      3  C2  UNL d   1      -4.513  -3.987   3.981  0.00  0.00    -0.001 A 
ATOM      4  C3  UNL d   1      -4.505  -4.097   5.372  0.00  0.00     0.003 A 
ATOM      5  C4  UNL d   1      -5.241  -5.101   5.999  0.00  0.00    -0.005 A 
ATOM      6  C5  UNL d   1      -5.984  -5.997   5.234  0.00  0.00     0.003 A 
ATOM      7  C6  UNL d   1      -5.994  -5.889   3.843  0.00  0.00    -0.001 A 
ENDROOT
TORSDOF 0
ENDMDL
