MODEL 1
REMARK minimizedAffinity 13.1358042
REMARK minimizedRMSD -1
REMARK  0 active torsions:
REMARK  status: ('A' for Active; 'I' for Inactive)
ROOT
ATOM      1  C   UNL d   1       1.197   3.403  -0.417  0.00  0.00     0.078 C 
ATOM      2  C1  UNL d   1       0.062   3.289  -1.389  0.00  0.00    -0.077 A 
ATOM      3  C2  UNL d   1      -0.447   4.419  -2.040  0.00  0.00    -0.001 A 
ATOM      4  C3  UNL d   1      -1.511   4.300  -2.935  0.00  0.00     0.003 A 
ATOM      5  C4  UNL d   1      -2.076   3.051  -3.187  0.00  0.00    -0.005 A 
ATOM      6  C5  UNL d   1      -1.578   1.920  -2.543  0.00  0.00     0.003 A 
ATOM      7  C6  UNL d   1      -0.514   2.038  -1.647  0.00  0.00    -0.001 A 
ENDROOT
TORSDOF 0
ENDMDL
