MODEL 1
REMARK minimizedAffinity 5.49957991
REMARK minimizedRMSD -1
REMARK  0 active torsions:
REMARK  status: ('A' for Active; 'I' for Inactive)
ROOT
ATOM      1  C   UNL d   1       3.778  -3.106  -5.995  0.00  0.00     0.078 C 
ATOM      2  C1  UNL d   1       2.777  -4.009  -5.338  0.00  0.00    -0.077 A 
ATOM      3  C2  UNL d   1       2.328  -5.172  -5.976  0.00  0.00    -0.001 A 
ATOM      4  C3  UNL d   1       1.388  -5.998  -5.358  0.00  0.00     0.003 A 
ATOM      5  C4  UNL d   1       0.889  -5.670  -4.099  0.00  0.00    -0.005 A 
ATOM      6  C5  UNL d   1       1.328  -4.514  -3.457  0.00  0.00     0.003 A 
ATOM      7  C6  UNL d   1       2.268  -3.686  -4.074  0.00  0.00    -0.001 A 
ENDROOT
TORSDOF 0
ENDMDL
