MODEL 1
REMARK minimizedAffinity 15.2615318
REMARK minimizedRMSD -1
REMARK  0 active torsions:
REMARK  status: ('A' for Active; 'I' for Inactive)
ROOT
ATOM      1  C   UNL d   1      -5.219   4.820  -0.698  0.00  0.00     0.078 C 
ATOM      2  C1  UNL d   1      -4.111   4.251  -1.533  0.00  0.00    -0.077 A 
ATOM      3  C2  UNL d   1      -4.062   2.884  -1.832  0.00  0.00    -0.001 A 
ATOM      4  C3  UNL d   1      -3.020   2.366  -2.602  0.00  0.00     0.003 A 
ATOM      5  C4  UNL d   1      -2.017   3.208  -3.079  0.00  0.00    -0.005 A 
ATOM      6  C5  UNL d   1      -2.056   4.570  -2.785  0.00  0.00     0.003 A 
ATOM      7  C6  UNL d   1      -3.098   5.089  -2.015  0.00  0.00    -0.001 A 
ENDROOT
TORSDOF 0
ENDMDL
