MODEL 1
REMARK minimizedAffinity -2.51589513
REMARK minimizedRMSD -1
REMARK  1 active torsions:
REMARK  status: ('A' for Active; 'I' for Inactive)
REMARK    1  A    between atoms: C1_2  and  C2_3 
ROOT
ATOM      1  C2  UNL d   1       2.339  -0.286   0.505  0.00  0.00    -0.077 A 
ATOM      2  C3  UNL d   1       2.888  -0.664  -0.729  0.00  0.00     0.002 A 
ATOM      3  C4  UNL d   1       2.650  -1.938  -1.247  0.00  0.00     0.002 A 
ATOM      4  C5  UNL d   1       1.859  -2.843  -0.541  0.00  0.00    -0.004 A 
ATOM      5  C6  UNL d   1       1.310  -2.477   0.687  0.00  0.00     0.002 A 
ATOM      6  C7  UNL d   1       1.548  -1.204   1.207  0.00  0.00     0.002 A 
ENDROOT
BRANCH   1   7
ATOM      7  C1  UNL d   1       2.554   1.105   1.042  0.00  0.00     0.055 C 
ATOM      8  C   UNL d   1       1.860   2.146   0.176  0.00  0.00     0.019 C 
ENDBRANCH   1   7
TORSDOF 1
ENDMDL
