MODEL 1
REMARK minimizedAffinity 13.0701981
REMARK minimizedRMSD -1
REMARK  1 active torsions:
REMARK  status: ('A' for Active; 'I' for Inactive)
REMARK    1  A    between atoms: C1_2  and  C2_3 
ROOT
ATOM      1  C2  UNL d   1       1.093   1.373   0.180  0.00  0.00    -0.077 A 
ATOM      2  C3  UNL d   1       2.354   1.940   0.405  0.00  0.00     0.002 A 
ATOM      3  C4  UNL d   1       3.499   1.141   0.406  0.00  0.00     0.002 A 
ATOM      4  C5  UNL d   1       3.393  -0.230   0.178  0.00  0.00    -0.004 A 
ATOM      5  C6  UNL d   1       2.143  -0.804  -0.045  0.00  0.00     0.002 A 
ATOM      6  C7  UNL d   1       0.997  -0.007  -0.045  0.00  0.00     0.002 A 
ENDROOT
BRANCH   1   7
ATOM      7  C1  UNL d   1      -0.137   2.241   0.130  0.00  0.00     0.055 C 
ATOM      8  C   UNL d   1      -0.934   2.148   1.423  0.00  0.00     0.019 C 
ENDBRANCH   1   7
TORSDOF 1
ENDMDL
