MODEL 1
REMARK minimizedAffinity 5.24595118
REMARK minimizedRMSD -1
REMARK  1 active torsions:
REMARK  status: ('A' for Active; 'I' for Inactive)
REMARK    1  A    between atoms: C1_2  and  C2_3 
ROOT
ATOM      1  C2  UNL d   1      -4.892   1.377  -2.506  0.00  0.00    -0.077 A 
ATOM      2  C3  UNL d   1      -5.263   2.200  -1.433  0.00  0.00     0.002 A 
ATOM      3  C4  UNL d   1      -5.812   3.462  -1.669  0.00  0.00     0.002 A 
ATOM      4  C5  UNL d   1      -6.000   3.909  -2.975  0.00  0.00    -0.004 A 
ATOM      5  C6  UNL d   1      -5.633   3.099  -4.048  0.00  0.00     0.002 A 
ATOM      6  C7  UNL d   1      -5.082   1.838  -3.815  0.00  0.00     0.002 A 
ENDROOT
BRANCH   1   7
ATOM      7  C1  UNL d   1      -4.345  -0.004  -2.254  0.00  0.00     0.055 C 
ATOM      8  C   UNL d   1      -4.107  -0.244  -0.771  0.00  0.00     0.019 C 
ENDBRANCH   1   7
TORSDOF 1
ENDMDL
