MODEL 1
REMARK minimizedAffinity -0.553451538
REMARK minimizedRMSD -1
REMARK  1 active torsions:
REMARK  status: ('A' for Active; 'I' for Inactive)
REMARK    1  A    between atoms: C1_2  and  C2_3 
ROOT
ATOM      1  C2  UNL d   1       1.919  -0.362   0.040  0.00  0.00    -0.077 A 
ATOM      2  C3  UNL d   1       2.705   0.632   0.640  0.00  0.00     0.002 A 
ATOM      3  C4  UNL d   1       2.319   1.972   0.576  0.00  0.00     0.002 A 
ATOM      4  C5  UNL d   1       1.144   2.330  -0.082  0.00  0.00    -0.004 A 
ATOM      5  C6  UNL d   1       0.356   1.349  -0.683  0.00  0.00     0.002 A 
ATOM      6  C7  UNL d   1       0.742   0.009  -0.622  0.00  0.00     0.002 A 
ENDROOT
BRANCH   1   7
ATOM      7  C1  UNL d   1       2.309  -1.813   0.150  0.00  0.00     0.055 C 
ATOM      8  C   UNL d   1       1.116  -2.726  -0.096  0.00  0.00     0.019 C 
ENDBRANCH   1   7
TORSDOF 1
ENDMDL
