MODEL 1
REMARK minimizedAffinity 5.0573101
REMARK minimizedRMSD -1
REMARK  1 active torsions:
REMARK  status: ('A' for Active; 'I' for Inactive)
REMARK    1  A    between atoms: C1_2  and  C2_3 
ROOT
ATOM      1  C2  UNL d   1       2.695  -0.877   0.308  0.00  0.00    -0.077 A 
ATOM      2  C3  UNL d   1       2.752  -1.966   1.190  0.00  0.00     0.002 A 
ATOM      3  C4  UNL d   1       1.873  -3.040   1.042  0.00  0.00     0.002 A 
ATOM      4  C5  UNL d   1       0.935  -3.039   0.011  0.00  0.00    -0.004 A 
ATOM      5  C6  UNL d   1       0.870  -1.960  -0.870  0.00  0.00     0.002 A 
ATOM      6  C7  UNL d   1       1.747  -0.885  -0.723  0.00  0.00     0.002 A 
ENDROOT
BRANCH   1   7
ATOM      7  C1  UNL d   1       3.675   0.260   0.436  0.00  0.00     0.055 C 
ATOM      8  C   UNL d   1       2.964   1.606   0.433  0.00  0.00     0.019 C 
ENDBRANCH   1   7
TORSDOF 1
ENDMDL
