MODEL 1
REMARK minimizedAffinity 3.95727468
REMARK minimizedRMSD -1
REMARK  1 active torsions:
REMARK  status: ('A' for Active; 'I' for Inactive)
REMARK    1  A    between atoms: C1_2  and  C2_3 
ROOT
ATOM      1  C2  UNL d   1       2.417   0.166   0.624  0.00  0.00    -0.077 A 
ATOM      2  C3  UNL d   1       1.934  -0.589  -0.454  0.00  0.00     0.002 A 
ATOM      3  C4  UNL d   1       2.083  -1.977  -0.467  0.00  0.00     0.002 A 
ATOM      4  C5  UNL d   1       2.711  -2.622   0.597  0.00  0.00    -0.004 A 
ATOM      5  C6  UNL d   1       3.197  -1.879   1.673  0.00  0.00     0.002 A 
ATOM      6  C7  UNL d   1       3.050  -0.492   1.686  0.00  0.00     0.002 A 
ENDROOT
BRANCH   1   7
ATOM      7  C1  UNL d   1       2.213   1.658   0.662  0.00  0.00     0.055 C 
ATOM      8  C   UNL d   1       0.783   2.031   0.300  0.00  0.00     0.019 C 
ENDBRANCH   1   7
TORSDOF 1
ENDMDL
