MODEL 1
REMARK minimizedAffinity 2.58835506
REMARK minimizedRMSD -1
REMARK  1 active torsions:
REMARK  status: ('A' for Active; 'I' for Inactive)
REMARK    1  A    between atoms: C1_2  and  C2_3 
ROOT
ATOM      1  C2  UNL d   1       2.440   1.070   0.582  0.00  0.00    -0.077 A 
ATOM      2  C3  UNL d   1       2.189  -0.100   1.312  0.00  0.00     0.002 A 
ATOM      3  C4  UNL d   1       3.113  -1.147   1.308  0.00  0.00     0.002 A 
ATOM      4  C5  UNL d   1       4.295  -1.032   0.580  0.00  0.00    -0.004 A 
ATOM      5  C6  UNL d   1       4.553   0.127  -0.151  0.00  0.00     0.002 A 
ATOM      6  C7  UNL d   1       3.630   1.174  -0.149  0.00  0.00     0.002 A 
ENDROOT
BRANCH   1   7
ATOM      7  C1  UNL d   1       1.468   2.220   0.625  0.00  0.00     0.055 C 
ATOM      8  C   UNL d   1       0.219   1.919  -0.191  0.00  0.00     0.019 C 
ENDBRANCH   1   7
TORSDOF 1
ENDMDL
