MODEL 1
REMARK minimizedAffinity -1.7587986
REMARK minimizedRMSD -1
REMARK  1 active torsions:
REMARK  status: ('A' for Active; 'I' for Inactive)
REMARK    1  A    between atoms: N_2  and  C1_3 
ROOT
ATOM      1  C1  UNL d   1       0.017  -0.209   0.374  0.00  0.00     0.143 A 
ATOM      2  C2  UNL d   1       0.448  -1.218  -0.493  0.00  0.00    -0.057 A 
ATOM      3  C3  UNL d   1       0.095  -2.557  -0.283  0.00  0.00     0.033 A 
ATOM      4  C4  UNL d   1      -0.674  -2.914   0.820  0.00  0.00    -0.042 A 
ATOM      5  C5  UNL d   1      -1.093  -1.931   1.709  0.00  0.00     0.033 A 
ATOM      6  C6  UNL d   1      -0.743  -0.596   1.490  0.00  0.00    -0.057 A 
ENDROOT
BRANCH   1   7
ATOM      7  N   UNL d   1       0.416   1.126   0.274  0.00  0.00    -0.732 N 
ATOM      8  C   UNL d   1       0.933   1.649  -0.972  0.00  0.00     0.284 C 
ATOM      9  H3  UNL d   1      -0.217   1.758   0.759  0.00  0.00     0.395 HD
ENDBRANCH   1   7
TORSDOF 1
ENDMDL
