MODEL 1
REMARK minimizedAffinity -4.9602685
REMARK minimizedRMSD -1
REMARK  1 active torsions:
REMARK  status: ('A' for Active; 'I' for Inactive)
REMARK    1  A    between atoms: N_2  and  C1_3 
ROOT
ATOM      1  C1  UNL d   1      -0.155  -0.939   0.202  0.00  0.00     0.143 A 
ATOM      2  C2  UNL d   1      -0.381  -1.645   1.389  0.00  0.00    -0.057 A 
ATOM      3  C3  UNL d   1      -1.277  -2.720   1.435  0.00  0.00     0.033 A 
ATOM      4  C4  UNL d   1      -1.987  -3.091   0.298  0.00  0.00    -0.042 A 
ATOM      5  C5  UNL d   1      -1.797  -2.388  -0.887  0.00  0.00     0.033 A 
ATOM      6  C6  UNL d   1      -0.896  -1.319  -0.928  0.00  0.00    -0.057 A 
ENDROOT
BRANCH   1   7
ATOM      7  N   UNL d   1       0.648   0.200   0.116  0.00  0.00    -0.732 N 
ATOM      8  C   UNL d   1       0.054   1.512  -0.026  0.00  0.00     0.284 C 
ATOM      9  H3  UNL d   1       1.437   0.168   0.758  0.00  0.00     0.395 HD
ENDBRANCH   1   7
TORSDOF 1
ENDMDL
