MODEL 1
REMARK minimizedAffinity -4.15650082
REMARK minimizedRMSD -1
REMARK  1 active torsions:
REMARK  status: ('A' for Active; 'I' for Inactive)
REMARK    1  A    between atoms: N_2  and  C1_3 
ROOT
ATOM      1  C1  UNL d   1      -0.613   0.065   0.418  0.00  0.00     0.143 A 
ATOM      2  C2  UNL d   1      -1.626   0.652   1.183  0.00  0.00    -0.057 A 
ATOM      3  C3  UNL d   1      -2.267  -0.057   2.206  0.00  0.00     0.033 A 
ATOM      4  C4  UNL d   1      -1.925  -1.381   2.463  0.00  0.00    -0.042 A 
ATOM      5  C5  UNL d   1      -0.938  -1.992   1.698  0.00  0.00     0.033 A 
ATOM      6  C6  UNL d   1      -0.297  -1.276   0.682  0.00  0.00    -0.057 A 
ENDROOT
BRANCH   1   7
ATOM      7  N   UNL d   1      -0.007   0.686  -0.677  0.00  0.00    -0.732 N 
ATOM      8  C   UNL d   1       0.705   1.936  -0.515  0.00  0.00     0.284 C 
ATOM      9  H3  UNL d   1       0.456   0.022  -1.294  0.00  0.00     0.395 HD
ENDBRANCH   1   7
TORSDOF 1
ENDMDL
