MODEL 1
REMARK minimizedAffinity -4.55637407
REMARK minimizedRMSD -1
REMARK  1 active torsions:
REMARK  status: ('A' for Active; 'I' for Inactive)
REMARK    1  A    between atoms: N_2  and  C1_3 
ROOT
ATOM      1  C1  UNL d   1       0.469   0.290  -0.009  0.00  0.00     0.143 A 
ATOM      2  C2  UNL d   1       0.911  -1.025   0.173  0.00  0.00    -0.057 A 
ATOM      3  C3  UNL d   1       0.039  -2.030   0.608  0.00  0.00     0.033 A 
ATOM      4  C4  UNL d   1      -1.288  -1.731   0.898  0.00  0.00    -0.042 A 
ATOM      5  C5  UNL d   1      -1.743  -0.425   0.749  0.00  0.00     0.033 A 
ATOM      6  C6  UNL d   1      -0.869   0.573   0.307  0.00  0.00    -0.057 A 
ENDROOT
BRANCH   1   7
ATOM      7  N   UNL d   1       1.310   1.354  -0.344  0.00  0.00    -0.732 N 
ATOM      8  C   UNL d   1       1.242   1.962  -1.656  0.00  0.00     0.284 C 
ATOM      9  H3  UNL d   1       1.418   2.019   0.418  0.00  0.00     0.395 HD
ENDBRANCH   1   7
TORSDOF 1
ENDMDL
