MODEL 1
REMARK minimizedAffinity -0.02719271
REMARK minimizedRMSD -1
REMARK  1 active torsions:
REMARK  status: ('A' for Active; 'I' for Inactive)
REMARK    1  A    between atoms: N_2  and  C1_3 
ROOT
ATOM      1  C1  UNL d   1       3.634   2.301  -3.251  0.00  0.00     0.143 A 
ATOM      2  C2  UNL d   1       2.585   1.975  -2.384  0.00  0.00    -0.057 A 
ATOM      3  C3  UNL d   1       1.250   2.054  -2.798  0.00  0.00     0.033 A 
ATOM      4  C4  UNL d   1       0.938   2.491  -4.082  0.00  0.00    -0.042 A 
ATOM      5  C5  UNL d   1       1.963   2.845  -4.952  0.00  0.00     0.033 A 
ATOM      6  C6  UNL d   1       3.295   2.757  -4.535  0.00  0.00    -0.057 A 
ENDROOT
BRANCH   1   7
ATOM      7  N   UNL d   1       4.977   2.337  -2.867  0.00  0.00    -0.732 N 
ATOM      8  C   UNL d   1       5.743   3.560  -2.978  0.00  0.00     0.284 C 
ATOM      9  H3  UNL d   1       5.151   1.814  -2.012  0.00  0.00     0.395 HD
ENDBRANCH   1   7
TORSDOF 1
ENDMDL
