MODEL 1
REMARK minimizedAffinity -0.840095758
REMARK minimizedRMSD -1
REMARK  1 active torsions:
REMARK  status: ('A' for Active; 'I' for Inactive)
REMARK    1  A    between atoms: N_2  and  C1_3 
ROOT
ATOM      1  C1  UNL d   1       0.831  -0.089  -0.040  0.00  0.00     0.143 A 
ATOM      2  C2  UNL d   1      -0.459   0.251   0.381  0.00  0.00    -0.057 A 
ATOM      3  C3  UNL d   1      -1.245  -0.648   1.112  0.00  0.00     0.033 A 
ATOM      4  C4  UNL d   1      -0.764  -1.918   1.411  0.00  0.00    -0.042 A 
ATOM      5  C5  UNL d   1       0.506  -2.287   0.981  0.00  0.00     0.033 A 
ATOM      6  C6  UNL d   1       1.289  -1.382   0.257  0.00  0.00    -0.057 A 
ENDROOT
BRANCH   1   7
ATOM      7  N   UNL d   1       1.623   0.724  -0.855  0.00  0.00    -0.732 N 
ATOM      8  C   UNL d   1       1.131   1.190  -2.133  0.00  0.00     0.284 C 
ATOM      9  H3  UNL d   1       2.132   1.427  -0.324  0.00  0.00     0.395 HD
ENDBRANCH   1   7
TORSDOF 1
ENDMDL
