MODEL 1
REMARK minimizedAffinity -1.9204272
REMARK minimizedRMSD -1
REMARK  1 active torsions:
REMARK  status: ('A' for Active; 'I' for Inactive)
REMARK    1  A    between atoms: N_2  and  C1_3 
ROOT
ATOM      1  C1  UNL d   1      -0.099  -0.176   0.257  0.00  0.00     0.143 A 
ATOM      2  C2  UNL d   1      -1.184  -1.026   0.019  0.00  0.00    -0.057 A 
ATOM      3  C3  UNL d   1      -2.496  -0.625   0.298  0.00  0.00     0.033 A 
ATOM      4  C4  UNL d   1      -2.745   0.628   0.848  0.00  0.00    -0.042 A 
ATOM      5  C5  UNL d   1      -1.680   1.480   1.117  0.00  0.00     0.033 A 
ATOM      6  C6  UNL d   1      -0.372   1.076   0.830  0.00  0.00    -0.057 A 
ENDROOT
BRANCH   1   7
ATOM      7  N   UNL d   1       1.236  -0.554   0.094  0.00  0.00    -0.732 N 
ATOM      8  C   UNL d   1       1.817  -1.586   0.925  0.00  0.00     0.284 C 
ATOM      9  H3  UNL d   1       1.507  -0.606  -0.885  0.00  0.00     0.395 HD
ENDBRANCH   1   7
TORSDOF 1
ENDMDL
