MODEL 1
REMARK minimizedAffinity -4.48037958
REMARK minimizedRMSD -1
REMARK  1 active torsions:
REMARK  status: ('A' for Active; 'I' for Inactive)
REMARK    1  A    between atoms: N_2  and  C1_3 
ROOT
ATOM      1  C1  UNL d   1      -0.239  -0.170   0.172  0.00  0.00     0.143 A 
ATOM      2  C2  UNL d   1       0.524  -1.328   0.351  0.00  0.00    -0.057 A 
ATOM      3  C3  UNL d   1      -0.068  -2.536   0.742  0.00  0.00     0.033 A 
ATOM      4  C4  UNL d   1      -1.435  -2.598   0.989  0.00  0.00    -0.042 A 
ATOM      5  C5  UNL d   1      -2.210  -1.454   0.842  0.00  0.00     0.033 A 
ATOM      6  C6  UNL d   1      -1.614  -0.253   0.445  0.00  0.00    -0.057 A 
ENDROOT
BRANCH   1   7
ATOM      7  N   UNL d   1       0.305   1.083  -0.120  0.00  0.00    -0.732 N 
ATOM      8  C   UNL d   1       0.592   1.462  -1.487  0.00  0.00     0.284 C 
ATOM      9  H3  UNL d   1      -0.109   1.826   0.439  0.00  0.00     0.395 HD
ENDBRANCH   1   7
TORSDOF 1
ENDMDL
