MODEL 1
REMARK minimizedAffinity -4.86507988
REMARK minimizedRMSD -1
REMARK  1 active torsions:
REMARK  status: ('A' for Active; 'I' for Inactive)
REMARK    1  A    between atoms: N_2  and  C1_3 
ROOT
ATOM      1  C1  UNL d   1      -0.698  -0.657   0.523  0.00  0.00     0.143 A 
ATOM      2  C2  UNL d   1      -1.664  -0.283   1.464  0.00  0.00    -0.057 A 
ATOM      3  C3  UNL d   1      -2.581  -1.212   1.969  0.00  0.00     0.033 A 
ATOM      4  C4  UNL d   1      -2.568  -2.528   1.520  0.00  0.00    -0.042 A 
ATOM      5  C5  UNL d   1      -1.633  -2.916   0.567  0.00  0.00     0.033 A 
ATOM      6  C6  UNL d   1      -0.715  -1.985   0.070  0.00  0.00    -0.057 A 
ENDROOT
BRANCH   1   7
ATOM      7  N   UNL d   1       0.178   0.242  -0.091  0.00  0.00    -0.732 N 
ATOM      8  C   UNL d   1       0.608   1.440   0.598  0.00  0.00     0.284 C 
ATOM      9  H3  UNL d   1       0.917  -0.228  -0.608  0.00  0.00     0.395 HD
ENDBRANCH   1   7
TORSDOF 1
ENDMDL
