MODEL 1
REMARK minimizedAffinity -3.99622202
REMARK minimizedRMSD -1
REMARK  1 active torsions:
REMARK  status: ('A' for Active; 'I' for Inactive)
REMARK    1  A    between atoms: N_2  and  C1_3 
ROOT
ATOM      1  C1  UNL d   1      -3.069  -2.018   3.567  0.00  0.00     0.143 A 
ATOM      2  C2  UNL d   1      -3.216  -2.116   4.955  0.00  0.00    -0.057 A 
ATOM      3  C3  UNL d   1      -4.131  -3.009   5.527  0.00  0.00     0.033 A 
ATOM      4  C4  UNL d   1      -4.937  -3.802   4.717  0.00  0.00    -0.042 A 
ATOM      5  C5  UNL d   1      -4.826  -3.703   3.334  0.00  0.00     0.033 A 
ATOM      6  C6  UNL d   1      -3.906  -2.814   2.769  0.00  0.00    -0.057 A 
ENDROOT
BRANCH   1   7
ATOM      7  N   UNL d   1      -2.249  -1.079   2.936  0.00  0.00    -0.732 N 
ATOM      8  C   UNL d   1      -1.522  -1.426   1.734  0.00  0.00     0.284 C 
ATOM      9  H3  UNL d   1      -2.664  -0.151   2.919  0.00  0.00     0.395 HD
ENDBRANCH   1   7
TORSDOF 1
ENDMDL
