MODEL 1
REMARK minimizedAffinity 3.03974795
REMARK minimizedRMSD -1
REMARK  1 active torsions:
REMARK  status: ('A' for Active; 'I' for Inactive)
REMARK    1  A    between atoms: N_2  and  C1_3 
ROOT
ATOM      1  C1  UNL d   1      -3.921  -3.684  -5.928  0.00  0.00     0.143 A 
ATOM      2  C2  UNL d   1      -2.593  -3.244  -5.940  0.00  0.00    -0.057 A 
ATOM      3  C3  UNL d   1      -1.528  -4.151  -5.990  0.00  0.00     0.033 A 
ATOM      4  C4  UNL d   1      -1.773  -5.520  -5.998  0.00  0.00    -0.042 A 
ATOM      5  C5  UNL d   1      -3.084  -5.981  -5.960  0.00  0.00     0.033 A 
ATOM      6  C6  UNL d   1      -4.144  -5.070  -5.918  0.00  0.00    -0.057 A 
ENDROOT
BRANCH   1   7
ATOM      7  N   UNL d   1      -5.021  -2.835  -5.780  0.00  0.00    -0.732 N 
ATOM      8  C   UNL d   1      -4.886  -1.410  -5.997  0.00  0.00     0.284 C 
ATOM      9  H3  UNL d   1      -5.875  -3.235  -6.162  0.00  0.00     0.395 HD
ENDBRANCH   1   7
TORSDOF 1
ENDMDL
