MODEL 1
REMARK minimizedAffinity -4.8486104
REMARK minimizedRMSD -1
REMARK  0 active torsions:
REMARK  status: ('A' for Active; 'I' for Inactive)
ROOT
ATOM      1  C1  BNZ d   1       2.762   0.171   1.845  0.00  0.00     0.000 A 
ATOM      2  C2  BNZ d   1       2.628  -0.524   0.672  0.00  0.00     0.000 A 
ATOM      3  C3  BNZ d   1       2.125  -1.795   0.665  0.00  0.00     0.000 A 
ATOM      4  C4  BNZ d   1       1.795  -2.384   1.832  0.00  0.00     0.000 A 
ATOM      5  C5  BNZ d   1       1.934  -1.701   3.024  0.00  0.00     0.000 A 
ATOM      6  C6  BNZ d   1       2.404  -0.407   3.024  0.00  0.00     0.000 A 
ENDROOT
TORSDOF 0
ENDMDL
