MODEL 1
REMARK minimizedAffinity -4.10294247
REMARK minimizedRMSD -1
REMARK  0 active torsions:
REMARK  status: ('A' for Active; 'I' for Inactive)
ROOT
ATOM      1  C1  BNZ d   1       0.707   1.189   0.602  0.00  0.00     0.000 A 
ATOM      2  C2  BNZ d   1       2.077   1.188   0.595  0.00  0.00     0.000 A 
ATOM      3  C3  BNZ d   1       2.773   0.079   0.203  0.00  0.00     0.000 A 
ATOM      4  C4  BNZ d   1       2.101  -1.039  -0.142  0.00  0.00     0.000 A 
ATOM      5  C5  BNZ d   1       0.721  -1.056  -0.130  0.00  0.00     0.000 A 
ATOM      6  C6  BNZ d   1       0.022   0.075   0.228  0.00  0.00     0.000 A 
ENDROOT
TORSDOF 0
ENDMDL
