MODEL 1
REMARK minimizedAffinity -2.35953665
REMARK minimizedRMSD -1
REMARK  0 active torsions:
REMARK  status: ('A' for Active; 'I' for Inactive)
ROOT
ATOM      1  C1  BNZ d   1       1.002  -1.104   0.350  0.00  0.00     0.000 A 
ATOM      2  C2  BNZ d   1       2.343  -1.248   0.588  0.00  0.00     0.000 A 
ATOM      3  C3  BNZ d   1       3.074  -0.222   1.119  0.00  0.00     0.000 A 
ATOM      4  C4  BNZ d   1       2.473   0.958   1.373  0.00  0.00     0.000 A 
ATOM      5  C5  BNZ d   1       1.124   1.122   1.129  0.00  0.00     0.000 A 
ATOM      6  C6  BNZ d   1       0.383   0.075   0.631  0.00  0.00     0.000 A 
ENDROOT
TORSDOF 0
ENDMDL
