MODEL 1
REMARK minimizedAffinity -2.7711513
REMARK minimizedRMSD -1
REMARK  0 active torsions:
REMARK  status: ('A' for Active; 'I' for Inactive)
ROOT
ATOM      1  C1  BNZ d   1       0.660  -1.370   1.593  0.00  0.00     0.000 A 
ATOM      2  C2  BNZ d   1       1.766  -0.566   1.667  0.00  0.00     0.000 A 
ATOM      3  C3  BNZ d   1       1.823   0.611   0.976  0.00  0.00     0.000 A 
ATOM      4  C4  BNZ d   1       0.793   0.964   0.180  0.00  0.00     0.000 A 
ATOM      5  C5  BNZ d   1      -0.325   0.159   0.087  0.00  0.00     0.000 A 
ATOM      6  C6  BNZ d   1      -0.396  -1.006   0.815  0.00  0.00     0.000 A 
ENDROOT
TORSDOF 0
ENDMDL
