MODEL 1
REMARK minimizedAffinity -2.19659042
REMARK minimizedRMSD -1
REMARK  0 active torsions:
REMARK  status: ('A' for Active; 'I' for Inactive)
ROOT
ATOM      1  C1  BNZ d   1       1.288   1.523   0.857  0.00  0.00     0.000 A 
ATOM      2  C2  BNZ d   1       1.528   0.175   0.837  0.00  0.00     0.000 A 
ATOM      3  C3  BNZ d   1       0.557  -0.703   0.444  0.00  0.00     0.000 A 
ATOM      4  C4  BNZ d   1      -0.663  -0.237   0.109  0.00  0.00     0.000 A 
ATOM      5  C5  BNZ d   1      -0.923   1.119   0.132  0.00  0.00     0.000 A 
ATOM      6  C6  BNZ d   1       0.068   2.003   0.492  0.00  0.00     0.000 A 
ENDROOT
TORSDOF 0
ENDMDL
