MODEL 1
REMARK minimizedAffinity -2.69868803
REMARK minimizedRMSD -1
REMARK  0 active torsions:
REMARK  status: ('A' for Active; 'I' for Inactive)
ROOT
ATOM      1  C1  BNZ d   1      -0.984   0.626   0.489  0.00  0.00     0.000 A 
ATOM      2  C2  BNZ d   1      -0.050   1.621   0.605  0.00  0.00     0.000 A 
ATOM      3  C3  BNZ d   1       1.280   1.354   0.440  0.00  0.00     0.000 A 
ATOM      4  C4  BNZ d   1       1.678   0.088   0.200  0.00  0.00     0.000 A 
ATOM      5  C5  BNZ d   1       0.749  -0.927   0.089  0.00  0.00     0.000 A 
ATOM      6  C6  BNZ d   1      -0.592  -0.649   0.218  0.00  0.00     0.000 A 
ENDROOT
TORSDOF 0
ENDMDL
