MODEL 1
REMARK minimizedAffinity -3.66877747
REMARK minimizedRMSD -1
REMARK  0 active torsions:
REMARK  status: ('A' for Active; 'I' for Inactive)
ROOT
ATOM      1  C1  BNZ d   1       0.796   0.828   0.214  0.00  0.00     0.000 A 
ATOM      2  C2  BNZ d   1       1.982   0.158   0.352  0.00  0.00     0.000 A 
ATOM      3  C3  BNZ d   1       2.003  -1.191   0.573  0.00  0.00     0.000 A 
ATOM      4  C4  BNZ d   1       0.839  -1.860   0.696  0.00  0.00     0.000 A 
ATOM      5  C5  BNZ d   1      -0.365  -1.198   0.569  0.00  0.00     0.000 A 
ATOM      6  C6  BNZ d   1      -0.382   0.153   0.308  0.00  0.00     0.000 A 
ENDROOT
TORSDOF 0
ENDMDL
