MODEL 1
REMARK minimizedAffinity 9.47296238
REMARK minimizedRMSD -1
REMARK  0 active torsions:
REMARK  status: ('A' for Active; 'I' for Inactive)
ROOT
ATOM      1  C1  DEN d   1       1.235  -0.310   2.222  0.00  0.00     0.130 A 
ATOM      2  C2  DEN d   1       2.190   0.705   1.786  0.00  0.00    -0.031 A 
ATOM      3  C3  DEN d   1       3.472   0.450   2.472  0.00  0.00     0.027 A 
ATOM      4  C4  DEN d   1       4.071  -1.411   4.155  0.00  0.00     0.027 A 
ATOM      5  C5  DEN d   1       3.585  -2.501   4.843  0.00  0.00    -0.003 A 
ATOM      6  C6  DEN d   1       2.283  -2.913   4.732  0.00  0.00     0.001 A 
ATOM      7  C7  DEN d   1       1.434  -2.258   3.881  0.00  0.00     0.017 A 
ATOM      8  C8  DEN d   1       1.914  -1.153   3.189  0.00  0.00    -0.094 A 
ATOM      9  C9  DEN d   1       3.236  -0.760   3.305  0.00  0.00    -0.072 A 
ENDROOT
TORSDOF 0
ENDMDL
