MODEL 1
REMARK minimizedAffinity 14.484396
REMARK minimizedRMSD -1
REMARK  0 active torsions:
REMARK  status: ('A' for Active; 'I' for Inactive)
ROOT
ATOM      1  C1  DEN d   1       1.189  -0.230   2.571  0.00  0.00     0.130 A 
ATOM      2  C2  DEN d   1       2.399  -1.025   2.383  0.00  0.00    -0.031 A 
ATOM      3  C3  DEN d   1       2.294  -1.716   1.082  0.00  0.00     0.027 A 
ATOM      4  C4  DEN d   1       0.388  -1.626  -0.654  0.00  0.00     0.027 A 
ATOM      5  C5  DEN d   1      -0.852  -1.096  -0.932  0.00  0.00    -0.003 A 
ATOM      6  C6  DEN d   1      -1.509  -0.274  -0.055  0.00  0.00     0.001 A 
ATOM      7  C7  DEN d   1      -0.908   0.079   1.124  0.00  0.00     0.017 A 
ATOM      8  C8  DEN d   1       0.340  -0.458   1.415  0.00  0.00    -0.094 A 
ATOM      9  C9  DEN d   1       0.992  -1.277   0.510  0.00  0.00    -0.072 A 
ENDROOT
TORSDOF 0
ENDMDL
