MODEL 1
REMARK minimizedAffinity 17.8475494
REMARK minimizedRMSD -1
REMARK  0 active torsions:
REMARK  status: ('A' for Active; 'I' for Inactive)
ROOT
ATOM      1  C1  DEN d   1       1.021  -5.988   4.547  0.00  0.00     0.130 A 
ATOM      2  C2  DEN d   1       0.036  -5.982   5.625  0.00  0.00    -0.031 A 
ATOM      3  C3  DEN d   1      -0.222  -4.578   6.000  0.00  0.00     0.027 A 
ATOM      4  C4  DEN d   1       0.800  -2.422   5.019  0.00  0.00     0.027 A 
ATOM      5  C5  DEN d   1       1.690  -1.922   4.094  0.00  0.00    -0.003 A 
ATOM      6  C6  DEN d   1       2.438  -2.736   3.286  0.00  0.00     0.001 A 
ATOM      7  C7  DEN d   1       2.277  -4.095   3.355  0.00  0.00     0.017 A 
ATOM      8  C8  DEN d   1       1.387  -4.607   4.290  0.00  0.00    -0.094 A 
ATOM      9  C9  DEN d   1       0.630  -3.767   5.089  0.00  0.00    -0.072 A 
ENDROOT
TORSDOF 0
ENDMDL
