MODEL 1
REMARK minimizedAffinity 5.87701845
REMARK minimizedRMSD -1
REMARK  0 active torsions:
REMARK  status: ('A' for Active; 'I' for Inactive)
ROOT
ATOM      1  C1  DEN d   1       2.699  -1.210   2.699  0.00  0.00     0.130 A 
ATOM      2  C2  DEN d   1       1.345  -1.431   3.199  0.00  0.00    -0.031 A 
ATOM      3  C3  DEN d   1       1.446  -1.933   4.584  0.00  0.00     0.027 A 
ATOM      4  C4  DEN d   1       3.556  -2.382   5.997  0.00  0.00     0.027 A 
ATOM      5  C5  DEN d   1       4.933  -2.354   5.999  0.00  0.00    -0.003 A 
ATOM      6  C6  DEN d   1       5.657  -1.978   4.898  0.00  0.00     0.001 A 
ATOM      7  C7  DEN d   1       5.005  -1.572   3.764  0.00  0.00     0.017 A 
ATOM      8  C8  DEN d   1       3.617  -1.604   3.752  0.00  0.00    -0.094 A 
ATOM      9  C9  DEN d   1       2.903  -1.975   4.879  0.00  0.00    -0.072 A 
ENDROOT
TORSDOF 0
ENDMDL
