MODEL 1
REMARK minimizedAffinity 5.03701925
REMARK minimizedRMSD -1
REMARK  0 active torsions:
REMARK  status: ('A' for Active; 'I' for Inactive)
ROOT
ATOM      1  C1  DEN d   1       5.676  -2.571   3.794  0.00  0.00     0.130 A 
ATOM      2  C2  DEN d   1       6.000  -2.867   5.187  0.00  0.00    -0.031 A 
ATOM      3  C3  DEN d   1       4.792  -2.619   6.000  0.00  0.00     0.027 A 
ATOM      4  C4  DEN d   1       2.462  -1.816   5.239  0.00  0.00     0.027 A 
ATOM      5  C5  DEN d   1       1.708  -1.423   4.155  0.00  0.00    -0.003 A 
ATOM      6  C6  DEN d   1       2.229  -1.354   2.890  0.00  0.00     0.001 A 
ATOM      7  C7  DEN d   1       3.530  -1.725   2.671  0.00  0.00     0.017 A 
ATOM      8  C8  DEN d   1       4.298  -2.115   3.760  0.00  0.00    -0.094 A 
ATOM      9  C9  DEN d   1       3.749  -2.190   5.029  0.00  0.00    -0.072 A 
ENDROOT
TORSDOF 0
ENDMDL
