MODEL 1
REMARK minimizedAffinity -0.21796836
REMARK minimizedRMSD -1
REMARK  0 active torsions:
REMARK  status: ('A' for Active; 'I' for Inactive)
ROOT
ATOM      1  C1  DEN d   1       5.999  -1.805   4.451  0.00  0.00     0.130 A 
ATOM      2  C2  DEN d   1       5.892  -2.440   5.761  0.00  0.00    -0.031 A 
ATOM      3  C3  DEN d   1       4.481  -2.826   5.968  0.00  0.00     0.027 A 
ATOM      4  C4  DEN d   1       2.464  -2.507   4.392  0.00  0.00     0.027 A 
ATOM      5  C5  DEN d   1       2.060  -2.007   3.174  0.00  0.00    -0.003 A 
ATOM      6  C6  DEN d   1       2.925  -1.380   2.318  0.00  0.00     0.001 A 
ATOM      7  C7  DEN d   1       4.251  -1.276   2.649  0.00  0.00     0.017 A 
ATOM      8  C8  DEN d   1       4.665  -1.770   3.878  0.00  0.00    -0.094 A 
ATOM      9  C9  DEN d   1       3.777  -2.412   4.725  0.00  0.00    -0.072 A 
ENDROOT
TORSDOF 0
ENDMDL
