MODEL 1
REMARK minimizedAffinity 18.9749985
REMARK minimizedRMSD -1
REMARK  0 active torsions:
REMARK  status: ('A' for Active; 'I' for Inactive)
ROOT
ATOM      1  C1  DEN d   1       1.404   1.000   2.097  0.00  0.00     0.130 A 
ATOM      2  C2  DEN d   1       2.803   0.578   2.107  0.00  0.00    -0.031 A 
ATOM      3  C3  DEN d   1       2.989  -0.409   1.025  0.00  0.00     0.027 A 
ATOM      4  C4  DEN d   1       1.259  -1.318  -0.658  0.00  0.00     0.027 A 
ATOM      5  C5  DEN d   1      -0.060  -1.265  -1.051  0.00  0.00    -0.003 A 
ATOM      6  C6  DEN d   1      -0.983  -0.486  -0.406  0.00  0.00     0.001 A 
ATOM      7  C7  DEN d   1      -0.590   0.307   0.639  0.00  0.00     0.017 A 
ATOM      8  C8  DEN d   1       0.737   0.254   1.046  0.00  0.00    -0.094 A 
ATOM      9  C9  DEN d   1       1.658  -0.531   0.373  0.00  0.00    -0.072 A 
ENDROOT
TORSDOF 0
ENDMDL
