MODEL 1
REMARK minimizedAffinity 14.1315622
REMARK minimizedRMSD -1
REMARK  0 active torsions:
REMARK  status: ('A' for Active; 'I' for Inactive)
ROOT
ATOM      1  C1  DEN d   1      -5.886   1.625   2.089  0.00  0.00     0.130 A 
ATOM      2  C2  DEN d   1      -5.755   2.357   3.346  0.00  0.00    -0.031 A 
ATOM      3  C3  DEN d   1      -5.712   3.799   3.032  0.00  0.00     0.027 A 
ATOM      4  C4  DEN d   1      -5.839   4.964   0.734  0.00  0.00     0.027 A 
ATOM      5  C5  DEN d   1      -5.942   4.759  -0.624  0.00  0.00    -0.003 A 
ATOM      6  C6  DEN d   1      -5.999   3.505  -1.171  0.00  0.00     0.001 A 
ATOM      7  C7  DEN d   1      -5.999   2.407  -0.352  0.00  0.00     0.017 A 
ATOM      8  C8  DEN d   1      -5.887   2.605   1.018  0.00  0.00    -0.094 A 
ATOM      9  C9  DEN d   1      -5.843   3.881   1.552  0.00  0.00    -0.072 A 
ENDROOT
TORSDOF 0
ENDMDL
