MODEL 1
REMARK minimizedAffinity 5.11377048
REMARK minimizedRMSD -1
REMARK  0 active torsions:
REMARK  status: ('A' for Active; 'I' for Inactive)
ROOT
ATOM      1  C1  DEN d   1       1.367  -2.322   0.899  0.00  0.00     0.130 A 
ATOM      2  C2  DEN d   1       1.870  -3.308  -0.054  0.00  0.00    -0.031 A 
ATOM      3  C3  DEN d   1       2.952  -2.676  -0.835  0.00  0.00     0.027 A 
ATOM      4  C4  DEN d   1       3.895  -0.282  -0.660  0.00  0.00     0.027 A 
ATOM      5  C5  DEN d   1       3.779   0.925  -0.007  0.00  0.00    -0.003 A 
ATOM      6  C6  DEN d   1       2.837   1.143   0.963  0.00  0.00     0.001 A 
ATOM      7  C7  DEN d   1       2.002   0.124   1.339  0.00  0.00     0.017 A 
ATOM      8  C8  DEN d   1       2.107  -1.093   0.679  0.00  0.00    -0.094 A 
ATOM      9  C9  DEN d   1       3.074  -1.297  -0.290  0.00  0.00    -0.072 A 
ENDROOT
TORSDOF 0
ENDMDL
