MODEL 1
REMARK minimizedAffinity 1.05677426
REMARK minimizedRMSD -1
REMARK  0 active torsions:
REMARK  status: ('A' for Active; 'I' for Inactive)
ROOT
ATOM      1  C1  DEN d   1      -3.055  -0.372  -3.107  0.00  0.00     0.130 A 
ATOM      2  C2  DEN d   1      -2.588   0.238  -4.349  0.00  0.00    -0.031 A 
ATOM      3  C3  DEN d   1      -3.370   1.470  -4.575  0.00  0.00     0.027 A 
ATOM      4  C4  DEN d   1      -5.245   2.490  -3.127  0.00  0.00     0.027 A 
ATOM      5  C5  DEN d   1      -5.997   2.325  -1.985  0.00  0.00    -0.003 A 
ATOM      6  C6  DEN d   1      -5.846   1.241  -1.162  0.00  0.00     0.001 A 
ATOM      7  C7  DEN d   1      -4.889   0.302  -1.444  0.00  0.00     0.017 A 
ATOM      8  C8  DEN d   1      -4.132   0.458  -2.598  0.00  0.00    -0.094 A 
ATOM      9  C9  DEN d   1      -4.292   1.567  -3.411  0.00  0.00    -0.072 A 
ENDROOT
TORSDOF 0
ENDMDL
