MODEL 1
REMARK minimizedAffinity 0.942802906
REMARK minimizedRMSD -1
REMARK  0 active torsions:
REMARK  status: ('A' for Active; 'I' for Inactive)
ROOT
ATOM      1  C1  DEN d   1      -5.910   1.793  -2.227  0.00  0.00     0.130 A 
ATOM      2  C2  DEN d   1      -5.872   2.935  -3.136  0.00  0.00    -0.031 A 
ATOM      3  C3  DEN d   1      -4.679   2.795  -3.995  0.00  0.00     0.027 A 
ATOM      4  C4  DEN d   1      -2.900   0.928  -4.009  0.00  0.00     0.027 A 
ATOM      5  C5  DEN d   1      -2.501  -0.247  -3.411  0.00  0.00    -0.003 A 
ATOM      6  C6  DEN d   1      -3.186  -0.802  -2.363  0.00  0.00     0.001 A 
ATOM      7  C7  DEN d   1      -4.333  -0.206  -1.909  0.00  0.00     0.017 A 
ATOM      8  C8  DEN d   1      -4.737   0.983  -2.502  0.00  0.00    -0.094 A 
ATOM      9  C9  DEN d   1      -4.037   1.522  -3.569  0.00  0.00    -0.072 A 
ENDROOT
TORSDOF 0
ENDMDL
