MODEL 1
REMARK minimizedAffinity 2.72474527
REMARK minimizedRMSD -1
REMARK  0 active torsions:
REMARK  status: ('A' for Active; 'I' for Inactive)
ROOT
ATOM      1  C1  DEN d   1      -3.653   3.743  -3.706  0.00  0.00     0.130 A 
ATOM      2  C2  DEN d   1      -4.864   4.498  -3.396  0.00  0.00    -0.031 A 
ATOM      3  C3  DEN d   1      -6.000   3.555  -3.381  0.00  0.00     0.027 A 
ATOM      4  C4  DEN d   1      -6.000   1.010  -3.801  0.00  0.00     0.027 A 
ATOM      5  C5  DEN d   1      -5.213  -0.077  -4.113  0.00  0.00    -0.003 A 
ATOM      6  C6  DEN d   1      -3.867   0.038  -4.343  0.00  0.00     0.001 A 
ATOM      7  C7  DEN d   1      -3.260   1.260  -4.219  0.00  0.00     0.017 A 
ATOM      8  C8  DEN d   1      -4.048   2.361  -3.912  0.00  0.00    -0.094 A 
ATOM      9  C9  DEN d   1      -5.405   2.222  -3.672  0.00  0.00    -0.072 A 
ENDROOT
TORSDOF 0
ENDMDL
