MODEL 1
REMARK minimizedAffinity 6.23360157
REMARK minimizedRMSD -1
REMARK  0 active torsions:
REMARK  status: ('A' for Active; 'I' for Inactive)
ROOT
ATOM      1  C1  DEN d   1       4.668   2.827  -0.164  0.00  0.00     0.130 A 
ATOM      2  C2  DEN d   1       6.000   2.231  -0.113  0.00  0.00    -0.031 A 
ATOM      3  C3  DEN d   1       5.845   0.763  -0.145  0.00  0.00     0.027 A 
ATOM      4  C4  DEN d   1       3.683  -0.638  -0.272  0.00  0.00     0.027 A 
ATOM      5  C5  DEN d   1       2.308  -0.578  -0.323  0.00  0.00    -0.003 A 
ATOM      6  C6  DEN d   1       1.627   0.610  -0.291  0.00  0.00     0.001 A 
ATOM      7  C7  DEN d   1       2.322   1.790  -0.250  0.00  0.00     0.017 A 
ATOM      8  C8  DEN d   1       3.709   1.737  -0.191  0.00  0.00    -0.094 A 
ATOM      9  C9  DEN d   1       4.379   0.526  -0.237  0.00  0.00    -0.072 A 
ENDROOT
TORSDOF 0
ENDMDL
