MODEL 1
REMARK minimizedAffinity 3.134408
REMARK minimizedRMSD -1
REMARK  0 active torsions:
REMARK  status: ('A' for Active; 'I' for Inactive)
ROOT
ATOM      1  C1  DEN d   1      -2.774   2.093  -2.258  0.00  0.00     0.130 A 
ATOM      2  C2  DEN d   1      -2.161   0.818  -2.620  0.00  0.00    -0.031 A 
ATOM      3  C3  DEN d   1      -2.969   0.212  -3.698  0.00  0.00     0.027 A 
ATOM      4  C4  DEN d   1      -5.095   1.123  -4.838  0.00  0.00     0.027 A 
ATOM      5  C5  DEN d   1      -6.000   2.162  -4.861  0.00  0.00    -0.003 A 
ATOM      6  C6  DEN d   1      -5.912   3.225  -4.003  0.00  0.00     0.001 A 
ATOM      7  C7  DEN d   1      -4.872   3.296  -3.114  0.00  0.00     0.017 A 
ATOM      8  C8  DEN d   1      -3.961   2.249  -3.080  0.00  0.00    -0.094 A 
ATOM      9  C9  DEN d   1      -4.059   1.189  -3.964  0.00  0.00    -0.072 A 
ENDROOT
TORSDOF 0
ENDMDL
