MODEL 1
REMARK minimizedAffinity 7.82703257
REMARK minimizedRMSD -1
REMARK  0 active torsions:
REMARK  status: ('A' for Active; 'I' for Inactive)
ROOT
ATOM      1  C1  DEN d   1       4.739   3.000   1.105  0.00  0.00     0.130 A 
ATOM      2  C2  DEN d   1       6.000   2.992   0.368  0.00  0.00    -0.031 A 
ATOM      3  C3  DEN d   1       5.870   2.034  -0.748  0.00  0.00     0.027 A 
ATOM      4  C4  DEN d   1       3.848   0.575  -1.406  0.00  0.00     0.027 A 
ATOM      5  C5  DEN d   1       2.557   0.229  -1.073  0.00  0.00    -0.003 A 
ATOM      6  C6  DEN d   1       1.920   0.754   0.020  0.00  0.00     0.001 A 
ATOM      7  C7  DEN d   1       2.557   1.687   0.795  0.00  0.00     0.017 A 
ATOM      8  C8  DEN d   1       3.862   2.035   0.469  0.00  0.00    -0.094 A 
ATOM      9  C9  DEN d   1       4.484   1.503  -0.647  0.00  0.00    -0.072 A 
ENDROOT
TORSDOF 0
ENDMDL
