MODEL 1
REMARK minimizedAffinity 4.89509487
REMARK minimizedRMSD -1
REMARK  0 active torsions:
REMARK  status: ('A' for Active; 'I' for Inactive)
ROOT
ATOM      1  C1  DEN d   1      -6.000   1.855  -0.901  0.00  0.00     0.130 A 
ATOM      2  C2  DEN d   1      -6.000   0.581  -0.188  0.00  0.00    -0.031 A 
ATOM      3  C3  DEN d   1      -5.161  -0.367  -0.948  0.00  0.00     0.027 A 
ATOM      4  C4  DEN d   1      -3.865   0.014  -3.145  0.00  0.00     0.027 A 
ATOM      5  C5  DEN d   1      -3.571   0.930  -4.131  0.00  0.00    -0.003 A 
ATOM      6  C6  DEN d   1      -4.089   2.198  -4.127  0.00  0.00     0.001 A 
ATOM      7  C7  DEN d   1      -4.893   2.599  -3.093  0.00  0.00     0.017 A 
ATOM      8  C8  DEN d   1      -5.200   1.679  -2.099  0.00  0.00    -0.094 A 
ATOM      9  C9  DEN d   1      -4.657   0.406  -2.115  0.00  0.00    -0.072 A 
ENDROOT
TORSDOF 0
ENDMDL
