MODEL 1
REMARK minimizedAffinity 6.41558313
REMARK minimizedRMSD -1
REMARK  0 active torsions:
REMARK  status: ('A' for Active; 'I' for Inactive)
ROOT
ATOM      1  C1  DEN d   1      -5.972   3.175  -2.992  0.00  0.00     0.130 A 
ATOM      2  C2  DEN d   1      -4.879   3.992  -2.472  0.00  0.00    -0.031 A 
ATOM      3  C3  DEN d   1      -3.606   3.377  -2.901  0.00  0.00     0.027 A 
ATOM      4  C4  DEN d   1      -3.226   1.254  -4.316  0.00  0.00     0.027 A 
ATOM      5  C5  DEN d   1      -3.850   0.218  -4.976  0.00  0.00    -0.003 A 
ATOM      6  C6  DEN d   1      -5.212   0.077  -4.992  0.00  0.00     0.001 A 
ATOM      7  C7  DEN d   1      -5.998   1.013  -4.373  0.00  0.00     0.017 A 
ATOM      8  C8  DEN d   1      -5.377   2.056  -3.699  0.00  0.00    -0.094 A 
ATOM      9  C9  DEN d   1      -3.998   2.188  -3.705  0.00  0.00    -0.072 A 
ENDROOT
TORSDOF 0
ENDMDL
