MODEL 1
REMARK minimizedAffinity 7.29949903
REMARK minimizedRMSD -1
REMARK  0 active torsions:
REMARK  status: ('A' for Active; 'I' for Inactive)
ROOT
ATOM      1  C1  DEN d   1      -5.668   1.954  -1.323  0.00  0.00     0.130 A 
ATOM      2  C2  DEN d   1      -6.000   0.751  -0.564  0.00  0.00    -0.031 A 
ATOM      3  C3  DEN d   1      -5.233  -0.375  -1.135  0.00  0.00     0.027 A 
ATOM      4  C4  DEN d   1      -3.570  -0.371  -3.106  0.00  0.00     0.027 A 
ATOM      5  C5  DEN d   1      -2.974   0.412  -4.070  0.00  0.00    -0.003 A 
ATOM      6  C6  DEN d   1      -3.257   1.745  -4.207  0.00  0.00     0.001 A 
ATOM      7  C7  DEN d   1      -4.127   2.346  -3.336  0.00  0.00     0.017 A 
ATOM      8  C8  DEN d   1      -4.738   1.562  -2.366  0.00  0.00    -0.094 A 
ATOM      9  C9  DEN d   1      -4.429   0.219  -2.237  0.00  0.00    -0.072 A 
ENDROOT
TORSDOF 0
ENDMDL
