MODEL 1
REMARK minimizedAffinity 21.1120033
REMARK minimizedRMSD -1
REMARK  1 active torsions:
REMARK  status: ('A' for Active; 'I' for Inactive)
REMARK    1  A    between atoms: C1_2  and  C2_3 
ROOT
ATOM      1  C2  UNL d   1      -0.932  -2.127   3.391  0.00  0.00    -0.076 A 
ATOM      2  C3  UNL d   1      -0.304  -2.422   2.168  0.00  0.00     0.004 A 
ATOM      3  C4  UNL d   1       0.727  -1.622   1.679  0.00  0.00    -0.003 A 
ATOM      4  C5  UNL d   1       1.148  -0.514   2.405  0.00  0.00     0.000 A 
ATOM      5  C6  UNL d   1       0.549  -0.216   3.629  0.00  0.00     0.000 A 
ATOM      6  C7  UNL d   1      -0.480  -1.021   4.144  0.00  0.00    -0.073 A 
ATOM      7  C8  UNL d   1      -1.095  -0.650   5.466  0.00  0.00     0.078 C 
ENDROOT
BRANCH   1   8
ATOM      8  C1  UNL d   1      -2.063  -3.014   3.858  0.00  0.00     0.053 C 
ATOM      9  C   UNL d   1      -3.064  -3.313   2.753  0.00  0.00     0.018 C 
ENDBRANCH   1   8
TORSDOF 1
ENDMDL
