MODEL 1
REMARK minimizedAffinity 5.4962306
REMARK minimizedRMSD -1
REMARK  1 active torsions:
REMARK  status: ('A' for Active; 'I' for Inactive)
REMARK    1  A    between atoms: C1_2  and  C2_3 
ROOT
ATOM      1  C2  UNL d   1      -1.006  -2.341   3.903  0.00  0.00    -0.076 A 
ATOM      2  C3  UNL d   1      -0.319  -2.621   2.709  0.00  0.00     0.004 A 
ATOM      3  C4  UNL d   1       0.740  -1.820   2.285  0.00  0.00    -0.003 A 
ATOM      4  C5  UNL d   1       1.130  -0.726   3.049  0.00  0.00     0.000 A 
ATOM      5  C6  UNL d   1       0.472  -0.443   4.245  0.00  0.00     0.000 A 
ATOM      6  C7  UNL d   1      -0.587  -1.250   4.695  0.00  0.00    -0.073 A 
ATOM      7  C8  UNL d   1      -1.266  -0.895   5.990  0.00  0.00     0.078 C 
ENDROOT
BRANCH   1   8
ATOM      8  C1  UNL d   1      -2.164  -3.229   4.298  0.00  0.00     0.053 C 
ATOM      9  C   UNL d   1      -2.581  -4.173   3.182  0.00  0.00     0.018 C 
ENDBRANCH   1   8
TORSDOF 1
ENDMDL
