MODEL 1
REMARK minimizedAffinity 9.99211979
REMARK minimizedRMSD -1
REMARK  1 active torsions:
REMARK  status: ('A' for Active; 'I' for Inactive)
REMARK    1  A    between atoms: C1_2  and  C2_3 
ROOT
ATOM      1  C2  UNL d   1       0.173  -4.505   2.879  0.00  0.00    -0.076 A 
ATOM      2  C3  UNL d   1      -0.647  -4.225   3.986  0.00  0.00     0.004 A 
ATOM      3  C4  UNL d   1      -1.270  -2.986   4.122  0.00  0.00    -0.003 A 
ATOM      4  C5  UNL d   1      -1.084  -2.007   3.153  0.00  0.00     0.000 A 
ATOM      5  C6  UNL d   1      -0.288  -2.273   2.039  0.00  0.00     0.000 A 
ATOM      6  C7  UNL d   1       0.334  -3.523   1.879  0.00  0.00    -0.073 A 
ATOM      7  C8  UNL d   1       1.187  -3.754   0.661  0.00  0.00     0.078 C 
ENDROOT
BRANCH   1   8
ATOM      8  C1  UNL d   1       0.845  -5.858   2.799  0.00  0.00     0.053 C 
ATOM      9  C   UNL d   1       2.157  -5.903   3.566  0.00  0.00     0.018 C 
ENDBRANCH   1   8
TORSDOF 1
ENDMDL
