MODEL 1
REMARK minimizedAffinity 13.7617626
REMARK minimizedRMSD -1
REMARK  1 active torsions:
REMARK  status: ('A' for Active; 'I' for Inactive)
REMARK    1  A    between atoms: C1_2  and  C2_3 
ROOT
ATOM      1  C2  UNL d   1      -0.052  -1.046   3.542  0.00  0.00    -0.076 A 
ATOM      2  C3  UNL d   1       1.021  -0.395   2.910  0.00  0.00     0.004 A 
ATOM      3  C4  UNL d   1       1.724  -1.009   1.875  0.00  0.00    -0.003 A 
ATOM      4  C5  UNL d   1       1.365  -2.285   1.455  0.00  0.00     0.000 A 
ATOM      5  C6  UNL d   1       0.292  -2.939   2.059  0.00  0.00     0.000 A 
ATOM      6  C7  UNL d   1      -0.438  -2.327   3.092  0.00  0.00    -0.073 A 
ATOM      7  C8  UNL d   1      -1.583  -3.081   3.712  0.00  0.00     0.078 C 
ENDROOT
BRANCH   1   8
ATOM      8  C1  UNL d   1      -0.761  -0.341   4.677  0.00  0.00     0.053 C 
ATOM      9  C   UNL d   1      -0.023  -0.480   5.999  0.00  0.00     0.018 C 
ENDBRANCH   1   8
TORSDOF 1
ENDMDL
