MODEL 1
REMARK minimizedAffinity 14.0477409
REMARK minimizedRMSD -1
REMARK  1 active torsions:
REMARK  status: ('A' for Active; 'I' for Inactive)
REMARK    1  A    between atoms: C1_2  and  C2_3 
ROOT
ATOM      1  C2  UNL d   1      -0.811  -1.964   2.862  0.00  0.00    -0.076 A 
ATOM      2  C3  UNL d   1      -0.166  -2.408   1.695  0.00  0.00     0.004 A 
ATOM      3  C4  UNL d   1       0.904  -1.699   1.153  0.00  0.00    -0.003 A 
ATOM      4  C5  UNL d   1       1.346  -0.533   1.769  0.00  0.00     0.000 A 
ATOM      5  C6  UNL d   1       0.729  -0.087   2.937  0.00  0.00     0.000 A 
ATOM      6  C7  UNL d   1      -0.341  -0.800   3.506  0.00  0.00    -0.073 A 
ATOM      7  C8  UNL d   1      -0.973  -0.270   4.763  0.00  0.00     0.078 C 
ENDROOT
BRANCH   1   8
ATOM      8  C1  UNL d   1      -1.984  -2.761   3.389  0.00  0.00     0.053 C 
ATOM      9  C   UNL d   1      -2.916  -3.227   2.282  0.00  0.00     0.018 C 
ENDBRANCH   1   8
TORSDOF 1
ENDMDL
