MODEL 1
REMARK minimizedAffinity 3.43071961
REMARK minimizedRMSD -1
REMARK  1 active torsions:
REMARK  status: ('A' for Active; 'I' for Inactive)
REMARK    1  A    between atoms: C1_2  and  C2_3 
ROOT
ATOM      1  C2  UNL d   1      -0.010  -0.905   3.477  0.00  0.00    -0.076 A 
ATOM      2  C3  UNL d   1       0.916  -0.175   2.713  0.00  0.00     0.004 A 
ATOM      3  C4  UNL d   1       1.459  -0.705   1.544  0.00  0.00    -0.003 A 
ATOM      4  C5  UNL d   1       1.084  -1.975   1.120  0.00  0.00     0.000 A 
ATOM      5  C6  UNL d   1       0.153  -2.707   1.856  0.00  0.00     0.000 A 
ATOM      6  C7  UNL d   1      -0.416  -2.180   3.028  0.00  0.00    -0.073 A 
ATOM      7  C8  UNL d   1      -1.411  -3.016   3.786  0.00  0.00     0.078 C 
ENDROOT
BRANCH   1   8
ATOM      8  C1  UNL d   1      -0.545  -0.289   4.750  0.00  0.00     0.053 C 
ATOM      9  C   UNL d   1       0.016  -0.953   5.998  0.00  0.00     0.018 C 
ENDBRANCH   1   8
TORSDOF 1
ENDMDL
