MODEL 1
REMARK minimizedAffinity 13.7143631
REMARK minimizedRMSD -1
REMARK  1 active torsions:
REMARK  status: ('A' for Active; 'I' for Inactive)
REMARK    1  A    between atoms: C1_2  and  C2_3 
ROOT
ATOM      1  C2  UNL d   1       0.796  -0.360   3.983  0.00  0.00    -0.076 A 
ATOM      2  C3  UNL d   1       1.456   0.393   4.970  0.00  0.00     0.004 A 
ATOM      3  C4  UNL d   1       2.763   0.837   4.779  0.00  0.00    -0.003 A 
ATOM      4  C5  UNL d   1       3.432   0.536   3.598  0.00  0.00     0.000 A 
ATOM      5  C6  UNL d   1       2.787  -0.196   2.601  0.00  0.00     0.000 A 
ATOM      6  C7  UNL d   1       1.464  -0.637   2.771  0.00  0.00    -0.073 A 
ATOM      7  C8  UNL d   1       0.820  -1.428   1.665  0.00  0.00     0.078 C 
ENDROOT
BRANCH   1   8
ATOM      8  C1  UNL d   1      -0.612  -0.838   4.257  0.00  0.00     0.053 C 
ATOM      9  C   UNL d   1      -1.166  -0.297   5.565  0.00  0.00     0.018 C 
ENDBRANCH   1   8
TORSDOF 1
ENDMDL
