MODEL 1
REMARK minimizedAffinity 9.4718771
REMARK minimizedRMSD -1
REMARK  1 active torsions:
REMARK  status: ('A' for Active; 'I' for Inactive)
REMARK    1  A    between atoms: C1_2  and  C2_3 
ROOT
ATOM      1  C2  UNL d   1      -0.873  -2.328   3.426  0.00  0.00    -0.076 A 
ATOM      2  C3  UNL d   1      -0.342  -2.658   2.167  0.00  0.00     0.004 A 
ATOM      3  C4  UNL d   1       0.697  -1.915   1.609  0.00  0.00    -0.003 A 
ATOM      4  C5  UNL d   1       1.222  -0.829   2.302  0.00  0.00     0.000 A 
ATOM      5  C6  UNL d   1       0.719  -0.498   3.560  0.00  0.00     0.000 A 
ATOM      6  C7  UNL d   1      -0.317  -1.247   4.144  0.00  0.00    -0.073 A 
ATOM      7  C8  UNL d   1      -0.825  -0.842   5.500  0.00  0.00     0.078 C 
ENDROOT
BRANCH   1   8
ATOM      8  C1  UNL d   1      -2.018  -3.153   3.968  0.00  0.00     0.053 C 
ATOM      9  C   UNL d   1      -3.116  -3.375   2.939  0.00  0.00     0.018 C 
ENDBRANCH   1   8
TORSDOF 1
ENDMDL
