MODEL 1
REMARK minimizedAffinity 8.04595852
REMARK minimizedRMSD -1
REMARK  1 active torsions:
REMARK  status: ('A' for Active; 'I' for Inactive)
REMARK    1  A    between atoms: C1_2  and  C2_3 
ROOT
ATOM      1  C2  UNL d   1      -4.432  -4.942   1.772  0.00  0.00    -0.076 A 
ATOM      2  C3  UNL d   1      -5.400  -3.925   1.700  0.00  0.00     0.004 A 
ATOM      3  C4  UNL d   1      -5.483  -2.943   2.686  0.00  0.00    -0.003 A 
ATOM      4  C5  UNL d   1      -4.600  -2.962   3.759  0.00  0.00     0.000 A 
ATOM      5  C6  UNL d   1      -3.622  -3.953   3.837  0.00  0.00     0.000 A 
ATOM      6  C7  UNL d   1      -3.513  -4.941   2.843  0.00  0.00    -0.073 A 
ATOM      7  C8  UNL d   1      -2.444  -5.989   2.981  0.00  0.00     0.078 C 
ENDROOT
BRANCH   1   8
ATOM      8  C1  UNL d   1      -4.407  -5.996   0.688  0.00  0.00     0.053 C 
ATOM      9  C   UNL d   1      -4.470  -5.397  -0.709  0.00  0.00     0.018 C 
ENDBRANCH   1   8
TORSDOF 1
ENDMDL
