MODEL 1
REMARK minimizedAffinity 11.5529451
REMARK minimizedRMSD -1
REMARK  1 active torsions:
REMARK  status: ('A' for Active; 'I' for Inactive)
REMARK    1  A    between atoms: C1_2  and  C2_3 
ROOT
ATOM      1  C2  UNL d   1       1.311  -2.827   1.510  0.00  0.00    -0.076 A 
ATOM      2  C3  UNL d   1       2.432  -2.018   1.764  0.00  0.00     0.004 A 
ATOM      3  C4  UNL d   1       2.287  -0.663   2.055  0.00  0.00    -0.003 A 
ATOM      4  C5  UNL d   1       1.019  -0.095   2.097  0.00  0.00     0.000 A 
ATOM      5  C6  UNL d   1      -0.106  -0.886   1.865  0.00  0.00     0.000 A 
ATOM      6  C7  UNL d   1       0.022  -2.258   1.586  0.00  0.00    -0.073 A 
ATOM      7  C8  UNL d   1      -1.224  -3.063   1.338  0.00  0.00     0.078 C 
ENDROOT
BRANCH   1   8
ATOM      8  C1  UNL d   1       1.531  -4.285   1.173  0.00  0.00     0.053 C 
ATOM      9  C   UNL d   1       1.321  -5.198   2.371  0.00  0.00     0.018 C 
ENDBRANCH   1   8
TORSDOF 1
ENDMDL
