MODEL 1
REMARK minimizedAffinity 17.537281
REMARK minimizedRMSD -1
REMARK  1 active torsions:
REMARK  status: ('A' for Active; 'I' for Inactive)
REMARK    1  A    between atoms: C1_2  and  C2_3 
ROOT
ATOM      1  C2  UNL d   1      -2.642   3.691  -2.420  0.00  0.00    -0.076 A 
ATOM      2  C3  UNL d   1      -3.661   2.908  -1.850  0.00  0.00     0.004 A 
ATOM      3  C4  UNL d   1      -4.718   3.499  -1.160  0.00  0.00    -0.003 A 
ATOM      4  C5  UNL d   1      -4.774   4.882  -1.029  0.00  0.00     0.000 A 
ATOM      5  C6  UNL d   1      -3.781   5.675  -1.603  0.00  0.00     0.000 A 
ATOM      6  C7  UNL d   1      -2.717   5.097  -2.316  0.00  0.00    -0.073 A 
ATOM      7  C8  UNL d   1      -1.670   5.999  -2.910  0.00  0.00     0.078 C 
ENDROOT
BRANCH   1   8
ATOM      8  C1  UNL d   1      -1.505   2.993  -3.133  0.00  0.00     0.053 C 
ATOM      9  C   UNL d   1      -0.336   2.690  -2.209  0.00  0.00     0.018 C 
ENDBRANCH   1   8
TORSDOF 1
ENDMDL
