MODEL 1
REMARK minimizedAffinity 16.4121933
REMARK minimizedRMSD -1
REMARK  1 active torsions:
REMARK  status: ('A' for Active; 'I' for Inactive)
REMARK    1  A    between atoms: C1_2  and  C2_3 
ROOT
ATOM      1  C2  UNL d   1      -2.427   3.462  -3.784  0.00  0.00    -0.076 A 
ATOM      2  C3  UNL d   1      -2.055   4.596  -3.042  0.00  0.00     0.004 A 
ATOM      3  C4  UNL d   1      -1.992   5.855  -3.638  0.00  0.00    -0.003 A 
ATOM      4  C5  UNL d   1      -2.300   5.999  -4.986  0.00  0.00     0.000 A 
ATOM      5  C6  UNL d   1      -2.688   4.888  -5.733  0.00  0.00     0.000 A 
ATOM      6  C7  UNL d   1      -2.772   3.615  -5.144  0.00  0.00    -0.073 A 
ATOM      7  C8  UNL d   1      -3.190   2.450  -5.999  0.00  0.00     0.078 C 
ENDROOT
BRANCH   1   8
ATOM      8  C1  UNL d   1      -2.452   2.119  -3.090  0.00  0.00     0.053 C 
ATOM      9  C   UNL d   1      -1.142   1.802  -2.386  0.00  0.00     0.018 C 
ENDBRANCH   1   8
TORSDOF 1
ENDMDL
