MODEL 1
REMARK minimizedAffinity 4.88397408
REMARK minimizedRMSD -1
REMARK  1 active torsions:
REMARK  status: ('A' for Active; 'I' for Inactive)
REMARK    1  A    between atoms: C1_2  and  C2_3 
ROOT
ATOM      1  C2  UNL d   1       1.666  -2.701   1.620  0.00  0.00    -0.076 A 
ATOM      2  C3  UNL d   1       2.544  -3.278   0.685  0.00  0.00     0.004 A 
ATOM      3  C4  UNL d   1       3.385  -2.484  -0.093  0.00  0.00    -0.003 A 
ATOM      4  C5  UNL d   1       3.363  -1.101   0.051  0.00  0.00     0.000 A 
ATOM      5  C6  UNL d   1       2.511  -0.514   0.986  0.00  0.00     0.000 A 
ATOM      6  C7  UNL d   1       1.668  -1.300   1.790  0.00  0.00    -0.073 A 
ATOM      7  C8  UNL d   1       0.766  -0.614   2.778  0.00  0.00     0.078 C 
ENDROOT
BRANCH   1   8
ATOM      8  C1  UNL d   1       0.757  -3.611   2.416  0.00  0.00     0.053 C 
ATOM      9  C   UNL d   1       1.492  -4.812   2.989  0.00  0.00     0.018 C 
ENDBRANCH   1   8
TORSDOF 1
ENDMDL
