MODEL 1
REMARK minimizedAffinity 19.2866898
REMARK minimizedRMSD -1
REMARK  1 active torsions:
REMARK  status: ('A' for Active; 'I' for Inactive)
REMARK    1  A    between atoms: C1_2  and  C2_3 
ROOT
ATOM      1  C2  UNL d   1      -4.030   2.746  -2.309  0.00  0.00    -0.076 A 
ATOM      2  C3  UNL d   1      -3.065   2.460  -3.290  0.00  0.00     0.004 A 
ATOM      3  C4  UNL d   1      -2.147   3.427  -3.696  0.00  0.00    -0.003 A 
ATOM      4  C5  UNL d   1      -2.179   4.695  -3.127  0.00  0.00     0.000 A 
ATOM      5  C6  UNL d   1      -3.118   4.991  -2.140  0.00  0.00     0.000 A 
ATOM      6  C7  UNL d   1      -4.041   4.022  -1.707  0.00  0.00    -0.073 A 
ATOM      7  C8  UNL d   1      -5.036   4.397  -0.644  0.00  0.00     0.078 C 
ENDROOT
BRANCH   1   8
ATOM      8  C1  UNL d   1      -5.017   1.665  -1.928  0.00  0.00     0.053 C 
ATOM      9  C   UNL d   1      -6.000   1.353  -3.046  0.00  0.00     0.018 C 
ENDBRANCH   1   8
TORSDOF 1
ENDMDL
