MODEL 1
REMARK minimizedAffinity 7.12670088
REMARK minimizedRMSD -1
REMARK  1 active torsions:
REMARK  status: ('A' for Active; 'I' for Inactive)
REMARK    1  A    between atoms: C1_2  and  C2_3 
ROOT
ATOM      1  C2  UNL d   1      -3.798  -4.406   2.347  0.00  0.00    -0.076 A 
ATOM      2  C3  UNL d   1      -3.408  -5.665   1.859  0.00  0.00     0.004 A 
ATOM      3  C4  UNL d   1      -3.580  -5.999   0.517  0.00  0.00    -0.003 A 
ATOM      4  C5  UNL d   1      -4.144  -5.079  -0.359  0.00  0.00     0.000 A 
ATOM      5  C6  UNL d   1      -4.520  -3.819   0.103  0.00  0.00     0.000 A 
ATOM      6  C7  UNL d   1      -4.339  -3.460   1.450  0.00  0.00    -0.073 A 
ATOM      7  C8  UNL d   1      -4.768  -2.089   1.896  0.00  0.00     0.078 C 
ENDROOT
BRANCH   1   8
ATOM      8  C1  UNL d   1      -3.612  -4.110   3.818  0.00  0.00     0.053 C 
ATOM      9  C   UNL d   1      -2.279  -3.442   4.114  0.00  0.00     0.018 C 
ENDBRANCH   1   8
TORSDOF 1
ENDMDL
