MODEL 1
REMARK minimizedAffinity 14.0074806
REMARK minimizedRMSD -1
REMARK  1 active torsions:
REMARK  status: ('A' for Active; 'I' for Inactive)
REMARK    1  A    between atoms: C1_2  and  C2_3 
ROOT
ATOM      1  C2  UNL d   1       2.278  -1.212   1.450  0.00  0.00    -0.076 A 
ATOM      2  C3  UNL d   1       1.036  -1.864   1.542  0.00  0.00     0.004 A 
ATOM      3  C4  UNL d   1       0.132  -1.546   2.554  0.00  0.00    -0.003 A 
ATOM      4  C5  UNL d   1       0.455  -0.569   3.490  0.00  0.00     0.000 A 
ATOM      5  C6  UNL d   1       1.675   0.100   3.403  0.00  0.00     0.000 A 
ATOM      6  C7  UNL d   1       2.591  -0.198   2.379  0.00  0.00    -0.073 A 
ATOM      7  C8  UNL d   1       3.895   0.551   2.336  0.00  0.00     0.078 C 
ENDROOT
BRANCH   1   8
ATOM      8  C1  UNL d   1       3.229  -1.619   0.347  0.00  0.00     0.053 C 
ATOM      9  C   UNL d   1       2.666  -2.729  -0.528  0.00  0.00     0.018 C 
ENDBRANCH   1   8
TORSDOF 1
ENDMDL
