MODEL 1
REMARK minimizedAffinity -2.18505955
REMARK minimizedRMSD -1
REMARK  1 active torsions:
REMARK  status: ('A' for Active; 'I' for Inactive)
REMARK    1  A    between atoms: C1_2  and  C2_3 
ROOT
ATOM      1  C2  UNL d   1      -0.767  -0.922   1.501  0.00  0.00    -0.076 A 
ATOM      2  C3  UNL d   1      -1.395  -2.177   1.421  0.00  0.00     0.004 A 
ATOM      3  C4  UNL d   1      -1.036  -3.215   2.279  0.00  0.00    -0.003 A 
ATOM      4  C5  UNL d   1      -0.043  -3.014   3.231  0.00  0.00     0.000 A 
ATOM      5  C6  UNL d   1       0.578  -1.770   3.337  0.00  0.00     0.000 A 
ATOM      6  C7  UNL d   1       0.216  -0.708   2.490  0.00  0.00    -0.073 A 
ATOM      7  C8  UNL d   1       0.924   0.610   2.644  0.00  0.00     0.078 C 
ENDROOT
BRANCH   1   8
ATOM      8  C1  UNL d   1      -1.180   0.158   0.526  0.00  0.00     0.053 C 
ATOM      9  C   UNL d   1      -0.466   0.039  -0.812  0.00  0.00     0.018 C 
ENDBRANCH   1   8
TORSDOF 1
ENDMDL
