MODEL 1
REMARK minimizedAffinity -3.94152427
REMARK minimizedRMSD -1
REMARK  1 active torsions:
REMARK  status: ('A' for Active; 'I' for Inactive)
REMARK    1  A    between atoms: C1_2  and  C2_3 
ROOT
ATOM      1  C2  UNL d   1       0.018  -0.560  -0.192  0.00  0.00    -0.076 A 
ATOM      2  C3  UNL d   1      -1.005  -0.039   0.619  0.00  0.00     0.004 A 
ATOM      3  C4  UNL d   1      -0.989  -0.224   2.001  0.00  0.00    -0.003 A 
ATOM      4  C5  UNL d   1       0.051  -0.932   2.593  0.00  0.00     0.000 A 
ATOM      5  C6  UNL d   1       1.083  -1.441   1.806  0.00  0.00     0.000 A 
ATOM      6  C7  UNL d   1       1.091  -1.250   0.413  0.00  0.00    -0.073 A 
ATOM      7  C8  UNL d   1       2.226  -1.825  -0.388  0.00  0.00     0.078 C 
ENDROOT
BRANCH   1   8
ATOM      8  C1  UNL d   1      -0.067  -0.352  -1.687  0.00  0.00     0.053 C 
ATOM      9  C   UNL d   1      -0.791   0.934  -2.056  0.00  0.00     0.018 C 
ENDBRANCH   1   8
TORSDOF 1
ENDMDL
