MODEL 1
REMARK minimizedAffinity 1.93393564
REMARK minimizedRMSD -1
REMARK  1 active torsions:
REMARK  status: ('A' for Active; 'I' for Inactive)
REMARK    1  A    between atoms: C1_2  and  C2_3 
ROOT
ATOM      1  C2  UNL d   1       0.396   0.394  -0.479  0.00  0.00    -0.076 A 
ATOM      2  C3  UNL d   1       0.832   1.529  -1.185  0.00  0.00     0.004 A 
ATOM      3  C4  UNL d   1      -0.079   2.375  -1.815  0.00  0.00    -0.003 A 
ATOM      4  C5  UNL d   1      -1.440   2.100  -1.750  0.00  0.00     0.000 A 
ATOM      5  C6  UNL d   1      -1.891   0.988  -1.039  0.00  0.00     0.000 A 
ATOM      6  C7  UNL d   1      -0.988   0.134  -0.385  0.00  0.00    -0.073 A 
ATOM      7  C8  UNL d   1      -1.529  -1.054   0.362  0.00  0.00     0.078 C 
ENDROOT
BRANCH   1   8
ATOM      8  C1  UNL d   1       1.432  -0.502   0.161  0.00  0.00     0.053 C 
ATOM      9  C   UNL d   1       2.039  -1.489  -0.825  0.00  0.00     0.018 C 
ENDBRANCH   1   8
TORSDOF 1
ENDMDL
