MODEL 1
REMARK minimizedAffinity -4.58952284
REMARK minimizedRMSD -1
REMARK  1 active torsions:
REMARK  status: ('A' for Active; 'I' for Inactive)
REMARK    1  A    between atoms: C1_2  and  C2_3 
ROOT
ATOM      1  C2  UNL d   1       1.211  -0.583   0.573  0.00  0.00    -0.076 A 
ATOM      2  C3  UNL d   1       0.533  -0.112   1.710  0.00  0.00     0.004 A 
ATOM      3  C4  UNL d   1       0.850  -0.586   2.982  0.00  0.00    -0.003 A 
ATOM      4  C5  UNL d   1       1.851  -1.538   3.137  0.00  0.00     0.000 A 
ATOM      5  C6  UNL d   1       2.546  -2.004   2.022  0.00  0.00     0.000 A 
ATOM      6  C7  UNL d   1       2.250  -1.525   0.734  0.00  0.00    -0.073 A 
ATOM      7  C8  UNL d   1       3.028  -2.066  -0.434  0.00  0.00     0.078 C 
ENDROOT
BRANCH   1   8
ATOM      8  C1  UNL d   1       0.805  -0.053  -0.784  0.00  0.00     0.053 C 
ATOM      9  C   UNL d   1      -0.654   0.372  -0.831  0.00  0.00     0.018 C 
ENDBRANCH   1   8
TORSDOF 1
ENDMDL
