MODEL 1
REMARK minimizedAffinity -5.61595058
REMARK minimizedRMSD -1
REMARK  1 active torsions:
REMARK  status: ('A' for Active; 'I' for Inactive)
REMARK    1  A    between atoms: C1_2  and  C2_3 
ROOT
ATOM      1  C2  UNL d   1       1.084  -0.603   0.517  0.00  0.00    -0.076 A 
ATOM      2  C3  UNL d   1       0.175  -0.178   1.502  0.00  0.00     0.004 A 
ATOM      3  C4  UNL d   1       0.304  -0.595   2.825  0.00  0.00    -0.003 A 
ATOM      4  C5  UNL d   1       1.344  -1.444   3.186  0.00  0.00     0.000 A 
ATOM      5  C6  UNL d   1       2.265  -1.862   2.226  0.00  0.00     0.000 A 
ATOM      6  C7  UNL d   1       2.159  -1.437   0.890  0.00  0.00    -0.073 A 
ATOM      7  C8  UNL d   1       3.177  -1.923  -0.105  0.00  0.00     0.078 C 
ENDROOT
BRANCH   1   8
ATOM      8  C1  UNL d   1       0.878  -0.139  -0.907  0.00  0.00     0.053 C 
ATOM      9  C   UNL d   1      -0.581   0.161  -1.217  0.00  0.00     0.018 C 
ENDBRANCH   1   8
TORSDOF 1
ENDMDL
