MODEL 1
REMARK minimizedAffinity -6.79544401
REMARK minimizedRMSD -1
REMARK  1 active torsions:
REMARK  status: ('A' for Active; 'I' for Inactive)
REMARK    1  A    between atoms: C1_2  and  C2_3 
ROOT
ATOM      1  C2  UNL d   1       0.792  -0.903   0.316  0.00  0.00    -0.076 A 
ATOM      2  C3  UNL d   1      -0.093  -0.379   1.274  0.00  0.00     0.004 A 
ATOM      3  C4  UNL d   1       0.163  -0.514   2.637  0.00  0.00    -0.003 A 
ATOM      4  C5  UNL d   1       1.309  -1.176   3.065  0.00  0.00     0.000 A 
ATOM      5  C6  UNL d   1       2.207  -1.687   2.128  0.00  0.00     0.000 A 
ATOM      6  C7  UNL d   1       1.972  -1.545   0.750  0.00  0.00    -0.073 A 
ATOM      7  C8  UNL d   1       2.971  -2.121  -0.216  0.00  0.00     0.078 C 
ENDROOT
BRANCH   1   8
ATOM      8  C1  UNL d   1       0.448  -0.750  -1.149  0.00  0.00     0.053 C 
ATOM      9  C   UNL d   1      -0.267   0.559  -1.445  0.00  0.00     0.018 C 
ENDBRANCH   1   8
TORSDOF 1
ENDMDL
