MODEL 1
REMARK minimizedAffinity -4.07239056
REMARK minimizedRMSD -1
REMARK  1 active torsions:
REMARK  status: ('A' for Active; 'I' for Inactive)
REMARK    1  A    between atoms: C1_2  and  C2_3 
ROOT
ATOM      1  C2  UNL d   1      -0.838   0.434  -0.480  0.00  0.00    -0.076 A 
ATOM      2  C3  UNL d   1      -1.639   0.884   0.585  0.00  0.00     0.004 A 
ATOM      3  C4  UNL d   1      -1.388   0.475   1.893  0.00  0.00    -0.003 A 
ATOM      4  C5  UNL d   1      -0.332  -0.390   2.159  0.00  0.00     0.000 A 
ATOM      5  C6  UNL d   1       0.483  -0.832   1.118  0.00  0.00     0.000 A 
ATOM      6  C7  UNL d   1       0.254  -0.417  -0.205  0.00  0.00    -0.073 A 
ATOM      7  C8  UNL d   1       1.161  -0.929  -1.290  0.00  0.00     0.078 C 
ENDROOT
BRANCH   1   8
ATOM      8  C1  UNL d   1      -1.175   0.889  -1.882  0.00  0.00     0.053 C 
ATOM      9  C   UNL d   1      -0.738   2.321  -2.150  0.00  0.00     0.018 C 
ENDBRANCH   1   8
TORSDOF 1
ENDMDL
