MODEL 1
REMARK minimizedAffinity -3.32584357
REMARK minimizedRMSD -1
REMARK  1 active torsions:
REMARK  status: ('A' for Active; 'I' for Inactive)
REMARK    1  A    between atoms: C1_2  and  C2_3 
ROOT
ATOM      1  C2  UNL d   1       0.729  -1.044   0.033  0.00  0.00    -0.076 A 
ATOM      2  C3  UNL d   1       0.847  -1.666   1.288  0.00  0.00     0.004 A 
ATOM      3  C4  UNL d   1      -0.041  -1.371   2.321  0.00  0.00    -0.003 A 
ATOM      4  C5  UNL d   1      -1.062  -0.449   2.116  0.00  0.00     0.000 A 
ATOM      5  C6  UNL d   1      -1.205   0.164   0.871  0.00  0.00     0.000 A 
ATOM      6  C7  UNL d   1      -0.328  -0.134  -0.186  0.00  0.00    -0.073 A 
ATOM      7  C8  UNL d   1      -0.524   0.561  -1.505  0.00  0.00     0.078 C 
ENDROOT
BRANCH   1   8
ATOM      8  C1  UNL d   1       1.738  -1.384  -1.041  0.00  0.00     0.053 C 
ATOM      9  C   UNL d   1       2.916  -2.180  -0.502  0.00  0.00     0.018 C 
ENDBRANCH   1   8
TORSDOF 1
ENDMDL
