MODEL 1
REMARK minimizedAffinity -3.2093451
REMARK minimizedRMSD -1
REMARK  1 active torsions:
REMARK  status: ('A' for Active; 'I' for Inactive)
REMARK    1  A    between atoms: C1_2  and  C2_3 
ROOT
ATOM      1  C2  UNL d   1      -1.750   2.108  -0.889  0.00  0.00    -0.076 A 
ATOM      2  C3  UNL d   1      -1.979   1.166   0.129  0.00  0.00     0.004 A 
ATOM      3  C4  UNL d   1      -1.142   0.063   0.288  0.00  0.00    -0.003 A 
ATOM      4  C5  UNL d   1      -0.061  -0.116  -0.569  0.00  0.00     0.000 A 
ATOM      5  C6  UNL d   1       0.192   0.819  -1.572  0.00  0.00     0.000 A 
ATOM      6  C7  UNL d   1      -0.633   1.945  -1.736  0.00  0.00    -0.073 A 
ATOM      7  C8  UNL d   1      -0.317   2.917  -2.839  0.00  0.00     0.078 C 
ENDROOT
BRANCH   1   8
ATOM      8  C1  UNL d   1      -2.707   3.270  -1.030  0.00  0.00     0.053 C 
ATOM      9  C   UNL d   1      -4.008   2.873  -1.709  0.00  0.00     0.018 C 
ENDBRANCH   1   8
TORSDOF 1
ENDMDL
