MODEL 1
REMARK minimizedAffinity -2.66350579
REMARK minimizedRMSD -1
REMARK  0 active torsions:
REMARK  status: ('A' for Active; 'I' for Inactive)
ROOT
ATOM      1  C   UNL d   1       4.394   3.943  -2.094  0.00  0.00     0.077 C 
ATOM      2  C1  UNL d   1       3.233   3.143  -2.606  0.00  0.00    -0.074 A 
ATOM      3  C2  UNL d   1       2.731   3.348  -3.895  0.00  0.00    -0.005 A 
ATOM      4  C3  UNL d   1       1.657   2.589  -4.360  0.00  0.00     0.006 A 
ATOM      5  C4  UNL d   1       1.075   1.620  -3.543  0.00  0.00    -0.005 A 
ATOM      6  C5  UNL d   1       1.564   1.400  -2.251  0.00  0.00    -0.074 A 
ATOM      7  C6  UNL d   1       0.957   0.355  -1.363  0.00  0.00     0.077 C 
ATOM      8  C7  UNL d   1       2.648   2.161  -1.793  0.00  0.00    -0.001 A 
ENDROOT
TORSDOF 0
ENDMDL
