MODEL 1
REMARK minimizedAffinity 8.68844414
REMARK minimizedRMSD -1
REMARK  0 active torsions:
REMARK  status: ('A' for Active; 'I' for Inactive)
ROOT
ATOM      1  C   UNL d   1       2.709  -3.303   1.462  0.00  0.00     0.077 C 
ATOM      2  C1  UNL d   1       1.325  -3.618   0.977  0.00  0.00    -0.074 A 
ATOM      3  C2  UNL d   1       0.839  -4.929   0.995  0.00  0.00    -0.005 A 
ATOM      4  C3  UNL d   1      -0.454  -5.206   0.550  0.00  0.00     0.006 A 
ATOM      5  C4  UNL d   1      -1.271  -4.176   0.083  0.00  0.00    -0.005 A 
ATOM      6  C5  UNL d   1      -0.802  -2.859   0.058  0.00  0.00    -0.074 A 
ATOM      7  C6  UNL d   1      -1.672  -1.739  -0.432  0.00  0.00     0.077 C 
ATOM      8  C7  UNL d   1       0.495  -2.588   0.514  0.00  0.00    -0.001 A 
ENDROOT
TORSDOF 0
ENDMDL
