MODEL 1
REMARK minimizedAffinity 2.40438986
REMARK minimizedRMSD -1
REMARK  0 active torsions:
REMARK  status: ('A' for Active; 'I' for Inactive)
ROOT
ATOM      1  C   UNL d   1       5.994   0.295  -5.992  0.00  0.00     0.077 C 
ATOM      2  C1  UNL d   1       5.988   0.274  -4.492  0.00  0.00    -0.074 A 
ATOM      3  C2  UNL d   1       5.996  -0.935  -3.790  0.00  0.00    -0.005 A 
ATOM      4  C3  UNL d   1       6.000  -0.938  -2.395  0.00  0.00     0.006 A 
ATOM      5  C4  UNL d   1       5.996   0.266  -1.689  0.00  0.00    -0.005 A 
ATOM      6  C5  UNL d   1       5.990   1.485  -2.375  0.00  0.00    -0.074 A 
ATOM      7  C6  UNL d   1       5.996   2.788  -1.632  0.00  0.00     0.077 C 
ATOM      8  C7  UNL d   1       5.993   1.480  -3.776  0.00  0.00    -0.001 A 
ENDROOT
TORSDOF 0
ENDMDL
