MODEL 1
REMARK minimizedAffinity 6.02894258
REMARK minimizedRMSD -1
REMARK  0 active torsions:
REMARK  status: ('A' for Active; 'I' for Inactive)
ROOT
ATOM      1  C   UNL d   1      -1.987  -1.864  -0.846  0.00  0.00     0.077 C 
ATOM      2  C1  UNL d   1      -0.716  -1.200  -0.406  0.00  0.00    -0.074 A 
ATOM      3  C2  UNL d   1       0.195  -1.866   0.419  0.00  0.00    -0.005 A 
ATOM      4  C3  UNL d   1       1.377  -1.239   0.813  0.00  0.00     0.006 A 
ATOM      5  C4  UNL d   1       1.659   0.059   0.386  0.00  0.00    -0.005 A 
ATOM      6  C5  UNL d   1       0.761   0.741  -0.440  0.00  0.00    -0.074 A 
ATOM      7  C6  UNL d   1       1.054   2.133  -0.916  0.00  0.00     0.077 C 
ATOM      8  C7  UNL d   1      -0.422   0.101  -0.837  0.00  0.00    -0.001 A 
ENDROOT
TORSDOF 0
ENDMDL
