MODEL 1
REMARK minimizedAffinity 6.52008343
REMARK minimizedRMSD -1
REMARK  0 active torsions:
REMARK  status: ('A' for Active; 'I' for Inactive)
ROOT
ATOM      1  C   UNL d   1       1.586  -5.999   1.640  0.00  0.00     0.077 C 
ATOM      2  C1  UNL d   1       1.273  -4.614   1.159  0.00  0.00    -0.074 A 
ATOM      3  C2  UNL d   1       2.289  -3.672   0.968  0.00  0.00    -0.005 A 
ATOM      4  C3  UNL d   1       1.983  -2.390   0.511  0.00  0.00     0.006 A 
ATOM      5  C4  UNL d   1       0.660  -2.038   0.241  0.00  0.00    -0.005 A 
ATOM      6  C5  UNL d   1      -0.369  -2.966   0.425  0.00  0.00    -0.074 A 
ATOM      7  C6  UNL d   1      -1.795  -2.606   0.130  0.00  0.00     0.077 C 
ATOM      8  C7  UNL d   1      -0.053  -4.254   0.878  0.00  0.00    -0.001 A 
ENDROOT
TORSDOF 0
ENDMDL
