MODEL 1
REMARK minimizedAffinity 9.48413563
REMARK minimizedRMSD -1
REMARK  0 active torsions:
REMARK  status: ('A' for Active; 'I' for Inactive)
ROOT
ATOM      1  C   UNL d   1       4.612   1.723  -6.000  0.00  0.00     0.077 C 
ATOM      2  C1  UNL d   1       3.853   2.620  -5.067  0.00  0.00    -0.074 A 
ATOM      3  C2  UNL d   1       3.208   3.767  -5.539  0.00  0.00    -0.005 A 
ATOM      4  C3  UNL d   1       2.498   4.586  -4.661  0.00  0.00     0.006 A 
ATOM      5  C4  UNL d   1       2.427   4.266  -3.304  0.00  0.00    -0.005 A 
ATOM      6  C5  UNL d   1       3.065   3.123  -2.814  0.00  0.00    -0.074 A 
ATOM      7  C6  UNL d   1       2.991   2.760  -1.361  0.00  0.00     0.077 C 
ATOM      8  C7  UNL d   1       3.771   2.301  -3.704  0.00  0.00    -0.001 A 
ENDROOT
TORSDOF 0
ENDMDL
