MODEL 1
REMARK minimizedAffinity -1.05387247
REMARK minimizedRMSD -1
REMARK  0 active torsions:
REMARK  status: ('A' for Active; 'I' for Inactive)
ROOT
ATOM      1  C   UNL d   1       6.000  -2.734  -5.151  0.00  0.00     0.077 C 
ATOM      2  C1  UNL d   1       5.985  -1.251  -4.923  0.00  0.00    -0.074 A 
ATOM      3  C2  UNL d   1       5.945  -0.359  -5.999  0.00  0.00    -0.005 A 
ATOM      4  C3  UNL d   1       5.922   1.017  -5.771  0.00  0.00     0.006 A 
ATOM      5  C4  UNL d   1       5.939   1.513  -4.467  0.00  0.00    -0.005 A 
ATOM      6  C5  UNL d   1       5.978   0.636  -3.379  0.00  0.00    -0.074 A 
ATOM      7  C6  UNL d   1       5.987   1.153  -1.971  0.00  0.00     0.077 C 
ATOM      8  C7  UNL d   1       5.994  -0.745  -3.616  0.00  0.00    -0.001 A 
ENDROOT
TORSDOF 0
ENDMDL
