MODEL 1
REMARK minimizedAffinity 7.76917171
REMARK minimizedRMSD -1
REMARK  0 active torsions:
REMARK  status: ('A' for Active; 'I' for Inactive)
ROOT
ATOM      1  C   UNL d   1       1.642   2.460  -4.467  0.00  0.00     0.077 C 
ATOM      2  C1  UNL d   1       1.425   1.737  -3.171  0.00  0.00    -0.074 A 
ATOM      3  C2  UNL d   1       1.145   0.367  -3.150  0.00  0.00    -0.005 A 
ATOM      4  C3  UNL d   1       0.956  -0.295  -1.937  0.00  0.00     0.006 A 
ATOM      5  C4  UNL d   1       1.045   0.406  -0.734  0.00  0.00    -0.005 A 
ATOM      6  C5  UNL d   1       1.325   1.776  -0.734  0.00  0.00    -0.074 A 
ATOM      7  C6  UNL d   1       1.434   2.543   0.550  0.00  0.00     0.077 C 
ATOM      8  C7  UNL d   1       1.521   2.432  -1.958  0.00  0.00    -0.001 A 
ENDROOT
TORSDOF 0
ENDMDL
