MODEL 1
REMARK minimizedAffinity 6.90783024
REMARK minimizedRMSD -1
REMARK  0 active torsions:
REMARK  status: ('A' for Active; 'I' for Inactive)
ROOT
ATOM      1  C   UNL d   1       1.332   0.812  -3.663  0.00  0.00     0.077 C 
ATOM      2  C1  UNL d   1       2.295   1.618  -4.483  0.00  0.00    -0.074 A 
ATOM      3  C2  UNL d   1       1.982   2.921  -4.885  0.00  0.00    -0.005 A 
ATOM      4  C3  UNL d   1       2.892   3.662  -5.640  0.00  0.00     0.006 A 
ATOM      5  C4  UNL d   1       4.121   3.109  -5.999  0.00  0.00    -0.005 A 
ATOM      6  C5  UNL d   1       4.453   1.808  -5.605  0.00  0.00    -0.074 A 
ATOM      7  C6  UNL d   1       5.774   1.203  -5.974  0.00  0.00     0.077 C 
ATOM      8  C7  UNL d   1       3.536   1.073  -4.841  0.00  0.00    -0.001 A 
ENDROOT
TORSDOF 0
ENDMDL
