MODEL 1
REMARK minimizedAffinity 11.0915365
REMARK minimizedRMSD -1
REMARK  0 active torsions:
REMARK  status: ('A' for Active; 'I' for Inactive)
ROOT
ATOM      1  C   UNL d   1      -1.686  -1.859   1.771  0.00  0.00     0.077 C 
ATOM      2  C1  UNL d   1      -2.536  -1.755   3.003  0.00  0.00    -0.074 A 
ATOM      3  C2  UNL d   1      -2.075  -1.082   4.139  0.00  0.00    -0.005 A 
ATOM      4  C3  UNL d   1      -2.880  -0.985   5.274  0.00  0.00     0.006 A 
ATOM      5  C4  UNL d   1      -4.152  -1.559   5.284  0.00  0.00    -0.005 A 
ATOM      6  C5  UNL d   1      -4.630  -2.234   4.157  0.00  0.00    -0.074 A 
ATOM      7  C6  UNL d   1      -5.999  -2.848   4.147  0.00  0.00     0.077 C 
ATOM      8  C7  UNL d   1      -3.818  -2.322   3.018  0.00  0.00    -0.001 A 
ENDROOT
TORSDOF 0
ENDMDL
