MODEL 1
REMARK minimizedAffinity 3.73205113
REMARK minimizedRMSD -1
REMARK  0 active torsions:
REMARK  status: ('A' for Active; 'I' for Inactive)
ROOT
ATOM      1  C   UNL d   1       0.502  -1.877   0.880  0.00  0.00     0.077 C 
ATOM      2  C1  UNL d   1       0.660  -1.188  -0.444  0.00  0.00    -0.074 A 
ATOM      3  C2  UNL d   1       1.161  -1.874  -1.555  0.00  0.00    -0.005 A 
ATOM      4  C3  UNL d   1       1.294  -1.223  -2.782  0.00  0.00     0.006 A 
ATOM      5  C4  UNL d   1       0.927   0.117  -2.909  0.00  0.00    -0.005 A 
ATOM      6  C5  UNL d   1       0.423   0.818  -1.809  0.00  0.00    -0.074 A 
ATOM      7  C6  UNL d   1       0.015   2.257  -1.932  0.00  0.00     0.077 C 
ATOM      8  C7  UNL d   1       0.286   0.156  -0.582  0.00  0.00    -0.001 A 
ENDROOT
TORSDOF 0
ENDMDL
