MODEL 1
REMARK minimizedAffinity 3.18342185
REMARK minimizedRMSD -1
REMARK  0 active torsions:
REMARK  status: ('A' for Active; 'I' for Inactive)
ROOT
ATOM      1  C   UNL d   1       1.761  -0.765  -2.476  0.00  0.00     0.077 C 
ATOM      2  C1  UNL d   1       2.467  -0.248  -3.694  0.00  0.00    -0.074 A 
ATOM      3  C2  UNL d   1       1.767   0.005  -4.878  0.00  0.00    -0.005 A 
ATOM      4  C3  UNL d   1       2.435   0.495  -6.000  0.00  0.00     0.006 A 
ATOM      5  C4  UNL d   1       3.808   0.737  -5.949  0.00  0.00    -0.005 A 
ATOM      6  C5  UNL d   1       4.525   0.492  -4.774  0.00  0.00    -0.074 A 
ATOM      7  C6  UNL d   1       6.000   0.756  -4.700  0.00  0.00     0.077 C 
ATOM      8  C7  UNL d   1       3.845   0.006  -3.649  0.00  0.00    -0.001 A 
ENDROOT
TORSDOF 0
ENDMDL
