MODEL 1
REMARK minimizedAffinity 1.67891002
REMARK minimizedRMSD -1
REMARK  0 active torsions:
REMARK  status: ('A' for Active; 'I' for Inactive)
ROOT
ATOM      1  C   UNL d   1       0.794   2.289  -0.634  0.00  0.00     0.077 C 
ATOM      2  C1  UNL d   1       0.990   0.908  -1.186  0.00  0.00    -0.074 A 
ATOM      3  C2  UNL d   1       0.877  -0.218  -0.364  0.00  0.00    -0.005 A 
ATOM      4  C3  UNL d   1       1.053  -1.496  -0.894  0.00  0.00     0.006 A 
ATOM      5  C4  UNL d   1       1.343  -1.661  -2.249  0.00  0.00    -0.005 A 
ATOM      6  C5  UNL d   1       1.460  -0.547  -3.086  0.00  0.00    -0.074 A 
ATOM      7  C6  UNL d   1       1.762  -0.707  -4.547  0.00  0.00     0.077 C 
ATOM      8  C7  UNL d   1       1.275   0.734  -2.548  0.00  0.00    -0.001 A 
ENDROOT
TORSDOF 0
ENDMDL
