MODEL 1
REMARK minimizedAffinity 1.76092005
REMARK minimizedRMSD -1
REMARK  0 active torsions:
REMARK  status: ('A' for Active; 'I' for Inactive)
ROOT
ATOM      1  C   UNL d   1       1.140   2.720  -3.053  0.00  0.00     0.077 C 
ATOM      2  C1  UNL d   1       1.033   1.341  -2.472  0.00  0.00    -0.074 A 
ATOM      3  C2  UNL d   1       0.744   1.153  -1.116  0.00  0.00    -0.005 A 
ATOM      4  C3  UNL d   1       0.638  -0.136  -0.593  0.00  0.00     0.006 A 
ATOM      5  C4  UNL d   1       0.820  -1.247  -1.417  0.00  0.00    -0.005 A 
ATOM      6  C5  UNL d   1       1.110  -1.078  -2.775  0.00  0.00    -0.074 A 
ATOM      7  C6  UNL d   1       1.299  -2.261  -3.677  0.00  0.00     0.077 C 
ATOM      8  C7  UNL d   1       1.207   0.220  -3.295  0.00  0.00    -0.001 A 
ENDROOT
TORSDOF 0
ENDMDL
