MODEL 1
REMARK minimizedAffinity 3.89171648
REMARK minimizedRMSD -1
REMARK  0 active torsions:
REMARK  status: ('A' for Active; 'I' for Inactive)
ROOT
ATOM      1  C   UNL d   1       0.913   2.686  -3.010  0.00  0.00     0.077 C 
ATOM      2  C1  UNL d   1       0.928   1.336  -2.356  0.00  0.00    -0.074 A 
ATOM      3  C2  UNL d   1       0.568   1.184  -1.013  0.00  0.00    -0.005 A 
ATOM      4  C3  UNL d   1       0.577  -0.079  -0.421  0.00  0.00     0.006 A 
ATOM      5  C4  UNL d   1       0.945  -1.201  -1.164  0.00  0.00    -0.005 A 
ATOM      6  C5  UNL d   1       1.307  -1.069  -2.509  0.00  0.00    -0.074 A 
ATOM      7  C6  UNL d   1       1.695  -2.265  -3.325  0.00  0.00     0.077 C 
ATOM      8  C7  UNL d   1       1.288   0.203  -3.099  0.00  0.00    -0.001 A 
ENDROOT
TORSDOF 0
ENDMDL
