MODEL 1
REMARK minimizedAffinity -3.57734227
REMARK minimizedRMSD -1
REMARK  0 active torsions:
REMARK  status: ('A' for Active; 'I' for Inactive)
ROOT
ATOM      1  C   UNL d   1       1.076   2.509  -3.039  0.00  0.00     0.077 C 
ATOM      2  C1  UNL d   1       1.112   1.215  -2.282  0.00  0.00    -0.074 A 
ATOM      3  C2  UNL d   1       0.974   1.192  -0.891  0.00  0.00    -0.005 A 
ATOM      4  C3  UNL d   1       1.000  -0.021  -0.201  0.00  0.00     0.006 A 
ATOM      5  C4  UNL d   1       1.165  -1.220  -0.895  0.00  0.00    -0.005 A 
ATOM      6  C5  UNL d   1       1.305  -1.217  -2.287  0.00  0.00    -0.074 A 
ATOM      7  C6  UNL d   1       1.473  -2.497  -3.049  0.00  0.00     0.077 C 
ATOM      8  C7  UNL d   1       1.270   0.005  -2.973  0.00  0.00    -0.001 A 
ENDROOT
TORSDOF 0
ENDMDL
