MODEL 1
REMARK minimizedAffinity -2.36279106
REMARK minimizedRMSD -1
REMARK  0 active torsions:
REMARK  status: ('A' for Active; 'I' for Inactive)
ROOT
ATOM      1  C   UNL d   1       1.044   1.046  -0.902  0.00  0.00     0.077 C 
ATOM      2  C1  UNL d   1       1.223   0.298  -2.190  0.00  0.00    -0.074 A 
ATOM      3  C2  UNL d   1       1.313   0.978  -3.409  0.00  0.00    -0.005 A 
ATOM      4  C3  UNL d   1       1.489   0.270  -4.598  0.00  0.00     0.006 A 
ATOM      5  C4  UNL d   1       1.577  -1.123  -4.579  0.00  0.00    -0.005 A 
ATOM      6  C5  UNL d   1       1.489  -1.819  -3.370  0.00  0.00    -0.074 A 
ATOM      7  C6  UNL d   1       1.591  -3.315  -3.331  0.00  0.00     0.077 C 
ATOM      8  C7  UNL d   1       1.320  -1.100  -2.179  0.00  0.00    -0.001 A 
ENDROOT
TORSDOF 0
ENDMDL
