MODEL 1
REMARK minimizedAffinity 19.9588432
REMARK minimizedRMSD -1
REMARK  1 active torsions:
REMARK  status: ('A' for Active; 'I' for Inactive)
REMARK    1  A    between atoms: C1_2  and  C2_3 
ROOT
ATOM      1  C2  UNL d   1      -4.762  -3.511  -4.142  0.00  0.00    -0.076 A 
ATOM      2  C3  UNL d   1      -5.684  -4.419  -3.592  0.00  0.00     0.004 A 
ATOM      3  C4  UNL d   1      -5.986  -5.615  -4.240  0.00  0.00    -0.003 A 
ATOM      4  C5  UNL d   1      -5.372  -5.924  -5.448  0.00  0.00     0.000 A 
ATOM      5  C6  UNL d   1      -4.442  -5.043  -6.000  0.00  0.00     0.000 A 
ATOM      6  C7  UNL d   1      -4.113  -3.840  -5.351  0.00  0.00    -0.073 A 
ATOM      7  C8  UNL d   1      -3.108  -2.925  -5.995  0.00  0.00     0.078 C 
ENDROOT
BRANCH   1   8
ATOM      8  C1  UNL d   1      -4.494  -2.217  -3.408  0.00  0.00     0.053 C 
ATOM      9  C   UNL d   1      -5.374  -2.051  -2.179  0.00  0.00     0.018 C 
ENDBRANCH   1   8
TORSDOF 1
ENDMDL
