MODEL 1
REMARK minimizedAffinity -0.622165263
REMARK minimizedRMSD -1
REMARK  1 active torsions:
REMARK  status: ('A' for Active; 'I' for Inactive)
REMARK    1  A    between atoms: C1_2  and  C2_3 
ROOT
ATOM      1  C2  UNL d   1       3.997  -0.095  -5.022  0.00  0.00    -0.076 A 
ATOM      2  C3  UNL d   1       3.403   1.179  -5.034  0.00  0.00     0.004 A 
ATOM      3  C4  UNL d   1       4.096   2.290  -5.513  0.00  0.00    -0.003 A 
ATOM      4  C5  UNL d   1       5.394   2.145  -5.988  0.00  0.00     0.000 A 
ATOM      5  C6  UNL d   1       5.993   0.886  -6.000  0.00  0.00     0.000 A 
ATOM      6  C7  UNL d   1       5.303  -0.247  -5.536  0.00  0.00    -0.073 A 
ATOM      7  C8  UNL d   1       6.000  -1.580  -5.566  0.00  0.00     0.078 C 
ENDROOT
BRANCH   1   8
ATOM      8  C1  UNL d   1       3.207  -1.258  -4.466  0.00  0.00     0.053 C 
ATOM      9  C   UNL d   1       3.472  -1.487  -2.986  0.00  0.00     0.018 C 
ENDBRANCH   1   8
TORSDOF 1
ENDMDL
