MODEL 1
REMARK minimizedAffinity 7.843328
REMARK minimizedRMSD -1
REMARK  1 active torsions:
REMARK  status: ('A' for Active; 'I' for Inactive)
REMARK    1  A    between atoms: C1_2  and  C2_3 
ROOT
ATOM      1  C2  UNL d   1       0.795  -1.718   3.316  0.00  0.00    -0.076 A 
ATOM      2  C3  UNL d   1       0.419  -0.363   3.334  0.00  0.00     0.004 A 
ATOM      3  C4  UNL d   1       0.827   0.509   2.327  0.00  0.00    -0.003 A 
ATOM      4  C5  UNL d   1       1.618   0.040   1.283  0.00  0.00     0.000 A 
ATOM      5  C6  UNL d   1       1.986  -1.304   1.240  0.00  0.00     0.000 A 
ATOM      6  C7  UNL d   1       1.569  -2.200   2.239  0.00  0.00    -0.073 A 
ATOM      7  C8  UNL d   1       2.000  -3.638   2.145  0.00  0.00     0.078 C 
ENDROOT
BRANCH   1   8
ATOM      8  C1  UNL d   1       0.345  -2.610   4.450  0.00  0.00     0.053 C 
ATOM      9  C   UNL d   1       0.706  -2.045   5.815  0.00  0.00     0.018 C 
ENDBRANCH   1   8
TORSDOF 1
ENDMDL
