MODEL 1
REMARK minimizedAffinity 16.5043144
REMARK minimizedRMSD -1
REMARK  1 active torsions:
REMARK  status: ('A' for Active; 'I' for Inactive)
REMARK    1  A    between atoms: C1_2  and  C2_3 
ROOT
ATOM      1  C2  UNL d   1      -3.463   1.040  -1.660  0.00  0.00    -0.076 A 
ATOM      2  C3  UNL d   1      -2.479   0.079  -1.949  0.00  0.00     0.004 A 
ATOM      3  C4  UNL d   1      -2.667  -0.859  -2.962  0.00  0.00    -0.003 A 
ATOM      4  C5  UNL d   1      -3.843  -0.851  -3.704  0.00  0.00     0.000 A 
ATOM      5  C6  UNL d   1      -4.823   0.106  -3.442  0.00  0.00     0.000 A 
ATOM      6  C7  UNL d   1      -4.642   1.069  -2.435  0.00  0.00    -0.073 A 
ATOM      7  C8  UNL d   1      -5.734   2.075  -2.192  0.00  0.00     0.078 C 
ENDROOT
BRANCH   1   8
ATOM      8  C1  UNL d   1      -3.214   2.015  -0.531  0.00  0.00     0.053 C 
ATOM      9  C   UNL d   1      -2.121   1.544   0.415  0.00  0.00     0.018 C 
ENDBRANCH   1   8
TORSDOF 1
ENDMDL
