MODEL 1
REMARK minimizedAffinity 8.81587315
REMARK minimizedRMSD -1
REMARK  1 active torsions:
REMARK  status: ('A' for Active; 'I' for Inactive)
REMARK    1  A    between atoms: C1_2  and  C2_3 
ROOT
ATOM      1  C2  UNL d   1       1.291  -1.206   3.515  0.00  0.00    -0.076 A 
ATOM      2  C3  UNL d   1       1.649  -2.539   3.249  0.00  0.00     0.004 A 
ATOM      3  C4  UNL d   1       2.036  -2.937   1.970  0.00  0.00    -0.003 A 
ATOM      4  C5  UNL d   1       2.073  -2.008   0.937  0.00  0.00     0.000 A 
ATOM      5  C6  UNL d   1       1.739  -0.677   1.187  0.00  0.00     0.000 A 
ATOM      6  C7  UNL d   1       1.362  -0.256   2.473  0.00  0.00    -0.073 A 
ATOM      7  C8  UNL d   1       1.006   1.190   2.685  0.00  0.00     0.078 C 
ENDROOT
BRANCH   1   8
ATOM      8  C1  UNL d   1       0.854  -0.839   4.915  0.00  0.00     0.053 C 
ATOM      9  C   UNL d   1       1.263  -1.880   5.945  0.00  0.00     0.018 C 
ENDBRANCH   1   8
TORSDOF 1
ENDMDL
