MODEL 1
REMARK minimizedAffinity 2.35151386
REMARK minimizedRMSD -1
REMARK  1 active torsions:
REMARK  status: ('A' for Active; 'I' for Inactive)
REMARK    1  A    between atoms: C1_2  and  C2_3 
ROOT
ATOM      1  C2  UNL d   1       3.324  -2.046   2.091  0.00  0.00    -0.076 A 
ATOM      2  C3  UNL d   1       4.677  -1.687   2.210  0.00  0.00     0.004 A 
ATOM      3  C4  UNL d   1       5.603  -2.044   1.231  0.00  0.00    -0.003 A 
ATOM      4  C5  UNL d   1       5.190  -2.766   0.117  0.00  0.00     0.000 A 
ATOM      5  C6  UNL d   1       3.848  -3.116  -0.026  0.00  0.00     0.000 A 
ATOM      6  C7  UNL d   1       2.899  -2.749   0.943  0.00  0.00    -0.073 A 
ATOM      7  C8  UNL d   1       1.465  -3.158   0.740  0.00  0.00     0.078 C 
ENDROOT
BRANCH   1   8
ATOM      8  C1  UNL d   1       2.370  -1.654   3.197  0.00  0.00     0.053 C 
ATOM      9  C   UNL d   1       1.502  -0.462   2.823  0.00  0.00     0.018 C 
ENDBRANCH   1   8
TORSDOF 1
ENDMDL
