MODEL 1
REMARK minimizedAffinity -2.49589467
REMARK minimizedRMSD -1
REMARK  0 active torsions:
REMARK  status: ('A' for Active; 'I' for Inactive)
ROOT
ATOM      1  C   UNL d   1       0.554   1.685  -0.035  0.00  0.00     0.078 C 
ATOM      2  C1  UNL d   1       0.053   0.287   0.179  0.00  0.00    -0.077 A 
ATOM      3  C2  UNL d   1      -0.257  -0.542  -0.906  0.00  0.00    -0.001 A 
ATOM      4  C3  UNL d   1      -0.731  -1.837  -0.691  0.00  0.00     0.003 A 
ATOM      5  C4  UNL d   1      -0.901  -2.314   0.607  0.00  0.00    -0.005 A 
ATOM      6  C5  UNL d   1      -0.597  -1.495   1.693  0.00  0.00     0.003 A 
ATOM      7  C6  UNL d   1      -0.123  -0.200   1.480  0.00  0.00    -0.001 A 
ENDROOT
TORSDOF 0
ENDMDL
