MODEL 1
REMARK minimizedAffinity -1.68819249
REMARK minimizedRMSD -1
REMARK  0 active torsions:
REMARK  status: ('A' for Active; 'I' for Inactive)
ROOT
ATOM      1  C   UNL d   1      -0.395  -0.386   1.536  0.00  0.00     0.078 C 
ATOM      2  C1  UNL d   1      -0.049   0.804   0.691  0.00  0.00    -0.077 A 
ATOM      3  C2  UNL d   1       0.505   1.957   1.261  0.00  0.00    -0.001 A 
ATOM      4  C3  UNL d   1       0.813   3.061   0.464  0.00  0.00     0.003 A 
ATOM      5  C4  UNL d   1       0.568   3.023  -0.907  0.00  0.00    -0.005 A 
ATOM      6  C5  UNL d   1       0.015   1.882  -1.483  0.00  0.00     0.003 A 
ATOM      7  C6  UNL d   1      -0.293   0.777  -0.688  0.00  0.00    -0.001 A 
ENDROOT
TORSDOF 0
ENDMDL
