MODEL 1
REMARK minimizedAffinity -3.58700252
REMARK minimizedRMSD -1
REMARK  0 active torsions:
REMARK  status: ('A' for Active; 'I' for Inactive)
ROOT
ATOM      1  C   UNL d   1      -0.030  -1.891  -2.445  0.00  0.00     0.078 C 
ATOM      2  C1  UNL d   1      -0.291  -1.393  -1.055  0.00  0.00    -0.077 A 
ATOM      3  C2  UNL d   1       0.034  -0.081  -0.686  0.00  0.00    -0.001 A 
ATOM      4  C3  UNL d   1      -0.206   0.367   0.614  0.00  0.00     0.003 A 
ATOM      5  C4  UNL d   1      -0.770  -0.491   1.556  0.00  0.00    -0.005 A 
ATOM      6  C5  UNL d   1      -1.095  -1.798   1.199  0.00  0.00     0.003 A 
ATOM      7  C6  UNL d   1      -0.856  -2.247  -0.100  0.00  0.00    -0.001 A 
ENDROOT
TORSDOF 0
ENDMDL
