MODEL 1
REMARK minimizedAffinity -1.61040199
REMARK minimizedRMSD -1
REMARK  0 active torsions:
REMARK  status: ('A' for Active; 'I' for Inactive)
ROOT
ATOM      1  C   UNL d   1       2.065   3.676   0.526  0.00  0.00     0.078 C 
ATOM      2  C1  UNL d   1       1.240   2.438   0.335  0.00  0.00    -0.077 A 
ATOM      3  C2  UNL d   1       0.196   2.404  -0.597  0.00  0.00    -0.001 A 
ATOM      4  C3  UNL d   1      -0.570   1.248  -0.757  0.00  0.00     0.003 A 
ATOM      5  C4  UNL d   1      -0.302   0.118   0.013  0.00  0.00    -0.005 A 
ATOM      6  C5  UNL d   1       0.734   0.144   0.945  0.00  0.00     0.003 A 
ATOM      7  C6  UNL d   1       1.501   1.298   1.106  0.00  0.00    -0.001 A 
ENDROOT
TORSDOF 0
ENDMDL
