MODEL 1
REMARK minimizedAffinity -4.08885956
REMARK minimizedRMSD -1
REMARK  0 active torsions:
REMARK  status: ('A' for Active; 'I' for Inactive)
ROOT
ATOM      1  C   UNL d   1       1.812   3.396   0.701  0.00  0.00     0.078 C 
ATOM      2  C1  UNL d   1       1.206   2.031   0.570  0.00  0.00    -0.077 A 
ATOM      3  C2  UNL d   1       0.006   1.838  -0.124  0.00  0.00    -0.001 A 
ATOM      4  C3  UNL d   1      -0.551   0.563  -0.230  0.00  0.00     0.003 A 
ATOM      5  C4  UNL d   1       0.084  -0.529   0.358  0.00  0.00    -0.005 A 
ATOM      6  C5  UNL d   1       1.277  -0.347   1.053  0.00  0.00     0.003 A 
ATOM      7  C6  UNL d   1       1.836   0.928   1.160  0.00  0.00    -0.001 A 
ENDROOT
TORSDOF 0
ENDMDL
