MODEL 1
REMARK minimizedAffinity -4.57724857
REMARK minimizedRMSD -1
REMARK  0 active torsions:
REMARK  status: ('A' for Active; 'I' for Inactive)
ROOT
ATOM      1  C   UNL d   1       2.396   3.722   0.725  0.00  0.00     0.078 C 
ATOM      2  C1  UNL d   1       1.412   2.643   0.385  0.00  0.00    -0.077 A 
ATOM      3  C2  UNL d   1       0.214   2.942  -0.276  0.00  0.00    -0.001 A 
ATOM      4  C3  UNL d   1      -0.697   1.929  -0.578  0.00  0.00     0.003 A 
ATOM      5  C4  UNL d   1      -0.421   0.611  -0.222  0.00  0.00    -0.005 A 
ATOM      6  C5  UNL d   1       0.767   0.304   0.438  0.00  0.00     0.003 A 
ATOM      7  C6  UNL d   1       1.680   1.316   0.741  0.00  0.00    -0.001 A 
ENDROOT
TORSDOF 0
ENDMDL
