MODEL 1
REMARK minimizedAffinity -4.15084887
REMARK minimizedRMSD -1
REMARK  0 active torsions:
REMARK  status: ('A' for Active; 'I' for Inactive)
ROOT
ATOM      1  C   UNL d   1      -0.565  -0.987   0.357  0.00  0.00     0.078 C 
ATOM      2  C1  UNL d   1      -0.002   0.391   0.538  0.00  0.00    -0.077 A 
ATOM      3  C2  UNL d   1      -0.413   1.451  -0.279  0.00  0.00    -0.001 A 
ATOM      4  C3  UNL d   1       0.126   2.726  -0.106  0.00  0.00     0.003 A 
ATOM      5  C4  UNL d   1       1.081   2.954   0.883  0.00  0.00    -0.005 A 
ATOM      6  C5  UNL d   1       1.498   1.905   1.700  0.00  0.00     0.003 A 
ATOM      7  C6  UNL d   1       0.960   0.629   1.528  0.00  0.00    -0.001 A 
ENDROOT
TORSDOF 0
ENDMDL
