MODEL 1
REMARK minimizedAffinity -4.27728558
REMARK minimizedRMSD -1
REMARK  0 active torsions:
REMARK  status: ('A' for Active; 'I' for Inactive)
ROOT
ATOM      1  C   UNL d   1       1.089   2.112   0.489  0.00  0.00     0.078 C 
ATOM      2  C1  UNL d   1       0.483   0.755   0.692  0.00  0.00    -0.077 A 
ATOM      3  C2  UNL d   1       0.582   0.098   1.925  0.00  0.00    -0.001 A 
ATOM      4  C3  UNL d   1       0.022  -1.169   2.097  0.00  0.00     0.003 A 
ATOM      5  C4  UNL d   1      -0.640  -1.790   1.041  0.00  0.00    -0.005 A 
ATOM      6  C5  UNL d   1      -0.742  -1.146  -0.190  0.00  0.00     0.003 A 
ATOM      7  C6  UNL d   1      -0.183   0.121  -0.364  0.00  0.00    -0.001 A 
ENDROOT
TORSDOF 0
ENDMDL
