MODEL 1
REMARK minimizedAffinity -2.85379887
REMARK minimizedRMSD -1
REMARK  0 active torsions:
REMARK  status: ('A' for Active; 'I' for Inactive)
ROOT
ATOM      1  C   UNL d   1       0.092   1.720  -0.002  0.00  0.00     0.078 C 
ATOM      2  C1  UNL d   1      -0.213   0.252  -0.023  0.00  0.00    -0.077 A 
ATOM      3  C2  UNL d   1       0.059  -0.525  -1.156  0.00  0.00    -0.001 A 
ATOM      4  C3  UNL d   1      -0.239  -1.889  -1.165  0.00  0.00     0.003 A 
ATOM      5  C4  UNL d   1      -0.812  -2.487  -0.044  0.00  0.00    -0.005 A 
ATOM      6  C5  UNL d   1      -1.088  -1.722   1.086  0.00  0.00     0.003 A 
ATOM      7  C6  UNL d   1      -0.791  -0.358   1.097  0.00  0.00    -0.001 A 
ENDROOT
TORSDOF 0
ENDMDL
