MODEL 1
REMARK minimizedAffinity -3.78152299
REMARK minimizedRMSD -1
REMARK  0 active torsions:
REMARK  status: ('A' for Active; 'I' for Inactive)
ROOT
ATOM      1  C   UNL d   1      -1.047  -1.833   1.308  0.00  0.00     0.078 C 
ATOM      2  C1  UNL d   1      -0.492  -0.495   0.922  0.00  0.00    -0.077 A 
ATOM      3  C2  UNL d   1       0.358   0.209   1.784  0.00  0.00    -0.001 A 
ATOM      4  C3  UNL d   1       0.860   1.459   1.416  0.00  0.00     0.003 A 
ATOM      5  C4  UNL d   1       0.517   2.015   0.185  0.00  0.00    -0.005 A 
ATOM      6  C5  UNL d   1      -0.329   1.323  -0.679  0.00  0.00     0.003 A 
ATOM      7  C6  UNL d   1      -0.832   0.073  -0.312  0.00  0.00    -0.001 A 
ENDROOT
TORSDOF 0
ENDMDL
