MODEL 1
REMARK minimizedAffinity -3.24376154
REMARK minimizedRMSD -1
REMARK  0 active torsions:
REMARK  status: ('A' for Active; 'I' for Inactive)
ROOT
ATOM      1  C   UNL d   1      -0.043  -2.642  -2.227  0.00  0.00     0.078 C 
ATOM      2  C1  UNL d   1      -0.393  -1.792  -1.042  0.00  0.00    -0.077 A 
ATOM      3  C2  UNL d   1      -0.047  -0.436  -1.000  0.00  0.00    -0.001 A 
ATOM      4  C3  UNL d   1      -0.370   0.341   0.114  0.00  0.00     0.003 A 
ATOM      5  C4  UNL d   1      -1.039  -0.230   1.195  0.00  0.00    -0.005 A 
ATOM      6  C5  UNL d   1      -1.385  -1.580   1.163  0.00  0.00     0.003 A 
ATOM      7  C6  UNL d   1      -1.063  -2.358   0.050  0.00  0.00    -0.001 A 
ENDROOT
TORSDOF 0
ENDMDL
