MODEL 1
REMARK minimizedAffinity -3.62008166
REMARK minimizedRMSD -1
REMARK  0 active torsions:
REMARK  status: ('A' for Active; 'I' for Inactive)
ROOT
ATOM      1  C   UNL d   1       1.637   2.505   0.022  0.00  0.00     0.078 C 
ATOM      2  C1  UNL d   1       0.588   1.492   0.370  0.00  0.00    -0.077 A 
ATOM      3  C2  UNL d   1      -0.715   1.602  -0.132  0.00  0.00    -0.001 A 
ATOM      4  C3  UNL d   1      -1.684   0.657   0.208  0.00  0.00     0.003 A 
ATOM      5  C4  UNL d   1      -1.362  -0.404   1.052  0.00  0.00    -0.005 A 
ATOM      6  C5  UNL d   1      -0.069  -0.521   1.557  0.00  0.00     0.003 A 
ATOM      7  C6  UNL d   1       0.902   0.423   1.218  0.00  0.00    -0.001 A 
ENDROOT
TORSDOF 0
ENDMDL
