MODEL 1
REMARK minimizedAffinity -1.06523478
REMARK minimizedRMSD -1
REMARK  0 active torsions:
REMARK  status: ('A' for Active; 'I' for Inactive)
ROOT
ATOM      1  C   UNL d   1      -0.827  -2.840  -2.209  0.00  0.00     0.078 C 
ATOM      2  C1  UNL d   1      -0.773  -2.133  -0.887  0.00  0.00    -0.077 A 
ATOM      3  C2  UNL d   1      -0.401  -0.786  -0.805  0.00  0.00    -0.001 A 
ATOM      4  C3  UNL d   1      -0.346  -0.143   0.433  0.00  0.00     0.003 A 
ATOM      5  C4  UNL d   1      -0.660  -0.841   1.598  0.00  0.00    -0.005 A 
ATOM      6  C5  UNL d   1      -1.029  -2.182   1.526  0.00  0.00     0.003 A 
ATOM      7  C6  UNL d   1      -1.085  -2.827   0.289  0.00  0.00    -0.001 A 
ENDROOT
TORSDOF 0
ENDMDL
