MODEL 1
REMARK minimizedAffinity -2.61493254
REMARK minimizedRMSD -1
REMARK  0 active torsions:
REMARK  status: ('A' for Active; 'I' for Inactive)
ROOT
ATOM      1  C   UNL d   1      -0.569  -2.637  -2.343  0.00  0.00     0.078 C 
ATOM      2  C1  UNL d   1      -0.621  -1.960  -1.007  0.00  0.00    -0.077 A 
ATOM      3  C2  UNL d   1      -1.020  -2.657   0.140  0.00  0.00    -0.001 A 
ATOM      4  C3  UNL d   1      -1.073  -2.011   1.377  0.00  0.00     0.003 A 
ATOM      5  C4  UNL d   1      -0.729  -0.665   1.478  0.00  0.00    -0.005 A 
ATOM      6  C5  UNL d   1      -0.334   0.038   0.342  0.00  0.00     0.003 A 
ATOM      7  C6  UNL d   1      -0.280  -0.606  -0.895  0.00  0.00    -0.001 A 
ENDROOT
TORSDOF 0
ENDMDL
