MODEL 1
REMARK minimizedAffinity -4.26068687
REMARK minimizedRMSD -1
REMARK  0 active torsions:
REMARK  status: ('A' for Active; 'I' for Inactive)
ROOT
ATOM      1  C   UNL d   1      -0.918  -1.851   0.752  0.00  0.00     0.078 C 
ATOM      2  C1  UNL d   1      -0.335  -0.502   0.456  0.00  0.00    -0.077 A 
ATOM      3  C2  UNL d   1       0.533   0.123   1.360  0.00  0.00    -0.001 A 
ATOM      4  C3  UNL d   1       1.060   1.384   1.075  0.00  0.00     0.003 A 
ATOM      5  C4  UNL d   1       0.724   2.031  -0.112  0.00  0.00    -0.005 A 
ATOM      6  C5  UNL d   1      -0.141   1.418  -1.016  0.00  0.00     0.003 A 
ATOM      7  C6  UNL d   1      -0.669   0.158  -0.734  0.00  0.00    -0.001 A 
ENDROOT
TORSDOF 0
ENDMDL
