MODEL 1
REMARK minimizedAffinity -4.2049861
REMARK minimizedRMSD -1
REMARK  1 active torsions:
REMARK  status: ('A' for Active; 'I' for Inactive)
REMARK    1  A    between atoms: C1_2  and  C2_3 
ROOT
ATOM      1  C2  UNL d   1      -1.015  -0.695  -4.227  0.00  0.00    -0.081 A 
ATOM      2  C3  UNL d   1      -0.730   0.461  -4.964  0.00  0.00     0.006 A 
ATOM      3  C4  UNL d   1       0.432   1.194  -4.709  0.00  0.00     0.002 A 
ATOM      4  C5  UNL d   1       1.330   0.780  -3.720  0.00  0.00    -0.080 A 
ATOM      5  C6  UNL d   1       2.596   1.541  -3.457  0.00  0.00     0.076 C 
ATOM      6  C7  UNL d   1       1.036  -0.365  -2.972  0.00  0.00     0.002 A 
ATOM      7  C8  UNL d   1      -0.125  -1.098  -3.225  0.00  0.00     0.006 A 
ENDROOT
BRANCH   1   8
ATOM      8  C1  UNL d   1      -2.234  -1.523  -4.543  0.00  0.00     0.054 C 
ATOM      9  C   UNL d   1      -2.238  -1.970  -5.998  0.00  0.00     0.018 C 
ENDBRANCH   1   8
TORSDOF 1
ENDMDL
