MODEL 1
REMARK minimizedAffinity -3.78839016
REMARK minimizedRMSD -1
REMARK  1 active torsions:
REMARK  status: ('A' for Active; 'I' for Inactive)
REMARK    1  A    between atoms: C1_2  and  C2_3 
ROOT
ATOM      1  C2  UNL d   1       0.696   0.137   2.417  0.00  0.00    -0.081 A 
ATOM      2  C3  UNL d   1      -0.553   0.435   2.977  0.00  0.00     0.006 A 
ATOM      3  C4  UNL d   1      -1.638   0.753   2.158  0.00  0.00     0.002 A 
ATOM      4  C5  UNL d   1      -1.495   0.773   0.766  0.00  0.00    -0.080 A 
ATOM      5  C6  UNL d   1      -2.660   1.084  -0.126  0.00  0.00     0.076 C 
ATOM      6  C7  UNL d   1      -0.244   0.493   0.208  0.00  0.00     0.002 A 
ATOM      7  C8  UNL d   1       0.842   0.175   1.026  0.00  0.00     0.006 A 
ENDROOT
BRANCH   1   8
ATOM      8  C1  UNL d   1       1.852  -0.270   3.295  0.00  0.00     0.054 C 
ATOM      9  C   UNL d   1       1.491  -1.466   4.165  0.00  0.00     0.018 C 
ENDBRANCH   1   8
TORSDOF 1
ENDMDL
