MODEL 1
REMARK minimizedAffinity -3.49539518
REMARK minimizedRMSD -1
REMARK  1 active torsions:
REMARK  status: ('A' for Active; 'I' for Inactive)
REMARK    1  A    between atoms: C1_2  and  C2_3 
ROOT
ATOM      1  C2  UNL d   1       0.252  -0.222  -1.010  0.00  0.00    -0.081 A 
ATOM      2  C3  UNL d   1      -1.095  -0.100  -0.650  0.00  0.00     0.006 A 
ATOM      3  C4  UNL d   1      -1.450   0.374   0.615  0.00  0.00     0.002 A 
ATOM      4  C5  UNL d   1      -0.465   0.741   1.537  0.00  0.00    -0.080 A 
ATOM      5  C6  UNL d   1      -0.832   1.280   2.888  0.00  0.00     0.076 C 
ATOM      6  C7  UNL d   1       0.882   0.604   1.184  0.00  0.00     0.002 A 
ATOM      7  C8  UNL d   1       1.237   0.129  -0.081  0.00  0.00     0.006 A 
ENDROOT
BRANCH   1   8
ATOM      8  C1  UNL d   1       0.637  -0.671  -2.397  0.00  0.00     0.054 C 
ATOM      9  C   UNL d   1       1.624   0.294  -3.037  0.00  0.00     0.018 C 
ENDBRANCH   1   8
TORSDOF 1
ENDMDL
