MODEL 1
REMARK minimizedAffinity -4.54269886
REMARK minimizedRMSD -1
REMARK  1 active torsions:
REMARK  status: ('A' for Active; 'I' for Inactive)
REMARK    1  A    between atoms: C1_2  and  C2_3 
ROOT
ATOM      1  C2  UNL d   1       0.134  -0.293  -0.001  0.00  0.00    -0.081 A 
ATOM      2  C3  UNL d   1      -1.211  -0.006   0.260  0.00  0.00     0.006 A 
ATOM      3  C4  UNL d   1      -1.590   0.569   1.476  0.00  0.00     0.002 A 
ATOM      4  C5  UNL d   1      -0.630   0.874   2.447  0.00  0.00    -0.080 A 
ATOM      5  C6  UNL d   1      -1.019   1.519   3.743  0.00  0.00     0.076 C 
ATOM      6  C7  UNL d   1       0.712   0.571   2.193  0.00  0.00     0.002 A 
ATOM      7  C8  UNL d   1       1.091  -0.004   0.978  0.00  0.00     0.006 A 
ENDROOT
BRANCH   1   8
ATOM      8  C1  UNL d   1       0.553  -0.853  -1.336  0.00  0.00     0.054 C 
ATOM      9  C   UNL d   1       1.667  -0.024  -1.959  0.00  0.00     0.018 C 
ENDBRANCH   1   8
TORSDOF 1
ENDMDL
