MODEL 1
REMARK minimizedAffinity -0.725479364
REMARK minimizedRMSD -1
REMARK  1 active torsions:
REMARK  status: ('A' for Active; 'I' for Inactive)
REMARK    1  A    between atoms: C1_2  and  C2_3 
ROOT
ATOM      1  C2  UNL d   1      -0.249  -0.532  -0.393  0.00  0.00    -0.081 A 
ATOM      2  C3  UNL d   1      -1.226  -0.106   0.515  0.00  0.00     0.006 A 
ATOM      3  C4  UNL d   1      -0.954  -0.077   1.885  0.00  0.00     0.002 A 
ATOM      4  C5  UNL d   1       0.300  -0.465   2.369  0.00  0.00    -0.080 A 
ATOM      5  C6  UNL d   1       0.615  -0.409   3.834  0.00  0.00     0.076 C 
ATOM      6  C7  UNL d   1       1.270  -0.907   1.463  0.00  0.00     0.002 A 
ATOM      7  C8  UNL d   1       0.999  -0.938   0.093  0.00  0.00     0.006 A 
ENDROOT
BRANCH   1   8
ATOM      8  C1  UNL d   1      -0.517  -0.504  -1.876  0.00  0.00     0.054 C 
ATOM      9  C   UNL d   1       0.778  -0.564  -2.674  0.00  0.00     0.018 C 
ENDBRANCH   1   8
TORSDOF 1
ENDMDL
