MODEL 1
REMARK minimizedAffinity -2.44713974
REMARK minimizedRMSD -1
REMARK  1 active torsions:
REMARK  status: ('A' for Active; 'I' for Inactive)
REMARK    1  A    between atoms: C1_2  and  C2_3 
ROOT
ATOM      1  C2  UNL d   1       0.588  -0.555  -1.552  0.00  0.00    -0.081 A 
ATOM      2  C3  UNL d   1      -0.733  -0.089  -1.530  0.00  0.00     0.006 A 
ATOM      3  C4  UNL d   1      -1.381   0.147  -0.315  0.00  0.00     0.002 A 
ATOM      4  C5  UNL d   1      -0.718  -0.072   0.897  0.00  0.00    -0.080 A 
ATOM      5  C6  UNL d   1      -1.392   0.205   2.208  0.00  0.00     0.076 C 
ATOM      6  C7  UNL d   1       0.595  -0.555   0.875  0.00  0.00     0.002 A 
ATOM      7  C8  UNL d   1       1.244  -0.791  -0.339  0.00  0.00     0.006 A 
ENDROOT
BRANCH   1   8
ATOM      8  C1  UNL d   1       1.311  -0.748  -2.860  0.00  0.00     0.054 C 
ATOM      9  C   UNL d   1       2.226   0.430  -3.166  0.00  0.00     0.018 C 
ENDBRANCH   1   8
TORSDOF 1
ENDMDL
