MODEL 1
REMARK minimizedAffinity 4.25647497
REMARK minimizedRMSD -1
REMARK  1 active torsions:
REMARK  status: ('A' for Active; 'I' for Inactive)
REMARK    1  A    between atoms: C1_2  and  C2_3 
ROOT
ATOM      1  C2  UNL d   1       0.025   0.032   2.905  0.00  0.00    -0.081 A 
ATOM      2  C3  UNL d   1       1.088   0.252   2.021  0.00  0.00     0.006 A 
ATOM      3  C4  UNL d   1       0.849   0.431   0.657  0.00  0.00     0.002 A 
ATOM      4  C5  UNL d   1      -0.457   0.402   0.155  0.00  0.00    -0.080 A 
ATOM      5  C6  UNL d   1      -0.729   0.623  -1.303  0.00  0.00     0.076 C 
ATOM      6  C7  UNL d   1      -1.518   0.164   1.035  0.00  0.00     0.002 A 
ATOM      7  C8  UNL d   1      -1.279  -0.016   2.400  0.00  0.00     0.006 A 
ENDROOT
BRANCH   1   8
ATOM      8  C1  UNL d   1       0.273  -0.097   4.386  0.00  0.00     0.054 C 
ATOM      9  C   UNL d   1       0.355  -1.557   4.809  0.00  0.00     0.018 C 
ENDBRANCH   1   8
TORSDOF 1
ENDMDL
