MODEL 1
REMARK minimizedAffinity -1.43098497
REMARK minimizedRMSD -1
REMARK  1 active torsions:
REMARK  status: ('A' for Active; 'I' for Inactive)
REMARK    1  A    between atoms: C1_2  and  C2_3 
ROOT
ATOM      1  C2  UNL d   1      -0.097  -0.304   0.222  0.00  0.00    -0.081 A 
ATOM      2  C3  UNL d   1       1.055   0.249   0.794  0.00  0.00     0.006 A 
ATOM      3  C4  UNL d   1       0.985   0.928   2.012  0.00  0.00     0.002 A 
ATOM      4  C5  UNL d   1      -0.236   1.059   2.683  0.00  0.00    -0.080 A 
ATOM      5  C6  UNL d   1      -0.320   1.759   4.007  0.00  0.00     0.076 C 
ATOM      6  C7  UNL d   1      -1.390   0.521   2.104  0.00  0.00     0.002 A 
ATOM      7  C8  UNL d   1      -1.321  -0.157   0.885  0.00  0.00     0.006 A 
ENDROOT
BRANCH   1   8
ATOM      8  C1  UNL d   1      -0.014  -1.092  -1.060  0.00  0.00     0.054 C 
ATOM      9  C   UNL d   1      -0.100  -0.182  -2.276  0.00  0.00     0.018 C 
ENDBRANCH   1   8
TORSDOF 1
ENDMDL
