MODEL 1
REMARK minimizedAffinity 3.85340357
REMARK minimizedRMSD -1
REMARK  2 active torsions:
REMARK  status: ('A' for Active; 'I' for Inactive)
REMARK    1  A    between atoms: C1_2  and  C2_3 
REMARK    2  A    between atoms: C2_3  and  C3_4 
ROOT
ATOM      1  C3  UNL d   1      -2.918  -1.580  -5.979  0.00  0.00    -0.075 A 
ATOM      2  C4  UNL d   1      -4.071  -0.781  -5.992  0.00  0.00     0.002 A 
ATOM      3  C5  UNL d   1      -5.338  -1.366  -5.994  0.00  0.00     0.002 A 
ATOM      4  C6  UNL d   1      -5.468  -2.753  -5.995  0.00  0.00    -0.004 A 
ATOM      5  C7  UNL d   1      -4.330  -3.556  -6.000  0.00  0.00     0.002 A 
ATOM      6  C8  UNL d   1      -3.061  -2.974  -5.992  0.00  0.00     0.002 A 
ENDROOT
BRANCH   1   7
ATOM      7  C2  UNL d   1      -1.544  -0.954  -5.947  0.00  0.00     0.056 C 
BRANCH   7   8
ATOM      8  C1  UNL d   1      -0.606  -1.563  -4.900  0.00  0.00     0.007 C 
ATOM      9  C   UNL d   1       0.196  -0.520  -4.132  0.00  0.00     0.009 C 
ENDBRANCH   7   8
ENDBRANCH   1   7
TORSDOF 2
ENDMDL
