MODEL 1
REMARK minimizedAffinity 4.06740046
REMARK minimizedRMSD -1
REMARK  2 active torsions:
REMARK  status: ('A' for Active; 'I' for Inactive)
REMARK    1  A    between atoms: C1_2  and  C2_3 
REMARK    2  A    between atoms: C2_3  and  C3_4 
ROOT
ATOM      1  C3  UNL d   1      -0.943  -1.804  -5.246  0.00  0.00    -0.075 A 
ATOM      2  C4  UNL d   1      -1.599  -0.564  -5.264  0.00  0.00     0.002 A 
ATOM      3  C5  UNL d   1      -2.943  -0.479  -5.630  0.00  0.00     0.002 A 
ATOM      4  C6  UNL d   1      -3.643  -1.628  -5.992  0.00  0.00    -0.004 A 
ATOM      5  C7  UNL d   1      -2.997  -2.862  -5.994  0.00  0.00     0.002 A 
ATOM      6  C8  UNL d   1      -1.654  -2.951  -5.624  0.00  0.00     0.002 A 
ENDROOT
BRANCH   1   7
ATOM      7  C2  UNL d   1       0.502  -1.907  -4.823  0.00  0.00     0.056 C 
BRANCH   7   8
ATOM      8  C1  UNL d   1       0.866  -1.023  -3.625  0.00  0.00     0.007 C 
ATOM      9  C   UNL d   1       2.257  -0.412  -3.729  0.00  0.00     0.009 C 
ENDBRANCH   7   8
ENDBRANCH   1   7
TORSDOF 2
ENDMDL
