MODEL 1
REMARK minimizedAffinity 12.4346199
REMARK minimizedRMSD -1
REMARK  2 active torsions:
REMARK  status: ('A' for Active; 'I' for Inactive)
REMARK    1  A    between atoms: C1_2  and  C2_3 
REMARK    2  A    between atoms: C2_3  and  C3_4 
ROOT
ATOM      1  C3  UNL d   1      -4.987   3.956   4.019  0.00  0.00    -0.075 A 
ATOM      2  C4  UNL d   1      -5.971   3.942   5.018  0.00  0.00     0.002 A 
ATOM      3  C5  UNL d   1      -5.998   4.933   5.999  0.00  0.00     0.002 A 
ATOM      4  C6  UNL d   1      -5.039   5.944   6.000  0.00  0.00    -0.004 A 
ATOM      5  C7  UNL d   1      -4.047   5.958   5.022  0.00  0.00     0.002 A 
ATOM      6  C8  UNL d   1      -4.020   4.970   4.036  0.00  0.00     0.002 A 
ENDROOT
BRANCH   1   7
ATOM      7  C2  UNL d   1      -4.969   2.903   2.937  0.00  0.00     0.056 C 
BRANCH   7   8
ATOM      8  C1  UNL d   1      -3.739   2.965   2.026  0.00  0.00     0.007 C 
ATOM      9  C   UNL d   1      -3.785   1.957   0.885  0.00  0.00     0.009 C 
ENDBRANCH   7   8
ENDBRANCH   1   7
TORSDOF 2
ENDMDL
