MODEL 1
REMARK minimizedAffinity -0.705313385
REMARK minimizedRMSD -1
REMARK  2 active torsions:
REMARK  status: ('A' for Active; 'I' for Inactive)
REMARK    1  A    between atoms: C1_2  and  C2_3 
REMARK    2  A    between atoms: C2_3  and  C3_4 
ROOT
ATOM      1  C3  UNL d   1      -3.235  -2.372  -5.997  0.00  0.00    -0.075 A 
ATOM      2  C4  UNL d   1      -4.145  -1.306  -6.000  0.00  0.00     0.002 A 
ATOM      3  C5  UNL d   1      -5.519  -1.547  -5.983  0.00  0.00     0.002 A 
ATOM      4  C6  UNL d   1      -6.000  -2.854  -5.973  0.00  0.00    -0.004 A 
ATOM      5  C7  UNL d   1      -5.105  -3.922  -5.987  0.00  0.00     0.002 A 
ATOM      6  C8  UNL d   1      -3.730  -3.683  -6.000  0.00  0.00     0.002 A 
ENDROOT
BRANCH   1   7
ATOM      7  C2  UNL d   1      -1.746  -2.118  -5.986  0.00  0.00     0.056 C 
BRANCH   7   8
ATOM      8  C1  UNL d   1      -1.356  -0.723  -5.488  0.00  0.00     0.007 C 
ATOM      9  C   UNL d   1      -0.022  -0.699  -4.754  0.00  0.00     0.009 C 
ENDBRANCH   7   8
ENDBRANCH   1   7
TORSDOF 2
ENDMDL
