MODEL 1
REMARK minimizedAffinity 0.357422382
REMARK minimizedRMSD -1
REMARK  2 active torsions:
REMARK  status: ('A' for Active; 'I' for Inactive)
REMARK    1  A    between atoms: C1_2  and  C2_3 
REMARK    2  A    between atoms: C2_3  and  C3_4 
ROOT
ATOM      1  C3  UNL d   1      -4.880   1.713   3.397  0.00  0.00    -0.075 A 
ATOM      2  C4  UNL d   1      -4.500   0.375   3.215  0.00  0.00     0.002 A 
ATOM      3  C5  UNL d   1      -3.739  -0.001   2.108  0.00  0.00     0.002 A 
ATOM      4  C6  UNL d   1      -3.358   0.951   1.165  0.00  0.00    -0.004 A 
ATOM      5  C7  UNL d   1      -3.744   2.280   1.326  0.00  0.00     0.002 A 
ATOM      6  C8  UNL d   1      -4.502   2.660   2.435  0.00  0.00     0.002 A 
ENDROOT
BRANCH   1   7
ATOM      7  C2  UNL d   1      -5.679   2.132   4.608  0.00  0.00     0.056 C 
BRANCH   7   8
ATOM      8  C1  UNL d   1      -6.000   3.629   4.656  0.00  0.00     0.007 C 
ATOM      9  C   UNL d   1      -5.677   4.269   6.000  0.00  0.00     0.009 C 
ENDBRANCH   7   8
ENDBRANCH   1   7
TORSDOF 2
ENDMDL
