MODEL 1
REMARK minimizedAffinity 6.25527859
REMARK minimizedRMSD -1
REMARK  2 active torsions:
REMARK  status: ('A' for Active; 'I' for Inactive)
REMARK    1  A    between atoms: C1_2  and  C2_3 
REMARK    2  A    between atoms: C2_3  and  C3_4 
ROOT
ATOM      1  C3  UNL d   1      -0.609  -1.103  -5.240  0.00  0.00    -0.075 A 
ATOM      2  C4  UNL d   1      -1.827  -0.407  -5.260  0.00  0.00     0.002 A 
ATOM      3  C5  UNL d   1      -3.006  -1.053  -5.633  0.00  0.00     0.002 A 
ATOM      4  C6  UNL d   1      -2.982  -2.397  -6.000  0.00  0.00    -0.004 A 
ATOM      5  C7  UNL d   1      -1.775  -3.093  -6.000  0.00  0.00     0.002 A 
ATOM      6  C8  UNL d   1      -0.594  -2.451  -5.623  0.00  0.00     0.002 A 
ENDROOT
BRANCH   1   7
ATOM      7  C2  UNL d   1       0.665  -0.417  -4.809  0.00  0.00     0.056 C 
BRANCH   7   8
ATOM      8  C1  UNL d   1       1.108  -0.763  -3.384  0.00  0.00     0.007 C 
ATOM      9  C   UNL d   1       1.540   0.454  -2.577  0.00  0.00     0.009 C 
ENDBRANCH   7   8
ENDBRANCH   1   7
TORSDOF 2
ENDMDL
