MODEL 1
REMARK minimizedAffinity 2.46357703
REMARK minimizedRMSD -1
REMARK  2 active torsions:
REMARK  status: ('A' for Active; 'I' for Inactive)
REMARK    1  A    between atoms: C1_2  and  C2_3 
REMARK    2  A    between atoms: C2_3  and  C3_4 
ROOT
ATOM      1  C3  UNL d   1      -2.935  -1.398  -5.980  0.00  0.00    -0.075 A 
ATOM      2  C4  UNL d   1      -4.115  -0.641  -5.982  0.00  0.00     0.002 A 
ATOM      3  C5  UNL d   1      -5.360  -1.270  -5.978  0.00  0.00     0.002 A 
ATOM      4  C6  UNL d   1      -5.442  -2.661  -5.982  0.00  0.00    -0.004 A 
ATOM      5  C7  UNL d   1      -4.276  -3.423  -5.997  0.00  0.00     0.002 A 
ATOM      6  C8  UNL d   1      -3.028  -2.796  -5.996  0.00  0.00     0.002 A 
ENDROOT
BRANCH   1   7
ATOM      7  C2  UNL d   1      -1.584  -0.724  -5.955  0.00  0.00     0.056 C 
BRANCH   7   8
ATOM      8  C1  UNL d   1      -0.412  -1.683  -5.721  0.00  0.00     0.007 C 
ATOM      9  C   UNL d   1       0.759  -1.035  -4.994  0.00  0.00     0.009 C 
ENDBRANCH   7   8
ENDBRANCH   1   7
TORSDOF 2
ENDMDL
