MODEL 1
REMARK minimizedAffinity 7.13853741
REMARK minimizedRMSD -1
REMARK  2 active torsions:
REMARK  status: ('A' for Active; 'I' for Inactive)
REMARK    1  A    between atoms: C1_2  and  C2_3 
REMARK    2  A    between atoms: C2_3  and  C3_4 
ROOT
ATOM      1  C3  UNL d   1      -1.444  -1.210  -5.686  0.00  0.00    -0.075 A 
ATOM      2  C4  UNL d   1      -1.609  -2.594  -5.838  0.00  0.00     0.002 A 
ATOM      3  C5  UNL d   1      -2.882  -3.143  -5.998  0.00  0.00     0.002 A 
ATOM      4  C6  UNL d   1      -4.004  -2.318  -5.997  0.00  0.00    -0.004 A 
ATOM      5  C7  UNL d   1      -3.854  -0.943  -5.830  0.00  0.00     0.002 A 
ATOM      6  C8  UNL d   1      -2.582  -0.391  -5.674  0.00  0.00     0.002 A 
ENDROOT
BRANCH   1   7
ATOM      7  C2  UNL d   1      -0.068  -0.607  -5.542  0.00  0.00     0.056 C 
BRANCH   7   8
ATOM      8  C1  UNL d   1       0.521  -0.725  -4.132  0.00  0.00     0.007 C 
ATOM      9  C   UNL d   1       1.939  -0.180  -4.026  0.00  0.00     0.009 C 
ENDBRANCH   7   8
ENDBRANCH   1   7
TORSDOF 2
ENDMDL
