MODEL 1
REMARK minimizedAffinity 1.73434627
REMARK minimizedRMSD -1
REMARK  2 active torsions:
REMARK  status: ('A' for Active; 'I' for Inactive)
REMARK    1  A    between atoms: C1_2  and  C2_3 
REMARK    2  A    between atoms: C2_3  and  C3_4 
ROOT
ATOM      1  C3  UNL d   1      -4.619   1.095   3.196  0.00  0.00    -0.075 A 
ATOM      2  C4  UNL d   1      -5.314   2.208   3.688  0.00  0.00     0.002 A 
ATOM      3  C5  UNL d   1      -5.835   2.203   4.983  0.00  0.00     0.002 A 
ATOM      4  C6  UNL d   1      -5.676   1.083   5.796  0.00  0.00    -0.004 A 
ATOM      5  C7  UNL d   1      -5.001  -0.036   5.311  0.00  0.00     0.002 A 
ATOM      6  C8  UNL d   1      -4.475  -0.031   4.018  0.00  0.00     0.002 A 
ENDROOT
BRANCH   1   7
ATOM      7  C2  UNL d   1      -4.028   1.105   1.806  0.00  0.00     0.056 C 
BRANCH   7   8
ATOM      8  C1  UNL d   1      -3.506  -0.258   1.340  0.00  0.00     0.007 C 
ATOM      9  C   UNL d   1      -4.589  -1.137   0.728  0.00  0.00     0.009 C 
ENDBRANCH   7   8
ENDBRANCH   1   7
TORSDOF 2
ENDMDL
