MODEL 1
REMARK minimizedAffinity 2.54550409
REMARK minimizedRMSD -1
REMARK  2 active torsions:
REMARK  status: ('A' for Active; 'I' for Inactive)
REMARK    1  A    between atoms: C1_2  and  C2_3 
REMARK    2  A    between atoms: C2_3  and  C3_4 
ROOT
ATOM      1  C3  UNL d   1       5.667  -2.871   4.693  0.00  0.00    -0.075 A 
ATOM      2  C4  UNL d   1       5.434  -1.489   4.645  0.00  0.00     0.002 A 
ATOM      3  C5  UNL d   1       5.106  -0.867   3.440  0.00  0.00     0.002 A 
ATOM      4  C6  UNL d   1       5.016  -1.615   2.269  0.00  0.00    -0.004 A 
ATOM      5  C7  UNL d   1       5.261  -2.986   2.301  0.00  0.00     0.002 A 
ATOM      6  C8  UNL d   1       5.586  -3.612   3.507  0.00  0.00     0.002 A 
ENDROOT
BRANCH   1   7
ATOM      7  C2  UNL d   1       5.993  -3.555   5.999  0.00  0.00     0.056 C 
BRANCH   7   8
ATOM      8  C1  UNL d   1       6.000  -5.085   5.918  0.00  0.00     0.007 C 
ATOM      9  C   UNL d   1       4.607  -5.696   5.999  0.00  0.00     0.009 C 
ENDBRANCH   7   8
ENDBRANCH   1   7
TORSDOF 2
ENDMDL
