MODEL 1
REMARK minimizedAffinity 9.4359951
REMARK minimizedRMSD -1
REMARK  2 active torsions:
REMARK  status: ('A' for Active; 'I' for Inactive)
REMARK    1  A    between atoms: C1_2  and  C2_3 
REMARK    2  A    between atoms: C2_3  and  C3_4 
ROOT
ATOM      1  C3  UNL d   1       0.835  -0.189  -3.690  0.00  0.00    -0.075 A 
ATOM      2  C4  UNL d   1       1.703  -0.104  -4.788  0.00  0.00     0.002 A 
ATOM      3  C5  UNL d   1       2.997   0.392  -4.632  0.00  0.00     0.002 A 
ATOM      4  C6  UNL d   1       3.436   0.819  -3.380  0.00  0.00    -0.004 A 
ATOM      5  C7  UNL d   1       2.577   0.755  -2.286  0.00  0.00     0.002 A 
ATOM      6  C8  UNL d   1       1.282   0.254  -2.439  0.00  0.00     0.002 A 
ENDROOT
BRANCH   1   7
ATOM      7  C2  UNL d   1      -0.557  -0.753  -3.847  0.00  0.00     0.056 C 
BRANCH   7   8
ATOM      8  C1  UNL d   1      -1.167  -0.531  -5.235  0.00  0.00     0.007 C 
ATOM      9  C   UNL d   1      -2.137  -1.630  -5.648  0.00  0.00     0.009 C 
ENDBRANCH   7   8
ENDBRANCH   1   7
TORSDOF 2
ENDMDL
