MODEL 1
REMARK minimizedAffinity 8.9259901
REMARK minimizedRMSD -1
REMARK  2 active torsions:
REMARK  status: ('A' for Active; 'I' for Inactive)
REMARK    1  A    between atoms: C1_2  and  C2_3 
REMARK    2  A    between atoms: C2_3  and  C3_4 
ROOT
ATOM      1  C3  UNL d   1      -3.936  -0.735   1.326  0.00  0.00    -0.075 A 
ATOM      2  C4  UNL d   1      -4.443   0.476   0.833  0.00  0.00     0.002 A 
ATOM      3  C5  UNL d   1      -3.643   1.619   0.805  0.00  0.00     0.002 A 
ATOM      4  C6  UNL d   1      -2.333   1.568   1.276  0.00  0.00    -0.004 A 
ATOM      5  C7  UNL d   1      -1.825   0.374   1.783  0.00  0.00     0.002 A 
ATOM      6  C8  UNL d   1      -2.622  -0.772   1.809  0.00  0.00     0.002 A 
ENDROOT
BRANCH   1   7
ATOM      7  C2  UNL d   1      -4.787  -1.983   1.332  0.00  0.00     0.056 C 
BRANCH   7   8
ATOM      8  C1  UNL d   1      -4.708  -2.799   0.038  0.00  0.00     0.007 C 
ATOM      9  C   UNL d   1      -3.658  -3.901   0.086  0.00  0.00     0.009 C 
ENDBRANCH   7   8
ENDBRANCH   1   7
TORSDOF 2
ENDMDL
