MODEL 1
REMARK minimizedAffinity 2.15234089
REMARK minimizedRMSD -1
REMARK  2 active torsions:
REMARK  status: ('A' for Active; 'I' for Inactive)
REMARK    1  A    between atoms: C1_2  and  C2_3 
REMARK    2  A    between atoms: C2_3  and  C3_4 
ROOT
ATOM      1  C3  UNL d   1      -2.314  -1.125  -5.253  0.00  0.00    -0.075 A 
ATOM      2  C4  UNL d   1      -3.366  -0.531  -4.541  0.00  0.00     0.002 A 
ATOM      3  C5  UNL d   1      -4.638  -1.105  -4.547  0.00  0.00     0.002 A 
ATOM      4  C6  UNL d   1      -4.876  -2.270  -5.272  0.00  0.00    -0.004 A 
ATOM      5  C7  UNL d   1      -3.842  -2.859  -5.997  0.00  0.00     0.002 A 
ATOM      6  C8  UNL d   1      -2.567  -2.290  -5.989  0.00  0.00     0.002 A 
ENDROOT
BRANCH   1   7
ATOM      7  C2  UNL d   1      -0.928  -0.525  -5.227  0.00  0.00     0.056 C 
BRANCH   7   8
ATOM      8  C1  UNL d   1       0.095  -1.353  -4.441  0.00  0.00     0.007 C 
ATOM      9  C   UNL d   1       1.201  -0.510  -3.822  0.00  0.00     0.009 C 
ENDBRANCH   7   8
ENDBRANCH   1   7
TORSDOF 2
ENDMDL
