MODEL 1
REMARK minimizedAffinity 5.92171574
REMARK minimizedRMSD -1
REMARK  2 active torsions:
REMARK  status: ('A' for Active; 'I' for Inactive)
REMARK    1  A    between atoms: C1_2  and  C2_3 
REMARK    2  A    between atoms: C2_3  and  C3_4 
ROOT
ATOM      1  C3  UNL d   1       5.740  -3.150   4.355  0.00  0.00    -0.075 A 
ATOM      2  C4  UNL d   1       5.792  -4.114   3.338  0.00  0.00     0.002 A 
ATOM      3  C5  UNL d   1       5.911  -5.469   3.651  0.00  0.00     0.002 A 
ATOM      4  C6  UNL d   1       5.988  -5.875   4.982  0.00  0.00    -0.004 A 
ATOM      5  C7  UNL d   1       5.953  -4.924   6.000  0.00  0.00     0.002 A 
ATOM      6  C8  UNL d   1       5.830  -3.569   5.689  0.00  0.00     0.002 A 
ENDROOT
BRANCH   1   7
ATOM      7  C2  UNL d   1       5.582  -1.685   4.024  0.00  0.00     0.056 C 
BRANCH   7   8
ATOM      8  C1  UNL d   1       4.678  -1.413   2.816  0.00  0.00     0.007 C 
ATOM      9  C   UNL d   1       5.037  -0.132   2.075  0.00  0.00     0.009 C 
ENDBRANCH   7   8
ENDBRANCH   1   7
TORSDOF 2
ENDMDL
