MODEL 1
REMARK minimizedAffinity 7.25696516
REMARK minimizedRMSD -1
REMARK  2 active torsions:
REMARK  status: ('A' for Active; 'I' for Inactive)
REMARK    1  A    between atoms: C1_2  and  C2_3 
REMARK    2  A    between atoms: C2_3  and  C3_4 
ROOT
ATOM      1  C3  UNL d   1      -3.039  -1.670  -5.982  0.00  0.00    -0.075 A 
ATOM      2  C4  UNL d   1      -4.314  -2.253  -5.981  0.00  0.00     0.002 A 
ATOM      3  C5  UNL d   1      -4.458  -3.641  -5.975  0.00  0.00     0.002 A 
ATOM      4  C6  UNL d   1      -3.332  -4.461  -5.980  0.00  0.00    -0.004 A 
ATOM      5  C7  UNL d   1      -2.061  -3.893  -5.997  0.00  0.00     0.002 A 
ATOM      6  C8  UNL d   1      -1.913  -2.504  -5.999  0.00  0.00     0.002 A 
ENDROOT
BRANCH   1   7
ATOM      7  C2  UNL d   1      -2.876  -0.169  -5.959  0.00  0.00     0.056 C 
BRANCH   7   8
ATOM      8  C1  UNL d   1      -1.418   0.301  -6.000  0.00  0.00     0.007 C 
ATOM      9  C   UNL d   1      -0.441  -0.723  -5.436  0.00  0.00     0.009 C 
ENDBRANCH   7   8
ENDBRANCH   1   7
TORSDOF 2
ENDMDL
