MODEL 1
REMARK minimizedAffinity 2.1986711
REMARK minimizedRMSD -1
REMARK  2 active torsions:
REMARK  status: ('A' for Active; 'I' for Inactive)
REMARK    1  A    between atoms: C1_2  and  C2_3 
REMARK    2  A    between atoms: C2_3  and  C3_4 
ROOT
ATOM      1  C3  UNL d   1      -2.518  -0.980  -5.980  0.00  0.00    -0.075 A 
ATOM      2  C4  UNL d   1      -2.629  -2.378  -5.971  0.00  0.00     0.002 A 
ATOM      3  C5  UNL d   1      -3.883  -2.989  -5.983  0.00  0.00     0.002 A 
ATOM      4  C6  UNL d   1      -5.040  -2.212  -5.994  0.00  0.00    -0.004 A 
ATOM      5  C7  UNL d   1      -4.941  -0.822  -5.987  0.00  0.00     0.002 A 
ATOM      6  C8  UNL d   1      -3.688  -0.208  -5.979  0.00  0.00     0.002 A 
ENDROOT
BRANCH   1   7
ATOM      7  C2  UNL d   1      -1.164  -0.312  -5.997  0.00  0.00     0.056 C 
BRANCH   7   8
ATOM      8  C1  UNL d   1      -0.121  -0.996  -5.106  0.00  0.00     0.007 C 
ATOM      9  C   UNL d   1       0.967  -0.047  -4.619  0.00  0.00     0.009 C 
ENDBRANCH   7   8
ENDBRANCH   1   7
TORSDOF 2
ENDMDL
