MODEL 1
REMARK minimizedAffinity 9.14591408
REMARK minimizedRMSD -1
REMARK  0 active torsions:
REMARK  status: ('A' for Active; 'I' for Inactive)
ROOT
ATOM      1  N1  IND d   1       1.052   3.807  -1.169  0.00  0.00    -0.196 N 
ATOM      2  C2  IND d   1       0.016   3.721  -2.056  0.00  0.00     0.054 A 
ATOM      3  C3  IND d   1      -1.018   3.045  -1.507  0.00  0.00    -0.031 A 
ATOM      4  C4  IND d   1      -1.267   2.081   0.867  0.00  0.00     0.051 A 
ATOM      5  C5  IND d   1      -0.571   1.881   2.027  0.00  0.00    -0.031 A 
ATOM      6  C6  IND d   1       0.726   2.325   2.185  0.00  0.00     0.015 A 
ATOM      7  C7  IND d   1       1.375   2.997   1.188  0.00  0.00    -0.016 A 
ATOM      8  C8  IND d   1       0.675   3.196   0.007  0.00  0.00    -0.047 A 
ATOM      9  C9  IND d   1      -0.627   2.711  -0.175  0.00  0.00    -0.096 A 
ATOM     10  HN1 IND d   1       1.812   4.180  -1.319  0.00  0.00     0.298 HD
ENDROOT
TORSDOF 0
ENDMDL
