MODEL 1
REMARK minimizedAffinity 15.4768391
REMARK minimizedRMSD -1
REMARK  0 active torsions:
REMARK  status: ('A' for Active; 'I' for Inactive)
ROOT
ATOM      1  N1  IND d   1       1.369   4.140  -0.974  0.00  0.00    -0.196 N 
ATOM      2  C2  IND d   1       0.291   4.513  -1.728  0.00  0.00     0.054 A 
ATOM      3  C3  IND d   1      -0.751   3.683  -1.502  0.00  0.00    -0.031 A 
ATOM      4  C4  IND d   1      -0.943   1.707   0.137  0.00  0.00     0.051 A 
ATOM      5  C5  IND d   1      -0.208   0.960   1.015  0.00  0.00    -0.031 A 
ATOM      6  C6  IND d   1       1.116   1.243   1.282  0.00  0.00     0.015 A 
ATOM      7  C7  IND d   1       1.754   2.294   0.687  0.00  0.00    -0.016 A 
ATOM      8  C8  IND d   1       1.013   3.050  -0.210  0.00  0.00    -0.047 A 
ATOM      9  C9  IND d   1      -0.318   2.742  -0.518  0.00  0.00    -0.096 A 
ATOM     10  HN1 IND d   1       2.139   4.521  -0.977  0.00  0.00     0.298 HD
ENDROOT
TORSDOF 0
ENDMDL
