MODEL 1
REMARK minimizedAffinity 14.9124298
REMARK minimizedRMSD -1
REMARK  0 active torsions:
REMARK  status: ('A' for Active; 'I' for Inactive)
ROOT
ATOM      1  N1  IND d   1       1.774   2.517   1.418  0.00  0.00    -0.196 N 
ATOM      2  C2  IND d   1       1.335   1.815   2.506  0.00  0.00     0.054 A 
ATOM      3  C3  IND d   1       0.029   1.496   2.365  0.00  0.00    -0.031 A 
ATOM      4  C4  IND d   1      -1.557   1.934   0.385  0.00  0.00     0.051 A 
ATOM      5  C5  IND d   1      -1.622   2.572  -0.822  0.00  0.00    -0.031 A 
ATOM      6  C6  IND d   1      -0.536   3.235  -1.356  0.00  0.00     0.015 A 
ATOM      7  C7  IND d   1       0.664   3.275  -0.705  0.00  0.00    -0.016 A 
ATOM      8  C8  IND d   1       0.732   2.635   0.524  0.00  0.00    -0.047 A 
ATOM      9  C9  IND d   1      -0.378   1.997   1.091  0.00  0.00    -0.096 A 
ATOM     10  HN1 IND d   1       2.567   2.831   1.310  0.00  0.00     0.298 HD
ENDROOT
TORSDOF 0
ENDMDL
