MODEL 1
REMARK minimizedAffinity 11.83916
REMARK minimizedRMSD -1
REMARK  0 active torsions:
REMARK  status: ('A' for Active; 'I' for Inactive)
ROOT
ATOM      1  N1  IND d   1       0.441  -3.882  -2.875  0.00  0.00    -0.196 N 
ATOM      2  C2  IND d   1       0.091  -3.978  -1.557  0.00  0.00     0.054 A 
ATOM      3  C3  IND d   1       1.030  -4.666  -0.869  0.00  0.00    -0.031 A 
ATOM      4  C4  IND d   1       3.269  -5.638  -1.685  0.00  0.00     0.051 A 
ATOM      5  C5  IND d   1       4.011  -5.833  -2.817  0.00  0.00    -0.031 A 
ATOM      6  C6  IND d   1       3.593  -5.376  -4.050  0.00  0.00     0.015 A 
ATOM      7  C7  IND d   1       2.418  -4.694  -4.196  0.00  0.00    -0.016 A 
ATOM      8  C8  IND d   1       1.659  -4.500  -3.051  0.00  0.00    -0.047 A 
ATOM      9  C9  IND d   1       2.058  -4.999  -1.804  0.00  0.00    -0.096 A 
ATOM     10  HN1 IND d   1      -0.022  -3.500  -3.491  0.00  0.00     0.298 HD
ENDROOT
TORSDOF 0
ENDMDL
