MODEL 1
REMARK minimizedAffinity 4.61222744
REMARK minimizedRMSD -1
REMARK  0 active torsions:
REMARK  status: ('A' for Active; 'I' for Inactive)
ROOT
ATOM      1  C   UNL d   1      -2.391   1.059   1.281  0.00  0.00    -0.002 A 
ATOM      2  C1  UNL d   1      -1.823   0.192   2.203  0.00  0.00     0.010 A 
ATOM      3  C2  UNL d   1      -0.653  -0.506   1.895  0.00  0.00     0.041 A 
ATOM      4  C3  UNL d   1      -0.057  -0.313   0.634  0.00  0.00    -0.075 A 
ATOM      5  S   UNL d   1       1.379  -1.059   0.038  0.00  0.00     0.015 SA
ATOM      6  C4  UNL d   1       1.272  -0.243  -1.455  0.00  0.00     0.022 A 
ATOM      7  C5  UNL d   1       0.174   0.582  -1.514  0.00  0.00     0.026 A 
ATOM      8  C6  UNL d   1      -0.609   0.556  -0.311  0.00  0.00    -0.082 A 
ATOM      9  C7  UNL d   1      -1.796   1.248   0.030  0.00  0.00     0.045 A 
ENDROOT
TORSDOF 0
ENDMDL
