MODEL 1
REMARK minimizedAffinity 5.81051064
REMARK minimizedRMSD -1
REMARK  0 active torsions:
REMARK  status: ('A' for Active; 'I' for Inactive)
ROOT
ATOM      1  C   UNL d   1       2.836   0.518  -0.244  0.00  0.00    -0.002 A 
ATOM      2  C1  UNL d   1       2.692  -0.449   0.742  0.00  0.00     0.010 A 
ATOM      3  C2  UNL d   1       1.425  -0.919   1.096  0.00  0.00     0.041 A 
ATOM      4  C3  UNL d   1       0.296  -0.398   0.434  0.00  0.00    -0.075 A 
ATOM      5  S   UNL d   1      -1.353  -0.825   0.701  0.00  0.00     0.015 SA
ATOM      6  C4  UNL d   1      -1.905   0.264  -0.488  0.00  0.00     0.022 A 
ATOM      7  C5  UNL d   1      -0.870   0.946  -1.083  0.00  0.00     0.026 A 
ATOM      8  C6  UNL d   1       0.415   0.575  -0.562  0.00  0.00    -0.082 A 
ATOM      9  C7  UNL d   1       1.712   1.032  -0.897  0.00  0.00     0.045 A 
ENDROOT
TORSDOF 0
ENDMDL
