MODEL 1
REMARK minimizedAffinity 5.4600215
REMARK minimizedRMSD -1
REMARK  0 active torsions:
REMARK  status: ('A' for Active; 'I' for Inactive)
ROOT
ATOM      1  C   UNL d   1      -0.106  -0.035  -4.810  0.00  0.00    -0.002 A 
ATOM      2  C1  UNL d   1       0.726   1.063  -4.643  0.00  0.00     0.010 A 
ATOM      3  C2  UNL d   1       1.160   1.438  -3.370  0.00  0.00     0.041 A 
ATOM      4  C3  UNL d   1       0.742   0.682  -2.257  0.00  0.00    -0.075 A 
ATOM      5  S   UNL d   1       1.148   0.954  -0.604  0.00  0.00     0.015 SA
ATOM      6  C4  UNL d   1       0.228  -0.381  -0.081  0.00  0.00     0.022 A 
ATOM      7  C5  UNL d   1      -0.382  -1.030  -1.128  0.00  0.00     0.026 A 
ATOM      8  C6  UNL d   1      -0.096  -0.428  -2.400  0.00  0.00    -0.082 A 
ATOM      9  C7  UNL d   1      -0.519  -0.782  -3.704  0.00  0.00     0.045 A 
ENDROOT
TORSDOF 0
ENDMDL
