MODEL 1
REMARK minimizedAffinity -1.81250632
REMARK minimizedRMSD -1
REMARK  0 active torsions:
REMARK  status: ('A' for Active; 'I' for Inactive)
ROOT
ATOM      1  C   UNL d   1      -2.642   0.303   1.039  0.00  0.00    -0.002 A 
ATOM      2  C1  UNL d   1      -2.099  -0.009  -0.200  0.00  0.00     0.010 A 
ATOM      3  C2  UNL d   1      -0.745  -0.324  -0.323  0.00  0.00     0.041 A 
ATOM      4  C3  UNL d   1       0.063  -0.323   0.832  0.00  0.00    -0.075 A 
ATOM      5  S   UNL d   1       1.747  -0.679   0.923  0.00  0.00     0.015 SA
ATOM      6  C4  UNL d   1       1.785  -0.427   2.608  0.00  0.00     0.022 A 
ATOM      7  C5  UNL d   1       0.552  -0.079   3.106  0.00  0.00     0.026 A 
ATOM      8  C6  UNL d   1      -0.462  -0.014   2.090  0.00  0.00    -0.082 A 
ATOM      9  C7  UNL d   1      -1.838   0.302   2.182  0.00  0.00     0.045 A 
ENDROOT
TORSDOF 0
ENDMDL
