MODEL 1
REMARK minimizedAffinity -1.36797726
REMARK minimizedRMSD -1
REMARK  0 active torsions:
REMARK  status: ('A' for Active; 'I' for Inactive)
ROOT
ATOM      1  C   UNL d   1      -1.704  -0.073   2.904  0.00  0.00    -0.002 A 
ATOM      2  C1  UNL d   1      -0.835   0.974   3.173  0.00  0.00     0.010 A 
ATOM      3  C2  UNL d   1       0.147   1.337   2.250  0.00  0.00     0.041 A 
ATOM      4  C3  UNL d   1       0.241   0.624   1.038  0.00  0.00    -0.075 A 
ATOM      5  S   UNL d   1       1.364   0.892  -0.242  0.00  0.00     0.015 SA
ATOM      6  C4  UNL d   1       0.716  -0.377  -1.177  0.00  0.00     0.022 A 
ATOM      7  C5  UNL d   1      -0.332  -1.001  -0.543  0.00  0.00     0.026 A 
ATOM      8  C6  UNL d   1      -0.624  -0.434   0.744  0.00  0.00    -0.082 A 
ATOM      9  C7  UNL d   1      -1.609  -0.778   1.701  0.00  0.00     0.045 A 
ENDROOT
TORSDOF 0
ENDMDL
