MODEL 1
REMARK minimizedAffinity -3.28625107
REMARK minimizedRMSD -1
REMARK  2 active torsions:
REMARK  status: ('A' for Active; 'I' for Inactive)
REMARK    1  A    between atoms: C2'_3  and  C1'_4 
REMARK    2  A    between atoms: C1'_4  and  C1_5 
ROOT
ATOM      1  C1  I4B d   1      -0.164  -0.043   0.272  0.00  0.00    -0.075 A 
ATOM      2  C2  I4B d   1       0.567   0.223  -0.859  0.00  0.00     0.003 A 
ATOM      3  C3  I4B d   1       1.759  -0.493  -1.122  0.00  0.00     0.002 A 
ATOM      4  C4  I4B d   1       2.208  -1.425  -0.208  0.00  0.00    -0.004 A 
ATOM      5  C5  I4B d   1       1.454  -1.710   0.927  0.00  0.00     0.002 A 
ATOM      6  C6  I4B d   1       0.254  -1.024   1.162  0.00  0.00     0.003 A 
ENDROOT
BRANCH   1   7
ATOM      7  C1' I4B d   1      -1.402   0.755   0.535  0.00  0.00     0.060 C 
BRANCH   7   8
ATOM      8  C2' I4B d   1      -1.664   0.731   2.027  0.00  0.00    -0.013 C 
ATOM      9  C4' I4B d   1      -1.363   2.066   2.655  0.00  0.00     0.013 C 
ATOM     10  C3' I4B d   1      -3.098   0.344   2.239  0.00  0.00     0.013 C 
ENDBRANCH   7   8
ENDBRANCH   1   7
TORSDOF 2
ENDMDL
