MODEL 1
REMARK minimizedAffinity -3.34427309
REMARK minimizedRMSD -1
REMARK  2 active torsions:
REMARK  status: ('A' for Active; 'I' for Inactive)
REMARK    1  A    between atoms: C2'_3  and  C1'_4 
REMARK    2  A    between atoms: C1'_4  and  C1_5 
ROOT
ATOM      1  C1  I4B d   1       0.632   0.065  -1.081  0.00  0.00    -0.075 A 
ATOM      2  C2  I4B d   1       1.632  -0.790  -1.473  0.00  0.00     0.003 A 
ATOM      3  C3  I4B d   1       2.554  -0.399  -2.474  0.00  0.00     0.002 A 
ATOM      4  C4  I4B d   1       2.409   0.828  -3.089  0.00  0.00    -0.004 A 
ATOM      5  C5  I4B d   1       1.408   1.703  -2.675  0.00  0.00     0.002 A 
ATOM      6  C6  I4B d   1       0.522   1.324  -1.657  0.00  0.00     0.003 A 
ENDROOT
BRANCH   1   7
ATOM      7  C1' I4B d   1      -0.343  -0.393  -0.044  0.00  0.00     0.060 C 
BRANCH   7   8
ATOM      8  C2' I4B d   1      -1.159   0.807   0.392  0.00  0.00    -0.013 C 
ATOM      9  C4' I4B d   1      -2.071   1.277  -0.710  0.00  0.00     0.013 C 
ATOM     10  C3' I4B d   1      -1.939   0.418   1.612  0.00  0.00     0.013 C 
ENDBRANCH   7   8
ENDBRANCH   1   7
TORSDOF 2
ENDMDL
