MODEL 1
REMARK minimizedAffinity -5.77010393
REMARK minimizedRMSD -1
REMARK  2 active torsions:
REMARK  status: ('A' for Active; 'I' for Inactive)
REMARK    1  A    between atoms: C2'_3  and  C1'_4 
REMARK    2  A    between atoms: C1'_4  and  C1_5 
ROOT
ATOM      1  C1  I4B d   1       1.376   0.029  -0.368  0.00  0.00    -0.075 A 
ATOM      2  C2  I4B d   1       2.451   0.738  -0.843  0.00  0.00     0.003 A 
ATOM      3  C3  I4B d   1       3.257   0.204  -1.877  0.00  0.00     0.002 A 
ATOM      4  C4  I4B d   1       2.985  -1.057  -2.369  0.00  0.00    -0.004 A 
ATOM      5  C5  I4B d   1       1.882  -1.765  -1.902  0.00  0.00     0.002 A 
ATOM      6  C6  I4B d   1       1.064  -1.214  -0.904  0.00  0.00     0.003 A 
ENDROOT
BRANCH   1   7
ATOM      7  C1' I4B d   1       0.565   0.609   0.747  0.00  0.00     0.060 C 
BRANCH   7   8
ATOM      8  C2' I4B d   1      -0.898   0.479   0.376  0.00  0.00    -0.013 C 
ATOM      9  C4' I4B d   1      -1.784   0.666   1.580  0.00  0.00     0.013 C 
ATOM     10  C3' I4B d   1      -1.200   1.499  -0.681  0.00  0.00     0.013 C 
ENDBRANCH   7   8
ENDBRANCH   1   7
TORSDOF 2
ENDMDL
