MODEL 1
REMARK minimizedAffinity -4.88865519
REMARK minimizedRMSD -1
REMARK  2 active torsions:
REMARK  status: ('A' for Active; 'I' for Inactive)
REMARK    1  A    between atoms: C2'_3  and  C1'_4 
REMARK    2  A    between atoms: C1'_4  and  C1_5 
ROOT
ATOM      1  C1  I4B d   1      -0.386   0.086   0.203  0.00  0.00    -0.075 A 
ATOM      2  C2  I4B d   1       0.411   0.670  -0.750  0.00  0.00     0.003 A 
ATOM      3  C3  I4B d   1       1.584   0.015  -1.196  0.00  0.00     0.002 A 
ATOM      4  C4  I4B d   1       1.947  -1.190  -0.631  0.00  0.00    -0.004 A 
ATOM      5  C5  I4B d   1       1.125  -1.792   0.318  0.00  0.00     0.002 A 
ATOM      6  C6  I4B d   1      -0.055  -1.156   0.729  0.00  0.00     0.003 A 
ENDROOT
BRANCH   1   7
ATOM      7  C1' I4B d   1      -1.601   0.820   0.676  0.00  0.00     0.060 C 
BRANCH   7   8
ATOM      8  C2' I4B d   1      -1.725   0.603   2.170  0.00  0.00    -0.013 C 
ATOM      9  C4' I4B d   1      -1.412   1.864   2.932  0.00  0.00     0.013 C 
ATOM     10  C3' I4B d   1      -3.120   0.131   2.454  0.00  0.00     0.013 C 
ENDBRANCH   7   8
ENDBRANCH   1   7
TORSDOF 2
ENDMDL
