MODEL 1
REMARK minimizedAffinity -3.12072492
REMARK minimizedRMSD -1
REMARK  2 active torsions:
REMARK  status: ('A' for Active; 'I' for Inactive)
REMARK    1  A    between atoms: C2'_3  and  C1'_4 
REMARK    2  A    between atoms: C1'_4  and  C1_5 
ROOT
ATOM      1  C1  I4B d   1      -0.463   0.087   0.253  0.00  0.00    -0.075 A 
ATOM      2  C2  I4B d   1       0.810   0.481  -0.076  0.00  0.00     0.003 A 
ATOM      3  C3  I4B d   1       1.686  -0.416  -0.734  0.00  0.00     0.002 A 
ATOM      4  C4  I4B d   1       1.268  -1.704  -0.999  0.00  0.00    -0.004 A 
ATOM      5  C5  I4B d   1      -0.031  -2.094  -0.686  0.00  0.00     0.002 A 
ATOM      6  C6  I4B d   1      -0.906  -1.189  -0.067  0.00  0.00     0.003 A 
ENDROOT
BRANCH   1   7
ATOM      7  C1' I4B d   1      -1.350   1.049   0.978  0.00  0.00     0.060 C 
BRANCH   7   8
ATOM      8  C2' I4B d   1      -1.754   0.411   2.291  0.00  0.00    -0.013 C 
ATOM      9  C4' I4B d   1      -1.695   1.405   3.421  0.00  0.00     0.013 C 
ATOM     10  C3' I4B d   1      -3.138  -0.143   2.130  0.00  0.00     0.013 C 
ENDBRANCH   7   8
ENDBRANCH   1   7
TORSDOF 2
ENDMDL
