MODEL 1
REMARK minimizedAffinity -4.06871033
REMARK minimizedRMSD -1
REMARK  2 active torsions:
REMARK  status: ('A' for Active; 'I' for Inactive)
REMARK    1  A    between atoms: C2'_3  and  C1'_4 
REMARK    2  A    between atoms: C1'_4  and  C1_5 
ROOT
ATOM      1  C1  I4B d   1       0.571  -0.447   0.210  0.00  0.00    -0.075 A 
ATOM      2  C2  I4B d   1      -0.698  -0.080  -0.164  0.00  0.00     0.003 A 
ATOM      3  C3  I4B d   1      -1.667  -1.069  -0.462  0.00  0.00     0.002 A 
ATOM      4  C4  I4B d   1      -1.312  -2.402  -0.422  0.00  0.00    -0.004 A 
ATOM      5  C5  I4B d   1      -0.032  -2.772  -0.020  0.00  0.00     0.002 A 
ATOM      6  C6  I4B d   1       0.913  -1.789   0.310  0.00  0.00     0.003 A 
ENDROOT
BRANCH   1   7
ATOM      7  C1' I4B d   1       1.578   0.624   0.485  0.00  0.00     0.060 C 
BRANCH   7   8
ATOM      8  C2' I4B d   1       2.182   1.048  -0.838  0.00  0.00    -0.013 C 
ATOM      9  C4' I4B d   1       2.833  -0.115  -1.539  0.00  0.00     0.013 C 
ATOM     10  C3' I4B d   1       1.089   1.642  -1.677  0.00  0.00     0.013 C 
ENDBRANCH   7   8
ENDBRANCH   1   7
TORSDOF 2
ENDMDL
