MODEL 1
REMARK minimizedAffinity -2.28383589
REMARK minimizedRMSD -1
REMARK  2 active torsions:
REMARK  status: ('A' for Active; 'I' for Inactive)
REMARK    1  A    between atoms: C2'_3  and  C1'_4 
REMARK    2  A    between atoms: C1'_4  and  C1_5 
ROOT
ATOM      1  C1  I4B d   1      -0.050  -0.083   0.365  0.00  0.00    -0.075 A 
ATOM      2  C2  I4B d   1      -0.125  -1.278  -0.304  0.00  0.00     0.003 A 
ATOM      3  C3  I4B d   1       0.970  -1.732  -1.079  0.00  0.00     0.002 A 
ATOM      4  C4  I4B d   1       2.094  -0.940  -1.196  0.00  0.00    -0.004 A 
ATOM      5  C5  I4B d   1       2.177   0.261  -0.499  0.00  0.00     0.002 A 
ATOM      6  C6  I4B d   1       1.104   0.688   0.297  0.00  0.00     0.003 A 
ENDROOT
BRANCH   1   7
ATOM      7  C1' I4B d   1      -1.237   0.382   1.147  0.00  0.00     0.060 C 
BRANCH   7   8
ATOM      8  C2' I4B d   1      -0.782   0.660   2.566  0.00  0.00    -0.013 C 
ATOM      9  C4' I4B d   1      -0.727   2.139   2.841  0.00  0.00     0.013 C 
ATOM     10  C3' I4B d   1      -1.731  -0.030   3.500  0.00  0.00     0.013 C 
ENDBRANCH   7   8
ENDBRANCH   1   7
TORSDOF 2
ENDMDL
