MODEL 1
REMARK minimizedAffinity -4.50103474
REMARK minimizedRMSD -1
REMARK  0 active torsions:
REMARK  status: ('A' for Active; 'I' for Inactive)
ROOT
ATOM      1  C1  BNZ d   1       0.422  -2.745  -1.053  0.00  0.00     0.000 A 
ATOM      2  C2  BNZ d   1      -0.206  -3.467  -0.073  0.00  0.00     0.000 A 
ATOM      3  C3  BNZ d   1      -0.895  -2.838   0.926  0.00  0.00     0.000 A 
ATOM      4  C4  BNZ d   1      -0.922  -1.490   0.966  0.00  0.00     0.000 A 
ATOM      5  C5  BNZ d   1      -0.287  -0.749  -0.010  0.00  0.00     0.000 A 
ATOM      6  C6  BNZ d   1       0.373  -1.386  -1.036  0.00  0.00     0.000 A 
ENDROOT
TORSDOF 0
ENDMDL
