MODEL 1
REMARK minimizedAffinity -3.16228271
REMARK minimizedRMSD -1
REMARK  0 active torsions:
REMARK  status: ('A' for Active; 'I' for Inactive)
ROOT
ATOM      1  C1  BNZ d   1      -1.079  -2.166   2.522  0.00  0.00     0.000 A 
ATOM      2  C2  BNZ d   1      -1.308  -0.843   2.788  0.00  0.00     0.000 A 
ATOM      3  C3  BNZ d   1      -1.284   0.087   1.786  0.00  0.00     0.000 A 
ATOM      4  C4  BNZ d   1      -0.993  -0.301   0.528  0.00  0.00     0.000 A 
ATOM      5  C5  BNZ d   1      -0.751  -1.631   0.245  0.00  0.00     0.000 A 
ATOM      6  C6  BNZ d   1      -0.814  -2.569   1.249  0.00  0.00     0.000 A 
ENDROOT
TORSDOF 0
ENDMDL
