MODEL 1
REMARK minimizedAffinity -4.51348925
REMARK minimizedRMSD -1
REMARK  0 active torsions:
REMARK  status: ('A' for Active; 'I' for Inactive)
ROOT
ATOM      1  C1  BNZ d   1      -0.028  -3.188   0.443  0.00  0.00     0.000 A 
ATOM      2  C2  BNZ d   1      -0.054  -3.885  -0.735  0.00  0.00     0.000 A 
ATOM      3  C3  BNZ d   1       0.393  -3.315  -1.895  0.00  0.00     0.000 A 
ATOM      4  C4  BNZ d   1       0.827  -2.038  -1.882  0.00  0.00     0.000 A 
ATOM      5  C5  BNZ d   1       0.850  -1.320  -0.703  0.00  0.00     0.000 A 
ATOM      6  C6  BNZ d   1       0.436  -1.909   0.469  0.00  0.00     0.000 A 
ENDROOT
TORSDOF 0
ENDMDL
