MODEL 1
REMARK minimizedAffinity -0.921101451
REMARK minimizedRMSD -1
REMARK  0 active torsions:
REMARK  status: ('A' for Active; 'I' for Inactive)
ROOT
ATOM      1  C1  BNZ d   1      -0.159   1.667   0.729  0.00  0.00     0.000 A 
ATOM      2  C2  BNZ d   1      -1.141   1.080   1.482  0.00  0.00     0.000 A 
ATOM      3  C3  BNZ d   1      -1.847   0.012   1.002  0.00  0.00     0.000 A 
ATOM      4  C4  BNZ d   1      -1.598  -0.441  -0.244  0.00  0.00     0.000 A 
ATOM      5  C5  BNZ d   1      -0.617   0.145  -1.019  0.00  0.00     0.000 A 
ATOM      6  C6  BNZ d   1       0.118   1.195  -0.517  0.00  0.00     0.000 A 
ENDROOT
TORSDOF 0
ENDMDL
