MODEL 1
REMARK minimizedAffinity -3.78935194
REMARK minimizedRMSD -1
REMARK  0 active torsions:
REMARK  status: ('A' for Active; 'I' for Inactive)
ROOT
ATOM      1  C1  BNZ d   1       0.003   2.642   0.264  0.00  0.00     0.000 A 
ATOM      2  C2  BNZ d   1      -0.125   3.022   1.573  0.00  0.00     0.000 A 
ATOM      3  C3  BNZ d   1       0.949   3.500   2.271  0.00  0.00     0.000 A 
ATOM      4  C4  BNZ d   1       2.156   3.559   1.672  0.00  0.00     0.000 A 
ATOM      5  C5  BNZ d   1       2.303   3.170   0.356  0.00  0.00     0.000 A 
ATOM      6  C6  BNZ d   1       1.212   2.727  -0.356  0.00  0.00     0.000 A 
ENDROOT
TORSDOF 0
ENDMDL
