MODEL 1
REMARK minimizedAffinity -3.15775871
REMARK minimizedRMSD -1
REMARK  0 active torsions:
REMARK  status: ('A' for Active; 'I' for Inactive)
ROOT
ATOM      1  C1  BNZ d   1      -0.497  -0.664  -0.001  0.00  0.00     0.000 A 
ATOM      2  C2  BNZ d   1      -0.086  -1.260  -1.163  0.00  0.00     0.000 A 
ATOM      3  C3  BNZ d   1       0.055  -2.618  -1.241  0.00  0.00     0.000 A 
ATOM      4  C4  BNZ d   1      -0.177  -3.372  -0.147  0.00  0.00     0.000 A 
ATOM      5  C5  BNZ d   1      -0.584  -2.785   1.034  0.00  0.00     0.000 A 
ATOM      6  C6  BNZ d   1      -0.762  -1.422   1.098  0.00  0.00     0.000 A 
ENDROOT
TORSDOF 0
ENDMDL
