MODEL 1
REMARK minimizedAffinity -3.73784351
REMARK minimizedRMSD -1
REMARK  0 active torsions:
REMARK  status: ('A' for Active; 'I' for Inactive)
ROOT
ATOM      1  C1  BNZ d   1      -0.245  -2.610   0.505  0.00  0.00     0.000 A 
ATOM      2  C2  BNZ d   1      -1.150  -2.024   1.349  0.00  0.00     0.000 A 
ATOM      3  C3  BNZ d   1      -1.378  -0.677   1.305  0.00  0.00     0.000 A 
ATOM      4  C4  BNZ d   1      -0.672   0.087   0.446  0.00  0.00     0.000 A 
ATOM      5  C5  BNZ d   1       0.251  -0.487  -0.405  0.00  0.00     0.000 A 
ATOM      6  C6  BNZ d   1       0.449  -1.849  -0.384  0.00  0.00     0.000 A 
ENDROOT
TORSDOF 0
ENDMDL
