MODEL 1
REMARK minimizedAffinity -4.70779705
REMARK minimizedRMSD -1
REMARK  0 active torsions:
REMARK  status: ('A' for Active; 'I' for Inactive)
ROOT
ATOM      1  C1  BNZ d   1      -1.764  -1.127   1.442  0.00  0.00     0.000 A 
ATOM      2  C2  BNZ d   1      -1.590  -2.440   1.095  0.00  0.00     0.000 A 
ATOM      3  C3  BNZ d   1      -0.529  -2.826   0.324  0.00  0.00     0.000 A 
ATOM      4  C4  BNZ d   1       0.333  -1.894  -0.131  0.00  0.00     0.000 A 
ATOM      5  C5  BNZ d   1       0.166  -0.565   0.203  0.00  0.00     0.000 A 
ATOM      6  C6  BNZ d   1      -0.881  -0.186   1.011  0.00  0.00     0.000 A 
ENDROOT
TORSDOF 0
ENDMDL
