MODEL 1
REMARK minimizedAffinity -3.32704687
REMARK minimizedRMSD -1
REMARK  0 active torsions:
REMARK  status: ('A' for Active; 'I' for Inactive)
ROOT
ATOM      1  C1  BNZ d   1      -0.949  -2.277   1.133  0.00  0.00     0.000 A 
ATOM      2  C2  BNZ d   1      -0.805  -0.971   1.519  0.00  0.00     0.000 A 
ATOM      3  C3  BNZ d   1      -0.094  -0.089   0.754  0.00  0.00     0.000 A 
ATOM      4  C4  BNZ d   1       0.504  -0.523  -0.374  0.00  0.00     0.000 A 
ATOM      5  C5  BNZ d   1       0.376  -1.838  -0.772  0.00  0.00     0.000 A 
ATOM      6  C6  BNZ d   1      -0.373  -2.714  -0.020  0.00  0.00     0.000 A 
ENDROOT
TORSDOF 0
ENDMDL
