MODEL 1
REMARK minimizedAffinity -5.07716084
REMARK minimizedRMSD -1
REMARK  0 active torsions:
REMARK  status: ('A' for Active; 'I' for Inactive)
ROOT
ATOM      1  C1  BNZ d   1      -0.023  -0.479  -0.206  0.00  0.00     0.000 A 
ATOM      2  C2  BNZ d   1      -0.293  -1.346   0.818  0.00  0.00     0.000 A 
ATOM      3  C3  BNZ d   1      -0.415  -2.688   0.586  0.00  0.00     0.000 A 
ATOM      4  C4  BNZ d   1      -0.307  -3.155  -0.675  0.00  0.00     0.000 A 
ATOM      5  C5  BNZ d   1      -0.043  -2.292  -1.720  0.00  0.00     0.000 A 
ATOM      6  C6  BNZ d   1       0.117  -0.947  -1.476  0.00  0.00     0.000 A 
ENDROOT
TORSDOF 0
ENDMDL
