MODEL 1
REMARK minimizedAffinity -4.36082125
REMARK minimizedRMSD -1
REMARK  0 active torsions:
REMARK  status: ('A' for Active; 'I' for Inactive)
ROOT
ATOM      1  C1  BNZ d   1       1.718   4.036   1.833  0.00  0.00     0.000 A 
ATOM      2  C2  BNZ d   1       2.194   3.810   0.569  0.00  0.00     0.000 A 
ATOM      3  C3  BNZ d   1       1.428   3.166  -0.362  0.00  0.00     0.000 A 
ATOM      4  C4  BNZ d   1       0.206   2.714  -0.017  0.00  0.00     0.000 A 
ATOM      5  C5  BNZ d   1      -0.285   2.926   1.256  0.00  0.00     0.000 A 
ATOM      6  C6  BNZ d   1       0.474   3.609   2.179  0.00  0.00     0.000 A 
ENDROOT
TORSDOF 0
ENDMDL
