MODEL 1
REMARK minimizedAffinity 4.87973595
REMARK minimizedRMSD -1
REMARK  0 active torsions:
REMARK  status: ('A' for Active; 'I' for Inactive)
ROOT
ATOM      1  C1  BNZ d   1       3.352  -4.162  -3.521  0.00  0.00     0.000 A 
ATOM      2  C2  BNZ d   1       4.426  -4.368  -4.346  0.00  0.00     0.000 A 
ATOM      3  C3  BNZ d   1       4.699  -3.503  -5.369  0.00  0.00     0.000 A 
ATOM      4  C4  BNZ d   1       3.876  -2.457  -5.590  0.00  0.00     0.000 A 
ATOM      5  C5  BNZ d   1       2.785  -2.241  -4.773  0.00  0.00     0.000 A 
ATOM      6  C6  BNZ d   1       2.535  -3.092  -3.720  0.00  0.00     0.000 A 
ENDROOT
TORSDOF 0
ENDMDL
