MODEL 1
REMARK minimizedAffinity -2.6685698
REMARK minimizedRMSD -1
REMARK  0 active torsions:
REMARK  status: ('A' for Active; 'I' for Inactive)
ROOT
ATOM      1  C1  BNZ d   1      -1.241  -2.067   0.599  0.00  0.00     0.000 A 
ATOM      2  C2  BNZ d   1      -1.037  -1.103  -0.352  0.00  0.00     0.000 A 
ATOM      3  C3  BNZ d   1      -0.945   0.215  -0.002  0.00  0.00     0.000 A 
ATOM      4  C4  BNZ d   1      -1.097   0.571   1.290  0.00  0.00     0.000 A 
ATOM      5  C5  BNZ d   1      -1.312  -0.389   2.258  0.00  0.00     0.000 A 
ATOM      6  C6  BNZ d   1      -1.365  -1.718   1.908  0.00  0.00     0.000 A 
ENDROOT
TORSDOF 0
ENDMDL
