MODEL 1
REMARK minimizedAffinity 19.0309505
REMARK minimizedRMSD -1
REMARK  1 active torsions:
REMARK  status: ('A' for Active; 'I' for Inactive)
REMARK    1  A    between atoms: C1_2  and  C2_3 
ROOT
ATOM      1  C2  UNL d   1       5.338  -4.384   0.048  0.00  0.00    -0.081 A 
ATOM      2  C3  UNL d   1       5.999  -3.433  -0.739  0.00  0.00     0.006 A 
ATOM      3  C4  UNL d   1       5.419  -2.184  -0.976  0.00  0.00     0.002 A 
ATOM      4  C5  UNL d   1       4.174  -1.863  -0.426  0.00  0.00    -0.080 A 
ATOM      5  C6  UNL d   1       3.555  -0.516  -0.648  0.00  0.00     0.076 C 
ATOM      6  C7  UNL d   1       3.505  -2.820   0.346  0.00  0.00     0.002 A 
ATOM      7  C8  UNL d   1       4.084  -4.069   0.583  0.00  0.00     0.006 A 
ENDROOT
BRANCH   1   8
ATOM      8  C1  UNL d   1       5.989  -5.708   0.359  0.00  0.00     0.054 C 
ATOM      9  C   UNL d   1       5.963  -5.999   1.853  0.00  0.00     0.018 C 
ENDBRANCH   1   8
TORSDOF 1
ENDMDL
