MODEL 1
REMARK minimizedAffinity 20.0742474
REMARK minimizedRMSD -1
REMARK  1 active torsions:
REMARK  status: ('A' for Active; 'I' for Inactive)
REMARK    1  A    between atoms: C1_2  and  C2_3 
ROOT
ATOM      1  C2  UNL d   1      -0.967   4.761  -0.485  0.00  0.00    -0.081 A 
ATOM      2  C3  UNL d   1      -1.509   3.621   0.120  0.00  0.00     0.006 A 
ATOM      3  C4  UNL d   1      -0.727   2.824   0.959  0.00  0.00     0.002 A 
ATOM      4  C5  UNL d   1       0.608   3.157   1.213  0.00  0.00    -0.080 A 
ATOM      5  C6  UNL d   1       1.450   2.327   2.135  0.00  0.00     0.076 C 
ATOM      6  C7  UNL d   1       1.155   4.286   0.594  0.00  0.00     0.002 A 
ATOM      7  C8  UNL d   1       0.374   5.083  -0.245  0.00  0.00     0.006 A 
ENDROOT
BRANCH   1   8
ATOM      8  C1  UNL d   1      -1.826   5.658  -1.338  0.00  0.00     0.054 C 
ATOM      9  C   UNL d   1      -2.790   4.850  -2.195  0.00  0.00     0.018 C 
ENDBRANCH   1   8
TORSDOF 1
ENDMDL
