MODEL 1
REMARK minimizedAffinity 9.92807484
REMARK minimizedRMSD -1
REMARK  1 active torsions:
REMARK  status: ('A' for Active; 'I' for Inactive)
REMARK    1  A    between atoms: C1_2  and  C2_3 
ROOT
ATOM      1  C2  UNL d   1       0.294   3.036   1.438  0.00  0.00    -0.081 A 
ATOM      2  C3  UNL d   1       1.585   2.641   1.808  0.00  0.00     0.006 A 
ATOM      3  C4  UNL d   1       1.772   1.649   2.773  0.00  0.00     0.002 A 
ATOM      4  C5  UNL d   1       0.673   1.031   3.379  0.00  0.00    -0.080 A 
ATOM      5  C6  UNL d   1       0.860  -0.057   4.394  0.00  0.00     0.076 C 
ATOM      6  C7  UNL d   1      -0.617   1.438   3.022  0.00  0.00     0.002 A 
ATOM      7  C8  UNL d   1      -0.805   2.431   2.057  0.00  0.00     0.006 A 
ENDROOT
BRANCH   1   8
ATOM      8  C1  UNL d   1       0.088   4.060   0.350  0.00  0.00     0.054 C 
ATOM      9  C   UNL d   1       1.249   5.042   0.288  0.00  0.00     0.018 C 
ENDBRANCH   1   8
TORSDOF 1
ENDMDL
