MODEL 1
REMARK minimizedAffinity 19.9875755
REMARK minimizedRMSD -1
REMARK  1 active torsions:
REMARK  status: ('A' for Active; 'I' for Inactive)
REMARK    1  A    between atoms: C1_2  and  C2_3 
ROOT
ATOM      1  C2  UNL d   1      -2.911   1.571  -4.021  0.00  0.00    -0.081 A 
ATOM      2  C3  UNL d   1      -1.956   0.654  -3.568  0.00  0.00     0.006 A 
ATOM      3  C4  UNL d   1      -1.869   0.334  -2.211  0.00  0.00     0.002 A 
ATOM      4  C5  UNL d   1      -2.739   0.921  -1.286  0.00  0.00    -0.080 A 
ATOM      5  C6  UNL d   1      -2.676   0.564   0.169  0.00  0.00     0.076 C 
ATOM      6  C7  UNL d   1      -3.682   1.851  -1.736  0.00  0.00     0.002 A 
ATOM      7  C8  UNL d   1      -3.770   2.171  -3.093  0.00  0.00     0.006 A 
ENDROOT
BRANCH   1   8
ATOM      8  C1  UNL d   1      -3.051   1.869  -5.492  0.00  0.00     0.054 C 
ATOM      9  C   UNL d   1      -4.441   1.513  -5.999  0.00  0.00     0.018 C 
ENDBRANCH   1   8
TORSDOF 1
ENDMDL
