MODEL 1
REMARK minimizedAffinity 6.99575138
REMARK minimizedRMSD -1
REMARK  0 active torsions:
REMARK  status: ('A' for Active; 'I' for Inactive)
ROOT
ATOM      1  C4' PXY d   1       5.115   4.305  -1.546  0.00  0.00     0.077 C 
ATOM      2  C1' PXY d   1       2.462  -0.617  -0.079  0.00  0.00     0.077 C 
ATOM      3  C1  PXY d   1       3.166   0.667  -0.471  0.00  0.00    -0.082 A 
ATOM      4  C2  PXY d   1       3.052   1.737   0.300  0.00  0.00     0.003 A 
ATOM      5  C3  PXY d   1       3.656   2.915  -0.056  0.00  0.00     0.003 A 
ATOM      6  C4  PXY d   1       4.429   2.984  -1.184  0.00  0.00    -0.082 A 
ATOM      7  C5  PXY d   1       4.559   1.894  -1.970  0.00  0.00     0.003 A 
ATOM      8  C6  PXY d   1       3.904   0.719  -1.613  0.00  0.00     0.003 A 
ENDROOT
TORSDOF 0
ENDMDL
