MODEL 1
REMARK minimizedAffinity 9.73888397
REMARK minimizedRMSD -1
REMARK  0 active torsions:
REMARK  status: ('A' for Active; 'I' for Inactive)
ROOT
ATOM      1  C4' PXY d   1      -4.543  -0.452  -3.890  0.00  0.00     0.077 C 
ATOM      2  C1' PXY d   1      -4.547   1.100   1.678  0.00  0.00     0.077 C 
ATOM      3  C1  PXY d   1      -4.557   0.686   0.220  0.00  0.00    -0.082 A 
ATOM      4  C2  PXY d   1      -3.422   0.655  -0.459  0.00  0.00     0.003 A 
ATOM      5  C3  PXY d   1      -3.417   0.314  -1.787  0.00  0.00     0.003 A 
ATOM      6  C4  PXY d   1      -4.579  -0.050  -2.413  0.00  0.00    -0.082 A 
ATOM      7  C5  PXY d   1      -5.740  -0.031  -1.724  0.00  0.00     0.003 A 
ATOM      8  C6  PXY d   1      -5.730   0.357  -0.388  0.00  0.00     0.003 A 
ENDROOT
TORSDOF 0
ENDMDL
