MODEL 1
REMARK minimizedAffinity 7.31077719
REMARK minimizedRMSD -1
REMARK  0 active torsions:
REMARK  status: ('A' for Active; 'I' for Inactive)
ROOT
ATOM      1  C4' PXY d   1      -4.866   2.299   1.608  0.00  0.00     0.077 C 
ATOM      2  C1' PXY d   1      -5.698   5.975   5.991  0.00  0.00     0.077 C 
ATOM      3  C1  PXY d   1      -5.481   5.001   4.850  0.00  0.00    -0.082 A 
ATOM      4  C2  PXY d   1      -4.795   5.383   3.785  0.00  0.00     0.003 A 
ATOM      5  C3  PXY d   1      -4.618   4.526   2.730  0.00  0.00     0.003 A 
ATOM      6  C4  PXY d   1      -5.101   3.246   2.788  0.00  0.00    -0.082 A 
ATOM      7  C5  PXY d   1      -5.793   2.845   3.876  0.00  0.00     0.003 A 
ATOM      8  C6  PXY d   1      -5.998   3.744   4.919  0.00  0.00     0.003 A 
ENDROOT
TORSDOF 0
ENDMDL
