MODEL 1
REMARK minimizedAffinity 4.98922062
REMARK minimizedRMSD -1
REMARK  0 active torsions:
REMARK  status: ('A' for Active; 'I' for Inactive)
ROOT
ATOM      1  C4' PXY d   1       2.317  -1.968   1.190  0.00  0.00     0.077 C 
ATOM      2  C1' PXY d   1       4.065   2.622  -1.859  0.00  0.00     0.077 C 
ATOM      3  C1  PXY d   1       3.594   1.420  -1.064  0.00  0.00    -0.082 A 
ATOM      4  C2  PXY d   1       4.287   1.022  -0.009  0.00  0.00     0.003 A 
ATOM      5  C3  PXY d   1       3.894  -0.082   0.702  0.00  0.00     0.003 A 
ATOM      6  C4  PXY d   1       2.750  -0.754   0.363  0.00  0.00    -0.082 A 
ATOM      7  C5  PXY d   1       2.032  -0.347  -0.706  0.00  0.00     0.003 A 
ATOM      8  C6  PXY d   1       2.471   0.751  -1.439  0.00  0.00     0.003 A 
ENDROOT
TORSDOF 0
ENDMDL
