MODEL 1
REMARK minimizedAffinity 9.3135767
REMARK minimizedRMSD -1
REMARK  0 active torsions:
REMARK  status: ('A' for Active; 'I' for Inactive)
ROOT
ATOM      1  C4' PXY d   1      -4.958   5.999   6.000  0.00  0.00     0.077 C 
ATOM      2  C1' PXY d   1      -5.952   3.223   1.028  0.00  0.00     0.077 C 
ATOM      3  C1  PXY d   1      -5.688   3.962   2.325  0.00  0.00    -0.082 A 
ATOM      4  C2  PXY d   1      -5.374   3.280   3.414  0.00  0.00     0.003 A 
ATOM      5  C3  PXY d   1      -5.164   3.929   4.603  0.00  0.00     0.003 A 
ATOM      6  C4  PXY d   1      -5.224   5.296   4.666  0.00  0.00    -0.082 A 
ATOM      7  C5  PXY d   1      -5.534   6.000   3.557  0.00  0.00     0.003 A 
ATOM      8  C6  PXY d   1      -5.784   5.319   2.369  0.00  0.00     0.003 A 
ENDROOT
TORSDOF 0
ENDMDL
