MODEL 1
REMARK minimizedAffinity 13.0845871
REMARK minimizedRMSD -1
REMARK  0 active torsions:
REMARK  status: ('A' for Active; 'I' for Inactive)
ROOT
ATOM      1  C4' PXY d   1      -4.136   5.061  -0.152  0.00  0.00     0.077 C 
ATOM      2  C1' PXY d   1      -5.999  -0.379  -0.738  0.00  0.00     0.077 C 
ATOM      3  C1  PXY d   1      -5.506   1.047  -0.597  0.00  0.00    -0.082 A 
ATOM      4  C2  PXY d   1      -5.290   1.548   0.609  0.00  0.00     0.003 A 
ATOM      5  C3  PXY d   1      -4.874   2.846   0.756  0.00  0.00     0.003 A 
ATOM      6  C4  PXY d   1      -4.625   3.623  -0.343  0.00  0.00    -0.082 A 
ATOM      7  C5  PXY d   1      -4.833   3.116  -1.577  0.00  0.00     0.003 A 
ATOM      8  C6  PXY d   1      -5.295   1.809  -1.704  0.00  0.00     0.003 A 
ENDROOT
TORSDOF 0
ENDMDL
