MODEL 1
REMARK minimizedAffinity 25.6256847
REMARK minimizedRMSD -1
REMARK  0 active torsions:
REMARK  status: ('A' for Active; 'I' for Inactive)
ROOT
ATOM      1  C4' PXY d   1       1.395  -1.815  -2.590  0.00  0.00     0.077 C 
ATOM      2  C1' PXY d   1       2.313   1.695   1.910  0.00  0.00     0.077 C 
ATOM      3  C1  PXY d   1       2.063   0.782   0.726  0.00  0.00    -0.082 A 
ATOM      4  C2  PXY d   1       2.427  -0.488   0.791  0.00  0.00     0.003 A 
ATOM      5  C3  PXY d   1       2.237  -1.320  -0.283  0.00  0.00     0.003 A 
ATOM      6  C4  PXY d   1       1.620  -0.859  -1.415  0.00  0.00    -0.082 A 
ATOM      7  C5  PXY d   1       1.235   0.433  -1.485  0.00  0.00     0.003 A 
ATOM      8  C6  PXY d   1       1.474   1.271  -0.399  0.00  0.00     0.003 A 
ENDROOT
TORSDOF 0
ENDMDL
