MODEL 1
REMARK minimizedAffinity 10.6912088
REMARK minimizedRMSD -1
REMARK  0 active torsions:
REMARK  status: ('A' for Active; 'I' for Inactive)
ROOT
ATOM      1  C4' PXY d   1      -4.239   2.688   1.351  0.00  0.00     0.077 C 
ATOM      2  C1' PXY d   1      -5.313   5.977   5.982  0.00  0.00     0.077 C 
ATOM      3  C1  PXY d   1      -5.021   5.122   4.765  0.00  0.00    -0.082 A 
ATOM      4  C2  PXY d   1      -6.000   4.435   4.197  0.00  0.00     0.003 A 
ATOM      5  C3  PXY d   1      -5.747   3.632   3.115  0.00  0.00     0.003 A 
ATOM      6  C4  PXY d   1      -4.490   3.572   2.576  0.00  0.00    -0.082 A 
ATOM      7  C5  PXY d   1      -3.488   4.278   3.143  0.00  0.00     0.003 A 
ATOM      8  C6  PXY d   1      -3.757   5.055   4.266  0.00  0.00     0.003 A 
ENDROOT
TORSDOF 0
ENDMDL
