MODEL 1
REMARK minimizedAffinity 5.47346258
REMARK minimizedRMSD -1
REMARK  0 active torsions:
REMARK  status: ('A' for Active; 'I' for Inactive)
ROOT
ATOM      1  C4' PXY d   1      -5.992   5.997   5.998  0.00  0.00     0.077 C 
ATOM      2  C1' PXY d   1      -4.298   3.436   1.101  0.00  0.00     0.077 C 
ATOM      3  C1  PXY d   1      -4.731   4.115   2.385  0.00  0.00    -0.082 A 
ATOM      4  C2  PXY d   1      -5.569   3.496   3.201  0.00  0.00     0.003 A 
ATOM      5  C3  PXY d   1      -5.997   4.109   4.351  0.00  0.00     0.003 A 
ATOM      6  C4  PXY d   1      -5.520   5.346   4.696  0.00  0.00    -0.082 A 
ATOM      7  C5  PXY d   1      -4.657   5.978   3.873  0.00  0.00     0.003 A 
ATOM      8  C6  PXY d   1      -4.267   5.357   2.691  0.00  0.00     0.003 A 
ENDROOT
TORSDOF 0
ENDMDL
