MODEL 1
REMARK minimizedAffinity 18.884201
REMARK minimizedRMSD -1
REMARK  0 active torsions:
REMARK  status: ('A' for Active; 'I' for Inactive)
ROOT
ATOM      1  C4' PXY d   1      -2.082  -4.274   5.999  0.00  0.00     0.077 C 
ATOM      2  C1' PXY d   1       2.111  -2.701   2.344  0.00  0.00     0.077 C 
ATOM      3  C1  PXY d   1       1.020  -3.115   3.312  0.00  0.00    -0.082 A 
ATOM      4  C2  PXY d   1      -0.124  -3.588   2.845  0.00  0.00     0.003 A 
ATOM      5  C3  PXY d   1      -1.133  -3.937   3.705  0.00  0.00     0.003 A 
ATOM      6  C4  PXY d   1      -0.949  -3.852   5.059  0.00  0.00    -0.082 A 
ATOM      7  C5  PXY d   1       0.219  -3.381   5.544  0.00  0.00     0.003 A 
ATOM      8  C6  PXY d   1       1.215  -2.993   4.653  0.00  0.00     0.003 A 
ENDROOT
TORSDOF 0
ENDMDL
