MODEL 1
REMARK minimizedAffinity -5.08963299
REMARK minimizedRMSD -1
REMARK  0 active torsions:
REMARK  status: ('A' for Active; 'I' for Inactive)
ROOT
ATOM      1  C   UNL d   1      -1.333  -0.828   2.609  0.00  0.00     0.020 A 
ATOM      2  C1  UNL d   1      -2.236  -0.707   1.554  0.00  0.00     0.020 A 
ATOM      3  C2  UNL d   1      -1.776  -0.385   0.275  0.00  0.00     0.034 A 
ATOM      4  C3  UNL d   1      -0.410  -0.182   0.048  0.00  0.00     0.017 A 
ATOM      5  C4  UNL d   1       0.496  -0.304   1.108  0.00  0.00     0.017 A 
ATOM      6  C5  UNL d   1       0.030  -0.627   2.387  0.00  0.00     0.034 A 
ATOM      7 Cl   UNL d   1       2.196  -0.069   0.906  0.00  0.00    -0.070 Cl
ATOM      8 Cl1  UNL d   1       0.088   0.213  -1.558  0.00  0.00    -0.070 Cl
ENDROOT
TORSDOF 0
ENDMDL
