MODEL 1
REMARK minimizedAffinity -3.10532737
REMARK minimizedRMSD -1
REMARK  0 active torsions:
REMARK  status: ('A' for Active; 'I' for Inactive)
ROOT
ATOM      1  C   UNL d   1       0.875   0.030  -0.053  0.00  0.00     0.020 A 
ATOM      2  C1  UNL d   1       0.108   0.311  -1.182  0.00  0.00     0.020 A 
ATOM      3  C2  UNL d   1      -1.283   0.386  -1.080  0.00  0.00     0.034 A 
ATOM      4  C3  UNL d   1      -1.910   0.180   0.154  0.00  0.00     0.017 A 
ATOM      5  C4  UNL d   1      -1.139  -0.102   1.287  0.00  0.00     0.017 A 
ATOM      6  C5  UNL d   1       0.253  -0.176   1.179  0.00  0.00     0.034 A 
ATOM      7 Cl   UNL d   1      -1.841  -0.368   2.844  0.00  0.00    -0.070 Cl
ATOM      8 Cl1  UNL d   1      -3.634   0.288   0.207  0.00  0.00    -0.070 Cl
ENDROOT
TORSDOF 0
ENDMDL
