MODEL 1
REMARK minimizedAffinity -1.17820024
REMARK minimizedRMSD -1
REMARK  0 active torsions:
REMARK  status: ('A' for Active; 'I' for Inactive)
ROOT
ATOM      1  C   UNL d   1      -0.731   0.211  -1.592  0.00  0.00     0.020 A 
ATOM      2  C1  UNL d   1       0.564  -0.112  -1.186  0.00  0.00     0.020 A 
ATOM      3  C2  UNL d   1       0.895  -0.094   0.171  0.00  0.00     0.034 A 
ATOM      4  C3  UNL d   1      -0.069   0.247   1.126  0.00  0.00     0.017 A 
ATOM      5  C4  UNL d   1      -1.368   0.571   0.718  0.00  0.00     0.017 A 
ATOM      6  C5  UNL d   1      -1.694   0.551  -0.642  0.00  0.00     0.034 A 
ATOM      7 Cl   UNL d   1      -2.612   1.002   1.838  0.00  0.00    -0.070 Cl
ATOM      8 Cl1  UNL d   1       0.410   0.248   2.786  0.00  0.00    -0.070 Cl
ENDROOT
TORSDOF 0
ENDMDL
