MODEL 1
REMARK minimizedAffinity -3.31679106
REMARK minimizedRMSD -1
REMARK  0 active torsions:
REMARK  status: ('A' for Active; 'I' for Inactive)
ROOT
ATOM      1  C   UNL d   1      -0.735  -1.248   3.339  0.00  0.00     0.020 A 
ATOM      2  C1  UNL d   1      -1.986  -1.036   3.917  0.00  0.00     0.020 A 
ATOM      3  C2  UNL d   1      -2.970  -0.335   3.215  0.00  0.00     0.034 A 
ATOM      4  C3  UNL d   1      -2.704   0.156   1.932  0.00  0.00     0.017 A 
ATOM      5  C4  UNL d   1      -1.448  -0.058   1.352  0.00  0.00     0.017 A 
ATOM      6  C5  UNL d   1      -0.467  -0.760   2.059  0.00  0.00     0.034 A 
ATOM      7 Cl   UNL d   1      -1.045   0.517  -0.227  0.00  0.00    -0.070 Cl
ATOM      8 Cl1  UNL d   1      -3.966   1.013   1.122  0.00  0.00    -0.070 Cl
ENDROOT
TORSDOF 0
ENDMDL
