MODEL 1
REMARK minimizedAffinity -1.89701295
REMARK minimizedRMSD -1
REMARK  0 active torsions:
REMARK  status: ('A' for Active; 'I' for Inactive)
ROOT
ATOM      1  C   UNL d   1       0.364  -1.987  -3.806  0.00  0.00     0.020 A 
ATOM      2  C1  UNL d   1      -0.567  -1.801  -2.785  0.00  0.00     0.020 A 
ATOM      3  C2  UNL d   1      -0.351  -0.821  -1.814  0.00  0.00     0.034 A 
ATOM      4  C3  UNL d   1       0.799  -0.024  -1.862  0.00  0.00     0.017 A 
ATOM      5  C4  UNL d   1       1.732  -0.212  -2.887  0.00  0.00     0.017 A 
ATOM      6  C5  UNL d   1       1.511  -1.194  -3.857  0.00  0.00     0.034 A 
ATOM      7 Cl   UNL d   1       3.174   0.733  -3.013  0.00  0.00    -0.070 Cl
ATOM      8 Cl1  UNL d   1       1.001   1.169  -0.628  0.00  0.00    -0.070 Cl
ENDROOT
TORSDOF 0
ENDMDL
