MODEL 1
REMARK minimizedAffinity -2.10370374
REMARK minimizedRMSD -1
REMARK  0 active torsions:
REMARK  status: ('A' for Active; 'I' for Inactive)
ROOT
ATOM      1  C   UNL d   1       1.761   0.075   1.213  0.00  0.00     0.020 A 
ATOM      2  C1  UNL d   1       1.054  -0.104   2.401  0.00  0.00     0.020 A 
ATOM      3  C2  UNL d   1      -0.320   0.141   2.441  0.00  0.00     0.034 A 
ATOM      4  C3  UNL d   1      -0.992   0.566   1.289  0.00  0.00     0.017 A 
ATOM      5  C4  UNL d   1      -0.283   0.746   0.097  0.00  0.00     0.017 A 
ATOM      6  C5  UNL d   1       1.093   0.499   0.063  0.00  0.00     0.034 A 
ATOM      7 Cl   UNL d   1      -1.043   1.268  -1.365  0.00  0.00    -0.070 Cl
ATOM      8 Cl1  UNL d   1      -2.692   0.850   1.410  0.00  0.00    -0.070 Cl
ENDROOT
TORSDOF 0
ENDMDL
