MODEL 1
REMARK minimizedAffinity -4.05317736
REMARK minimizedRMSD -1
REMARK  0 active torsions:
REMARK  status: ('A' for Active; 'I' for Inactive)
ROOT
ATOM      1  C   UNL d   1       1.027   0.058   1.805  0.00  0.00     0.020 A 
ATOM      2  C1  UNL d   1       1.189   0.117   0.421  0.00  0.00     0.020 A 
ATOM      3  C2  UNL d   1       0.111   0.470  -0.394  0.00  0.00     0.034 A 
ATOM      4  C3  UNL d   1      -1.134   0.764   0.174  0.00  0.00     0.017 A 
ATOM      5  C4  UNL d   1      -1.296   0.704   1.563  0.00  0.00     0.017 A 
ATOM      6  C5  UNL d   1      -0.213   0.351   2.374  0.00  0.00     0.034 A 
ATOM      7 Cl   UNL d   1      -2.801   1.054   2.337  0.00  0.00    -0.070 Cl
ATOM      8 Cl1  UNL d   1      -2.423   1.192  -0.894  0.00  0.00    -0.070 Cl
ENDROOT
TORSDOF 0
ENDMDL
