MODEL 1
REMARK minimizedAffinity -2.27941704
REMARK minimizedRMSD -1
REMARK  0 active torsions:
REMARK  status: ('A' for Active; 'I' for Inactive)
ROOT
ATOM      1  C   UNL d   1      -2.348   0.376   1.169  0.00  0.00     0.020 A 
ATOM      2  C1  UNL d   1      -1.693   0.521   2.391  0.00  0.00     0.020 A 
ATOM      3  C2  UNL d   1      -0.299   0.592   2.432  0.00  0.00     0.034 A 
ATOM      4  C3  UNL d   1       0.445   0.518   1.248  0.00  0.00     0.017 A 
ATOM      5  C4  UNL d   1      -0.214   0.373   0.022  0.00  0.00     0.017 A 
ATOM      6  C5  UNL d   1      -1.610   0.303  -0.013  0.00  0.00     0.034 A 
ATOM      7 Cl   UNL d   1       0.635   0.275  -1.480  0.00  0.00    -0.070 Cl
ATOM      8 Cl1  UNL d   1       2.166   0.613   1.373  0.00  0.00    -0.070 Cl
ENDROOT
TORSDOF 0
ENDMDL
