MODEL 1
REMARK minimizedAffinity 1.84422088
REMARK minimizedRMSD -1
REMARK  0 active torsions:
REMARK  status: ('A' for Active; 'I' for Inactive)
ROOT
ATOM      1  C   UNL d   1       1.251   0.244  -0.122  0.00  0.00     0.020 A 
ATOM      2  C1  UNL d   1       1.377   0.554   1.231  0.00  0.00     0.020 A 
ATOM      3  C2  UNL d   1       0.243   0.868   1.983  0.00  0.00     0.034 A 
ATOM      4  C3  UNL d   1      -1.021   0.873   1.383  0.00  0.00     0.017 A 
ATOM      5  C4  UNL d   1      -1.146   0.561   0.025  0.00  0.00     0.017 A 
ATOM      6  C5  UNL d   1      -0.008   0.247  -0.724  0.00  0.00     0.034 A 
ATOM      7 Cl   UNL d   1      -2.673   0.545  -0.786  0.00  0.00    -0.070 Cl
ATOM      8 Cl1  UNL d   1      -2.380   1.270   2.374  0.00  0.00    -0.070 Cl
ENDROOT
TORSDOF 0
ENDMDL
