MODEL 1
REMARK minimizedAffinity -5.46898746
REMARK minimizedRMSD -1
REMARK  0 active torsions:
REMARK  status: ('A' for Active; 'I' for Inactive)
ROOT
ATOM      1  C   UNL d   1      -0.925  -0.090   2.848  0.00  0.00     0.020 A 
ATOM      2  C1  UNL d   1       0.372   0.290   2.505  0.00  0.00     0.020 A 
ATOM      3  C2  UNL d   1       0.761   0.310   1.164  0.00  0.00     0.034 A 
ATOM      4  C3  UNL d   1      -0.147  -0.051   0.162  0.00  0.00     0.017 A 
ATOM      5  C4  UNL d   1      -1.448  -0.432   0.508  0.00  0.00     0.017 A 
ATOM      6  C5  UNL d   1      -1.833  -0.451   1.852  0.00  0.00     0.034 A 
ATOM      7 Cl   UNL d   1      -2.625  -0.891  -0.673  0.00  0.00    -0.070 Cl
ATOM      8 Cl1  UNL d   1       0.403  -0.003  -1.476  0.00  0.00    -0.070 Cl
ENDROOT
TORSDOF 0
ENDMDL
