MODEL 1
REMARK minimizedAffinity -3.91288733
REMARK minimizedRMSD -1
REMARK  0 active torsions:
REMARK  status: ('A' for Active; 'I' for Inactive)
ROOT
ATOM      1  C   UNL d   1      -1.253  -0.017   3.579  0.00  0.00     0.020 A 
ATOM      2  C1  UNL d   1      -2.591   0.214   3.264  0.00  0.00     0.020 A 
ATOM      3  C2  UNL d   1      -2.964   0.460   1.941  0.00  0.00     0.034 A 
ATOM      4  C3  UNL d   1      -1.998   0.476   0.928  0.00  0.00     0.017 A 
ATOM      5  C4  UNL d   1      -0.655   0.244   1.246  0.00  0.00     0.017 A 
ATOM      6  C5  UNL d   1      -0.287  -0.002   2.572  0.00  0.00     0.034 A 
ATOM      7 Cl   UNL d   1       0.594   0.247   0.051  0.00  0.00    -0.070 Cl
ATOM      8 Cl1  UNL d   1      -2.530   0.786  -0.686  0.00  0.00    -0.070 Cl
ENDROOT
TORSDOF 0
ENDMDL
