MODEL 1
REMARK minimizedAffinity 0.831834137
REMARK minimizedRMSD -1
REMARK  0 active torsions:
REMARK  status: ('A' for Active; 'I' for Inactive)
ROOT
ATOM      1  C   UNL d   1      -1.529   0.238  -1.138  0.00  0.00     0.020 A 
ATOM      2  C1  UNL d   1      -0.260   0.208  -1.715  0.00  0.00     0.020 A 
ATOM      3  C2  UNL d   1       0.876   0.243  -0.904  0.00  0.00     0.034 A 
ATOM      4  C3  UNL d   1       0.746   0.308   0.488  0.00  0.00     0.017 A 
ATOM      5  C4  UNL d   1      -0.529   0.339   1.066  0.00  0.00     0.017 A 
ATOM      6  C5  UNL d   1      -1.663   0.304   0.249  0.00  0.00     0.034 A 
ATOM      7 Cl   UNL d   1      -0.769   0.419   2.775  0.00  0.00    -0.070 Cl
ATOM      8 Cl1  UNL d   1       2.194   0.348   1.430  0.00  0.00    -0.070 Cl
ENDROOT
TORSDOF 0
ENDMDL
