MODEL 1
REMARK minimizedAffinity 0.707062304
REMARK minimizedRMSD -1
REMARK  0 active torsions:
REMARK  status: ('A' for Active; 'I' for Inactive)
ROOT
ATOM      1  C   UNL d   1       1.814  -1.980  -3.034  0.00  0.00     0.020 A 
ATOM      2  C1  UNL d   1       0.785  -1.671  -3.923  0.00  0.00     0.020 A 
ATOM      3  C2  UNL d   1      -0.184  -0.729  -3.570  0.00  0.00     0.034 A 
ATOM      4  C3  UNL d   1      -0.126  -0.093  -2.325  0.00  0.00     0.017 A 
ATOM      5  C4  UNL d   1       0.907  -0.404  -1.433  0.00  0.00     0.017 A 
ATOM      6  C5  UNL d   1       1.875  -1.347  -1.792  0.00  0.00     0.034 A 
ATOM      7 Cl   UNL d   1       1.045   0.340   0.121  0.00  0.00    -0.070 Cl
ATOM      8 Cl1  UNL d   1      -1.357   1.062  -1.954  0.00  0.00    -0.070 Cl
ENDROOT
TORSDOF 0
ENDMDL
