MODEL 1
REMARK minimizedAffinity -4.88508606
REMARK minimizedRMSD -1
REMARK  0 active torsions:
REMARK  status: ('A' for Active; 'I' for Inactive)
ROOT
ATOM      1  C   UNL d   1      -1.526  -0.194   2.712  0.00  0.00     0.020 A 
ATOM      2  C1  UNL d   1      -2.370  -0.149   1.602  0.00  0.00     0.020 A 
ATOM      3  C2  UNL d   1      -1.829  -0.055   0.318  0.00  0.00     0.034 A 
ATOM      4  C3  UNL d   1      -0.442  -0.005   0.140  0.00  0.00     0.017 A 
ATOM      5  C4  UNL d   1       0.404  -0.049   1.254  0.00  0.00     0.017 A 
ATOM      6  C5  UNL d   1      -0.143  -0.144   2.538  0.00  0.00     0.034 A 
ATOM      7 Cl   UNL d   1       2.125   0.008   1.114  0.00  0.00    -0.070 Cl
ATOM      8 Cl1  UNL d   1       0.157   0.112  -1.477  0.00  0.00    -0.070 Cl
ENDROOT
TORSDOF 0
ENDMDL
