MODEL 1
REMARK minimizedAffinity -4.02297068
REMARK minimizedRMSD -1
REMARK  0 active torsions:
REMARK  status: ('A' for Active; 'I' for Inactive)
ROOT
ATOM      1  C   UNL d   1       1.167  -0.045   0.695  0.00  0.00     0.020 A 
ATOM      2  C1  UNL d   1       0.844  -0.116   2.050  0.00  0.00     0.020 A 
ATOM      3  C2  UNL d   1      -0.440   0.227   2.480  0.00  0.00     0.034 A 
ATOM      4  C3  UNL d   1      -1.404   0.643   1.556  0.00  0.00     0.017 A 
ATOM      5  C4  UNL d   1      -1.079   0.715   0.196  0.00  0.00     0.017 A 
ATOM      6  C5  UNL d   1       0.208   0.370  -0.229  0.00  0.00     0.034 A 
ATOM      7 Cl   UNL d   1      -2.216   1.219  -1.004  0.00  0.00    -0.070 Cl
ATOM      8 Cl1  UNL d   1      -2.971   1.051   2.159  0.00  0.00    -0.070 Cl
ENDROOT
TORSDOF 0
ENDMDL
