MODEL 1
REMARK minimizedAffinity -0.18270582
REMARK minimizedRMSD -1
REMARK  0 active torsions:
REMARK  status: ('A' for Active; 'I' for Inactive)
ROOT
ATOM      1  C   UNL d   1       1.620   0.323   1.895  0.00  0.00     0.020 A 
ATOM      2  C1  UNL d   1       0.346   0.367   2.460  0.00  0.00     0.020 A 
ATOM      3  C2  UNL d   1      -0.782   0.387   1.636  0.00  0.00     0.034 A 
ATOM      4  C3  UNL d   1      -0.637   0.363   0.244  0.00  0.00     0.017 A 
ATOM      5  C4  UNL d   1       0.642   0.318  -0.321  0.00  0.00     0.017 A 
ATOM      6  C5  UNL d   1       1.768   0.298   0.508  0.00  0.00     0.034 A 
ATOM      7 Cl   UNL d   1       0.900   0.286  -2.030  0.00  0.00    -0.070 Cl
ATOM      8 Cl1  UNL d   1      -2.076   0.390  -0.713  0.00  0.00    -0.070 Cl
ENDROOT
TORSDOF 0
ENDMDL
