MODEL 1
REMARK minimizedAffinity -4.25046921
REMARK minimizedRMSD -1
REMARK  0 active torsions:
REMARK  status: ('A' for Active; 'I' for Inactive)
ROOT
ATOM      1  C   UNL d   1       1.498   0.201   1.389  0.00  0.00     0.020 A 
ATOM      2  C1  UNL d   1       1.442   0.281  -0.001  0.00  0.00     0.020 A 
ATOM      3  C2  UNL d   1       0.228   0.551  -0.637  0.00  0.00     0.034 A 
ATOM      4  C3  UNL d   1      -0.934   0.743   0.119  0.00  0.00     0.017 A 
ATOM      5  C4  UNL d   1      -0.877   0.663   1.515  0.00  0.00     0.017 A 
ATOM      6  C5  UNL d   1       0.341   0.392   2.146  0.00  0.00     0.034 A 
ATOM      7 Cl   UNL d   1      -2.269   0.888   2.514  0.00  0.00    -0.070 Cl
ATOM      8 Cl1  UNL d   1      -2.401   1.074  -0.733  0.00  0.00    -0.070 Cl
ENDROOT
TORSDOF 0
ENDMDL
