MODEL 1
REMARK minimizedAffinity -4.68461084
REMARK minimizedRMSD -1
REMARK  0 active torsions:
REMARK  status: ('A' for Active; 'I' for Inactive)
ROOT
ATOM      1  C   UNL d   1      -3.504   0.788   1.607  0.00  0.00     0.020 A 
ATOM      2  C1  UNL d   1      -2.955   0.638   2.880  0.00  0.00     0.020 A 
ATOM      3  C2  UNL d   1      -1.583   0.421   3.027  0.00  0.00     0.034 A 
ATOM      4  C3  UNL d   1      -0.756   0.353   1.900  0.00  0.00     0.017 A 
ATOM      5  C4  UNL d   1      -1.309   0.503   0.623  0.00  0.00     0.017 A 
ATOM      6  C5  UNL d   1      -2.683   0.721   0.481  0.00  0.00     0.034 A 
ATOM      7 Cl   UNL d   1      -0.352   0.432  -0.815  0.00  0.00    -0.070 Cl
ATOM      8 Cl1  UNL d   1       0.931   0.082   2.156  0.00  0.00    -0.070 Cl
ENDROOT
TORSDOF 0
ENDMDL
