MODEL 1
REMARK minimizedAffinity -3.61313462
REMARK minimizedRMSD -1
REMARK  0 active torsions:
REMARK  status: ('A' for Active; 'I' for Inactive)
ROOT
ATOM      1  C1  DEN d   1       2.991  -0.294   0.949  0.00  0.00     0.130 A 
ATOM      2  C2  DEN d   1       3.457  -1.638   0.620  0.00  0.00    -0.031 A 
ATOM      3  C3  DEN d   1       2.365  -2.341  -0.084  0.00  0.00     0.027 A 
ATOM      4  C4  DEN d   1       0.013  -1.480  -0.698  0.00  0.00     0.027 A 
ATOM      5  C5  DEN d   1      -0.846  -0.406  -0.616  0.00  0.00    -0.003 A 
ATOM      6  C6  DEN d   1      -0.502   0.758   0.017  0.00  0.00     0.001 A 
ATOM      7  C7  DEN d   1       0.751   0.893   0.555  0.00  0.00     0.017 A 
ATOM      8  C8  DEN d   1       1.620  -0.188   0.483  0.00  0.00    -0.094 A 
ATOM      9  C9  DEN d   1       1.257  -1.352  -0.172  0.00  0.00    -0.072 A 
ENDROOT
TORSDOF 0
ENDMDL
