MODEL 1
REMARK minimizedAffinity -6.22131443
REMARK minimizedRMSD -1
REMARK  0 active torsions:
REMARK  status: ('A' for Active; 'I' for Inactive)
ROOT
ATOM      1  C1  DEN d   1      -0.159   1.241  -0.297  0.00  0.00     0.130 A 
ATOM      2  C2  DEN d   1      -1.212   0.284   0.032  0.00  0.00    -0.031 A 
ATOM      3  C3  DEN d   1      -0.577  -0.906   0.631  0.00  0.00     0.027 A 
ATOM      4  C4  DEN d   1       1.922  -1.356   1.085  0.00  0.00     0.027 A 
ATOM      5  C5  DEN d   1       3.195  -0.843   0.966  0.00  0.00    -0.003 A 
ATOM      6  C6  DEN d   1       3.440   0.376   0.392  0.00  0.00     0.001 A 
ATOM      7  C7  DEN d   1       2.392   1.144  -0.045  0.00  0.00     0.017 A 
ATOM      8  C8  DEN d   1       1.107   0.630   0.065  0.00  0.00    -0.094 A 
ATOM      9  C9  DEN d   1       0.879  -0.600   0.660  0.00  0.00    -0.072 A 
ENDROOT
TORSDOF 0
ENDMDL
