MODEL 1
REMARK minimizedAffinity -4.27231646
REMARK minimizedRMSD -1
REMARK  0 active torsions:
REMARK  status: ('A' for Active; 'I' for Inactive)
ROOT
ATOM      1  C1  DEN d   1      -0.743   0.631  -0.075  0.00  0.00     0.130 A 
ATOM      2  C2  DEN d   1      -1.415  -0.250  -1.025  0.00  0.00    -0.031 A 
ATOM      3  C3  DEN d   1      -0.474  -1.327  -1.394  0.00  0.00     0.027 A 
ATOM      4  C4  DEN d   1       1.945  -1.714  -0.586  0.00  0.00     0.027 A 
ATOM      5  C5  DEN d   1       2.954  -1.224   0.213  0.00  0.00    -0.003 A 
ATOM      6  C6  DEN d   1       2.814  -0.071   0.940  0.00  0.00     0.001 A 
ATOM      7  C7  DEN d   1       1.623   0.605   0.918  0.00  0.00     0.017 A 
ATOM      8  C8  DEN d   1       0.604   0.121   0.109  0.00  0.00    -0.094 A 
ATOM      9  C9  DEN d   1       0.760  -1.053  -0.609  0.00  0.00    -0.072 A 
ENDROOT
TORSDOF 0
ENDMDL
