MODEL 1
REMARK minimizedAffinity -6.65855312
REMARK minimizedRMSD -1
REMARK  0 active torsions:
REMARK  status: ('A' for Active; 'I' for Inactive)
ROOT
ATOM      1  C1  DEN d   1      -0.043   1.433  -0.352  0.00  0.00     0.130 A 
ATOM      2  C2  DEN d   1      -0.994   0.343  -0.552  0.00  0.00    -0.031 A 
ATOM      3  C3  DEN d   1      -0.322  -0.921  -0.191  0.00  0.00     0.027 A 
ATOM      4  C4  DEN d   1       2.085  -1.295   0.658  0.00  0.00     0.027 A 
ATOM      5  C5  DEN d   1       3.272  -0.673   0.976  0.00  0.00    -0.003 A 
ATOM      6  C6  DEN d   1       3.447   0.679   0.842  0.00  0.00     0.001 A 
ATOM      7  C7  DEN d   1       2.404   1.460   0.421  0.00  0.00     0.017 A 
ATOM      8  C8  DEN d   1       1.206   0.840   0.092  0.00  0.00    -0.094 A 
ATOM      9  C9  DEN d   1       1.045  -0.527   0.246  0.00  0.00    -0.072 A 
ENDROOT
TORSDOF 0
ENDMDL
