MODEL 1
REMARK minimizedAffinity 1.21210003
REMARK minimizedRMSD -1
REMARK  0 active torsions:
REMARK  status: ('A' for Active; 'I' for Inactive)
ROOT
ATOM      1  C1  DEN d   1       0.695  -1.849  -1.527  0.00  0.00     0.130 A 
ATOM      2  C2  DEN d   1       2.108  -2.140  -1.298  0.00  0.00    -0.031 A 
ATOM      3  C3  DEN d   1       2.640  -1.120  -0.373  0.00  0.00     0.027 A 
ATOM      4  C4  DEN d   1       1.419   0.868   0.726  0.00  0.00     0.027 A 
ATOM      5  C5  DEN d   1       0.216   1.531   0.825  0.00  0.00    -0.003 A 
ATOM      6  C6  DEN d   1      -0.894   1.137   0.126  0.00  0.00     0.001 A 
ATOM      7  C7  DEN d   1      -0.835   0.022  -0.669  0.00  0.00     0.017 A 
ATOM      8  C8  DEN d   1       0.376  -0.646  -0.779  0.00  0.00    -0.094 A 
ATOM      9  C9  DEN d   1       1.484  -0.239  -0.055  0.00  0.00    -0.072 A 
ENDROOT
TORSDOF 0
ENDMDL
