MODEL 1
REMARK minimizedAffinity -5.69695759
REMARK minimizedRMSD -1
REMARK  0 active torsions:
REMARK  status: ('A' for Active; 'I' for Inactive)
ROOT
ATOM      1  C1  DEN d   1       0.085   1.180  -0.122  0.00  0.00     0.130 A 
ATOM      2  C2  DEN d   1      -0.891   0.404  -0.882  0.00  0.00    -0.031 A 
ATOM      3  C3  DEN d   1      -0.473  -1.012  -0.850  0.00  0.00     0.027 A 
ATOM      4  C4  DEN d   1       1.579  -2.072   0.300  0.00  0.00     0.027 A 
ATOM      5  C5  DEN d   1       2.701  -1.812   1.054  0.00  0.00    -0.003 A 
ATOM      6  C6  DEN d   1       3.046  -0.543   1.437  0.00  0.00     0.001 A 
ATOM      7  C7  DEN d   1       2.236   0.510   1.105  0.00  0.00     0.017 A 
ATOM      8  C8  DEN d   1       1.106   0.257   0.339  0.00  0.00    -0.094 A 
ATOM      9  C9  DEN d   1       0.768  -1.034  -0.028  0.00  0.00    -0.072 A 
ENDROOT
TORSDOF 0
ENDMDL
