MODEL 1
REMARK minimizedAffinity -5.22664547
REMARK minimizedRMSD -1
REMARK  0 active torsions:
REMARK  status: ('A' for Active; 'I' for Inactive)
ROOT
ATOM      1  C1  DEN d   1       2.430   0.172   1.197  0.00  0.00     0.130 A 
ATOM      2  C2  DEN d   1       2.768  -1.246   1.287  0.00  0.00    -0.031 A 
ATOM      3  C3  DEN d   1       1.829  -1.994   0.427  0.00  0.00     0.027 A 
ATOM      4  C4  DEN d   1      -0.103  -1.099  -1.030  0.00  0.00     0.027 A 
ATOM      5  C5  DEN d   1      -0.783   0.033  -1.420  0.00  0.00    -0.003 A 
ATOM      6  C6  DEN d   1      -0.464   1.277  -0.943  0.00  0.00     0.001 A 
ATOM      7  C7  DEN d   1       0.591   1.424  -0.082  0.00  0.00     0.017 A 
ATOM      8  C8  DEN d   1       1.277   0.286   0.322  0.00  0.00    -0.094 A 
ATOM      9  C9  DEN d   1       0.948  -0.961  -0.181  0.00  0.00    -0.072 A 
ENDROOT
TORSDOF 0
ENDMDL
