MODEL 1
REMARK minimizedAffinity -3.81443238
REMARK minimizedRMSD -1
REMARK  0 active torsions:
REMARK  status: ('A' for Active; 'I' for Inactive)
ROOT
ATOM      1  C1  DEN d   1      -0.169   1.068   1.419  0.00  0.00     0.130 A 
ATOM      2  C2  DEN d   1      -1.400   1.129   0.636  0.00  0.00    -0.031 A 
ATOM      3  C3  DEN d   1      -1.295   0.141  -0.457  0.00  0.00     0.027 A 
ATOM      4  C4  DEN d   1       0.641  -1.471  -1.007  0.00  0.00     0.027 A 
ATOM      5  C5  DEN d   1       1.903  -1.879  -0.633  0.00  0.00    -0.003 A 
ATOM      6  C6  DEN d   1       2.570  -1.315   0.422  0.00  0.00     0.001 A 
ATOM      7  C7  DEN d   1       1.961  -0.341   1.168  0.00  0.00     0.017 A 
ATOM      8  C8  DEN d   1       0.692   0.081   0.792  0.00  0.00    -0.094 A 
ATOM      9  C9  DEN d   1       0.029  -0.510  -0.270  0.00  0.00    -0.072 A 
ENDROOT
TORSDOF 0
ENDMDL
