MODEL 1
REMARK minimizedAffinity -2.15281796
REMARK minimizedRMSD -1
REMARK  0 active torsions:
REMARK  status: ('A' for Active; 'I' for Inactive)
ROOT
ATOM      1  C1  DEN d   1      -0.283  -0.735  -0.619  0.00  0.00     0.130 A 
ATOM      2  C2  DEN d   1       0.025  -1.997  -1.287  0.00  0.00    -0.031 A 
ATOM      3  C3  DEN d   1       1.395  -2.393  -0.904  0.00  0.00     0.027 A 
ATOM      4  C4  DEN d   1       3.059  -1.185   0.652  0.00  0.00     0.027 A 
ATOM      5  C5  DEN d   1       3.253  -0.073   1.443  0.00  0.00    -0.003 A 
ATOM      6  C6  DEN d   1       2.302   0.904   1.573  0.00  0.00     0.001 A 
ATOM      7  C7  DEN d   1       1.096   0.767   0.938  0.00  0.00     0.017 A 
ATOM      8  C8  DEN d   1       0.896  -0.347   0.134  0.00  0.00    -0.094 A 
ATOM      9  C9  DEN d   1       1.865  -1.330   0.025  0.00  0.00    -0.072 A 
ENDROOT
TORSDOF 0
ENDMDL
