MODEL 1
REMARK minimizedAffinity -1.59844077
REMARK minimizedRMSD -1
REMARK  0 active torsions:
REMARK  status: ('A' for Active; 'I' for Inactive)
ROOT
ATOM      1  C1  DEN d   1       2.418   0.164   0.772  0.00  0.00     0.130 A 
ATOM      2  C2  DEN d   1       2.856  -1.216   0.964  0.00  0.00    -0.031 A 
ATOM      3  C3  DEN d   1       1.755  -2.107   0.548  0.00  0.00     0.027 A 
ATOM      4  C4  DEN d   1      -0.573  -1.489  -0.375  0.00  0.00     0.027 A 
ATOM      5  C5  DEN d   1      -1.408  -0.445  -0.704  0.00  0.00    -0.003 A 
ATOM      6  C6  DEN d   1      -1.043   0.864  -0.535  0.00  0.00     0.001 A 
ATOM      7  C7  DEN d   1       0.208   1.164  -0.064  0.00  0.00     0.017 A 
ATOM      8  C8  DEN d   1       1.053   0.117   0.278  0.00  0.00    -0.094 A 
ATOM      9  C9  DEN d   1       0.670  -1.200   0.088  0.00  0.00    -0.072 A 
ENDROOT
TORSDOF 0
ENDMDL
