MODEL 1
REMARK minimizedAffinity -5.41143751
REMARK minimizedRMSD -1
REMARK  0 active torsions:
REMARK  status: ('A' for Active; 'I' for Inactive)
ROOT
ATOM      1  C1  DEN d   1       0.854  -2.172   0.488  0.00  0.00     0.130 A 
ATOM      2  C2  DEN d   1       2.259  -2.228   0.881  0.00  0.00    -0.031 A 
ATOM      3  C3  DEN d   1       2.758  -0.842   0.988  0.00  0.00     0.027 A 
ATOM      4  C4  DEN d   1       1.497   1.372   0.589  0.00  0.00     0.027 A 
ATOM      5  C5  DEN d   1       0.290   1.926   0.228  0.00  0.00    -0.003 A 
ATOM      6  C6  DEN d   1      -0.796   1.160  -0.103  0.00  0.00     0.001 A 
ATOM      7  C7  DEN d   1      -0.709  -0.206  -0.035  0.00  0.00     0.017 A 
ATOM      8  C8  DEN d   1       0.508  -0.772   0.322  0.00  0.00    -0.094 A 
ATOM      9  C9  DEN d   1       1.590   0.020   0.664  0.00  0.00    -0.072 A 
ENDROOT
TORSDOF 0
ENDMDL
