MODEL 1
REMARK minimizedAffinity -1.61644268
REMARK minimizedRMSD -1
REMARK  0 active torsions:
REMARK  status: ('A' for Active; 'I' for Inactive)
ROOT
ATOM      1  C1  DEN d   1      -0.595   0.017  -0.608  0.00  0.00     0.130 A 
ATOM      2  C2  DEN d   1      -0.693  -1.364  -1.075  0.00  0.00    -0.031 A 
ATOM      3  C3  DEN d   1       0.475  -2.104  -0.558  0.00  0.00     0.027 A 
ATOM      4  C4  DEN d   1       2.414  -1.253   0.915  0.00  0.00     0.027 A 
ATOM      5  C5  DEN d   1       2.938  -0.151   1.554  0.00  0.00    -0.003 A 
ATOM      6  C6  DEN d   1       2.345   1.081   1.489  0.00  0.00     0.001 A 
ATOM      7  C7  DEN d   1       1.166   1.232   0.807  0.00  0.00     0.017 A 
ATOM      8  C8  DEN d   1       0.635   0.127   0.154  0.00  0.00    -0.094 A 
ATOM      9  C9  DEN d   1       1.244  -1.113   0.242  0.00  0.00    -0.072 A 
ENDROOT
TORSDOF 0
ENDMDL
