MODEL 1
REMARK minimizedAffinity 3.00237823
REMARK minimizedRMSD -1
REMARK  0 active torsions:
REMARK  status: ('A' for Active; 'I' for Inactive)
ROOT
ATOM      1  C   UNL d   1      -2.607   5.948  -6.000  0.00  0.00     0.020 A 
ATOM      2  C1  UNL d   1      -1.217   5.855  -5.963  0.00  0.00     0.020 A 
ATOM      3  C2  UNL d   1      -0.599   4.984  -5.063  0.00  0.00     0.034 A 
ATOM      4  C3  UNL d   1      -1.372   4.202  -4.197  0.00  0.00     0.017 A 
ATOM      5  C4  UNL d   1      -2.768   4.297  -4.235  0.00  0.00     0.017 A 
ATOM      6  C5  UNL d   1      -3.381   5.170  -5.137  0.00  0.00     0.034 A 
ATOM      7 Cl   UNL d   1      -3.788   3.364  -3.197  0.00  0.00    -0.070 Cl
ATOM      8 Cl1  UNL d   1      -0.541   3.146  -3.110  0.00  0.00    -0.070 Cl
ENDROOT
TORSDOF 0
ENDMDL
