MODEL 1
REMARK minimizedAffinity -0.771944523
REMARK minimizedRMSD -1
REMARK  0 active torsions:
REMARK  status: ('A' for Active; 'I' for Inactive)
ROOT
ATOM      1  C   UNL d   1      -5.656   4.072  -5.994  0.00  0.00     0.020 A 
ATOM      2  C1  UNL d   1      -5.685   5.404  -5.585  0.00  0.00     0.020 A 
ATOM      3  C2  UNL d   1      -4.553   5.980  -5.003  0.00  0.00     0.034 A 
ATOM      4  C3  UNL d   1      -3.389   5.223  -4.827  0.00  0.00     0.017 A 
ATOM      5  C4  UNL d   1      -3.362   3.886  -5.238  0.00  0.00     0.017 A 
ATOM      6  C5  UNL d   1      -4.497   3.314  -5.821  0.00  0.00     0.034 A 
ATOM      7 Cl   UNL d   1      -1.962   2.888  -5.055  0.00  0.00    -0.070 Cl
ATOM      8 Cl1  UNL d   1      -2.028   6.000  -4.100  0.00  0.00    -0.070 Cl
ENDROOT
TORSDOF 0
ENDMDL
