MODEL 1
REMARK minimizedAffinity 9.91739464
REMARK minimizedRMSD -1
REMARK  0 active torsions:
REMARK  status: ('A' for Active; 'I' for Inactive)
ROOT
ATOM      1  C   UNL d   1      -1.812   3.314   3.804  0.00  0.00     0.020 A 
ATOM      2  C1  UNL d   1      -0.695   3.702   4.542  0.00  0.00     0.020 A 
ATOM      3  C2  UNL d   1       0.587   3.507   4.024  0.00  0.00     0.034 A 
ATOM      4  C3  UNL d   1       0.755   2.923   2.763  0.00  0.00     0.017 A 
ATOM      5  C4  UNL d   1      -0.367   2.533   2.023  0.00  0.00     0.017 A 
ATOM      6  C5  UNL d   1      -1.648   2.731   2.547  0.00  0.00     0.034 A 
ATOM      7 Cl   UNL d   1      -0.240   1.805   0.460  0.00  0.00    -0.070 Cl
ATOM      8 Cl1  UNL d   1       2.369   2.712   2.183  0.00  0.00    -0.070 Cl
ENDROOT
TORSDOF 0
ENDMDL
