MODEL 1
REMARK minimizedAffinity 9.2903223
REMARK minimizedRMSD -1
REMARK  0 active torsions:
REMARK  status: ('A' for Active; 'I' for Inactive)
ROOT
ATOM      1  C   UNL d   1      -1.774   0.064   1.118  0.00  0.00     0.020 A 
ATOM      2  C1  UNL d   1      -2.571   1.207   1.088  0.00  0.00     0.020 A 
ATOM      3  C2  UNL d   1      -2.061   2.400   0.570  0.00  0.00     0.034 A 
ATOM      4  C3  UNL d   1      -0.751   2.451   0.080  0.00  0.00     0.017 A 
ATOM      5  C4  UNL d   1       0.048   1.303   0.111  0.00  0.00     0.017 A 
ATOM      6  C5  UNL d   1      -0.467   0.111   0.630  0.00  0.00     0.034 A 
ATOM      7 Cl   UNL d   1       1.674   1.288  -0.476  0.00  0.00    -0.070 Cl
ATOM      8 Cl1  UNL d   1      -0.186   3.959  -0.547  0.00  0.00    -0.070 Cl
ENDROOT
TORSDOF 0
ENDMDL
