MODEL 1
REMARK minimizedAffinity 2.73301363
REMARK minimizedRMSD -1
REMARK  0 active torsions:
REMARK  status: ('A' for Active; 'I' for Inactive)
ROOT
ATOM      1  C   UNL d   1      -2.806   5.999  -4.119  0.00  0.00     0.020 A 
ATOM      2  C1  UNL d   1      -3.060   5.636  -5.441  0.00  0.00     0.020 A 
ATOM      3  C2  UNL d   1      -2.410   4.534  -6.000  0.00  0.00     0.034 A 
ATOM      4  C3  UNL d   1      -1.503   3.790  -5.236  0.00  0.00     0.017 A 
ATOM      5  C4  UNL d   1      -1.248   4.155  -3.909  0.00  0.00     0.017 A 
ATOM      6  C5  UNL d   1      -1.902   5.260  -3.355  0.00  0.00     0.034 A 
ATOM      7 Cl   UNL d   1      -0.142   3.287  -2.905  0.00  0.00    -0.070 Cl
ATOM      8 Cl1  UNL d   1      -0.735   2.439  -5.992  0.00  0.00    -0.070 Cl
ENDROOT
TORSDOF 0
ENDMDL
