MODEL 1
REMARK minimizedAffinity 10.5419188
REMARK minimizedRMSD -1
REMARK  0 active torsions:
REMARK  status: ('A' for Active; 'I' for Inactive)
ROOT
ATOM      1  C   UNL d   1      -0.762  -2.205  -1.383  0.00  0.00     0.020 A 
ATOM      2  C1  UNL d   1      -1.877  -2.204  -0.546  0.00  0.00     0.020 A 
ATOM      3  C2  UNL d   1      -2.590  -3.385  -0.331  0.00  0.00     0.034 A 
ATOM      4  C3  UNL d   1      -2.189  -4.573  -0.953  0.00  0.00     0.017 A 
ATOM      5  C4  UNL d   1      -1.069  -4.573  -1.793  0.00  0.00     0.017 A 
ATOM      6  C5  UNL d   1      -0.359  -3.387  -2.005  0.00  0.00     0.034 A 
ATOM      7 Cl   UNL d   1      -0.513  -5.999  -2.596  0.00  0.00    -0.070 Cl
ATOM      8 Cl1  UNL d   1      -3.117  -5.997  -0.642  0.00  0.00    -0.070 Cl
ENDROOT
TORSDOF 0
ENDMDL
