MODEL 1
REMARK minimizedAffinity 7.61237335
REMARK minimizedRMSD -1
REMARK  0 active torsions:
REMARK  status: ('A' for Active; 'I' for Inactive)
ROOT
ATOM      1  C   UNL d   1      -2.964   0.802   0.737  0.00  0.00     0.020 A 
ATOM      2  C1  UNL d   1      -2.147  -0.290   1.027  0.00  0.00     0.020 A 
ATOM      3  C2  UNL d   1      -0.763  -0.186   0.871  0.00  0.00     0.034 A 
ATOM      4  C3  UNL d   1      -0.192   1.012   0.425  0.00  0.00     0.017 A 
ATOM      5  C4  UNL d   1      -1.014   2.107   0.134  0.00  0.00     0.017 A 
ATOM      6  C5  UNL d   1      -2.399   1.997   0.292  0.00  0.00     0.034 A 
ATOM      7 Cl   UNL d   1      -0.384   3.617  -0.421  0.00  0.00    -0.070 Cl
ATOM      8 Cl1  UNL d   1       1.526   1.069   0.255  0.00  0.00    -0.070 Cl
ENDROOT
TORSDOF 0
ENDMDL
