MODEL 1
REMARK minimizedAffinity 7.39623308
REMARK minimizedRMSD -1
REMARK  0 active torsions:
REMARK  status: ('A' for Active; 'I' for Inactive)
ROOT
ATOM      1  C   UNL d   1      -3.506   4.794  -5.932  0.00  0.00     0.020 A 
ATOM      2  C1  UNL d   1      -2.490   5.749  -5.930  0.00  0.00     0.020 A 
ATOM      3  C2  UNL d   1      -1.153   5.346  -5.950  0.00  0.00     0.034 A 
ATOM      4  C3  UNL d   1      -0.829   3.984  -5.972  0.00  0.00     0.017 A 
ATOM      5  C4  UNL d   1      -1.850   3.027  -5.973  0.00  0.00     0.017 A 
ATOM      6  C5  UNL d   1      -3.187   3.436  -5.953  0.00  0.00     0.034 A 
ATOM      7 Cl   UNL d   1      -1.528   1.329  -6.000  0.00  0.00    -0.070 Cl
ATOM      8 Cl1  UNL d   1       0.845   3.557  -5.997  0.00  0.00    -0.070 Cl
ENDROOT
TORSDOF 0
ENDMDL
