MODEL 1
REMARK minimizedAffinity 0.288166374
REMARK minimizedRMSD -1
REMARK  0 active torsions:
REMARK  status: ('A' for Active; 'I' for Inactive)
ROOT
ATOM      1  C   UNL d   1      -1.810   4.987  -5.982  0.00  0.00     0.020 A 
ATOM      2  C1  UNL d   1      -1.839   3.594  -5.959  0.00  0.00     0.020 A 
ATOM      3  C2  UNL d   1      -3.063   2.921  -5.947  0.00  0.00     0.034 A 
ATOM      4  C3  UNL d   1      -4.262   3.641  -5.958  0.00  0.00     0.017 A 
ATOM      5  C4  UNL d   1      -4.233   5.040  -5.981  0.00  0.00     0.017 A 
ATOM      6  C5  UNL d   1      -3.005   5.709  -5.993  0.00  0.00     0.034 A 
ATOM      7 Cl   UNL d   1      -5.671   5.998  -5.996  0.00  0.00    -0.070 Cl
ATOM      8 Cl1  UNL d   1      -5.739   2.744  -5.942  0.00  0.00    -0.070 Cl
ENDROOT
TORSDOF 0
ENDMDL
