MODEL 1
REMARK minimizedAffinity 2.24329901
REMARK minimizedRMSD -1
REMARK  0 active torsions:
REMARK  status: ('A' for Active; 'I' for Inactive)
ROOT
ATOM      1  C   UNL d   1      -5.792   3.306  -5.938  0.00  0.00     0.020 A 
ATOM      2  C1  UNL d   1      -5.927   4.694  -5.921  0.00  0.00     0.020 A 
ATOM      3  C2  UNL d   1      -4.791   5.506  -5.928  0.00  0.00     0.034 A 
ATOM      4  C3  UNL d   1      -3.515   4.932  -5.952  0.00  0.00     0.017 A 
ATOM      5  C4  UNL d   1      -3.380   3.539  -5.970  0.00  0.00     0.017 A 
ATOM      6  C5  UNL d   1      -4.521   2.730  -5.962  0.00  0.00     0.034 A 
ATOM      7 Cl   UNL d   1      -1.839   2.757  -6.000  0.00  0.00    -0.070 Cl
ATOM      8 Cl1  UNL d   1      -2.154   5.997  -5.960  0.00  0.00    -0.070 Cl
ENDROOT
TORSDOF 0
ENDMDL
