MODEL 1
REMARK minimizedAffinity 7.34239054
REMARK minimizedRMSD -1
REMARK  0 active torsions:
REMARK  status: ('A' for Active; 'I' for Inactive)
ROOT
ATOM      1  C   UNL d   1      -1.515  -0.385   1.746  0.00  0.00     0.020 A 
ATOM      2  C1  UNL d   1      -2.460   0.625   1.572  0.00  0.00     0.020 A 
ATOM      3  C2  UNL d   1      -2.167   1.723   0.761  0.00  0.00     0.034 A 
ATOM      4  C3  UNL d   1      -0.926   1.814   0.120  0.00  0.00     0.017 A 
ATOM      5  C4  UNL d   1       0.022   0.799   0.294  0.00  0.00     0.017 A 
ATOM      6  C5  UNL d   1      -0.277  -0.298   1.108  0.00  0.00     0.034 A 
ATOM      7 Cl   UNL d   1       1.574   0.841  -0.464  0.00  0.00    -0.070 Cl
ATOM      8 Cl1  UNL d   1      -0.632   3.199  -0.870  0.00  0.00    -0.070 Cl
ENDROOT
TORSDOF 0
ENDMDL
