MODEL 1
REMARK minimizedAffinity 15.3208876
REMARK minimizedRMSD -1
REMARK  0 active torsions:
REMARK  status: ('A' for Active; 'I' for Inactive)
ROOT
ATOM      1  C   UNL d   1       0.875   2.030  -0.645  0.00  0.00     0.020 A 
ATOM      2  C1  UNL d   1       1.508   0.788  -0.625  0.00  0.00     0.020 A 
ATOM      3  C2  UNL d   1       0.847  -0.324  -0.099  0.00  0.00     0.034 A 
ATOM      4  C3  UNL d   1      -0.451  -0.196   0.409  0.00  0.00     0.017 A 
ATOM      5  C4  UNL d   1      -1.086   1.051   0.388  0.00  0.00     0.017 A 
ATOM      6  C5  UNL d   1      -0.419   2.161  -0.140  0.00  0.00     0.034 A 
ATOM      7 Cl   UNL d   1      -2.686   1.287   0.997  0.00  0.00    -0.070 Cl
ATOM      8 Cl1  UNL d   1      -1.209  -1.613   1.044  0.00  0.00    -0.070 Cl
ENDROOT
TORSDOF 0
ENDMDL
