MODEL 1
REMARK minimizedAffinity 6.89393425
REMARK minimizedRMSD -1
REMARK  0 active torsions:
REMARK  status: ('A' for Active; 'I' for Inactive)
ROOT
ATOM      1  C   UNL d   1      -5.011   5.154  -5.966  0.00  0.00     0.020 A 
ATOM      2  C1  UNL d   1      -5.042   3.760  -5.968  0.00  0.00     0.020 A 
ATOM      3  C2  UNL d   1      -3.849   3.035  -5.979  0.00  0.00     0.034 A 
ATOM      4  C3  UNL d   1      -2.619   3.704  -5.987  0.00  0.00     0.017 A 
ATOM      5  C4  UNL d   1      -2.588   5.103  -5.984  0.00  0.00     0.017 A 
ATOM      6  C5  UNL d   1      -3.786   5.824  -5.974  0.00  0.00     0.034 A 
ATOM      7 Cl   UNL d   1      -1.110   5.998  -5.994  0.00  0.00    -0.070 Cl
ATOM      8 Cl1  UNL d   1      -1.183   2.743  -5.999  0.00  0.00    -0.070 Cl
ENDROOT
TORSDOF 0
ENDMDL
