MODEL 1
REMARK minimizedAffinity 3.35512471
REMARK minimizedRMSD -1
REMARK  0 active torsions:
REMARK  status: ('A' for Active; 'I' for Inactive)
ROOT
ATOM      1  C   UNL d   1      -3.851   3.580  -6.000  0.00  0.00     0.020 A 
ATOM      2  C1  UNL d   1      -3.289   2.304  -5.999  0.00  0.00     0.020 A 
ATOM      3  C2  UNL d   1      -1.901   2.154  -5.998  0.00  0.00     0.034 A 
ATOM      4  C3  UNL d   1      -1.070   3.280  -5.997  0.00  0.00     0.017 A 
ATOM      5  C4  UNL d   1      -1.636   4.560  -5.998  0.00  0.00     0.017 A 
ATOM      6  C5  UNL d   1      -3.027   4.706  -5.999  0.00  0.00     0.034 A 
ATOM      7 Cl   UNL d   1      -0.676   5.998  -5.996  0.00  0.00    -0.070 Cl
ATOM      8 Cl1  UNL d   1       0.638   3.020  -5.995  0.00  0.00    -0.070 Cl
ENDROOT
TORSDOF 0
ENDMDL
