MODEL 1
REMARK minimizedAffinity 0.736482322
REMARK minimizedRMSD -1
REMARK  0 active torsions:
REMARK  status: ('A' for Active; 'I' for Inactive)
ROOT
ATOM      1  C   UNL d   1      -4.071   4.993  -5.988  0.00  0.00     0.020 A 
ATOM      2  C1  UNL d   1      -3.102   5.995  -5.957  0.00  0.00     0.020 A 
ATOM      3  C2  UNL d   1      -1.748   5.656  -5.939  0.00  0.00     0.034 A 
ATOM      4  C3  UNL d   1      -1.359   4.312  -5.951  0.00  0.00     0.017 A 
ATOM      5  C4  UNL d   1      -2.332   3.307  -5.981  0.00  0.00     0.017 A 
ATOM      6  C5  UNL d   1      -3.687   3.652  -6.000  0.00  0.00     0.034 A 
ATOM      7 Cl   UNL d   1      -1.929   1.626  -5.997  0.00  0.00    -0.070 Cl
ATOM      8 Cl1  UNL d   1       0.334   3.965  -5.927  0.00  0.00    -0.070 Cl
ENDROOT
TORSDOF 0
ENDMDL
