MODEL 1
REMARK minimizedAffinity 7.8918643
REMARK minimizedRMSD -1
REMARK  0 active torsions:
REMARK  status: ('A' for Active; 'I' for Inactive)
ROOT
ATOM      1  C   UNL d   1      -4.071  -5.973  -0.180  0.00  0.00     0.020 A 
ATOM      2  C1  UNL d   1      -4.644  -4.754   0.179  0.00  0.00     0.020 A 
ATOM      3  C2  UNL d   1      -3.980  -3.559  -0.109  0.00  0.00     0.034 A 
ATOM      4  C3  UNL d   1      -2.739  -3.582  -0.756  0.00  0.00     0.017 A 
ATOM      5  C4  UNL d   1      -2.166  -4.807  -1.116  0.00  0.00     0.017 A 
ATOM      6  C5  UNL d   1      -2.835  -6.000  -0.826  0.00  0.00     0.034 A 
ATOM      7 Cl   UNL d   1      -0.638  -4.915  -1.917  0.00  0.00    -0.070 Cl
ATOM      8 Cl1  UNL d   1      -1.975  -2.067  -1.081  0.00  0.00    -0.070 Cl
ENDROOT
TORSDOF 0
ENDMDL
