MODEL 1
REMARK minimizedAffinity 4.5503211
REMARK minimizedRMSD -1
REMARK  0 active torsions:
REMARK  status: ('A' for Active; 'I' for Inactive)
ROOT
ATOM      1  C   UNL d   1      -2.018   0.601   1.124  0.00  0.00     0.020 A 
ATOM      2  C1  UNL d   1      -1.184  -0.516   1.116  0.00  0.00     0.020 A 
ATOM      3  C2  UNL d   1       0.125  -0.406   0.641  0.00  0.00     0.034 A 
ATOM      4  C3  UNL d   1       0.603   0.823   0.171  0.00  0.00     0.017 A 
ATOM      5  C4  UNL d   1      -0.236   1.943   0.180  0.00  0.00     0.017 A 
ATOM      6  C5  UNL d   1      -1.545   1.828   0.657  0.00  0.00     0.034 A 
ATOM      7 Cl   UNL d   1       0.283   3.493  -0.383  0.00  0.00    -0.070 Cl
ATOM      8 Cl1  UNL d   1       2.231   0.885  -0.402  0.00  0.00    -0.070 Cl
ENDROOT
TORSDOF 0
ENDMDL
