MODEL 1
REMARK minimizedAffinity 4.52345037
REMARK minimizedRMSD -1
REMARK  0 active torsions:
REMARK  status: ('A' for Active; 'I' for Inactive)
ROOT
ATOM      1  C   UNL d   1      -2.488   4.274  -5.995  0.00  0.00     0.020 A 
ATOM      2  C1  UNL d   1      -2.822   2.920  -5.999  0.00  0.00     0.020 A 
ATOM      3  C2  UNL d   1      -1.814   1.953  -6.000  0.00  0.00     0.034 A 
ATOM      4  C3  UNL d   1      -0.469   2.338  -5.997  0.00  0.00     0.017 A 
ATOM      5  C4  UNL d   1      -0.135   3.697  -5.993  0.00  0.00     0.017 A 
ATOM      6  C5  UNL d   1      -1.148   4.662  -5.992  0.00  0.00     0.034 A 
ATOM      7 Cl   UNL d   1       1.502   4.250  -5.988  0.00  0.00    -0.070 Cl
ATOM      8 Cl1  UNL d   1       0.725   1.089  -5.998  0.00  0.00    -0.070 Cl
ENDROOT
TORSDOF 0
ENDMDL
