MODEL 1
REMARK minimizedAffinity 11.1650209
REMARK minimizedRMSD -1
REMARK  0 active torsions:
REMARK  status: ('A' for Active; 'I' for Inactive)
ROOT
ATOM      1  C   UNL d   1      -0.349  -1.031   0.613  0.00  0.00     0.020 A 
ATOM      2  C1  UNL d   1      -1.492  -0.235   0.679  0.00  0.00     0.020 A 
ATOM      3  C2  UNL d   1      -1.403   1.137   0.434  0.00  0.00     0.034 A 
ATOM      4  C3  UNL d   1      -0.168   1.717   0.122  0.00  0.00     0.017 A 
ATOM      5  C4  UNL d   1       0.979   0.917   0.056  0.00  0.00     0.017 A 
ATOM      6  C5  UNL d   1       0.884  -0.456   0.302  0.00  0.00     0.034 A 
ATOM      7 Cl   UNL d   1       2.537   1.561  -0.324  0.00  0.00    -0.070 Cl
ATOM      8 Cl1  UNL d   1      -0.131   3.420  -0.170  0.00  0.00    -0.070 Cl
ENDROOT
TORSDOF 0
ENDMDL
