MODEL 1
REMARK minimizedAffinity -4.5038619
REMARK minimizedRMSD -1
REMARK  3 active torsions:
REMARK  status: ('A' for Active; 'I' for Inactive)
REMARK    1  A    between atoms: C3'_2  and  C2'_3 
REMARK    2  A    between atoms: C2'_3  and  C1'_4 
REMARK    3  A    between atoms: C1'_4  and  C1_5 
ROOT
ATOM      1  C1  N4B d   1      -0.468   0.296   0.648  0.00  0.00    -0.075 A 
ATOM      2  C2  N4B d   1       0.242   0.616   1.826  0.00  0.00     0.002 A 
ATOM      3  C3  N4B d   1      -0.180   1.652   2.622  0.00  0.00     0.002 A 
ATOM      4  C4  N4B d   1      -1.295   2.390   2.253  0.00  0.00    -0.004 A 
ATOM      5  C5  N4B d   1      -1.990   2.058   1.128  0.00  0.00     0.002 A 
ATOM      6  C6  N4B d   1      -1.579   1.017   0.320  0.00  0.00     0.002 A 
ENDROOT
BRANCH   1   7
ATOM      7  C1' N4B d   1       0.005  -0.773  -0.299  0.00  0.00     0.057 C 
BRANCH   7   8
ATOM      8  C2' N4B d   1      -0.983  -1.935  -0.278  0.00  0.00     0.009 C 
BRANCH   8   9
ATOM      9  C3' N4B d   1      -0.526  -3.086  -1.157  0.00  0.00     0.004 C 
ATOM     10  C4' N4B d   1      -1.489  -3.388  -2.266  0.00  0.00     0.003 C 
ENDBRANCH   8   9
ENDBRANCH   7   8
ENDBRANCH   1   7
TORSDOF 3
ENDMDL
