MODEL 1
REMARK minimizedAffinity 8.33701515
REMARK minimizedRMSD -1
REMARK  0 active torsions:
REMARK  status: ('A' for Active; 'I' for Inactive)
ROOT
ATOM      1  C   UNL d   1       4.590   2.896   5.999  0.00  0.00    -0.002 A 
ATOM      2  C1  UNL d   1       5.204   4.139   5.932  0.00  0.00     0.010 A 
ATOM      3  C2  UNL d   1       5.669   4.637   4.714  0.00  0.00     0.041 A 
ATOM      4  C3  UNL d   1       5.505   3.858   3.552  0.00  0.00    -0.075 A 
ATOM      5  S   UNL d   1       5.995   4.264   1.950  0.00  0.00     0.015 SA
ATOM      6  C4  UNL d   1       5.401   2.798   1.316  0.00  0.00     0.022 A 
ATOM      7  C5  UNL d   1       4.839   2.006   2.289  0.00  0.00     0.026 A 
ATOM      8  C6  UNL d   1       4.889   2.603   3.593  0.00  0.00    -0.082 A 
ATOM      9  C7  UNL d   1       4.428   2.126   4.844  0.00  0.00     0.045 A 
ENDROOT
TORSDOF 0
ENDMDL
