MODEL 1
REMARK minimizedAffinity 3.15103722
REMARK minimizedRMSD -1
REMARK  0 active torsions:
REMARK  status: ('A' for Active; 'I' for Inactive)
ROOT
ATOM      1  C   UNL d   1       2.112   1.722   5.447  0.00  0.00    -0.002 A 
ATOM      2  C1  UNL d   1       3.334   1.173   5.809  0.00  0.00     0.010 A 
ATOM      3  C2  UNL d   1       4.451   1.990   5.999  0.00  0.00     0.041 A 
ATOM      4  C3  UNL d   1       4.316   3.381   5.820  0.00  0.00    -0.075 A 
ATOM      5  S   UNL d   1       5.546   4.575   6.000  0.00  0.00     0.015 SA
ATOM      6  C4  UNL d   1       4.478   5.842   5.602  0.00  0.00     0.022 A 
ATOM      7  C5  UNL d   1       3.210   5.383   5.335  0.00  0.00     0.026 A 
ATOM      8  C6  UNL d   1       3.096   3.957   5.457  0.00  0.00    -0.082 A 
ATOM      9  C7  UNL d   1       1.982   3.102   5.271  0.00  0.00     0.045 A 
ENDROOT
TORSDOF 0
ENDMDL
