MODEL 1
REMARK minimizedAffinity 5.43704748
REMARK minimizedRMSD -1
REMARK  0 active torsions:
REMARK  status: ('A' for Active; 'I' for Inactive)
ROOT
ATOM      1  C   UNL d   1       5.998   5.287   5.616  0.00  0.00    -0.002 A 
ATOM      2  C1  UNL d   1       4.853   6.000   5.942  0.00  0.00     0.010 A 
ATOM      3  C2  UNL d   1       3.611   5.363   5.997  0.00  0.00     0.041 A 
ATOM      4  C3  UNL d   1       3.540   3.983   5.720  0.00  0.00    -0.075 A 
ATOM      5  S   UNL d   1       2.129   2.993   5.728  0.00  0.00     0.015 SA
ATOM      6  C4  UNL d   1       3.013   1.600   5.301  0.00  0.00     0.022 A 
ATOM      7  C5  UNL d   1       4.354   1.866   5.151  0.00  0.00     0.026 A 
ATOM      8  C6  UNL d   1       4.680   3.244   5.390  0.00  0.00    -0.082 A 
ATOM      9  C7  UNL d   1       5.923   3.919   5.341  0.00  0.00     0.045 A 
ENDROOT
TORSDOF 0
ENDMDL
