MODEL 1
REMARK minimizedAffinity -1.62295282
REMARK minimizedRMSD -1
REMARK  0 active torsions:
REMARK  status: ('A' for Active; 'I' for Inactive)
ROOT
ATOM      1  C   UNL d   1       2.590   1.843   4.576  0.00  0.00    -0.002 A 
ATOM      2  C1  UNL d   1       3.523   1.409   5.507  0.00  0.00     0.010 A 
ATOM      3  C2  UNL d   1       4.495   2.283   5.999  0.00  0.00     0.041 A 
ATOM      4  C3  UNL d   1       4.512   3.614   5.536  0.00  0.00    -0.075 A 
ATOM      5  S   UNL d   1       5.608   4.861   5.999  0.00  0.00     0.015 SA
ATOM      6  C4  UNL d   1       4.864   5.999   4.972  0.00  0.00     0.022 A 
ATOM      7  C5  UNL d   1       3.803   5.458   4.285  0.00  0.00     0.026 A 
ATOM      8  C6  UNL d   1       3.582   4.074   4.599  0.00  0.00    -0.082 A 
ATOM      9  C7  UNL d   1       2.611   3.163   4.119  0.00  0.00     0.045 A 
ENDROOT
TORSDOF 0
ENDMDL
