MODEL 1
REMARK minimizedAffinity -3.00226045
REMARK minimizedRMSD -1
REMARK  0 active torsions:
REMARK  status: ('A' for Active; 'I' for Inactive)
ROOT
ATOM      1  C   UNL d   1       3.786   1.620   5.035  0.00  0.00    -0.002 A 
ATOM      2  C1  UNL d   1       2.997   2.208   4.058  0.00  0.00     0.010 A 
ATOM      3  C2  UNL d   1       3.139   3.563   3.750  0.00  0.00     0.041 A 
ATOM      4  C3  UNL d   1       4.099   4.323   4.446  0.00  0.00    -0.075 A 
ATOM      5  S   UNL d   1       4.450   5.998   4.237  0.00  0.00     0.015 SA
ATOM      6  C4  UNL d   1       5.657   5.971   5.440  0.00  0.00     0.022 A 
ATOM      7  C5  UNL d   1       5.802   4.723   5.998  0.00  0.00     0.026 A 
ATOM      8  C6  UNL d   1       4.907   3.752   5.434  0.00  0.00    -0.082 A 
ATOM      9  C7  UNL d   1       4.738   2.377   5.724  0.00  0.00     0.045 A 
ENDROOT
TORSDOF 0
ENDMDL
