MODEL 1
REMARK minimizedAffinity 7.50573587
REMARK minimizedRMSD -1
REMARK  0 active torsions:
REMARK  status: ('A' for Active; 'I' for Inactive)
ROOT
ATOM      1  C   UNL d   1       5.348   3.947   4.141  0.00  0.00    -0.002 A 
ATOM      2  C1  UNL d   1       4.923   5.246   4.383  0.00  0.00     0.010 A 
ATOM      3  C2  UNL d   1       3.674   5.489   4.957  0.00  0.00     0.041 A 
ATOM      4  C3  UNL d   1       2.851   4.394   5.288  0.00  0.00    -0.075 A 
ATOM      5  S   UNL d   1       1.282   4.451   5.999  0.00  0.00     0.015 SA
ATOM      6  C4  UNL d   1       1.139   2.752   6.000  0.00  0.00     0.022 A 
ATOM      7  C5  UNL d   1       2.252   2.141   5.473  0.00  0.00     0.026 A 
ATOM      8  C6  UNL d   1       3.257   3.077   5.054  0.00  0.00    -0.082 A 
ATOM      9  C7  UNL d   1       4.529   2.863   4.471  0.00  0.00     0.045 A 
ENDROOT
TORSDOF 0
ENDMDL
