MODEL 1
REMARK minimizedAffinity -2.13576341
REMARK minimizedRMSD -1
REMARK  0 active torsions:
REMARK  status: ('A' for Active; 'I' for Inactive)
ROOT
ATOM      1  C   UNL d   1       2.987   1.503   5.636  0.00  0.00    -0.002 A 
ATOM      2  C1  UNL d   1       1.776   2.087   5.977  0.00  0.00     0.010 A 
ATOM      3  C2  UNL d   1       1.638   3.476   6.000  0.00  0.00     0.041 A 
ATOM      4  C3  UNL d   1       2.750   4.276   5.669  0.00  0.00    -0.075 A 
ATOM      5  S   UNL d   1       2.815   5.999   5.628  0.00  0.00     0.015 SA
ATOM      6  C4  UNL d   1       4.453   6.000   5.156  0.00  0.00     0.022 A 
ATOM      7  C5  UNL d   1       4.953   4.726   5.029  0.00  0.00     0.026 A 
ATOM      8  C6  UNL d   1       3.980   3.711   5.321  0.00  0.00    -0.082 A 
ATOM      9  C7  UNL d   1       4.088   2.300   5.308  0.00  0.00     0.045 A 
ENDROOT
TORSDOF 0
ENDMDL
