MODEL 1
REMARK minimizedAffinity 3.33489633
REMARK minimizedRMSD -1
REMARK  0 active torsions:
REMARK  status: ('A' for Active; 'I' for Inactive)
ROOT
ATOM      1  C2' OXE d   1       3.791   1.876   1.433  0.00  0.00     0.078 C 
ATOM      2  C1' OXE d   1       5.299   3.658   2.992  0.00  0.00     0.078 C 
ATOM      3  C1  OXE d   1       5.268   2.210   3.411  0.00  0.00    -0.078 A 
ATOM      4  C2  OXE d   1       4.490   1.354   2.670  0.00  0.00    -0.078 A 
ATOM      5  C3  OXE d   1       4.469  -0.003   2.981  0.00  0.00     0.003 A 
ATOM      6  C4  OXE d   1       5.110  -0.476   4.132  0.00  0.00    -0.002 A 
ATOM      7  C5  OXE d   1       5.876   0.386   4.923  0.00  0.00    -0.002 A 
ATOM      8  C6  OXE d   1       6.000   1.721   4.554  0.00  0.00     0.003 A 
ENDROOT
TORSDOF 0
ENDMDL
