MODEL 1
REMARK minimizedAffinity -2.00397801
REMARK minimizedRMSD -1
REMARK  0 active torsions:
REMARK  status: ('A' for Active; 'I' for Inactive)
ROOT
ATOM      1  C2' OXE d   1       5.980   3.453   2.399  0.00  0.00     0.078 C 
ATOM      2  C1' OXE d   1       6.000   4.535   4.989  0.00  0.00     0.078 C 
ATOM      3  C1  OXE d   1       5.973   3.033   4.854  0.00  0.00    -0.078 A 
ATOM      4  C2  OXE d   1       5.916   2.513   3.583  0.00  0.00    -0.078 A 
ATOM      5  C3  OXE d   1       5.945   1.134   3.401  0.00  0.00     0.003 A 
ATOM      6  C4  OXE d   1       5.876   0.271   4.502  0.00  0.00    -0.002 A 
ATOM      7  C5  OXE d   1       5.893   0.781   5.805  0.00  0.00    -0.002 A 
ATOM      8  C6  OXE d   1       5.985   2.154   5.998  0.00  0.00     0.003 A 
ENDROOT
TORSDOF 0
ENDMDL
