MODEL 1
REMARK minimizedAffinity -2.88189554
REMARK minimizedRMSD -1
REMARK  0 active torsions:
REMARK  status: ('A' for Active; 'I' for Inactive)
ROOT
ATOM      1  C2' OXE d   1       4.989  -0.748   2.944  0.00  0.00     0.078 C 
ATOM      2  C1' OXE d   1       5.752  -1.033   5.630  0.00  0.00     0.078 C 
ATOM      3  C1  OXE d   1       5.700   0.362   5.057  0.00  0.00    -0.078 A 
ATOM      4  C2  OXE d   1       5.370   0.488   3.729  0.00  0.00    -0.078 A 
ATOM      5  C3  OXE d   1       5.255   1.755   3.165  0.00  0.00     0.003 A 
ATOM      6  C4  OXE d   1       5.619   2.892   3.896  0.00  0.00    -0.002 A 
ATOM      7  C5  OXE d   1       5.996   2.783   5.239  0.00  0.00    -0.002 A 
ATOM      8  C6  OXE d   1       6.000   1.532   5.845  0.00  0.00     0.003 A 
ENDROOT
TORSDOF 0
ENDMDL
