MODEL 1
REMARK minimizedAffinity -1.80630672
REMARK minimizedRMSD -1
REMARK  0 active torsions:
REMARK  status: ('A' for Active; 'I' for Inactive)
ROOT
ATOM      1  C2' OXE d   1       5.913   1.828   2.215  0.00  0.00     0.078 C 
ATOM      2  C1' OXE d   1       5.891   3.301   4.604  0.00  0.00     0.078 C 
ATOM      3  C1  OXE d   1       5.939   1.797   4.705  0.00  0.00    -0.078 A 
ATOM      4  C2  OXE d   1       5.903   1.083   3.532  0.00  0.00    -0.078 A 
ATOM      5  C3  OXE d   1       6.000  -0.305   3.567  0.00  0.00     0.003 A 
ATOM      6  C4  OXE d   1       5.980  -0.987   4.789  0.00  0.00    -0.002 A 
ATOM      7  C5  OXE d   1       5.977  -0.280   5.996  0.00  0.00    -0.002 A 
ATOM      8  C6  OXE d   1       6.000   1.110   5.972  0.00  0.00     0.003 A 
ENDROOT
TORSDOF 0
ENDMDL
