MODEL 1
REMARK minimizedAffinity -0.605220795
REMARK minimizedRMSD -1
REMARK  0 active torsions:
REMARK  status: ('A' for Active; 'I' for Inactive)
ROOT
ATOM      1  C2' OXE d   1       5.994   0.567   1.828  0.00  0.00     0.078 C 
ATOM      2  C1' OXE d   1       5.983   2.563   3.802  0.00  0.00     0.078 C 
ATOM      3  C1  OXE d   1       5.980   1.125   4.256  0.00  0.00    -0.078 A 
ATOM      4  C2  OXE d   1       5.938   0.155   3.283  0.00  0.00    -0.078 A 
ATOM      5  C3  OXE d   1       5.989  -1.188   3.645  0.00  0.00     0.003 A 
ATOM      6  C4  OXE d   1       5.927  -1.561   4.994  0.00  0.00    -0.002 A 
ATOM      7  C5  OXE d   1       5.928  -0.589   6.000  0.00  0.00    -0.002 A 
ATOM      8  C6  OXE d   1       5.997   0.755   5.649  0.00  0.00     0.003 A 
ENDROOT
TORSDOF 0
ENDMDL
