MODEL 1
REMARK minimizedAffinity 8.81954193
REMARK minimizedRMSD -1
REMARK  0 active torsions:
REMARK  status: ('A' for Active; 'I' for Inactive)
ROOT
ATOM      1  C2' OXE d   1       5.711   0.798   2.013  0.00  0.00     0.078 C 
ATOM      2  C1' OXE d   1       4.879   1.217   4.661  0.00  0.00     0.078 C 
ATOM      3  C1  OXE d   1       5.247   2.427   3.840  0.00  0.00    -0.078 A 
ATOM      4  C2  OXE d   1       5.698   2.209   2.560  0.00  0.00    -0.078 A 
ATOM      5  C3  OXE d   1       5.999   3.293   1.741  0.00  0.00     0.003 A 
ATOM      6  C4  OXE d   1       5.994   4.595   2.257  0.00  0.00    -0.002 A 
ATOM      7  C5  OXE d   1       5.576   4.836   3.570  0.00  0.00    -0.002 A 
ATOM      8  C6  OXE d   1       5.160   3.769   4.360  0.00  0.00     0.003 A 
ENDROOT
TORSDOF 0
ENDMDL
