MODEL 1
REMARK minimizedAffinity -1.4787339
REMARK minimizedRMSD -1
REMARK  0 active torsions:
REMARK  status: ('A' for Active; 'I' for Inactive)
ROOT
ATOM      1  C2' OXE d   1       4.893   3.939   4.513  0.00  0.00     0.078 C 
ATOM      2  C1' OXE d   1       5.995   3.278   2.017  0.00  0.00     0.078 C 
ATOM      3  C1  OXE d   1       5.731   2.156   2.989  0.00  0.00    -0.078 A 
ATOM      4  C2  OXE d   1       5.235   2.493   4.225  0.00  0.00    -0.078 A 
ATOM      5  C3  OXE d   1       4.922   1.491   5.140  0.00  0.00     0.003 A 
ATOM      6  C4  OXE d   1       5.251   0.157   4.869  0.00  0.00    -0.002 A 
ATOM      7  C5  OXE d   1       5.794  -0.204   3.632  0.00  0.00    -0.002 A 
ATOM      8  C6  OXE d   1       6.000   0.776   2.666  0.00  0.00     0.003 A 
ENDROOT
TORSDOF 0
ENDMDL
