MODEL 1
REMARK minimizedAffinity -3.65882134
REMARK minimizedRMSD -1
REMARK  0 active torsions:
REMARK  status: ('A' for Active; 'I' for Inactive)
ROOT
ATOM      1  C2' OXE d   1       5.247  -1.160   4.009  0.00  0.00     0.078 C 
ATOM      2  C1' OXE d   1       6.000   0.670   6.000  0.00  0.00     0.078 C 
ATOM      3  C1  OXE d   1       5.681   1.213   4.629  0.00  0.00    -0.078 A 
ATOM      4  C2  OXE d   1       5.359   0.306   3.649  0.00  0.00    -0.078 A 
ATOM      5  C3  OXE d   1       5.002   0.757   2.382  0.00  0.00     0.003 A 
ATOM      6  C4  OXE d   1       5.118   2.114   2.054  0.00  0.00    -0.002 A 
ATOM      7  C5  OXE d   1       5.483   3.050   3.027  0.00  0.00    -0.002 A 
ATOM      8  C6  OXE d   1       5.726   2.622   4.327  0.00  0.00     0.003 A 
ENDROOT
TORSDOF 0
ENDMDL
