MODEL 1
REMARK minimizedAffinity 0.498155087
REMARK minimizedRMSD -1
REMARK  0 active torsions:
REMARK  status: ('A' for Active; 'I' for Inactive)
ROOT
ATOM      1  C2' OXE d   1       5.984   1.181   1.902  0.00  0.00     0.078 C 
ATOM      2  C1' OXE d   1       5.974   3.054   3.993  0.00  0.00     0.078 C 
ATOM      3  C1  OXE d   1       5.976   1.592   4.359  0.00  0.00    -0.078 A 
ATOM      4  C2  OXE d   1       5.934   0.682   3.330  0.00  0.00    -0.078 A 
ATOM      5  C3  OXE d   1       5.990  -0.680   3.612  0.00  0.00     0.003 A 
ATOM      6  C4  OXE d   1       5.933  -1.134   4.935  0.00  0.00    -0.002 A 
ATOM      7  C5  OXE d   1       5.935  -0.224   5.998  0.00  0.00    -0.002 A 
ATOM      8  C6  OXE d   1       6.000   1.139   5.728  0.00  0.00     0.003 A 
ENDROOT
TORSDOF 0
ENDMDL
