MODEL 1
REMARK minimizedAffinity 13.0658445
REMARK minimizedRMSD -1
REMARK  0 active torsions:
REMARK  status: ('A' for Active; 'I' for Inactive)
ROOT
ATOM      1  C2' OXE d   1       6.000   4.598   4.077  0.00  0.00     0.078 C 
ATOM      2  C1' OXE d   1       6.000   4.152   1.305  0.00  0.00     0.078 C 
ATOM      3  C1  OXE d   1       5.564   3.019   2.200  0.00  0.00    -0.078 A 
ATOM      4  C2  OXE d   1       5.612   3.231   3.557  0.00  0.00    -0.078 A 
ATOM      5  C3  OXE d   1       5.168   2.237   4.426  0.00  0.00     0.003 A 
ATOM      6  C4  OXE d   1       4.820   0.972   3.938  0.00  0.00    -0.002 A 
ATOM      7  C5  OXE d   1       4.803   0.723   2.561  0.00  0.00    -0.002 A 
ATOM      8  C6  OXE d   1       5.130   1.746   1.679  0.00  0.00     0.003 A 
ENDROOT
TORSDOF 0
ENDMDL
