MODEL 1
REMARK minimizedAffinity 1.56794941
REMARK minimizedRMSD -1
REMARK  0 active torsions:
REMARK  status: ('A' for Active; 'I' for Inactive)
ROOT
ATOM      1  C2' OXE d   1       5.985  -1.927   3.530  0.00  0.00     0.078 C 
ATOM      2  C1' OXE d   1       5.953  -0.594   6.000  0.00  0.00     0.078 C 
ATOM      3  C1  OXE d   1       5.937   0.246   4.747  0.00  0.00    -0.078 A 
ATOM      4  C2  OXE d   1       6.000  -0.413   3.543  0.00  0.00    -0.078 A 
ATOM      5  C3  OXE d   1       5.933   0.311   2.356  0.00  0.00     0.003 A 
ATOM      6  C4  OXE d   1       5.957   1.710   2.377  0.00  0.00    -0.002 A 
ATOM      7  C5  OXE d   1       5.932   2.403   3.593  0.00  0.00    -0.002 A 
ATOM      8  C6  OXE d   1       5.879   1.687   4.784  0.00  0.00     0.003 A 
ENDROOT
TORSDOF 0
ENDMDL
