MODEL 1
REMARK minimizedAffinity -0.0818056986
REMARK minimizedRMSD -1
REMARK  0 active torsions:
REMARK  status: ('A' for Active; 'I' for Inactive)
ROOT
ATOM      1  C2' OXE d   1       6.000  -0.411   5.969  0.00  0.00     0.078 C 
ATOM      2  C1' OXE d   1       5.979  -1.336   3.318  0.00  0.00     0.078 C 
ATOM      3  C1  OXE d   1       5.981   0.156   3.543  0.00  0.00    -0.078 A 
ATOM      4  C2  OXE d   1       5.944   0.599   4.843  0.00  0.00    -0.078 A 
ATOM      5  C3  OXE d   1       6.000   1.965   5.108  0.00  0.00     0.003 A 
ATOM      6  C4  OXE d   1       5.938   2.893   4.061  0.00  0.00    -0.002 A 
ATOM      7  C5  OXE d   1       5.935   2.462   2.730  0.00  0.00    -0.002 A 
ATOM      8  C6  OXE d   1       5.999   1.101   2.454  0.00  0.00     0.003 A 
ENDROOT
TORSDOF 0
ENDMDL
