MODEL 1
REMARK minimizedAffinity 2.09012341
REMARK minimizedRMSD -1
REMARK  0 active torsions:
REMARK  status: ('A' for Active; 'I' for Inactive)
ROOT
ATOM      1  C2' OXE d   1       5.952   5.976   4.485  0.00  0.00     0.078 C 
ATOM      2  C1' OXE d   1       5.997   5.837   1.681  0.00  0.00     0.078 C 
ATOM      3  C1  OXE d   1       5.974   4.539   2.450  0.00  0.00    -0.078 A 
ATOM      4  C2  OXE d   1       6.000   4.616   3.821  0.00  0.00    -0.078 A 
ATOM      5  C3  OXE d   1       5.925   3.451   4.579  0.00  0.00     0.003 A 
ATOM      6  C4  OXE d   1       5.980   2.197   3.958  0.00  0.00    -0.002 A 
ATOM      7  C5  OXE d   1       5.994   2.096   2.562  0.00  0.00    -0.002 A 
ATOM      8  C6  OXE d   1       5.949   3.255   1.795  0.00  0.00     0.003 A 
ENDROOT
TORSDOF 0
ENDMDL
