MODEL 1
REMARK minimizedAffinity 0.468347162
REMARK minimizedRMSD -1
REMARK  0 active torsions:
REMARK  status: ('A' for Active; 'I' for Inactive)
ROOT
ATOM      1  C2' OXE d   1       5.950   1.347   5.737  0.00  0.00     0.078 C 
ATOM      2  C1' OXE d   1       5.991   1.114   2.940  0.00  0.00     0.078 C 
ATOM      3  C1  OXE d   1       5.973  -0.157   3.751  0.00  0.00    -0.078 A 
ATOM      4  C2  OXE d   1       6.000  -0.034   5.120  0.00  0.00    -0.078 A 
ATOM      5  C3  OXE d   1       5.929  -1.173   5.916  0.00  0.00     0.003 A 
ATOM      6  C4  OXE d   1       5.986  -2.447   5.337  0.00  0.00    -0.002 A 
ATOM      7  C5  OXE d   1       5.999  -2.595   3.946  0.00  0.00    -0.002 A 
ATOM      8  C6  OXE d   1       5.950  -1.463   3.140  0.00  0.00     0.003 A 
ENDROOT
TORSDOF 0
ENDMDL
