MODEL 1
REMARK minimizedAffinity -3.82945824
REMARK minimizedRMSD -1
REMARK  0 active torsions:
REMARK  status: ('A' for Active; 'I' for Inactive)
ROOT
ATOM      1  C2' OXE d   1       5.949  -0.325   2.321  0.00  0.00     0.078 C 
ATOM      2  C1' OXE d   1       5.609  -1.492   4.851  0.00  0.00     0.078 C 
ATOM      3  C1  OXE d   1       5.726   0.010   4.779  0.00  0.00    -0.078 A 
ATOM      4  C2  OXE d   1       5.939   0.569   3.542  0.00  0.00    -0.078 A 
ATOM      5  C3  OXE d   1       6.000   1.953   3.413  0.00  0.00     0.003 A 
ATOM      6  C4  OXE d   1       6.000   2.772   4.549  0.00  0.00    -0.002 A 
ATOM      7  C5  OXE d   1       5.824   2.220   5.822  0.00  0.00    -0.002 A 
ATOM      8  C6  OXE d   1       5.643   0.847   5.950  0.00  0.00     0.003 A 
ENDROOT
TORSDOF 0
ENDMDL
