MODEL 1
REMARK minimizedAffinity 0.885575712
REMARK minimizedRMSD -1
REMARK  0 active torsions:
REMARK  status: ('A' for Active; 'I' for Inactive)
ROOT
ATOM      1  C2' OXE d   1       6.000   5.962  -0.819  0.00  0.00     0.078 C 
ATOM      2  C1' OXE d   1       3.691   4.366  -0.765  0.00  0.00     0.078 C 
ATOM      3  C1  OXE d   1       4.284   4.791   0.555  0.00  0.00    -0.078 A 
ATOM      4  C2  OXE d   1       5.440   5.532   0.520  0.00  0.00    -0.078 A 
ATOM      5  C3  OXE d   1       5.998   5.996   1.708  0.00  0.00     0.003 A 
ATOM      6  C4  OXE d   1       5.480   5.586   2.942  0.00  0.00    -0.002 A 
ATOM      7  C5  OXE d   1       4.325   4.798   3.001  0.00  0.00    -0.002 A 
ATOM      8  C6  OXE d   1       3.692   4.428   1.819  0.00  0.00     0.003 A 
ENDROOT
TORSDOF 0
ENDMDL
