MODEL 1
REMARK minimizedAffinity 0.190532222
REMARK minimizedRMSD -1
REMARK  0 active torsions:
REMARK  status: ('A' for Active; 'I' for Inactive)
ROOT
ATOM      1  C2' OXE d   1       5.955  -0.066   2.248  0.00  0.00     0.078 C 
ATOM      2  C1' OXE d   1       5.962  -1.397   4.720  0.00  0.00     0.078 C 
ATOM      3  C1  OXE d   1       5.953   0.111   4.733  0.00  0.00    -0.078 A 
ATOM      4  C2  OXE d   1       5.997   0.754   3.519  0.00  0.00    -0.078 A 
ATOM      5  C3  OXE d   1       5.937   2.144   3.472  0.00  0.00     0.003 A 
ATOM      6  C4  OXE d   1       5.986   2.896   4.652  0.00  0.00    -0.002 A 
ATOM      7  C5  OXE d   1       5.982   2.261   5.899  0.00  0.00    -0.002 A 
ATOM      8  C6  OXE d   1       5.923   0.873   5.957  0.00  0.00     0.003 A 
ENDROOT
TORSDOF 0
ENDMDL
