MODEL 1
REMARK minimizedAffinity -1.80694568
REMARK minimizedRMSD -1
REMARK  0 active torsions:
REMARK  status: ('A' for Active; 'I' for Inactive)
ROOT
ATOM      1  C2' OXE d   1       6.000   1.592   1.988  0.00  0.00     0.078 C 
ATOM      2  C1' OXE d   1       5.987   3.348   4.177  0.00  0.00     0.078 C 
ATOM      3  C1  OXE d   1       5.981   1.867   4.463  0.00  0.00    -0.078 A 
ATOM      4  C2  OXE d   1       5.940   1.015   3.386  0.00  0.00    -0.078 A 
ATOM      5  C3  OXE d   1       5.989  -0.360   3.592  0.00  0.00     0.003 A 
ATOM      6  C4  OXE d   1       5.923  -0.885   4.889  0.00  0.00    -0.002 A 
ATOM      7  C5  OXE d   1       5.924  -0.035   6.000  0.00  0.00    -0.002 A 
ATOM      8  C6  OXE d   1       5.996   1.340   5.806  0.00  0.00     0.003 A 
ENDROOT
TORSDOF 0
ENDMDL
