MODEL 1
REMARK minimizedAffinity -1.47420323
REMARK minimizedRMSD -1
REMARK  0 active torsions:
REMARK  status: ('A' for Active; 'I' for Inactive)
ROOT
ATOM      1  C2' OXE d   1       5.997   2.466   5.248  0.00  0.00     0.078 C 
ATOM      2  C1' OXE d   1       6.000   1.824   2.515  0.00  0.00     0.078 C 
ATOM      3  C1  OXE d   1       5.986   3.284   2.895  0.00  0.00    -0.078 A 
ATOM      4  C2  OXE d   1       5.937   3.588   4.234  0.00  0.00    -0.078 A 
ATOM      5  C3  OXE d   1       5.977   4.919   4.641  0.00  0.00     0.003 A 
ATOM      6  C4  OXE d   1       5.911   5.951   3.697  0.00  0.00    -0.002 A 
ATOM      7  C5  OXE d   1       5.920   5.662   2.328  0.00  0.00    -0.002 A 
ATOM      8  C6  OXE d   1       6.000   4.338   1.911  0.00  0.00     0.003 A 
ENDROOT
TORSDOF 0
ENDMDL
