MODEL 1
REMARK minimizedAffinity -1.96208239
REMARK minimizedRMSD -1
REMARK  0 active torsions:
REMARK  status: ('A' for Active; 'I' for Inactive)
ROOT
ATOM      1  C   UNL d   1       1.566  -0.725  -2.168  0.00  0.00     0.077 C 
ATOM      2  C1  UNL d   1       0.684  -0.603  -0.961  0.00  0.00    -0.074 A 
ATOM      3  C2  UNL d   1      -0.667  -0.266  -1.088  0.00  0.00    -0.005 A 
ATOM      4  C3  UNL d   1      -1.477  -0.165   0.043  0.00  0.00     0.006 A 
ATOM      5  C4  UNL d   1      -0.944  -0.399   1.311  0.00  0.00    -0.005 A 
ATOM      6  C5  UNL d   1       0.404  -0.738   1.458  0.00  0.00    -0.074 A 
ATOM      7  C6  UNL d   1       0.990  -1.003   2.814  0.00  0.00     0.077 C 
ATOM      8  C7  UNL d   1       1.210  -0.844   0.316  0.00  0.00    -0.001 A 
ENDROOT
TORSDOF 0
ENDMDL
