MODEL 1
REMARK minimizedAffinity -3.2000823
REMARK minimizedRMSD -1
REMARK  0 active torsions:
REMARK  status: ('A' for Active; 'I' for Inactive)
ROOT
ATOM      1  C   UNL d   1       0.394   0.070  -1.411  0.00  0.00     0.077 C 
ATOM      2  C1  UNL d   1       0.086  -0.043   0.053  0.00  0.00    -0.074 A 
ATOM      3  C2  UNL d   1      -1.235  -0.124   0.505  0.00  0.00    -0.005 A 
ATOM      4  C3  UNL d   1      -1.505  -0.238   1.869  0.00  0.00     0.006 A 
ATOM      5  C4  UNL d   1      -0.460  -0.272   2.792  0.00  0.00    -0.005 A 
ATOM      6  C5  UNL d   1       0.868  -0.193   2.358  0.00  0.00    -0.074 A 
ATOM      7  C6  UNL d   1       2.004  -0.238   3.337  0.00  0.00     0.077 C 
ATOM      8  C7  UNL d   1       1.132  -0.086   0.986  0.00  0.00    -0.001 A 
ENDROOT
TORSDOF 0
ENDMDL
