MODEL 1
REMARK minimizedAffinity -3.69949102
REMARK minimizedRMSD -1
REMARK  0 active torsions:
REMARK  status: ('A' for Active; 'I' for Inactive)
ROOT
ATOM      1  C   UNL d   1       1.543  -0.861   3.075  0.00  0.00     0.077 C 
ATOM      2  C1  UNL d   1       0.370  -0.580   2.183  0.00  0.00    -0.074 A 
ATOM      3  C2  UNL d   1      -0.933  -0.567   2.692  0.00  0.00    -0.005 A 
ATOM      4  C3  UNL d   1      -2.013  -0.295   1.852  0.00  0.00     0.006 A 
ATOM      5  C4  UNL d   1      -1.802  -0.035   0.498  0.00  0.00    -0.005 A 
ATOM      6  C5  UNL d   1      -0.507  -0.043  -0.029  0.00  0.00    -0.074 A 
ATOM      7  C6  UNL d   1      -0.261   0.244  -1.480  0.00  0.00     0.077 C 
ATOM      8  C7  UNL d   1       0.574  -0.310   0.823  0.00  0.00    -0.001 A 
ENDROOT
TORSDOF 0
ENDMDL
