MODEL 1
REMARK minimizedAffinity -3.24000287
REMARK minimizedRMSD -1
REMARK  0 active torsions:
REMARK  status: ('A' for Active; 'I' for Inactive)
ROOT
ATOM      1  C   UNL d   1       2.056  -1.404   3.074  0.00  0.00     0.077 C 
ATOM      2  C1  UNL d   1       0.810  -1.163   2.275  0.00  0.00    -0.074 A 
ATOM      3  C2  UNL d   1      -0.433  -1.617   2.727  0.00  0.00    -0.005 A 
ATOM      4  C3  UNL d   1      -1.584  -1.376   1.977  0.00  0.00     0.006 A 
ATOM      5  C4  UNL d   1      -1.504  -0.682   0.769  0.00  0.00    -0.005 A 
ATOM      6  C5  UNL d   1      -0.270  -0.220   0.302  0.00  0.00    -0.074 A 
ATOM      7  C6  UNL d   1      -0.168   0.537  -0.989  0.00  0.00     0.077 C 
ATOM      8  C7  UNL d   1       0.881  -0.459   1.064  0.00  0.00    -0.001 A 
ENDROOT
TORSDOF 0
ENDMDL
