MODEL 1
REMARK minimizedAffinity -5.33907223
REMARK minimizedRMSD -1
REMARK  0 active torsions:
REMARK  status: ('A' for Active; 'I' for Inactive)
ROOT
ATOM      1  C   UNL d   1       1.562  -0.925   3.205  0.00  0.00     0.077 C 
ATOM      2  C1  UNL d   1       0.527  -0.676   2.148  0.00  0.00    -0.074 A 
ATOM      3  C2  UNL d   1      -0.837  -0.776   2.440  0.00  0.00    -0.005 A 
ATOM      4  C3  UNL d   1      -1.788  -0.533   1.450  0.00  0.00     0.006 A 
ATOM      5  C4  UNL d   1      -1.385  -0.187   0.159  0.00  0.00    -0.005 A 
ATOM      6  C5  UNL d   1      -0.026  -0.081  -0.151  0.00  0.00    -0.074 A 
ATOM      7  C6  UNL d   1       0.423   0.300  -1.531  0.00  0.00     0.077 C 
ATOM      8  C7  UNL d   1       0.924  -0.320   0.851  0.00  0.00    -0.001 A 
ENDROOT
TORSDOF 0
ENDMDL
