MODEL 1
REMARK minimizedAffinity -2.72000813
REMARK minimizedRMSD -1
REMARK  0 active torsions:
REMARK  status: ('A' for Active; 'I' for Inactive)
ROOT
ATOM      1  C   UNL d   1      -1.506  -1.734   3.371  0.00  0.00     0.077 C 
ATOM      2  C1  UNL d   1      -0.486  -1.120   2.459  0.00  0.00    -0.074 A 
ATOM      3  C2  UNL d   1       0.800  -0.816   2.918  0.00  0.00    -0.005 A 
ATOM      4  C3  UNL d   1       1.740  -0.254   2.055  0.00  0.00     0.006 A 
ATOM      5  C4  UNL d   1       1.405   0.010   0.726  0.00  0.00    -0.005 A 
ATOM      6  C5  UNL d   1       0.125  -0.288   0.249  0.00  0.00    -0.074 A 
ATOM      7  C6  UNL d   1      -0.248  -0.020  -1.179  0.00  0.00     0.077 C 
ATOM      8  C7  UNL d   1      -0.812  -0.859   1.120  0.00  0.00    -0.001 A 
ENDROOT
TORSDOF 0
ENDMDL
