MODEL 1
REMARK minimizedAffinity -4.55999899
REMARK minimizedRMSD -1
REMARK  0 active torsions:
REMARK  status: ('A' for Active; 'I' for Inactive)
ROOT
ATOM      1  C   UNL d   1      -0.988  -2.113   3.358  0.00  0.00     0.077 C 
ATOM      2  C1  UNL d   1      -0.055  -1.279   2.532  0.00  0.00    -0.074 A 
ATOM      3  C2  UNL d   1       1.184  -0.873   3.037  0.00  0.00    -0.005 A 
ATOM      4  C3  UNL d   1       2.046  -0.106   2.253  0.00  0.00     0.006 A 
ATOM      5  C4  UNL d   1       1.678   0.262   0.958  0.00  0.00    -0.005 A 
ATOM      6  C5  UNL d   1       0.443  -0.136   0.436  0.00  0.00    -0.074 A 
ATOM      7  C6  UNL d   1       0.036   0.242  -0.958  0.00  0.00     0.077 C 
ATOM      8  C7  UNL d   1      -0.414  -0.913   1.227  0.00  0.00    -0.001 A 
ENDROOT
TORSDOF 0
ENDMDL
