MODEL 1
REMARK minimizedAffinity -2.85571098
REMARK minimizedRMSD -1
REMARK  1 active torsions:
REMARK  status: ('A' for Active; 'I' for Inactive)
REMARK    1  A    between atoms: C1_2  and  C2_3 
ROOT
ATOM      1  C2  UNL d   1       1.626  -3.777   1.353  0.00  0.00    -0.077 A 
ATOM      2  C3  UNL d   1       1.111  -4.928   1.966  0.00  0.00     0.002 A 
ATOM      3  C4  UNL d   1      -0.018  -4.848   2.783  0.00  0.00     0.002 A 
ATOM      4  C5  UNL d   1      -0.644  -3.621   2.992  0.00  0.00    -0.004 A 
ATOM      5  C6  UNL d   1      -0.138  -2.470   2.389  0.00  0.00     0.002 A 
ATOM      6  C7  UNL d   1       0.991  -2.548   1.572  0.00  0.00     0.002 A 
ENDROOT
BRANCH   1   7
ATOM      7  C1  UNL d   1       2.814  -3.869   0.432  0.00  0.00     0.055 C 
ATOM      8  C   UNL d   1       3.779  -4.958   0.879  0.00  0.00     0.019 C 
ENDBRANCH   1   7
TORSDOF 1
ENDMDL
