MODEL 1
REMARK minimizedAffinity 0.67776674
REMARK minimizedRMSD -1
REMARK  1 active torsions:
REMARK  status: ('A' for Active; 'I' for Inactive)
REMARK    1  A    between atoms: C1_2  and  C2_3 
ROOT
ATOM      1  C2  UNL d   1       1.273  -3.223   0.907  0.00  0.00    -0.077 A 
ATOM      2  C3  UNL d   1       0.362  -2.744   1.858  0.00  0.00     0.002 A 
ATOM      3  C4  UNL d   1      -0.019  -1.400   1.857  0.00  0.00     0.002 A 
ATOM      4  C5  UNL d   1       0.504  -0.527   0.906  0.00  0.00    -0.004 A 
ATOM      5  C6  UNL d   1       1.413  -0.994  -0.043  0.00  0.00     0.002 A 
ATOM      6  C7  UNL d   1       1.795  -2.336  -0.042  0.00  0.00     0.002 A 
ENDROOT
BRANCH   1   7
ATOM      7  C1  UNL d   1       1.647  -4.682   0.876  0.00  0.00     0.055 C 
ATOM      8  C   UNL d   1       3.135  -4.867   0.617  0.00  0.00     0.019 C 
ENDBRANCH   1   7
TORSDOF 1
ENDMDL
