MODEL 1
REMARK minimizedAffinity -0.991648376
REMARK minimizedRMSD -1
REMARK  0 active torsions:
REMARK  status: ('A' for Active; 'I' for Inactive)
ROOT
ATOM      1  C   UNL d   1      -4.348   4.513  -5.552  0.00  0.00     0.023 A 
ATOM      2  C1  UNL d   1      -5.525   3.862  -5.924  0.00  0.00     0.003 A 
ATOM      3  C2  UNL d   1      -6.000   2.789  -5.167  0.00  0.00     0.048 A 
ATOM      4  C3  UNL d   1      -5.294   2.372  -4.040  0.00  0.00     0.023 A 
ATOM      5  C4  UNL d   1      -4.116   3.020  -3.663  0.00  0.00     0.048 A 
ATOM      6  C5  UNL d   1      -3.645   4.092  -4.423  0.00  0.00     0.003 A 
ATOM      7  I   UNL d   1      -5.999   0.775  -2.912  0.00  0.00    -0.146 I 
ENDROOT
TORSDOF 0
ENDMDL
