MODEL 1
REMARK minimizedAffinity 4.19203472
REMARK minimizedRMSD -1
REMARK  0 active torsions:
REMARK  status: ('A' for Active; 'I' for Inactive)
ROOT
ATOM      1  C   UNL d   1       0.921   5.706  -1.663  0.00  0.00     0.023 A 
ATOM      2  C1  UNL d   1       1.368   4.579  -0.971  0.00  0.00     0.003 A 
ATOM      3  C2  UNL d   1       0.452   3.746  -0.326  0.00  0.00     0.048 A 
ATOM      4  C3  UNL d   1      -0.909   4.043  -0.378  0.00  0.00     0.023 A 
ATOM      5  C4  UNL d   1      -1.361   5.168  -1.070  0.00  0.00     0.048 A 
ATOM      6  C5  UNL d   1      -0.441   6.000  -1.712  0.00  0.00     0.003 A 
ATOM      7  I   UNL d   1      -2.275   2.803   0.580  0.00  0.00    -0.146 I 
ENDROOT
TORSDOF 0
ENDMDL
