MODEL 1
REMARK minimizedAffinity 14.4799166
REMARK minimizedRMSD -1
REMARK  0 active torsions:
REMARK  status: ('A' for Active; 'I' for Inactive)
ROOT
ATOM      1  C   UNL d   1      -5.597   1.436  -1.632  0.00  0.00     0.023 A 
ATOM      2  C1  UNL d   1      -4.553   2.357  -1.552  0.00  0.00     0.003 A 
ATOM      3  C2  UNL d   1      -3.438   2.223  -2.382  0.00  0.00     0.048 A 
ATOM      4  C3  UNL d   1      -3.375   1.167  -3.291  0.00  0.00     0.023 A 
ATOM      5  C4  UNL d   1      -4.418   0.244  -3.374  0.00  0.00     0.048 A 
ATOM      6  C5  UNL d   1      -5.530   0.381  -2.542  0.00  0.00     0.003 A 
ATOM      7  I   UNL d   1      -1.716   0.966  -4.527  0.00  0.00    -0.146 I 
ENDROOT
TORSDOF 0
ENDMDL
