MODEL 1
REMARK minimizedAffinity 10.4716864
REMARK minimizedRMSD -1
REMARK  0 active torsions:
REMARK  status: ('A' for Active; 'I' for Inactive)
ROOT
ATOM      1  C   UNL d   1       0.037  -4.546   0.025  0.00  0.00     0.023 A 
ATOM      2  C1  UNL d   1       0.828  -5.573   0.539  0.00  0.00     0.003 A 
ATOM      3  C2  UNL d   1       1.967  -5.992  -0.152  0.00  0.00     0.048 A 
ATOM      4  C3  UNL d   1       2.310  -5.378  -1.355  0.00  0.00     0.023 A 
ATOM      5  C4  UNL d   1       1.523  -4.348  -1.873  0.00  0.00     0.048 A 
ATOM      6  C5  UNL d   1       0.384  -3.934  -1.180  0.00  0.00     0.003 A 
ATOM      7  I   UNL d   1       4.006  -5.998  -2.385  0.00  0.00    -0.146 I 
ENDROOT
TORSDOF 0
ENDMDL
