MODEL 1
REMARK minimizedAffinity 7.70115852
REMARK minimizedRMSD -1
REMARK  0 active torsions:
REMARK  status: ('A' for Active; 'I' for Inactive)
ROOT
ATOM      1  C   UNL d   1       1.209  -1.265   1.067  0.00  0.00     0.023 A 
ATOM      2  C1  UNL d   1       1.849  -1.007   2.279  0.00  0.00     0.003 A 
ATOM      3  C2  UNL d   1       3.196  -1.337   2.443  0.00  0.00     0.048 A 
ATOM      4  C3  UNL d   1       3.897  -1.924   1.390  0.00  0.00     0.023 A 
ATOM      5  C4  UNL d   1       3.261  -2.183   0.175  0.00  0.00     0.048 A 
ATOM      6  C5  UNL d   1       1.914  -1.852   0.016  0.00  0.00     0.003 A 
ATOM      7  I   UNL d   1       5.902  -2.415   1.631  0.00  0.00    -0.146 I 
ENDROOT
TORSDOF 0
ENDMDL
