MODEL 1
REMARK minimizedAffinity 12.9793711
REMARK minimizedRMSD -1
REMARK  0 active torsions:
REMARK  status: ('A' for Active; 'I' for Inactive)
ROOT
ATOM      1  C   UNL d   1       0.980   4.531  -1.853  0.00  0.00     0.023 A 
ATOM      2  C1  UNL d   1       0.783   3.223  -1.411  0.00  0.00     0.003 A 
ATOM      3  C2  UNL d   1      -0.511   2.711  -1.294  0.00  0.00     0.048 A 
ATOM      4  C3  UNL d   1      -1.604   3.513  -1.622  0.00  0.00     0.023 A 
ATOM      5  C4  UNL d   1      -1.412   4.822  -2.066  0.00  0.00     0.048 A 
ATOM      6  C5  UNL d   1      -0.116   5.330  -2.181  0.00  0.00     0.003 A 
ATOM      7  I   UNL d   1      -3.531   2.753  -1.449  0.00  0.00    -0.146 I 
ENDROOT
TORSDOF 0
ENDMDL
