MODEL 1
REMARK minimizedAffinity 15.7937212
REMARK minimizedRMSD -1
REMARK  0 active torsions:
REMARK  status: ('A' for Active; 'I' for Inactive)
ROOT
ATOM      1  C   UNL d   1      -0.768   0.422  -5.098  0.00  0.00     0.023 A 
ATOM      2  C1  UNL d   1      -1.965   0.152  -5.761  0.00  0.00     0.003 A 
ATOM      3  C2  UNL d   1      -3.185   0.363  -5.116  0.00  0.00     0.048 A 
ATOM      4  C3  UNL d   1      -3.201   0.846  -3.808  0.00  0.00     0.023 A 
ATOM      5  C4  UNL d   1      -2.005   1.118  -3.140  0.00  0.00     0.048 A 
ATOM      6  C5  UNL d   1      -0.788   0.905  -3.789  0.00  0.00     0.003 A 
ATOM      7  I   UNL d   1      -5.016   1.161  -2.845  0.00  0.00    -0.146 I 
ENDROOT
TORSDOF 0
ENDMDL
