MODEL 1
REMARK minimizedAffinity 11.149992
REMARK minimizedRMSD -1
REMARK  1 active torsions:
REMARK  status: ('A' for Active; 'I' for Inactive)
REMARK    1  A    between atoms: C1_2  and  C2_3 
ROOT
ATOM      1  C2  UNL d   1      -2.372   0.213  -2.751  0.00  0.00    -0.081 A 
ATOM      2  C3  UNL d   1      -3.028   0.056  -1.524  0.00  0.00     0.006 A 
ATOM      3  C4  UNL d   1      -2.671  -0.980  -0.658  0.00  0.00     0.002 A 
ATOM      4  C5  UNL d   1      -1.648  -1.871  -1.000  0.00  0.00    -0.080 A 
ATOM      5  C6  UNL d   1      -1.234  -2.969  -0.066  0.00  0.00     0.076 C 
ATOM      6  C7  UNL d   1      -1.004  -1.724  -2.234  0.00  0.00     0.002 A 
ATOM      7  C8  UNL d   1      -1.361  -0.689  -3.100  0.00  0.00     0.006 A 
ENDROOT
BRANCH   1   8
ATOM      8  C1  UNL d   1      -2.711   1.368  -3.658  0.00  0.00     0.054 C 
ATOM      9  C   UNL d   1      -1.458   2.113  -4.097  0.00  0.00     0.018 C 
ENDBRANCH   1   8
TORSDOF 1
ENDMDL
