MODEL 1
REMARK minimizedAffinity 19.8409271
REMARK minimizedRMSD -1
REMARK  1 active torsions:
REMARK  status: ('A' for Active; 'I' for Inactive)
REMARK    1  A    between atoms: C1_2  and  C2_3 
ROOT
ATOM      1  C2  UNL d   1       0.173   1.099  -3.370  0.00  0.00    -0.081 A 
ATOM      2  C3  UNL d   1       0.425   2.282  -4.076  0.00  0.00     0.006 A 
ATOM      3  C4  UNL d   1      -0.630   3.101  -4.485  0.00  0.00     0.002 A 
ATOM      4  C5  UNL d   1      -1.953   2.756  -4.189  0.00  0.00    -0.080 A 
ATOM      5  C6  UNL d   1      -3.093   3.642  -4.596  0.00  0.00     0.076 C 
ATOM      6  C7  UNL d   1      -2.206   1.565  -3.499  0.00  0.00     0.002 A 
ATOM      7  C8  UNL d   1      -1.152   0.746  -3.090  0.00  0.00     0.006 A 
ENDROOT
BRANCH   1   8
ATOM      8  C1  UNL d   1       1.311   0.247  -2.871  0.00  0.00     0.054 C 
ATOM      9  C   UNL d   1       2.102   0.961  -1.784  0.00  0.00     0.018 C 
ENDBRANCH   1   8
TORSDOF 1
ENDMDL
