MODEL 1
REMARK minimizedAffinity 14.9491434
REMARK minimizedRMSD -1
REMARK  1 active torsions:
REMARK  status: ('A' for Active; 'I' for Inactive)
REMARK    1  A    between atoms: C1_2  and  C2_3 
ROOT
ATOM      1  C2  UNL d   1      -3.027   3.133  -4.441  0.00  0.00    -0.081 A 
ATOM      2  C3  UNL d   1      -3.912   2.822  -5.481  0.00  0.00     0.006 A 
ATOM      3  C4  UNL d   1      -4.883   3.742  -5.883  0.00  0.00     0.002 A 
ATOM      4  C5  UNL d   1      -4.981   4.990  -5.259  0.00  0.00    -0.080 A 
ATOM      5  C6  UNL d   1      -5.999   5.998  -5.702  0.00  0.00     0.076 C 
ATOM      6  C7  UNL d   1      -4.109   5.294  -4.208  0.00  0.00     0.002 A 
ATOM      7  C8  UNL d   1      -3.138   4.375  -3.804  0.00  0.00     0.006 A 
ENDROOT
BRANCH   1   8
ATOM      8  C1  UNL d   1      -1.937   2.170  -4.047  0.00  0.00     0.054 C 
ATOM      9  C   UNL d   1      -0.570   2.672  -4.487  0.00  0.00     0.018 C 
ENDBRANCH   1   8
TORSDOF 1
ENDMDL
