MODEL 1
REMARK minimizedAffinity 13.3567495
REMARK minimizedRMSD -1
REMARK  1 active torsions:
REMARK  status: ('A' for Active; 'I' for Inactive)
REMARK    1  A    between atoms: C1_2  and  C2_3 
ROOT
ATOM      1  C2  UNL d   1      -1.422   0.458  -3.242  0.00  0.00    -0.081 A 
ATOM      2  C3  UNL d   1      -2.209   1.569  -3.569  0.00  0.00     0.006 A 
ATOM      3  C4  UNL d   1      -1.675   2.617  -4.323  0.00  0.00     0.002 A 
ATOM      4  C5  UNL d   1      -0.349   2.569  -4.767  0.00  0.00    -0.080 A 
ATOM      5  C6  UNL d   1       0.227   3.673  -5.602  0.00  0.00     0.076 C 
ATOM      6  C7  UNL d   1       0.442   1.467  -4.425  0.00  0.00     0.002 A 
ATOM      7  C8  UNL d   1      -0.091   0.419  -3.671  0.00  0.00     0.006 A 
ENDROOT
BRANCH   1   8
ATOM      8  C1  UNL d   1      -2.014  -0.704  -2.485  0.00  0.00     0.054 C 
ATOM      9  C   UNL d   1      -1.017  -1.280  -1.489  0.00  0.00     0.018 C 
ENDBRANCH   1   8
TORSDOF 1
ENDMDL
