MODEL 1
REMARK minimizedAffinity 19.328043
REMARK minimizedRMSD -1
REMARK  1 active torsions:
REMARK  status: ('A' for Active; 'I' for Inactive)
REMARK    1  A    between atoms: C1_2  and  C2_3 
ROOT
ATOM      1  C2  UNL d   1      -1.715   0.049  -2.728  0.00  0.00    -0.081 A 
ATOM      2  C3  UNL d   1      -0.389   0.134  -3.169  0.00  0.00     0.006 A 
ATOM      3  C4  UNL d   1       0.043   1.240  -3.904  0.00  0.00     0.002 A 
ATOM      4  C5  UNL d   1      -0.840   2.282  -4.203  0.00  0.00    -0.080 A 
ATOM      5  C6  UNL d   1      -0.381   3.490  -4.966  0.00  0.00     0.076 C 
ATOM      6  C7  UNL d   1      -2.170   2.189  -3.778  0.00  0.00     0.002 A 
ATOM      7  C8  UNL d   1      -2.602   1.083  -3.043  0.00  0.00     0.006 A 
ENDROOT
BRANCH   1   8
ATOM      8  C1  UNL d   1      -2.167  -1.112  -1.879  0.00  0.00     0.054 C 
ATOM      9  C   UNL d   1      -0.982  -1.846  -1.268  0.00  0.00     0.018 C 
ENDBRANCH   1   8
TORSDOF 1
ENDMDL
