MODEL 1
REMARK minimizedAffinity 11.6987
REMARK minimizedRMSD -1
REMARK  1 active torsions:
REMARK  status: ('A' for Active; 'I' for Inactive)
REMARK    1  A    between atoms: C1_2  and  C2_3 
ROOT
ATOM      1  C2  UNL d   1      -1.115  -3.461  -1.370  0.00  0.00    -0.081 A 
ATOM      2  C3  UNL d   1      -1.098  -2.950  -0.067  0.00  0.00     0.006 A 
ATOM      3  C4  UNL d   1      -0.761  -3.771   1.012  0.00  0.00     0.002 A 
ATOM      4  C5  UNL d   1      -0.428  -5.114   0.805  0.00  0.00    -0.080 A 
ATOM      5  C6  UNL d   1      -0.035  -5.999   1.950  0.00  0.00     0.076 C 
ATOM      6  C7  UNL d   1      -0.463  -5.630  -0.495  0.00  0.00     0.002 A 
ATOM      7  C8  UNL d   1      -0.800  -4.809  -1.574  0.00  0.00     0.006 A 
ENDROOT
BRANCH   1   8
ATOM      8  C1  UNL d   1      -1.415  -2.562  -2.542  0.00  0.00     0.054 C 
ATOM      9  C   UNL d   1      -1.877  -1.187  -2.081  0.00  0.00     0.018 C 
ENDBRANCH   1   8
TORSDOF 1
ENDMDL
