MODEL 1
REMARK minimizedAffinity 8.71714497
REMARK minimizedRMSD -1
REMARK  1 active torsions:
REMARK  status: ('A' for Active; 'I' for Inactive)
REMARK    1  A    between atoms: C1_2  and  C2_3 
ROOT
ATOM      1  C2  UNL d   1      -1.213  -4.554   1.212  0.00  0.00    -0.081 A 
ATOM      2  C3  UNL d   1      -2.255  -3.797   1.762  0.00  0.00     0.006 A 
ATOM      3  C4  UNL d   1      -2.727  -2.658   1.104  0.00  0.00     0.002 A 
ATOM      4  C5  UNL d   1      -2.170  -2.262  -0.117  0.00  0.00    -0.080 A 
ATOM      5  C6  UNL d   1      -2.688  -1.059  -0.848  0.00  0.00     0.076 C 
ATOM      6  C7  UNL d   1      -1.118  -3.009  -0.658  0.00  0.00     0.002 A 
ATOM      7  C8  UNL d   1      -0.645  -4.147  -0.000  0.00  0.00     0.006 A 
ENDROOT
BRANCH   1   8
ATOM      8  C1  UNL d   1      -0.746  -5.818   1.886  0.00  0.00     0.054 C 
ATOM      9  C   UNL d   1      -1.408  -5.998   3.245  0.00  0.00     0.018 C 
ENDBRANCH   1   8
TORSDOF 1
ENDMDL
