MODEL 1
REMARK minimizedAffinity 20.8996181
REMARK minimizedRMSD -1
REMARK  1 active torsions:
REMARK  status: ('A' for Active; 'I' for Inactive)
REMARK    1  A    between atoms: C1_2  and  C2_3 
ROOT
ATOM      1  C2  UNL d   1      -2.803   3.388  -4.502  0.00  0.00    -0.081 A 
ATOM      2  C3  UNL d   1      -3.717   2.966  -5.475  0.00  0.00     0.006 A 
ATOM      3  C4  UNL d   1      -4.760   3.804  -5.878  0.00  0.00     0.002 A 
ATOM      4  C5  UNL d   1      -4.901   5.079  -5.321  0.00  0.00    -0.080 A 
ATOM      5  C6  UNL d   1      -5.999   6.000  -5.767  0.00  0.00     0.076 C 
ATOM      6  C7  UNL d   1      -3.999   5.494  -4.336  0.00  0.00     0.002 A 
ATOM      7  C8  UNL d   1      -2.956   4.657  -3.932  0.00  0.00     0.006 A 
ENDROOT
BRANCH   1   8
ATOM      8  C1  UNL d   1      -1.640   2.513  -4.112  0.00  0.00     0.054 C 
ATOM      9  C   UNL d   1      -0.319   3.107  -4.581  0.00  0.00     0.018 C 
ENDBRANCH   1   8
TORSDOF 1
ENDMDL
