MODEL 1
REMARK minimizedAffinity 18.6049805
REMARK minimizedRMSD -1
REMARK  1 active torsions:
REMARK  status: ('A' for Active; 'I' for Inactive)
REMARK    1  A    between atoms: C1_2  and  C2_3 
ROOT
ATOM      1  C2  UNL d   1      -1.963   0.664  -3.560  0.00  0.00    -0.081 A 
ATOM      2  C3  UNL d   1      -2.633   1.796  -4.037  0.00  0.00     0.006 A 
ATOM      3  C4  UNL d   1      -1.932   2.812  -4.690  0.00  0.00     0.002 A 
ATOM      4  C5  UNL d   1      -0.550   2.710  -4.883  0.00  0.00    -0.080 A 
ATOM      5  C6  UNL d   1       0.211   3.780  -5.608  0.00  0.00     0.076 C 
ATOM      6  C7  UNL d   1       0.123   1.587  -4.390  0.00  0.00     0.002 A 
ATOM      7  C8  UNL d   1      -0.578   0.571  -3.737  0.00  0.00     0.006 A 
ENDROOT
BRANCH   1   8
ATOM      8  C1  UNL d   1      -2.726  -0.464  -2.913  0.00  0.00     0.054 C 
ATOM      9  C   UNL d   1      -1.820  -1.652  -2.626  0.00  0.00     0.018 C 
ENDBRANCH   1   8
TORSDOF 1
ENDMDL
