MODEL 1
REMARK minimizedAffinity 15.561902
REMARK minimizedRMSD -1
REMARK  1 active torsions:
REMARK  status: ('A' for Active; 'I' for Inactive)
REMARK    1  A    between atoms: C1_2  and  C2_3 
ROOT
ATOM      1  C2  UNL d   1       1.547  -0.240  -2.436  0.00  0.00    -0.081 A 
ATOM      2  C3  UNL d   1       2.600  -0.666  -1.617  0.00  0.00     0.006 A 
ATOM      3  C4  UNL d   1       3.363   0.262  -0.905  0.00  0.00     0.002 A 
ATOM      4  C5  UNL d   1       3.082   1.630  -0.994  0.00  0.00    -0.080 A 
ATOM      5  C6  UNL d   1       3.875   2.634  -0.212  0.00  0.00     0.076 C 
ATOM      6  C7  UNL d   1       2.042   2.057  -1.826  0.00  0.00     0.002 A 
ATOM      7  C8  UNL d   1       1.278   1.129  -2.538  0.00  0.00     0.006 A 
ENDROOT
BRANCH   1   8
ATOM      8  C1  UNL d   1       0.680  -1.243  -3.154  0.00  0.00     0.054 C 
ATOM      9  C   UNL d   1      -0.608  -1.509  -2.389  0.00  0.00     0.018 C 
ENDBRANCH   1   8
TORSDOF 1
ENDMDL
