MODEL 1
REMARK minimizedAffinity 5.35288477
REMARK minimizedRMSD -1
REMARK  1 active torsions:
REMARK  status: ('A' for Active; 'I' for Inactive)
REMARK    1  A    between atoms: C1_2  and  C2_3 
ROOT
ATOM      1  C2  UNL d   1      -0.083   2.501  -4.375  0.00  0.00    -0.081 A 
ATOM      2  C3  UNL d   1      -0.098   3.382  -5.463  0.00  0.00     0.006 A 
ATOM      3  C4  UNL d   1      -1.310   3.824  -5.999  0.00  0.00     0.002 A 
ATOM      4  C5  UNL d   1      -2.526   3.399  -5.453  0.00  0.00    -0.080 A 
ATOM      5  C6  UNL d   1      -3.833   3.889  -6.000  0.00  0.00     0.076 C 
ATOM      6  C7  UNL d   1      -2.510   2.504  -4.377  0.00  0.00     0.002 A 
ATOM      7  C8  UNL d   1      -1.299   2.062  -3.840  0.00  0.00     0.006 A 
ENDROOT
BRANCH   1   8
ATOM      8  C1  UNL d   1       1.222   2.073  -3.753  0.00  0.00     0.054 C 
ATOM      9  C   UNL d   1       1.197   0.600  -3.373  0.00  0.00     0.018 C 
ENDBRANCH   1   8
TORSDOF 1
ENDMDL
