MODEL 1
REMARK minimizedAffinity 8.68843842
REMARK minimizedRMSD -1
REMARK  1 active torsions:
REMARK  status: ('A' for Active; 'I' for Inactive)
REMARK    1  A    between atoms: C1_2  and  C2_3 
ROOT
ATOM      1  C2  UNL d   1       0.401  -5.940   1.206  0.00  0.00    -0.081 A 
ATOM      2  C3  UNL d   1       1.447  -5.922   2.136  0.00  0.00     0.006 A 
ATOM      3  C4  UNL d   1       1.176  -5.928   3.507  0.00  0.00     0.002 A 
ATOM      4  C5  UNL d   1      -0.144  -5.960   3.969  0.00  0.00    -0.080 A 
ATOM      5  C6  UNL d   1      -0.448  -5.998   5.437  0.00  0.00     0.076 C 
ATOM      6  C7  UNL d   1      -1.189  -5.961   3.039  0.00  0.00     0.002 A 
ATOM      7  C8  UNL d   1      -0.919  -5.954   1.669  0.00  0.00     0.006 A 
ENDROOT
BRANCH   1   8
ATOM      8  C1  UNL d   1       0.691  -5.999  -0.272  0.00  0.00     0.054 C 
ATOM      9  C   UNL d   1      -0.566  -5.752  -1.093  0.00  0.00     0.018 C 
ENDBRANCH   1   8
TORSDOF 1
ENDMDL
