MODEL 1
REMARK minimizedAffinity 20.571022
REMARK minimizedRMSD -1
REMARK  1 active torsions:
REMARK  status: ('A' for Active; 'I' for Inactive)
REMARK    1  A    between atoms: C1_2  and  C2_3 
ROOT
ATOM      1  C2  UNL d   1       0.228   1.927  -3.741  0.00  0.00    -0.081 A 
ATOM      2  C3  UNL d   1       1.276   2.445  -2.971  0.00  0.00     0.006 A 
ATOM      3  C4  UNL d   1       2.085   1.596  -2.213  0.00  0.00     0.002 A 
ATOM      4  C5  UNL d   1       1.865   0.214  -2.218  0.00  0.00    -0.080 A 
ATOM      5  C6  UNL d   1       2.745  -0.712  -1.433  0.00  0.00     0.076 C 
ATOM      6  C7  UNL d   1       0.807  -0.302  -2.974  0.00  0.00     0.002 A 
ATOM      7  C8  UNL d   1      -0.003   0.547  -3.732  0.00  0.00     0.006 A 
ENDROOT
BRANCH   1   8
ATOM      8  C1  UNL d   1      -0.606   2.833  -4.611  0.00  0.00     0.054 C 
ATOM      9  C   UNL d   1      -0.000   2.978  -6.000  0.00  0.00     0.018 C 
ENDBRANCH   1   8
TORSDOF 1
ENDMDL
