MODEL 1
REMARK minimizedAffinity 19.5917015
REMARK minimizedRMSD -1
REMARK  1 active torsions:
REMARK  status: ('A' for Active; 'I' for Inactive)
REMARK    1  A    between atoms: C1_2  and  C2_3 
ROOT
ATOM      1  C2  UNL d   1       3.841   4.168  -0.580  0.00  0.00    -0.081 A 
ATOM      2  C3  UNL d   1       3.721   3.475   0.631  0.00  0.00     0.006 A 
ATOM      3  C4  UNL d   1       3.148   2.201   0.664  0.00  0.00     0.002 A 
ATOM      4  C5  UNL d   1       2.694   1.596  -0.512  0.00  0.00    -0.080 A 
ATOM      5  C6  UNL d   1       2.104   0.217  -0.495  0.00  0.00     0.076 C 
ATOM      6  C7  UNL d   1       2.798   2.296  -1.720  0.00  0.00     0.002 A 
ATOM      7  C8  UNL d   1       3.370   3.570  -1.753  0.00  0.00     0.006 A 
ENDROOT
BRANCH   1   8
ATOM      8  C1  UNL d   1       4.517   5.514  -0.628  0.00  0.00     0.054 C 
ATOM      9  C   UNL d   1       4.886   5.999   0.767  0.00  0.00     0.018 C 
ENDBRANCH   1   8
TORSDOF 1
ENDMDL
