MODEL 1
REMARK minimizedAffinity 9.98671818
REMARK minimizedRMSD -1
REMARK  1 active torsions:
REMARK  status: ('A' for Active; 'I' for Inactive)
REMARK    1  A    between atoms: C1_2  and  C2_3 
ROOT
ATOM      1  C2  UNL d   1      -2.022  -3.755   2.482  0.00  0.00    -0.081 A 
ATOM      2  C3  UNL d   1      -2.715  -2.567   2.219  0.00  0.00     0.006 A 
ATOM      3  C4  UNL d   1      -2.527  -1.890   1.011  0.00  0.00     0.002 A 
ATOM      4  C5  UNL d   1      -1.651  -2.394   0.044  0.00  0.00    -0.080 A 
ATOM      5  C6  UNL d   1      -1.464  -1.693  -1.269  0.00  0.00     0.076 C 
ATOM      6  C7  UNL d   1      -0.946  -3.572   0.313  0.00  0.00     0.002 A 
ATOM      7  C8  UNL d   1      -1.132  -4.248   1.521  0.00  0.00     0.006 A 
ENDROOT
BRANCH   1   8
ATOM      8  C1  UNL d   1      -2.270  -4.522   3.756  0.00  0.00     0.054 C 
ATOM      9  C   UNL d   1      -1.950  -6.000   3.584  0.00  0.00     0.018 C 
ENDBRANCH   1   8
TORSDOF 1
ENDMDL
