MODEL 1
REMARK minimizedAffinity 9.26337051
REMARK minimizedRMSD -1
REMARK  1 active torsions:
REMARK  status: ('A' for Active; 'I' for Inactive)
REMARK    1  A    between atoms: C1_2  and  C2_3 
ROOT
ATOM      1  C2  UNL d   1      -1.341  -2.465  -0.929  0.00  0.00    -0.081 A 
ATOM      2  C3  UNL d   1      -0.830  -3.554  -0.212  0.00  0.00     0.006 A 
ATOM      3  C4  UNL d   1      -1.202  -3.762   1.118  0.00  0.00     0.002 A 
ATOM      4  C5  UNL d   1      -2.095  -2.891   1.750  0.00  0.00    -0.080 A 
ATOM      5  C6  UNL d   1      -2.526  -3.121   3.169  0.00  0.00     0.076 C 
ATOM      6  C7  UNL d   1      -2.592  -1.793   1.040  0.00  0.00     0.002 A 
ATOM      7  C8  UNL d   1      -2.220  -1.584  -0.290  0.00  0.00     0.006 A 
ENDROOT
BRANCH   1   8
ATOM      8  C1  UNL d   1      -0.993  -2.274  -2.384  0.00  0.00     0.054 C 
ATOM      9  C   UNL d   1      -1.787  -1.130  -2.997  0.00  0.00     0.018 C 
ENDBRANCH   1   8
TORSDOF 1
ENDMDL
