MODEL 1
REMARK minimizedAffinity -3.28826737
REMARK minimizedRMSD -1
REMARK  0 active torsions:
REMARK  status: ('A' for Active; 'I' for Inactive)
ROOT
ATOM      1  C4' PXY d   1       0.261  -1.890  -2.853  0.00  0.00     0.077 C 
ATOM      2  C1' PXY d   1       4.617   1.574  -4.416  0.00  0.00     0.077 C 
ATOM      3  C1  PXY d   1       3.479   0.656  -4.014  0.00  0.00    -0.082 A 
ATOM      4  C2  PXY d   1       2.366   1.172  -3.518  0.00  0.00     0.003 A 
ATOM      5  C3  PXY d   1       1.340   0.355  -3.120  0.00  0.00     0.003 A 
ATOM      6  C4  PXY d   1       1.432  -1.002  -3.281  0.00  0.00    -0.082 A 
ATOM      7  C5  PXY d   1       2.560  -1.535  -3.796  0.00  0.00     0.003 A 
ATOM      8  C6  PXY d   1       3.607  -0.691  -4.156  0.00  0.00     0.003 A 
ENDROOT
TORSDOF 0
ENDMDL
