MODEL 1
REMARK minimizedAffinity -2.69796467
REMARK minimizedRMSD -1
REMARK  0 active torsions:
REMARK  status: ('A' for Active; 'I' for Inactive)
ROOT
ATOM      1  C4' PXY d   1       0.591  -0.291   3.161  0.00  0.00     0.077 C 
ATOM      2  C1' PXY d   1       0.783   0.408  -2.574  0.00  0.00     0.077 C 
ATOM      3  C1  PXY d   1       0.743   0.217  -1.070  0.00  0.00    -0.082 A 
ATOM      4  C2  PXY d   1      -0.399   0.371  -0.422  0.00  0.00     0.003 A 
ATOM      5  C3  PXY d   1      -0.447   0.234   0.942  0.00  0.00     0.003 A 
ATOM      6  C4  PXY d   1       0.676  -0.117   1.642  0.00  0.00    -0.082 A 
ATOM      7  C5  PXY d   1       1.844  -0.287   0.986  0.00  0.00     0.003 A 
ATOM      8  C6  PXY d   1       1.879  -0.102  -0.393  0.00  0.00     0.003 A 
ENDROOT
TORSDOF 0
ENDMDL
