MODEL 1
REMARK minimizedAffinity -5.23446894
REMARK minimizedRMSD -1
REMARK  0 active torsions:
REMARK  status: ('A' for Active; 'I' for Inactive)
ROOT
ATOM      1  C4' PXY d   1       0.070   0.356  -1.453  0.00  0.00     0.077 C 
ATOM      2  C1' PXY d   1      -1.851  -0.294   3.960  0.00  0.00     0.077 C 
ATOM      3  C1  PXY d   1      -1.336  -0.119   2.545  0.00  0.00    -0.082 A 
ATOM      4  C2  PXY d   1      -2.195  -0.034   1.542  0.00  0.00     0.003 A 
ATOM      5  C3  PXY d   1      -1.746   0.093   0.253  0.00  0.00     0.003 A 
ATOM      6  C4  PXY d   1      -0.405   0.188  -0.007  0.00  0.00    -0.082 A 
ATOM      7  C5  PXY d   1       0.477   0.112   1.011  0.00  0.00     0.003 A 
ATOM      8  C6  PXY d   1       0.003  -0.058   2.309  0.00  0.00     0.003 A 
ENDROOT
TORSDOF 0
ENDMDL
