MODEL 1
REMARK minimizedAffinity -4.15432787
REMARK minimizedRMSD -1
REMARK  0 active torsions:
REMARK  status: ('A' for Active; 'I' for Inactive)
ROOT
ATOM      1  C4' PXY d   1       4.804   3.186  -5.569  0.00  0.00     0.077 C 
ATOM      2  C1' PXY d   1       2.276  -1.559  -3.445  0.00  0.00     0.077 C 
ATOM      3  C1  PXY d   1       2.930  -0.307  -3.997  0.00  0.00    -0.082 A 
ATOM      4  C2  PXY d   1       3.756  -0.400  -5.026  0.00  0.00     0.003 A 
ATOM      5  C3  PXY d   1       4.381   0.718  -5.518  0.00  0.00     0.003 A 
ATOM      6  C4  PXY d   1       4.115   1.951  -4.984  0.00  0.00    -0.082 A 
ATOM      7  C5  PXY d   1       3.264   2.055  -3.941  0.00  0.00     0.003 A 
ATOM      8  C6  PXY d   1       2.673   0.903  -3.431  0.00  0.00     0.003 A 
ENDROOT
TORSDOF 0
ENDMDL
