MODEL 1
REMARK minimizedAffinity -2.35292935
REMARK minimizedRMSD -1
REMARK  0 active torsions:
REMARK  status: ('A' for Active; 'I' for Inactive)
ROOT
ATOM      1  C4' PXY d   1       0.583   0.800  -2.075  0.00  0.00     0.077 C 
ATOM      2  C1' PXY d   1      -1.157  -0.912   3.165  0.00  0.00     0.077 C 
ATOM      3  C1  PXY d   1      -0.692  -0.455   1.796  0.00  0.00    -0.082 A 
ATOM      4  C2  PXY d   1      -1.501  -0.577   0.756  0.00  0.00     0.003 A 
ATOM      5  C3  PXY d   1      -1.085  -0.198  -0.494  0.00  0.00     0.003 A 
ATOM      6  C4  PXY d   1       0.153   0.361  -0.673  0.00  0.00    -0.082 A 
ATOM      7  C5  PXY d   1       0.980   0.498   0.385  0.00  0.00     0.003 A 
ATOM      8  C6  PXY d   1       0.554   0.070   1.639  0.00  0.00     0.003 A 
ENDROOT
TORSDOF 0
ENDMDL
