MODEL 1
REMARK minimizedAffinity -4.45460081
REMARK minimizedRMSD -1
REMARK  0 active torsions:
REMARK  status: ('A' for Active; 'I' for Inactive)
ROOT
ATOM      1  C4' PXY d   1       0.448   0.343  -2.182  0.00  0.00     0.077 C 
ATOM      2  C1' PXY d   1      -0.892  -0.149   3.420  0.00  0.00     0.077 C 
ATOM      3  C1  PXY d   1      -0.529  -0.015   1.954  0.00  0.00    -0.082 A 
ATOM      4  C2  PXY d   1      -1.489   0.034   1.044  0.00  0.00     0.003 A 
ATOM      5  C3  PXY d   1      -1.177   0.123  -0.288  0.00  0.00     0.003 A 
ATOM      6  C4  PXY d   1       0.128   0.217  -0.690  0.00  0.00    -0.082 A 
ATOM      7  C5  PXY d   1       1.113   0.179   0.233  0.00  0.00     0.003 A 
ATOM      8  C6  PXY d   1       0.777   0.047   1.577  0.00  0.00     0.003 A 
ENDROOT
TORSDOF 0
ENDMDL
