MODEL 1
REMARK minimizedAffinity -2.21757293
REMARK minimizedRMSD -1
REMARK  0 active torsions:
REMARK  status: ('A' for Active; 'I' for Inactive)
ROOT
ATOM      1  C4' PXY d   1       2.456   0.764   0.765  0.00  0.00     0.077 C 
ATOM      2  C1' PXY d   1      -3.154  -0.458   0.093  0.00  0.00     0.077 C 
ATOM      3  C1  PXY d   1      -1.685  -0.136   0.282  0.00  0.00    -0.082 A 
ATOM      4  C2  PXY d   1      -0.985   0.348  -0.732  0.00  0.00     0.003 A 
ATOM      5  C3  PXY d   1       0.352   0.615  -0.587  0.00  0.00     0.003 A 
ATOM      6  C4  PXY d   1       0.968   0.434   0.622  0.00  0.00    -0.082 A 
ATOM      7  C5  PXY d   1       0.258  -0.050   1.664  0.00  0.00     0.003 A 
ATOM      8  C6  PXY d   1      -1.088  -0.353   1.485  0.00  0.00     0.003 A 
ENDROOT
TORSDOF 0
ENDMDL
