MODEL 1
REMARK minimizedAffinity -2.46487641
REMARK minimizedRMSD -1
REMARK  0 active torsions:
REMARK  status: ('A' for Active; 'I' for Inactive)
ROOT
ATOM      1  C4' PXY d   1       0.352   0.749  -2.576  0.00  0.00     0.077 C 
ATOM      2  C1' PXY d   1      -0.097  -0.332   3.084  0.00  0.00     0.077 C 
ATOM      3  C1  PXY d   1       0.011  -0.057   1.598  0.00  0.00    -0.082 A 
ATOM      4  C2  PXY d   1       1.154   0.378   1.094  0.00  0.00     0.003 A 
ATOM      5  C3  PXY d   1       1.260   0.662  -0.243  0.00  0.00     0.003 A 
ATOM      6  C4  PXY d   1       0.200   0.449  -1.083  0.00  0.00    -0.082 A 
ATOM      7  C5  PXY d   1      -0.967  -0.005  -0.579  0.00  0.00     0.003 A 
ATOM      8  C6  PXY d   1      -1.066  -0.248   0.788  0.00  0.00     0.003 A 
ENDROOT
TORSDOF 0
ENDMDL
