MODEL 1
REMARK minimizedAffinity -4.09918022
REMARK minimizedRMSD -1
REMARK  0 active torsions:
REMARK  status: ('A' for Active; 'I' for Inactive)
ROOT
ATOM      1  C4' PXY d   1       1.182   0.408  -2.341  0.00  0.00     0.077 C 
ATOM      2  C1' PXY d   1      -1.533   0.334   2.762  0.00  0.00     0.077 C 
ATOM      3  C1  PXY d   1      -0.832   0.348   1.418  0.00  0.00    -0.082 A 
ATOM      4  C2  PXY d   1       0.490   0.331   1.370  0.00  0.00     0.003 A 
ATOM      5  C3  PXY d   1       1.142   0.376   0.164  0.00  0.00     0.003 A 
ATOM      6  C4  PXY d   1       0.432   0.385  -1.007  0.00  0.00    -0.082 A 
ATOM      7  C5  PXY d   1      -0.918   0.392  -0.966  0.00  0.00     0.003 A 
ATOM      8  C6  PXY d   1      -1.559   0.388   0.269  0.00  0.00     0.003 A 
ENDROOT
TORSDOF 0
ENDMDL
