MODEL 1
REMARK minimizedAffinity -4.89408684
REMARK minimizedRMSD -1
REMARK  0 active torsions:
REMARK  status: ('A' for Active; 'I' for Inactive)
ROOT
ATOM      1  C4' PXY d   1      -3.456   0.632   1.793  0.00  0.00     0.077 C 
ATOM      2  C1' PXY d   1       2.140  -0.776   2.134  0.00  0.00     0.077 C 
ATOM      3  C1  PXY d   1       0.670  -0.414   2.055  0.00  0.00    -0.082 A 
ATOM      4  C2  PXY d   1       0.148  -0.045   0.897  0.00  0.00     0.003 A 
ATOM      5  C3  PXY d   1      -1.172   0.317   0.814  0.00  0.00     0.003 A 
ATOM      6  C4  PXY d   1      -1.979   0.248   1.918  0.00  0.00    -0.082 A 
ATOM      7  C5  PXY d   1      -1.457  -0.138   3.101  0.00  0.00     0.003 A 
ATOM      8  C6  PXY d   1      -0.105  -0.461   3.173  0.00  0.00     0.003 A 
ENDROOT
TORSDOF 0
ENDMDL
