MODEL 1
REMARK minimizedAffinity -2.96890354
REMARK minimizedRMSD -1
REMARK  0 active torsions:
REMARK  status: ('A' for Active; 'I' for Inactive)
ROOT
ATOM      1  C4' PXY d   1       0.559   0.469   2.604  0.00  0.00     0.077 C 
ATOM      2  C1' PXY d   1       0.899   0.059  -3.152  0.00  0.00     0.077 C 
ATOM      3  C1  PXY d   1       0.820   0.159  -1.641  0.00  0.00    -0.082 A 
ATOM      4  C2  PXY d   1      -0.337   0.437  -1.063  0.00  0.00     0.003 A 
ATOM      5  C3  PXY d   1      -0.419   0.563   0.300  0.00  0.00     0.003 A 
ATOM      6  C4  PXY d   1       0.683   0.349   1.083  0.00  0.00    -0.082 A 
ATOM      7  C5  PXY d   1       1.865   0.053   0.502  0.00  0.00     0.003 A 
ATOM      8  C6  PXY d   1       1.937  -0.029  -0.886  0.00  0.00     0.003 A 
ENDROOT
TORSDOF 0
ENDMDL
