MODEL 1
REMARK minimizedAffinity -3.89033294
REMARK minimizedRMSD -1
REMARK  0 active torsions:
REMARK  status: ('A' for Active; 'I' for Inactive)
ROOT
ATOM      1  C4' PXY d   1       0.938  -0.623  -2.712  0.00  0.00     0.077 C 
ATOM      2  C1' PXY d   1      -0.370   0.467   2.813  0.00  0.00     0.077 C 
ATOM      3  C1  PXY d   1      -0.037   0.173   1.363  0.00  0.00    -0.082 A 
ATOM      4  C2  PXY d   1       1.211   0.292   0.941  0.00  0.00     0.003 A 
ATOM      5  C3  PXY d   1       1.524   0.061  -0.374  0.00  0.00     0.003 A 
ATOM      6  C4  PXY d   1       0.558  -0.346  -1.254  0.00  0.00    -0.082 A 
ATOM      7  C5  PXY d   1      -0.717  -0.479  -0.829  0.00  0.00     0.003 A 
ATOM      8  C6  PXY d   1      -1.021  -0.201   0.500  0.00  0.00     0.003 A 
ENDROOT
TORSDOF 0
ENDMDL
