MODEL 1
REMARK minimizedAffinity -5.32890463
REMARK minimizedRMSD -1
REMARK  0 active torsions:
REMARK  status: ('A' for Active; 'I' for Inactive)
ROOT
ATOM      1  C4' PXY d   1       0.706   0.156  -1.557  0.00  0.00     0.077 C 
ATOM      2  C1' PXY d   1      -1.614  -0.443   3.703  0.00  0.00     0.077 C 
ATOM      3  C1  PXY d   1      -0.995  -0.281   2.329  0.00  0.00    -0.082 A 
ATOM      4  C2  PXY d   1      -1.777  -0.170   1.268  0.00  0.00     0.003 A 
ATOM      5  C3  PXY d   1      -1.234  -0.055   0.014  0.00  0.00     0.003 A 
ATOM      6  C4  PXY d   1       0.125  -0.000  -0.150  0.00  0.00    -0.082 A 
ATOM      7  C5  PXY d   1       0.929  -0.102   0.929  0.00  0.00     0.003 A 
ATOM      8  C6  PXY d   1       0.358  -0.260   2.189  0.00  0.00     0.003 A 
ENDROOT
TORSDOF 0
ENDMDL
