MODEL 1
REMARK minimizedAffinity -3.97076082
REMARK minimizedRMSD -1
REMARK  0 active torsions:
REMARK  status: ('A' for Active; 'I' for Inactive)
ROOT
ATOM      1  C4' PXY d   1      -0.680  -0.326   3.307  0.00  0.00     0.077 C 
ATOM      2  C1' PXY d   1       0.621   0.336  -2.286  0.00  0.00     0.077 C 
ATOM      3  C1  PXY d   1       0.268   0.166  -0.822  0.00  0.00    -0.082 A 
ATOM      4  C2  PXY d   1       1.217   0.257   0.095  0.00  0.00     0.003 A 
ATOM      5  C3  PXY d   1       0.920   0.074   1.421  0.00  0.00     0.003 A 
ATOM      6  C4  PXY d   1      -0.371  -0.152   1.818  0.00  0.00    -0.082 A 
ATOM      7  C5  PXY d   1      -1.347  -0.235   0.889  0.00  0.00     0.003 A 
ATOM      8  C6  PXY d   1      -1.018  -0.087  -0.455  0.00  0.00     0.003 A 
ENDROOT
TORSDOF 0
ENDMDL
