MODEL 1
REMARK minimizedAffinity -4.82405758
REMARK minimizedRMSD -1
REMARK  0 active torsions:
REMARK  status: ('A' for Active; 'I' for Inactive)
ROOT
ATOM      1  C4' PXY d   1      -1.163  -0.831   3.754  0.00  0.00     0.077 C 
ATOM      2  C1' PXY d   1      -1.278   0.955  -1.742  0.00  0.00     0.077 C 
ATOM      3  C1  PXY d   1      -1.259   0.492  -0.299  0.00  0.00    -0.082 A 
ATOM      4  C2  PXY d   1      -0.106   0.190   0.276  0.00  0.00     0.003 A 
ATOM      5  C3  PXY d   1      -0.074  -0.260   1.571  0.00  0.00     0.003 A 
ATOM      6  C4  PXY d   1      -1.229  -0.351   2.302  0.00  0.00    -0.082 A 
ATOM      7  C5  PXY d   1      -2.408  -0.035   1.726  0.00  0.00     0.003 A 
ATOM      8  C6  PXY d   1      -2.423   0.381   0.397  0.00  0.00     0.003 A 
ENDROOT
TORSDOF 0
ENDMDL
