MODEL 1
REMARK minimizedAffinity -4.95851898
REMARK minimizedRMSD -1
REMARK  0 active torsions:
REMARK  status: ('A' for Active; 'I' for Inactive)
ROOT
ATOM      1  C4' PXY d   1      -1.541  -0.393   3.355  0.00  0.00     0.077 C 
ATOM      2  C1' PXY d   1       0.852   0.259  -1.866  0.00  0.00     0.077 C 
ATOM      3  C1  PXY d   1       0.213   0.093  -0.501  0.00  0.00    -0.082 A 
ATOM      4  C2  PXY d   1       0.977   0.059   0.578  0.00  0.00     0.003 A 
ATOM      5  C3  PXY d   1       0.419  -0.123   1.818  0.00  0.00     0.003 A 
ATOM      6  C4  PXY d   1      -0.940  -0.217   1.958  0.00  0.00    -0.082 A 
ATOM      7  C5  PXY d   1      -1.727  -0.173   0.862  0.00  0.00     0.003 A 
ATOM      8  C6  PXY d   1      -1.137  -0.029  -0.391  0.00  0.00     0.003 A 
ENDROOT
TORSDOF 0
ENDMDL
