MODEL 1
REMARK minimizedAffinity -3.05933833
REMARK minimizedRMSD -1
REMARK  0 active torsions:
REMARK  status: ('A' for Active; 'I' for Inactive)
ROOT
ATOM      1  C4' PXY d   1       0.711  -0.035  -2.102  0.00  0.00     0.077 C 
ATOM      2  C1' PXY d   1      -1.231  -0.278   3.337  0.00  0.00     0.077 C 
ATOM      3  C1  PXY d   1      -0.714  -0.205   1.914  0.00  0.00    -0.082 A 
ATOM      4  C2  PXY d   1      -1.471  -0.637   0.919  0.00  0.00     0.003 A 
ATOM      5  C3  PXY d   1      -1.007  -0.608  -0.370  0.00  0.00     0.003 A 
ATOM      6  C4  PXY d   1       0.226  -0.081  -0.650  0.00  0.00    -0.082 A 
ATOM      7  C5  PXY d   1       1.000   0.372   0.358  0.00  0.00     0.003 A 
ATOM      8  C6  PXY d   1       0.527   0.296   1.664  0.00  0.00     0.003 A 
ENDROOT
TORSDOF 0
ENDMDL
