MODEL 1
REMARK minimizedAffinity -3.65440488
REMARK minimizedRMSD -1
REMARK  0 active torsions:
REMARK  status: ('A' for Active; 'I' for Inactive)
ROOT
ATOM      1  C4' PXY d   1       0.775   0.426  -1.225  0.00  0.00     0.077 C 
ATOM      2  C1' PXY d   1      -1.722  -0.874   3.824  0.00  0.00     0.077 C 
ATOM      3  C1  PXY d   1      -1.058  -0.526   2.506  0.00  0.00    -0.082 A 
ATOM      4  C2  PXY d   1      -1.760  -0.581   1.386  0.00  0.00     0.003 A 
ATOM      5  C3  PXY d   1      -1.167  -0.301   0.182  0.00  0.00     0.003 A 
ATOM      6  C4  PXY d   1       0.144   0.092   0.130  0.00  0.00    -0.082 A 
ATOM      7  C5  PXY d   1       0.863   0.162   1.270  0.00  0.00     0.003 A 
ATOM      8  C6  PXY d   1       0.254  -0.167   2.477  0.00  0.00     0.003 A 
ENDROOT
TORSDOF 0
ENDMDL
