MODEL 1
REMARK minimizedAffinity -3.93487263
REMARK minimizedRMSD -1
REMARK  0 active torsions:
REMARK  status: ('A' for Active; 'I' for Inactive)
ROOT
ATOM      1  C4' PXY d   1      -1.319  -0.211   3.615  0.00  0.00     0.077 C 
ATOM      2  C1' PXY d   1       0.586   0.044  -1.837  0.00  0.00     0.077 C 
ATOM      3  C1  PXY d   1       0.075  -0.018  -0.411  0.00  0.00    -0.082 A 
ATOM      4  C2  PXY d   1       0.937  -0.055   0.592  0.00  0.00     0.003 A 
ATOM      5  C3  PXY d   1       0.493  -0.143   1.886  0.00  0.00     0.003 A 
ATOM      6  C4  PXY d   1      -0.849  -0.139   2.160  0.00  0.00    -0.082 A 
ATOM      7  C5  PXY d   1      -1.735  -0.090   1.143  0.00  0.00     0.003 A 
ATOM      8  C6  PXY d   1      -1.263  -0.043  -0.166  0.00  0.00     0.003 A 
ENDROOT
TORSDOF 0
ENDMDL
