MODEL 1
REMARK minimizedAffinity -5.52826786
REMARK minimizedRMSD -1
REMARK  0 active torsions:
REMARK  status: ('A' for Active; 'I' for Inactive)
ROOT
ATOM      1  C   UNL d   1       2.480   2.835   0.891  0.00  0.00     0.077 C 
ATOM      2  C1  UNL d   1       1.276   1.941   0.922  0.00  0.00    -0.074 A 
ATOM      3  C2  UNL d   1       0.369   1.993   1.985  0.00  0.00    -0.005 A 
ATOM      4  C3  UNL d   1      -0.751   1.162   1.996  0.00  0.00     0.006 A 
ATOM      5  C4  UNL d   1      -0.975   0.272   0.945  0.00  0.00    -0.005 A 
ATOM      6  C5  UNL d   1      -0.080   0.207  -0.128  0.00  0.00    -0.074 A 
ATOM      7  C6  UNL d   1      -0.311  -0.737  -1.270  0.00  0.00     0.077 C 
ATOM      8  C7  UNL d   1       1.040   1.050  -0.134  0.00  0.00    -0.001 A 
ENDROOT
TORSDOF 0
ENDMDL
