MODEL 1
REMARK minimizedAffinity -5.41676235
REMARK minimizedRMSD -1
REMARK  0 active torsions:
REMARK  status: ('A' for Active; 'I' for Inactive)
ROOT
ATOM      1  C   UNL d   1       1.459   3.193   1.328  0.00  0.00     0.077 C 
ATOM      2  C1  UNL d   1       0.763   1.881   1.120  0.00  0.00    -0.074 A 
ATOM      3  C2  UNL d   1      -0.454   1.606   1.751  0.00  0.00    -0.005 A 
ATOM      4  C3  UNL d   1      -1.095   0.385   1.541  0.00  0.00     0.006 A 
ATOM      5  C4  UNL d   1      -0.526  -0.572   0.700  0.00  0.00    -0.005 A 
ATOM      6  C5  UNL d   1       0.690  -0.314   0.059  0.00  0.00    -0.074 A 
ATOM      7  C6  UNL d   1       1.311  -1.327  -0.856  0.00  0.00     0.077 C 
ATOM      8  C7  UNL d   1       1.325   0.918   0.270  0.00  0.00    -0.001 A 
ENDROOT
TORSDOF 0
ENDMDL
