MODEL 1
REMARK minimizedAffinity -2.74286771
REMARK minimizedRMSD -1
REMARK  0 active torsions:
REMARK  status: ('A' for Active; 'I' for Inactive)
ROOT
ATOM      1  C   UNL d   1      -1.703  -1.971  -1.394  0.00  0.00     0.077 C 
ATOM      2  C1  UNL d   1      -0.717  -1.097  -0.677  0.00  0.00    -0.074 A 
ATOM      3  C2  UNL d   1       0.655  -1.208  -0.927  0.00  0.00    -0.005 A 
ATOM      4  C3  UNL d   1       1.560  -0.382  -0.260  0.00  0.00     0.006 A 
ATOM      5  C4  UNL d   1       1.103   0.561   0.662  0.00  0.00    -0.005 A 
ATOM      6  C5  UNL d   1      -0.265   0.686   0.924  0.00  0.00    -0.074 A 
ATOM      7  C6  UNL d   1      -0.773   1.701   1.904  0.00  0.00     0.077 C 
ATOM      8  C7  UNL d   1      -1.168  -0.142   0.244  0.00  0.00    -0.001 A 
ENDROOT
TORSDOF 0
ENDMDL
