MODEL 1
REMARK minimizedAffinity -4.35772705
REMARK minimizedRMSD -1
REMARK  0 active torsions:
REMARK  status: ('A' for Active; 'I' for Inactive)
ROOT
ATOM      1  C   UNL d   1       1.527   3.345   0.857  0.00  0.00     0.077 C 
ATOM      2  C1  UNL d   1       0.850   2.007   0.876  0.00  0.00    -0.074 A 
ATOM      3  C2  UNL d   1       0.331   1.480   2.064  0.00  0.00    -0.005 A 
ATOM      4  C3  UNL d   1      -0.305   0.239   2.064  0.00  0.00     0.006 A 
ATOM      5  C4  UNL d   1      -0.428  -0.487   0.879  0.00  0.00    -0.005 A 
ATOM      6  C5  UNL d   1       0.083   0.023  -0.318  0.00  0.00    -0.074 A 
ATOM      7  C6  UNL d   1      -0.050  -0.740  -1.603  0.00  0.00     0.077 C 
ATOM      8  C7  UNL d   1       0.714   1.275  -0.312  0.00  0.00    -0.001 A 
ENDROOT
TORSDOF 0
ENDMDL
