MODEL 1
REMARK minimizedAffinity -3.5784328
REMARK minimizedRMSD -1
REMARK  0 active torsions:
REMARK  status: ('A' for Active; 'I' for Inactive)
ROOT
ATOM      1  C   UNL d   1       1.151   3.400   1.102  0.00  0.00     0.077 C 
ATOM      2  C1  UNL d   1       0.363   2.124   1.066  0.00  0.00    -0.074 A 
ATOM      3  C2  UNL d   1      -0.289   1.650   2.208  0.00  0.00    -0.005 A 
ATOM      4  C3  UNL d   1      -1.027   0.467   2.157  0.00  0.00     0.006 A 
ATOM      5  C4  UNL d   1      -1.119  -0.252   0.965  0.00  0.00    -0.005 A 
ATOM      6  C5  UNL d   1      -0.475   0.207  -0.188  0.00  0.00    -0.074 A 
ATOM      7  C6  UNL d   1      -0.572  -0.549  -1.480  0.00  0.00     0.077 C 
ATOM      8  C7  UNL d   1       0.258   1.400  -0.130  0.00  0.00    -0.001 A 
ENDROOT
TORSDOF 0
ENDMDL
