MODEL 1
REMARK minimizedAffinity -4.09223318
REMARK minimizedRMSD -1
REMARK  0 active torsions:
REMARK  status: ('A' for Active; 'I' for Inactive)
ROOT
ATOM      1  C   UNL d   1       1.365  -1.312  -1.488  0.00  0.00     0.077 C 
ATOM      2  C1  UNL d   1       0.561  -0.587  -0.450  0.00  0.00    -0.074 A 
ATOM      3  C2  UNL d   1      -0.643  -1.115   0.025  0.00  0.00    -0.005 A 
ATOM      4  C3  UNL d   1      -1.375  -0.434   0.998  0.00  0.00     0.006 A 
ATOM      5  C4  UNL d   1      -0.911   0.780   1.504  0.00  0.00    -0.005 A 
ATOM      6  C5  UNL d   1       0.292   1.324   1.042  0.00  0.00    -0.074 A 
ATOM      7  C6  UNL d   1       0.810   2.623   1.583  0.00  0.00     0.077 C 
ATOM      8  C7  UNL d   1       1.025   0.630   0.069  0.00  0.00    -0.001 A 
ENDROOT
TORSDOF 0
ENDMDL
