MODEL 1
REMARK minimizedAffinity -3.31705165
REMARK minimizedRMSD -1
REMARK  0 active torsions:
REMARK  status: ('A' for Active; 'I' for Inactive)
ROOT
ATOM      1  C   UNL d   1       1.348   2.945   0.516  0.00  0.00     0.077 C 
ATOM      2  C1  UNL d   1       0.527   1.691   0.470  0.00  0.00    -0.074 A 
ATOM      3  C2  UNL d   1      -0.131   1.220   1.610  0.00  0.00    -0.005 A 
ATOM      4  C3  UNL d   1      -0.899   0.057   1.550  0.00  0.00     0.006 A 
ATOM      5  C4  UNL d   1      -1.015  -0.646   0.350  0.00  0.00    -0.005 A 
ATOM      6  C5  UNL d   1      -0.364  -0.191  -0.801  0.00  0.00    -0.074 A 
ATOM      7  C6  UNL d   1      -0.487  -0.929  -2.100  0.00  0.00     0.077 C 
ATOM      8  C7  UNL d   1       0.399   0.983  -0.734  0.00  0.00    -0.001 A 
ENDROOT
TORSDOF 0
ENDMDL
