MODEL 1
REMARK minimizedAffinity -4.72833395
REMARK minimizedRMSD -1
REMARK  0 active torsions:
REMARK  status: ('A' for Active; 'I' for Inactive)
ROOT
ATOM      1  C   UNL d   1       1.449   2.895   1.054  0.00  0.00     0.077 C 
ATOM      2  C1  UNL d   1       1.375   1.530   0.438  0.00  0.00    -0.074 A 
ATOM      3  C2  UNL d   1       2.511   0.926  -0.110  0.00  0.00    -0.005 A 
ATOM      4  C3  UNL d   1       2.428  -0.349  -0.671  0.00  0.00     0.006 A 
ATOM      5  C4  UNL d   1       1.211  -1.030  -0.690  0.00  0.00    -0.005 A 
ATOM      6  C5  UNL d   1       0.064  -0.442  -0.146  0.00  0.00    -0.074 A 
ATOM      7  C6  UNL d   1      -1.250  -1.165  -0.149  0.00  0.00     0.077 C 
ATOM      8  C7  UNL d   1       0.157   0.836   0.422  0.00  0.00    -0.001 A 
ENDROOT
TORSDOF 0
ENDMDL
