MODEL 1
REMARK minimizedAffinity -1.53339124
REMARK minimizedRMSD -1
REMARK  0 active torsions:
REMARK  status: ('A' for Active; 'I' for Inactive)
ROOT
ATOM      1  C   UNL d   1      -1.367  -1.385  -3.510  0.00  0.00     0.077 C 
ATOM      2  C1  UNL d   1      -1.049  -1.248  -2.050  0.00  0.00    -0.074 A 
ATOM      3  C2  UNL d   1      -0.761  -2.372  -1.269  0.00  0.00    -0.005 A 
ATOM      4  C3  UNL d   1      -0.458  -2.228   0.085  0.00  0.00     0.006 A 
ATOM      5  C4  UNL d   1      -0.439  -0.961   0.670  0.00  0.00    -0.005 A 
ATOM      6  C5  UNL d   1      -0.723   0.174  -0.096  0.00  0.00    -0.074 A 
ATOM      7  C6  UNL d   1      -0.698   1.543   0.516  0.00  0.00     0.077 C 
ATOM      8  C7  UNL d   1      -1.020   0.022  -1.457  0.00  0.00    -0.001 A 
ENDROOT
TORSDOF 0
ENDMDL
