MODEL 1
REMARK minimizedAffinity -2.30722451
REMARK minimizedRMSD -1
REMARK  0 active torsions:
REMARK  status: ('A' for Active; 'I' for Inactive)
ROOT
ATOM      1  C   UNL d   1      -0.697   0.863   0.932  0.00  0.00     0.077 C 
ATOM      2  C1  UNL d   1      -0.761  -0.107  -0.210  0.00  0.00    -0.074 A 
ATOM      3  C2  UNL d   1       0.213  -1.099  -0.366  0.00  0.00    -0.005 A 
ATOM      4  C3  UNL d   1       0.135  -2.000  -1.428  0.00  0.00     0.006 A 
ATOM      5  C4  UNL d   1      -0.916  -1.919  -2.342  0.00  0.00    -0.005 A 
ATOM      6  C5  UNL d   1      -1.899  -0.935  -2.202  0.00  0.00    -0.074 A 
ATOM      7  C6  UNL d   1      -3.041  -0.840  -3.171  0.00  0.00     0.077 C 
ATOM      8  C7  UNL d   1      -1.818  -0.037  -1.128  0.00  0.00    -0.001 A 
ENDROOT
TORSDOF 0
ENDMDL
