MODEL 1
REMARK minimizedAffinity -3.5313282
REMARK minimizedRMSD -1
REMARK  0 active torsions:
REMARK  status: ('A' for Active; 'I' for Inactive)
ROOT
ATOM      1  C   UNL d   1       1.822  -1.439  -1.455  0.00  0.00     0.077 C 
ATOM      2  C1  UNL d   1       0.946  -0.748  -0.453  0.00  0.00    -0.074 A 
ATOM      3  C2  UNL d   1      -0.305  -1.270  -0.111  0.00  0.00    -0.005 A 
ATOM      4  C3  UNL d   1      -1.105  -0.621   0.830  0.00  0.00     0.006 A 
ATOM      5  C4  UNL d   1      -0.662   0.554   1.437  0.00  0.00    -0.005 A 
ATOM      6  C5  UNL d   1       0.587   1.091   1.109  0.00  0.00    -0.074 A 
ATOM      7  C6  UNL d   1       1.082   2.348   1.759  0.00  0.00     0.077 C 
ATOM      8  C7  UNL d   1       1.387   0.429   0.168  0.00  0.00    -0.001 A 
ENDROOT
TORSDOF 0
ENDMDL
