MODEL 1
REMARK minimizedAffinity -3.44159484
REMARK minimizedRMSD -1
REMARK  0 active torsions:
REMARK  status: ('A' for Active; 'I' for Inactive)
ROOT
ATOM      1  C   UNL d   1      -0.784  -0.107  -0.457  0.00  0.00     0.077 C 
ATOM      2  C1  UNL d   1       0.281   0.669   0.260  0.00  0.00    -0.074 A 
ATOM      3  C2  UNL d   1       0.021   1.275   1.493  0.00  0.00    -0.005 A 
ATOM      4  C3  UNL d   1       1.024   1.986   2.152  0.00  0.00     0.006 A 
ATOM      5  C4  UNL d   1       2.294   2.098   1.585  0.00  0.00    -0.005 A 
ATOM      6  C5  UNL d   1       2.573   1.498   0.353  0.00  0.00    -0.074 A 
ATOM      7  C6  UNL d   1       3.935   1.600  -0.265  0.00  0.00     0.077 C 
ATOM      8  C7  UNL d   1       1.562   0.779  -0.299  0.00  0.00    -0.001 A 
ENDROOT
TORSDOF 0
ENDMDL
