MODEL 1
REMARK minimizedAffinity -5.14586782
REMARK minimizedRMSD -1
REMARK  0 active torsions:
REMARK  status: ('A' for Active; 'I' for Inactive)
ROOT
ATOM      1  C   UNL d   1       3.820   1.470   0.396  0.00  0.00     0.077 C 
ATOM      2  C1  UNL d   1       2.347   1.256   0.584  0.00  0.00    -0.074 A 
ATOM      3  C2  UNL d   1       1.597   2.105   1.404  0.00  0.00    -0.005 A 
ATOM      4  C3  UNL d   1       0.226   1.899   1.562  0.00  0.00     0.006 A 
ATOM      5  C4  UNL d   1      -0.407   0.844   0.904  0.00  0.00    -0.005 A 
ATOM      6  C5  UNL d   1       0.327  -0.015   0.079  0.00  0.00    -0.074 A 
ATOM      7  C6  UNL d   1      -0.339  -1.148  -0.643  0.00  0.00     0.077 C 
ATOM      8  C7  UNL d   1       1.703   0.203  -0.080  0.00  0.00    -0.001 A 
ENDROOT
TORSDOF 0
ENDMDL
