MODEL 1
REMARK minimizedAffinity -1.78066492
REMARK minimizedRMSD -1
REMARK  0 active torsions:
REMARK  status: ('A' for Active; 'I' for Inactive)
ROOT
ATOM      1  C   UNL d   1      -0.174  -1.227  -1.353  0.00  0.00     0.077 C 
ATOM      2  C1  UNL d   1      -0.272  -0.302  -0.177  0.00  0.00    -0.074 A 
ATOM      3  C2  UNL d   1      -1.276  -0.463   0.783  0.00  0.00    -0.005 A 
ATOM      4  C3  UNL d   1      -1.349   0.400   1.876  0.00  0.00     0.006 A 
ATOM      5  C4  UNL d   1      -0.419   1.430   2.021  0.00  0.00    -0.005 A 
ATOM      6  C5  UNL d   1       0.593   1.606   1.072  0.00  0.00    -0.074 A 
ATOM      7  C6  UNL d   1       1.607   2.702   1.218  0.00  0.00     0.077 C 
ATOM      8  C7  UNL d   1       0.664   0.731  -0.020  0.00  0.00    -0.001 A 
ENDROOT
TORSDOF 0
ENDMDL
