MODEL 1
REMARK minimizedAffinity -0.0870375857
REMARK minimizedRMSD -1
REMARK  0 active torsions:
REMARK  status: ('A' for Active; 'I' for Inactive)
ROOT
ATOM      1  C   UNL d   1      -1.169  -1.264  -0.477  0.00  0.00     0.077 C 
ATOM      2  C1  UNL d   1      -0.300  -0.281   0.249  0.00  0.00    -0.074 A 
ATOM      3  C2  UNL d   1      -0.838   0.581   1.211  0.00  0.00    -0.005 A 
ATOM      4  C3  UNL d   1      -0.016   1.483   1.885  0.00  0.00     0.006 A 
ATOM      5  C4  UNL d   1       1.351   1.533   1.606  0.00  0.00    -0.005 A 
ATOM      6  C5  UNL d   1       1.906   0.679   0.648  0.00  0.00    -0.074 A 
ATOM      7  C6  UNL d   1       3.374   0.712   0.343  0.00  0.00     0.077 C 
ATOM      8  C7  UNL d   1       1.075  -0.230  -0.020  0.00  0.00    -0.001 A 
ENDROOT
TORSDOF 0
ENDMDL
