MODEL 1
REMARK minimizedAffinity -5.09082127
REMARK minimizedRMSD -1
REMARK  0 active torsions:
REMARK  status: ('A' for Active; 'I' for Inactive)
ROOT
ATOM      1  C   UNL d   1      -0.146   6.000  -3.463  0.00  0.00     0.077 C 
ATOM      2  C1  UNL d   1       1.187   5.706  -4.086  0.00  0.00    -0.074 A 
ATOM      3  C2  UNL d   1       1.426   5.983  -5.436  0.00  0.00    -0.005 A 
ATOM      4  C3  UNL d   1       2.674   5.713  -5.998  0.00  0.00     0.006 A 
ATOM      5  C4  UNL d   1       3.693   5.165  -5.218  0.00  0.00    -0.005 A 
ATOM      6  C5  UNL d   1       3.472   4.883  -3.866  0.00  0.00    -0.074 A 
ATOM      7  C6  UNL d   1       4.559   4.303  -3.011  0.00  0.00     0.077 C 
ATOM      8  C7  UNL d   1       2.218   5.163  -3.306  0.00  0.00    -0.001 A 
ENDROOT
TORSDOF 0
ENDMDL
