MODEL 1
REMARK minimizedAffinity 14.5629692
REMARK minimizedRMSD -1
REMARK  0 active torsions:
REMARK  status: ('A' for Active; 'I' for Inactive)
ROOT
ATOM      1  O1  BZF d   1       4.660   4.721   4.094  0.00  0.00    -0.204 OA
ATOM      2  C2  BZF d   1       4.386   5.999   3.647  0.00  0.00     0.174 A 
ATOM      3  C3  BZF d   1       4.123   5.996   2.324  0.00  0.00    -0.012 A 
ATOM      4  C3A BZF d   1       4.148   4.619   1.938  0.00  0.00    -0.107 A 
ATOM      5  C4  BZF d   1       3.945   3.972   0.752  0.00  0.00     0.055 A 
ATOM      6  C5  BZF d   1       4.115   2.625   0.697  0.00  0.00    -0.016 A 
ATOM      7  C6  BZF d   1       4.493   1.895   1.805  0.00  0.00     0.022 A 
ATOM      8  C7  BZF d   1       4.701   2.492   3.004  0.00  0.00     0.029 A 
ATOM      9  C7A BZF d   1       4.498   3.848   3.071  0.00  0.00     0.058 A 
ENDROOT
TORSDOF 0
ENDMDL
