MODEL 1
REMARK minimizedAffinity 11.7077522
REMARK minimizedRMSD -1
REMARK  0 active torsions:
REMARK  status: ('A' for Active; 'I' for Inactive)
ROOT
ATOM      1  O1  BZF d   1      -0.866   2.228   4.350  0.00  0.00    -0.204 OA
ATOM      2  C2  BZF d   1      -0.338   2.603   5.570  0.00  0.00     0.174 A 
ATOM      3  C3  BZF d   1       0.728   1.839   5.885  0.00  0.00    -0.012 A 
ATOM      4  C3A BZF d   1       0.932   0.991   4.751  0.00  0.00    -0.107 A 
ATOM      5  C4  BZF d   1       1.848   0.023   4.455  0.00  0.00     0.055 A 
ATOM      6  C5  BZF d   1       1.726  -0.669   3.292  0.00  0.00    -0.016 A 
ATOM      7  C6  BZF d   1       0.699  -0.422   2.405  0.00  0.00     0.022 A 
ATOM      8  C7  BZF d   1      -0.231   0.532   2.652  0.00  0.00     0.029 A 
ATOM      9  C7A BZF d   1      -0.092   1.255   3.812  0.00  0.00     0.058 A 
ENDROOT
TORSDOF 0
ENDMDL
