MODEL 1
REMARK minimizedAffinity 10.4584103
REMARK minimizedRMSD -1
REMARK  0 active torsions:
REMARK  status: ('A' for Active; 'I' for Inactive)
ROOT
ATOM      1  O1  BZF d   1      -1.177   1.662   3.563  0.00  0.00    -0.204 OA
ATOM      2  C2  BZF d   1      -1.978   0.746   2.910  0.00  0.00     0.174 A 
ATOM      3  C3  BZF d   1      -1.301  -0.396   2.669  0.00  0.00    -0.012 A 
ATOM      4  C3A BZF d   1      -0.024  -0.214   3.288  0.00  0.00    -0.107 A 
ATOM      5  C4  BZF d   1       1.083  -1.004   3.406  0.00  0.00     0.055 A 
ATOM      6  C5  BZF d   1       2.193  -0.501   4.009  0.00  0.00    -0.016 A 
ATOM      7  C6  BZF d   1       2.232   0.788   4.498  0.00  0.00     0.022 A 
ATOM      8  C7  BZF d   1       1.156   1.608   4.409  0.00  0.00     0.029 A 
ATOM      9  C7A BZF d   1       0.023   1.092   3.830  0.00  0.00     0.058 A 
ENDROOT
TORSDOF 0
ENDMDL
