MODEL 1
REMARK minimizedAffinity 8.3729763
REMARK minimizedRMSD -1
REMARK  0 active torsions:
REMARK  status: ('A' for Active; 'I' for Inactive)
ROOT
ATOM      1  O1  BZF d   1      -2.309  -2.378   3.365  0.00  0.00    -0.204 OA
ATOM      2  C2  BZF d   1      -3.315  -1.581   2.854  0.00  0.00     0.174 A 
ATOM      3  C3  BZF d   1      -2.837  -0.365   2.517  0.00  0.00    -0.012 A 
ATOM      4  C3A BZF d   1      -1.427  -0.437   2.752  0.00  0.00    -0.107 A 
ATOM      5  C4  BZF d   1      -0.402   0.451   2.591  0.00  0.00     0.055 A 
ATOM      6  C5  BZF d   1       0.849   0.094   2.983  0.00  0.00    -0.016 A 
ATOM      7  C6  BZF d   1       1.110  -1.140   3.544  0.00  0.00     0.022 A 
ATOM      8  C7  BZF d   1       0.126  -2.056   3.719  0.00  0.00     0.029 A 
ATOM      9  C7A BZF d   1      -1.133  -1.710   3.293  0.00  0.00     0.058 A 
ENDROOT
TORSDOF 0
ENDMDL
