MODEL 1
REMARK minimizedAffinity 9.2320776
REMARK minimizedRMSD -1
REMARK  0 active torsions:
REMARK  status: ('A' for Active; 'I' for Inactive)
ROOT
ATOM      1  O1  BZF d   1       3.712   4.736   1.001  0.00  0.00    -0.204 OA
ATOM      2  C2  BZF d   1       4.238   5.999   1.188  0.00  0.00     0.174 A 
ATOM      3  C3  BZF d   1       5.141   5.998   2.189  0.00  0.00    -0.012 A 
ATOM      4  C3A BZF d   1       5.250   4.631   2.596  0.00  0.00    -0.107 A 
ATOM      5  C4  BZF d   1       6.000   3.989   3.540  0.00  0.00     0.055 A 
ATOM      6  C5  BZF d   1       5.816   2.657   3.736  0.00  0.00    -0.016 A 
ATOM      7  C6  BZF d   1       4.889   1.938   3.010  0.00  0.00     0.022 A 
ATOM      8  C7  BZF d   1       4.126   2.529   2.060  0.00  0.00     0.029 A 
ATOM      9  C7A BZF d   1       4.332   3.869   1.837  0.00  0.00     0.058 A 
ENDROOT
TORSDOF 0
ENDMDL
