MODEL 1
REMARK minimizedAffinity 8.82660484
REMARK minimizedRMSD -1
REMARK  0 active torsions:
REMARK  status: ('A' for Active; 'I' for Inactive)
ROOT
ATOM      1  O1  BZF d   1       3.773   5.814   4.178  0.00  0.00    -0.204 OA
ATOM      2  C2  BZF d   1       4.952   6.000   4.873  0.00  0.00     0.174 A 
ATOM      3  C3  BZF d   1       6.000   5.513   4.178  0.00  0.00    -0.012 A 
ATOM      4  C3A BZF d   1       5.453   5.074   2.931  0.00  0.00    -0.107 A 
ATOM      5  C4  BZF d   1       5.998   4.511   1.813  0.00  0.00     0.055 A 
ATOM      6  C5  BZF d   1       5.178   4.131   0.798  0.00  0.00    -0.016 A 
ATOM      7  C6  BZF d   1       3.810   4.295   0.869  0.00  0.00     0.022 A 
ATOM      8  C7  BZF d   1       3.224   4.853   1.956  0.00  0.00     0.029 A 
ATOM      9  C7A BZF d   1       4.052   5.268   2.970  0.00  0.00     0.058 A 
ENDROOT
TORSDOF 0
ENDMDL
