MODEL 1
REMARK minimizedAffinity 18.2313118
REMARK minimizedRMSD -1
REMARK  0 active torsions:
REMARK  status: ('A' for Active; 'I' for Inactive)
ROOT
ATOM      1  O1  BZF d   1      -2.454  -0.063   2.085  0.00  0.00    -0.204 OA
ATOM      2  C2  BZF d   1      -3.326  -1.090   2.387  0.00  0.00     0.174 A 
ATOM      3  C3  BZF d   1      -2.673  -2.118   2.967  0.00  0.00    -0.012 A 
ATOM      4  C3A BZF d   1      -1.323  -1.669   3.116  0.00  0.00    -0.107 A 
ATOM      5  C4  BZF d   1      -0.197  -2.237   3.641  0.00  0.00     0.055 A 
ATOM      6  C5  BZF d   1       0.980  -1.561   3.566  0.00  0.00    -0.016 A 
ATOM      7  C6  BZF d   1       1.068  -0.321   2.970  0.00  0.00     0.022 A 
ATOM      8  C7  BZF d   1      -0.022   0.285   2.439  0.00  0.00     0.029 A 
ATOM      9  C7A BZF d   1      -1.219  -0.380   2.543  0.00  0.00     0.058 A 
ENDROOT
TORSDOF 0
ENDMDL
