MODEL 1
REMARK minimizedAffinity 23.3867512
REMARK minimizedRMSD -1
REMARK  0 active torsions:
REMARK  status: ('A' for Active; 'I' for Inactive)
ROOT
ATOM      1  O1  BZF d   1       1.416  -3.156  -4.881  0.00  0.00    -0.204 OA
ATOM      2  C2  BZF d   1       0.845  -1.923  -4.631  0.00  0.00     0.174 A 
ATOM      3  C3  BZF d   1      -0.476  -1.943  -4.904  0.00  0.00    -0.012 A 
ATOM      4  C3A BZF d   1      -0.765  -3.298  -5.263  0.00  0.00    -0.107 A 
ATOM      5  C4  BZF d   1      -1.909  -3.949  -5.625  0.00  0.00     0.055 A 
ATOM      6  C5  BZF d   1      -1.839  -5.258  -5.985  0.00  0.00    -0.016 A 
ATOM      7  C6  BZF d   1      -0.642  -5.943  -5.999  0.00  0.00     0.022 A 
ATOM      8  C7  BZF d   1       0.519  -5.341  -5.643  0.00  0.00     0.029 A 
ATOM      9  C7A BZF d   1       0.446  -4.027  -5.248  0.00  0.00     0.058 A 
ENDROOT
TORSDOF 0
ENDMDL
