MODEL 1
REMARK minimizedAffinity 15.0232983
REMARK minimizedRMSD -1
REMARK  0 active torsions:
REMARK  status: ('A' for Active; 'I' for Inactive)
ROOT
ATOM      1  O1  BZF d   1      -1.187   0.483   2.481  0.00  0.00    -0.204 OA
ATOM      2  C2  BZF d   1      -1.066   1.836   2.732  0.00  0.00     0.174 A 
ATOM      3  C3  BZF d   1       0.132   2.116   3.283  0.00  0.00    -0.012 A 
ATOM      4  C3A BZF d   1       0.839   0.872   3.298  0.00  0.00    -0.107 A 
ATOM      5  C4  BZF d   1       2.088   0.506   3.711  0.00  0.00     0.055 A 
ATOM      6  C5  BZF d   1       2.445  -0.804   3.657  0.00  0.00    -0.016 A 
ATOM      7  C6  BZF d   1       1.577  -1.774   3.200  0.00  0.00     0.022 A 
ATOM      8  C7  BZF d   1       0.330  -1.460   2.775  0.00  0.00     0.029 A 
ATOM      9  C7A BZF d   1      -0.022  -0.132   2.797  0.00  0.00     0.058 A 
ENDROOT
TORSDOF 0
ENDMDL
