MODEL 1
REMARK minimizedAffinity 17.1300011
REMARK minimizedRMSD -1
REMARK  0 active torsions:
REMARK  status: ('A' for Active; 'I' for Inactive)
ROOT
ATOM      1  O1  BZF d   1       1.862  -0.791  -4.041  0.00  0.00    -0.204 OA
ATOM      2  C2  BZF d   1       0.707  -0.034  -4.083  0.00  0.00     0.174 A 
ATOM      3  C3  BZF d   1      -0.259  -0.674  -4.772  0.00  0.00    -0.012 A 
ATOM      4  C3A BZF d   1       0.298  -1.948  -5.107  0.00  0.00    -0.107 A 
ATOM      5  C4  BZF d   1      -0.183  -3.037  -5.776  0.00  0.00     0.055 A 
ATOM      6  C5  BZF d   1       0.642  -4.095  -5.997  0.00  0.00    -0.016 A 
ATOM      7  C6  BZF d   1       1.953  -4.095  -5.568  0.00  0.00     0.022 A 
ATOM      8  C7  BZF d   1       2.474  -3.039  -4.896  0.00  0.00     0.029 A 
ATOM      9  C7A BZF d   1       1.633  -1.983  -4.642  0.00  0.00     0.058 A 
ENDROOT
TORSDOF 0
ENDMDL
