MODEL 1
REMARK minimizedAffinity 8.75615501
REMARK minimizedRMSD -1
REMARK  0 active torsions:
REMARK  status: ('A' for Active; 'I' for Inactive)
ROOT
ATOM      1  O1  BZF d   1       0.316  -1.811   2.713  0.00  0.00    -0.204 OA
ATOM      2  C2  BZF d   1       0.344  -0.912   1.665  0.00  0.00     0.174 A 
ATOM      3  C3  BZF d   1       1.157   0.127   1.948  0.00  0.00    -0.012 A 
ATOM      4  C3A BZF d   1       1.741  -0.187   3.216  0.00  0.00    -0.107 A 
ATOM      5  C4  BZF d   1       2.644   0.451   4.017  0.00  0.00     0.055 A 
ATOM      6  C5  BZF d   1       2.948  -0.087   5.228  0.00  0.00    -0.016 A 
ATOM      7  C6  BZF d   1       2.365  -1.256   5.670  0.00  0.00     0.022 A 
ATOM      8  C7  BZF d   1       1.468  -1.928   4.908  0.00  0.00     0.029 A 
ATOM      9  C7A BZF d   1       1.183  -1.404   3.671  0.00  0.00     0.058 A 
ENDROOT
TORSDOF 0
ENDMDL
