MODEL 1
REMARK minimizedAffinity 8.88106251
REMARK minimizedRMSD -1
REMARK  0 active torsions:
REMARK  status: ('A' for Active; 'I' for Inactive)
ROOT
ATOM      1  O1  BZF d   1       0.396  -2.697   3.595  0.00  0.00    -0.204 OA
ATOM      2  C2  BZF d   1       1.467  -2.802   4.462  0.00  0.00     0.174 A 
ATOM      3  C3  BZF d   1       2.059  -1.603   4.638  0.00  0.00    -0.012 A 
ATOM      4  C3A BZF d   1       1.256  -0.675   3.903  0.00  0.00    -0.107 A 
ATOM      5  C4  BZF d   1       1.323   0.674   3.705  0.00  0.00     0.055 A 
ATOM      6  C5  BZF d   1       0.426   1.266   2.873  0.00  0.00    -0.016 A 
ATOM      7  C6  BZF d   1      -0.546   0.539   2.219  0.00  0.00     0.022 A 
ATOM      8  C7  BZF d   1      -0.656  -0.802   2.387  0.00  0.00     0.029 A 
ATOM      9  C7A BZF d   1       0.228  -1.397   3.253  0.00  0.00     0.058 A 
ENDROOT
TORSDOF 0
ENDMDL
