MODEL 1
REMARK minimizedAffinity 14.9571304
REMARK minimizedRMSD -1
REMARK  1 active torsions:
REMARK  status: ('A' for Active; 'I' for Inactive)
REMARK    1  A    between atoms: C3_4  and  O_7 
ROOT
ATOM      1  C   UNL d   1      -2.264  -1.117   0.634  0.00  0.00    -0.033 A 
ATOM      2  C1  UNL d   1      -1.490  -2.018   1.369  0.00  0.00     0.039 A 
ATOM      3  C2  UNL d   1      -2.041  -3.228   1.795  0.00  0.00    -0.080 A 
ATOM      4  C3  UNL d   1      -3.364  -3.526   1.479  0.00  0.00     0.150 A 
ATOM      5  C4  UNL d   1      -4.139  -2.635   0.744  0.00  0.00    -0.007 A 
ATOM      6  C5  UNL d   1      -3.588  -1.426   0.321  0.00  0.00     0.039 A 
ENDROOT
BRANCH   4   7
ATOM      7  O   UNL d   1      -3.946  -4.692   1.877  0.00  0.00    -0.526 OA
ATOM      8  H5  UNL d   1      -3.300  -5.196   2.400  0.00  0.00     0.418 HD
ENDBRANCH   4   7
TORSDOF 1
ENDMDL
