MODEL 1
REMARK minimizedAffinity 9.80449581
REMARK minimizedRMSD -1
REMARK  1 active torsions:
REMARK  status: ('A' for Active; 'I' for Inactive)
REMARK    1  A    between atoms: C3_4  and  O_7 
ROOT
ATOM      1  C   UNL d   1       3.940   3.314  -4.627  0.00  0.00    -0.033 A 
ATOM      2  C1  UNL d   1       5.184   3.936  -4.753  0.00  0.00     0.039 A 
ATOM      3  C2  UNL d   1       5.765   4.568  -3.653  0.00  0.00    -0.080 A 
ATOM      4  C3  UNL d   1       5.094   4.572  -2.433  0.00  0.00     0.150 A 
ATOM      5  C4  UNL d   1       3.856   3.951  -2.299  0.00  0.00    -0.007 A 
ATOM      6  C5  UNL d   1       3.277   3.321  -3.399  0.00  0.00     0.039 A 
ENDROOT
BRANCH   4   7
ATOM      7  O   UNL d   1       5.619   5.181  -1.332  0.00  0.00    -0.526 OA
ATOM      8  H5  UNL d   1       6.464   5.591  -1.581  0.00  0.00     0.418 HD
ENDBRANCH   4   7
TORSDOF 1
ENDMDL
