MODEL 1
REMARK minimizedAffinity 8.90055847
REMARK minimizedRMSD -1
REMARK  1 active torsions:
REMARK  status: ('A' for Active; 'I' for Inactive)
REMARK    1  A    between atoms: C3_4  and  O_7 
ROOT
ATOM      1  C   UNL d   1      -1.989  -3.126   1.624  0.00  0.00    -0.033 A 
ATOM      2  C1  UNL d   1      -1.058  -2.116   1.376  0.00  0.00     0.039 A 
ATOM      3  C2  UNL d   1      -1.318  -0.808   1.788  0.00  0.00    -0.080 A 
ATOM      4  C3  UNL d   1      -2.511  -0.523   2.447  0.00  0.00     0.150 A 
ATOM      5  C4  UNL d   1      -3.442  -1.526   2.701  0.00  0.00    -0.007 A 
ATOM      6  C5  UNL d   1      -3.181  -2.831   2.288  0.00  0.00     0.039 A 
ENDROOT
BRANCH   4   7
ATOM      7  O   UNL d   1      -2.812   0.739   2.863  0.00  0.00    -0.526 OA
ATOM      8  H5  UNL d   1      -2.090   1.332   2.594  0.00  0.00     0.418 HD
ENDBRANCH   4   7
TORSDOF 1
ENDMDL
