MODEL 1
REMARK minimizedAffinity 2.42644978
REMARK minimizedRMSD -1
REMARK  1 active torsions:
REMARK  status: ('A' for Active; 'I' for Inactive)
REMARK    1  A    between atoms: C3_4  and  O_7 
ROOT
ATOM      1  C   UNL d   1       2.044   3.879  -2.211  0.00  0.00    -0.033 A 
ATOM      2  C1  UNL d   1       1.226   5.008  -2.129  0.00  0.00     0.039 A 
ATOM      3  C2  UNL d   1       0.105   5.122  -2.955  0.00  0.00    -0.080 A 
ATOM      4  C3  UNL d   1      -0.186   4.101  -3.855  0.00  0.00     0.150 A 
ATOM      5  C4  UNL d   1       0.622   2.972  -3.939  0.00  0.00    -0.007 A 
ATOM      6  C5  UNL d   1       1.741   2.861  -3.115  0.00  0.00     0.039 A 
ENDROOT
BRANCH   4   7
ATOM      7  O   UNL d   1      -1.266   4.169  -4.685  0.00  0.00    -0.526 OA
ATOM      8  H5  UNL d   1      -1.715   5.018  -4.536  0.00  0.00     0.418 HD
ENDBRANCH   4   7
TORSDOF 1
ENDMDL
