MODEL 1
REMARK minimizedAffinity 8.96215439
REMARK minimizedRMSD -1
REMARK  1 active torsions:
REMARK  status: ('A' for Active; 'I' for Inactive)
REMARK    1  A    between atoms: C3_4  and  O_7 
ROOT
ATOM      1  C   UNL d   1       4.798   4.205  -2.191  0.00  0.00    -0.033 A 
ATOM      2  C1  UNL d   1       3.493   3.732  -2.332  0.00  0.00     0.039 A 
ATOM      3  C2  UNL d   1       3.062   3.222  -3.558  0.00  0.00    -0.080 A 
ATOM      4  C3  UNL d   1       3.946   3.190  -4.633  0.00  0.00     0.150 A 
ATOM      5  C4  UNL d   1       5.249   3.656  -4.498  0.00  0.00    -0.007 A 
ATOM      6  C5  UNL d   1       5.677   4.166  -3.274  0.00  0.00     0.039 A 
ENDROOT
BRANCH   4   7
ATOM      7  O   UNL d   1       3.569   2.705  -5.850  0.00  0.00    -0.526 OA
ATOM      8  H5  UNL d   1       2.634   2.445  -5.803  0.00  0.00     0.418 HD
ENDBRANCH   4   7
TORSDOF 1
ENDMDL
