MODEL 1
REMARK minimizedAffinity 8.25191975
REMARK minimizedRMSD -1
REMARK  1 active torsions:
REMARK  status: ('A' for Active; 'I' for Inactive)
REMARK    1  A    between atoms: C3_4  and  O_7 
ROOT
ATOM      1  C   UNL d   1       0.791  -2.646   3.366  0.00  0.00    -0.033 A 
ATOM      2  C1  UNL d   1       0.774  -1.707   4.399  0.00  0.00     0.039 A 
ATOM      3  C2  UNL d   1      -0.012  -0.559   4.288  0.00  0.00    -0.080 A 
ATOM      4  C3  UNL d   1      -0.777  -0.362   3.141  0.00  0.00     0.150 A 
ATOM      5  C4  UNL d   1      -0.767  -1.296   2.110  0.00  0.00    -0.007 A 
ATOM      6  C5  UNL d   1       0.019  -2.441   2.222  0.00  0.00     0.039 A 
ENDROOT
BRANCH   4   7
ATOM      7  O   UNL d   1      -1.556   0.745   2.985  0.00  0.00    -0.526 OA
ATOM      8  H5  UNL d   1      -1.440   1.315   3.764  0.00  0.00     0.418 HD
ENDBRANCH   4   7
TORSDOF 1
ENDMDL
