MODEL 1
REMARK minimizedAffinity 7.30633688
REMARK minimizedRMSD -1
REMARK  1 active torsions:
REMARK  status: ('A' for Active; 'I' for Inactive)
REMARK    1  A    between atoms: C3_4  and  O_7 
ROOT
ATOM      1  C   UNL d   1       5.164   4.517  -4.561  0.00  0.00    -0.033 A 
ATOM      2  C1  UNL d   1       4.846   4.661  -3.209  0.00  0.00     0.039 A 
ATOM      3  C2  UNL d   1       3.767   3.961  -2.665  0.00  0.00    -0.080 A 
ATOM      4  C3  UNL d   1       3.017   3.119  -3.482  0.00  0.00     0.150 A 
ATOM      5  C4  UNL d   1       3.331   2.968  -4.829  0.00  0.00    -0.007 A 
ATOM      6  C5  UNL d   1       4.408   3.669  -5.370  0.00  0.00     0.039 A 
ENDROOT
BRANCH   4   7
ATOM      7  O   UNL d   1       1.953   2.419  -2.998  0.00  0.00    -0.526 OA
ATOM      8  H5  UNL d   1       1.837   2.645  -2.060  0.00  0.00     0.418 HD
ENDBRANCH   4   7
TORSDOF 1
ENDMDL
