MODEL 1
REMARK minimizedAffinity 11.1080141
REMARK minimizedRMSD -1
REMARK  1 active torsions:
REMARK  status: ('A' for Active; 'I' for Inactive)
REMARK    1  A    between atoms: C3_4  and  O_7 
ROOT
ATOM      1  C   UNL d   1      -5.687  -4.962  -5.468  0.00  0.00    -0.033 A 
ATOM      2  C1  UNL d   1      -5.105  -3.954  -4.697  0.00  0.00     0.039 A 
ATOM      3  C2  UNL d   1      -3.731  -3.969  -4.448  0.00  0.00    -0.080 A 
ATOM      4  C3  UNL d   1      -2.952  -4.994  -4.976  0.00  0.00     0.150 A 
ATOM      5  C4  UNL d   1      -3.525  -5.999  -5.749  0.00  0.00    -0.007 A 
ATOM      6  C5  UNL d   1      -4.897  -5.983  -5.996  0.00  0.00     0.039 A 
ENDROOT
BRANCH   4   7
ATOM      7  O   UNL d   1      -1.608  -5.054  -4.757  0.00  0.00    -0.526 OA
ATOM      8  H5  UNL d   1      -1.357  -4.311  -4.183  0.00  0.00     0.418 HD
ENDBRANCH   4   7
TORSDOF 1
ENDMDL
