MODEL 1
REMARK minimizedAffinity 12.7572012
REMARK minimizedRMSD -1
REMARK  1 active torsions:
REMARK  status: ('A' for Active; 'I' for Inactive)
REMARK    1  A    between atoms: C3_4  and  O_7 
ROOT
ATOM      1  C   UNL d   1      -0.458  -5.089  -4.833  0.00  0.00    -0.033 A 
ATOM      2  C1  UNL d   1      -1.291  -4.182  -4.175  0.00  0.00     0.039 A 
ATOM      3  C2  UNL d   1      -2.664  -4.181  -4.429  0.00  0.00    -0.080 A 
ATOM      4  C3  UNL d   1      -3.191  -5.091  -5.342  0.00  0.00     0.150 A 
ATOM      5  C4  UNL d   1      -2.367  -6.000  -5.998  0.00  0.00    -0.007 A 
ATOM      6  C5  UNL d   1      -0.997  -5.999  -5.743  0.00  0.00     0.039 A 
ENDROOT
BRANCH   4   7
ATOM      7  O   UNL d   1      -4.524  -5.124  -5.626  0.00  0.00    -0.526 OA
ATOM      8  H5  UNL d   1      -4.964  -4.421  -5.121  0.00  0.00     0.418 HD
ENDBRANCH   4   7
TORSDOF 1
ENDMDL
