MODEL 1
REMARK minimizedAffinity 11.836628
REMARK minimizedRMSD -1
REMARK  1 active torsions:
REMARK  status: ('A' for Active; 'I' for Inactive)
REMARK    1  A    between atoms: C3_4  and  O_7 
ROOT
ATOM      1  C   UNL d   1       4.133   4.428  -2.348  0.00  0.00    -0.033 A 
ATOM      2  C1  UNL d   1       2.934   3.739  -2.538  0.00  0.00     0.039 A 
ATOM      3  C2  UNL d   1       2.667   3.123  -3.762  0.00  0.00    -0.080 A 
ATOM      4  C3  UNL d   1       3.606   3.202  -4.786  0.00  0.00     0.150 A 
ATOM      5  C4  UNL d   1       4.805   3.884  -4.603  0.00  0.00    -0.007 A 
ATOM      6  C5  UNL d   1       5.069   4.499  -3.380  0.00  0.00     0.039 A 
ENDROOT
BRANCH   4   7
ATOM      7  O   UNL d   1       3.388   2.621  -6.000  0.00  0.00    -0.526 OA
ATOM      8  H5  UNL d   1       2.507   2.211  -5.991  0.00  0.00     0.418 HD
ENDBRANCH   4   7
TORSDOF 1
ENDMDL
