MODEL 1
REMARK minimizedAffinity 7.68051529
REMARK minimizedRMSD -1
REMARK  1 active torsions:
REMARK  status: ('A' for Active; 'I' for Inactive)
REMARK    1  A    between atoms: C3_4  and  O_7 
ROOT
ATOM      1  C   UNL d   1       6.000  -4.876  -0.747  0.00  0.00    -0.033 A 
ATOM      2  C1  UNL d   1       5.498  -5.993  -0.076  0.00  0.00     0.039 A 
ATOM      3  C2  UNL d   1       4.180  -6.000   0.384  0.00  0.00    -0.080 A 
ATOM      4  C3  UNL d   1       3.374  -4.885   0.165  0.00  0.00     0.150 A 
ATOM      5  C4  UNL d   1       3.867  -3.771  -0.506  0.00  0.00    -0.007 A 
ATOM      6  C5  UNL d   1       5.184  -3.766  -0.963  0.00  0.00     0.039 A 
ENDROOT
BRANCH   4   7
ATOM      7  O   UNL d   1       2.083  -4.843   0.599  0.00  0.00    -0.526 OA
ATOM      8  H5  UNL d   1       1.890  -5.671   1.071  0.00  0.00     0.418 HD
ENDBRANCH   4   7
TORSDOF 1
ENDMDL
