MODEL 1
REMARK minimizedAffinity 6.66212606
REMARK minimizedRMSD -1
REMARK  1 active torsions:
REMARK  status: ('A' for Active; 'I' for Inactive)
REMARK    1  A    between atoms: C3_4  and  O_7 
ROOT
ATOM      1  C   UNL d   1       1.788   3.492  -2.935  0.00  0.00    -0.033 A 
ATOM      2  C1  UNL d   1       1.855   4.687  -2.217  0.00  0.00     0.039 A 
ATOM      3  C2  UNL d   1       3.085   5.320  -2.023  0.00  0.00    -0.080 A 
ATOM      4  C3  UNL d   1       4.238   4.747  -2.552  0.00  0.00     0.150 A 
ATOM      5  C4  UNL d   1       4.179   3.558  -3.271  0.00  0.00    -0.007 A 
ATOM      6  C5  UNL d   1       2.950   2.928  -3.463  0.00  0.00     0.039 A 
ENDROOT
BRANCH   4   7
ATOM      7  O   UNL d   1       5.462   5.325  -2.385  0.00  0.00    -0.526 OA
ATOM      8  H5  UNL d   1       5.353   6.125  -1.844  0.00  0.00     0.418 HD
ENDBRANCH   4   7
TORSDOF 1
ENDMDL
