MODEL 1
REMARK minimizedAffinity 7.63239813
REMARK minimizedRMSD -1
REMARK  1 active torsions:
REMARK  status: ('A' for Active; 'I' for Inactive)
REMARK    1  A    between atoms: C3_4  and  O_7 
ROOT
ATOM      1  C   UNL d   1      -2.259  -6.000  -5.906  0.00  0.00    -0.033 A 
ATOM      2  C1  UNL d   1      -3.169  -5.663  -4.902  0.00  0.00     0.039 A 
ATOM      3  C2  UNL d   1      -2.746  -4.931  -3.791  0.00  0.00    -0.080 A 
ATOM      4  C3  UNL d   1      -1.413  -4.541  -3.696  0.00  0.00     0.150 A 
ATOM      5  C4  UNL d   1      -0.502  -4.870  -4.695  0.00  0.00    -0.007 A 
ATOM      6  C5  UNL d   1      -0.926  -5.602  -5.803  0.00  0.00     0.039 A 
ENDROOT
BRANCH   4   7
ATOM      7  O   UNL d   1      -0.952  -3.829  -2.629  0.00  0.00    -0.526 OA
ATOM      8  H5  UNL d   1      -1.686  -3.700  -2.005  0.00  0.00     0.418 HD
ENDBRANCH   4   7
TORSDOF 1
ENDMDL
