MODEL 1
REMARK minimizedAffinity 9.24577904
REMARK minimizedRMSD -1
REMARK  1 active torsions:
REMARK  status: ('A' for Active; 'I' for Inactive)
REMARK    1  A    between atoms: C3_4  and  O_7 
ROOT
ATOM      1  C   UNL d   1      -5.485   1.792   0.798  0.00  0.00    -0.033 A 
ATOM      2  C1  UNL d   1      -5.421   0.402   0.911  0.00  0.00     0.039 A 
ATOM      3  C2  UNL d   1      -5.591  -0.400  -0.219  0.00  0.00    -0.080 A 
ATOM      4  C3  UNL d   1      -5.823   0.199  -1.454  0.00  0.00     0.150 A 
ATOM      5  C4  UNL d   1      -5.884   1.583  -1.574  0.00  0.00    -0.007 A 
ATOM      6  C5  UNL d   1      -5.715   2.383  -0.444  0.00  0.00     0.039 A 
ENDROOT
BRANCH   4   7
ATOM      7  O   UNL d   1      -6.000  -0.543  -2.584  0.00  0.00    -0.526 OA
ATOM      8  H5  UNL d   1      -5.960  -1.484  -2.344  0.00  0.00     0.418 HD
ENDBRANCH   4   7
TORSDOF 1
ENDMDL
