MODEL 1
REMARK minimizedAffinity 8.00536251
REMARK minimizedRMSD -1
REMARK  1 active torsions:
REMARK  status: ('A' for Active; 'I' for Inactive)
REMARK    1  A    between atoms: C3_4  and  O_7 
ROOT
ATOM      1  C   UNL d   1      -1.290  -2.696   1.459  0.00  0.00    -0.033 A 
ATOM      2  C1  UNL d   1      -1.330  -4.046   1.102  0.00  0.00     0.039 A 
ATOM      3  C2  UNL d   1      -2.532  -4.752   1.170  0.00  0.00    -0.080 A 
ATOM      4  C3  UNL d   1      -3.686  -4.099   1.595  0.00  0.00     0.150 A 
ATOM      5  C4  UNL d   1      -3.654  -2.754   1.949  0.00  0.00    -0.007 A 
ATOM      6  C5  UNL d   1      -2.452  -2.050   1.881  0.00  0.00     0.039 A 
ENDROOT
BRANCH   4   7
ATOM      7  O   UNL d   1      -4.881  -4.748   1.683  0.00  0.00    -0.526 OA
ATOM      8  H5  UNL d   1      -4.745  -5.678   1.435  0.00  0.00     0.418 HD
ENDBRANCH   4   7
TORSDOF 1
ENDMDL
