MODEL 1
REMARK minimizedAffinity 0.924938798
REMARK minimizedRMSD -1
REMARK  1 active torsions:
REMARK  status: ('A' for Active; 'I' for Inactive)
REMARK    1  A    between atoms: C3_4  and  O_7 
ROOT
ATOM      1  C   UNL d   1       3.749   1.739  -2.626  0.00  0.00    -0.033 A 
ATOM      2  C1  UNL d   1       3.755   2.565  -3.752  0.00  0.00     0.039 A 
ATOM      3  C2  UNL d   1       4.509   3.740  -3.755  0.00  0.00    -0.080 A 
ATOM      4  C3  UNL d   1       5.252   4.077  -2.627  0.00  0.00     0.150 A 
ATOM      5  C4  UNL d   1       5.254   3.257  -1.503  0.00  0.00    -0.007 A 
ATOM      6  C5  UNL d   1       4.500   2.085  -1.502  0.00  0.00     0.039 A 
ENDROOT
BRANCH   4   7
ATOM      7  O   UNL d   1       6.000   5.216  -2.581  0.00  0.00    -0.526 OA
ATOM      8  H5  UNL d   1       5.880   5.697  -3.417  0.00  0.00     0.418 HD
ENDBRANCH   4   7
TORSDOF 1
ENDMDL
