MODEL 1
REMARK minimizedAffinity -5.16101599
REMARK minimizedRMSD -1
REMARK  0 active torsions:
REMARK  status: ('A' for Active; 'I' for Inactive)
ROOT
ATOM      1  C   UNL d   1       0.058   1.635  -1.143  0.00  0.00     0.023 A 
ATOM      2  C1  UNL d   1       0.804   0.625  -1.751  0.00  0.00     0.003 A 
ATOM      3  C2  UNL d   1       0.833  -0.655  -1.194  0.00  0.00     0.048 A 
ATOM      4  C3  UNL d   1       0.113  -0.919  -0.030  0.00  0.00     0.023 A 
ATOM      5  C4  UNL d   1      -0.636   0.088   0.581  0.00  0.00     0.048 A 
ATOM      6  C5  UNL d   1      -0.661   1.366   0.022  0.00  0.00     0.003 A 
ATOM      7  I   UNL d   1       0.154  -2.824   0.801  0.00  0.00    -0.146 I 
ENDROOT
TORSDOF 0
ENDMDL
