MODEL 1
REMARK minimizedAffinity 4.81895685
REMARK minimizedRMSD -1
REMARK  0 active torsions:
REMARK  status: ('A' for Active; 'I' for Inactive)
ROOT
ATOM      1  C   UNL d   1      -2.093  -4.751  -3.538  0.00  0.00     0.023 A 
ATOM      2  C1  UNL d   1      -1.165  -3.810  -3.984  0.00  0.00     0.003 A 
ATOM      3  C2  UNL d   1      -0.889  -2.680  -3.211  0.00  0.00     0.048 A 
ATOM      4  C3  UNL d   1      -1.544  -2.498  -1.993  0.00  0.00     0.023 A 
ATOM      5  C4  UNL d   1      -2.472  -3.438  -1.543  0.00  0.00     0.048 A 
ATOM      6  C5  UNL d   1      -2.746  -4.566  -2.319  0.00  0.00     0.003 A 
ATOM      7  I   UNL d   1      -1.134  -0.817  -0.842  0.00  0.00    -0.146 I 
ENDROOT
TORSDOF 0
ENDMDL
