MODEL 1
REMARK minimizedAffinity -4.16828871
REMARK minimizedRMSD -1
REMARK  0 active torsions:
REMARK  status: ('A' for Active; 'I' for Inactive)
ROOT
ATOM      1  C   UNL d   1      -0.277  -3.531   0.065  0.00  0.00     0.023 A 
ATOM      2  C1  UNL d   1      -0.250  -2.731   1.207  0.00  0.00     0.003 A 
ATOM      3  C2  UNL d   1      -0.199  -1.340   1.086  0.00  0.00     0.048 A 
ATOM      4  C3  UNL d   1      -0.177  -0.757  -0.180  0.00  0.00     0.023 A 
ATOM      5  C4  UNL d   1      -0.205  -1.554  -1.326  0.00  0.00     0.048 A 
ATOM      6  C5  UNL d   1      -0.254  -2.943  -1.200  0.00  0.00     0.003 A 
ATOM      7  I   UNL d   1      -0.102   1.312  -0.363  0.00  0.00    -0.146 I 
ENDROOT
TORSDOF 0
ENDMDL
