MODEL 1
REMARK minimizedAffinity -4.72921944
REMARK minimizedRMSD -1
REMARK  0 active torsions:
REMARK  status: ('A' for Active; 'I' for Inactive)
ROOT
ATOM      1  C   UNL d   1       0.033  -3.313  -1.202  0.00  0.00     0.023 A 
ATOM      2  C1  UNL d   1      -0.177  -2.879   0.107  0.00  0.00     0.003 A 
ATOM      3  C2  UNL d   1      -0.086  -1.520   0.416  0.00  0.00     0.048 A 
ATOM      4  C3  UNL d   1       0.214  -0.601  -0.589  0.00  0.00     0.023 A 
ATOM      5  C4  UNL d   1       0.424  -1.031  -1.900  0.00  0.00     0.048 A 
ATOM      6  C5  UNL d   1       0.333  -2.391  -2.204  0.00  0.00     0.003 A 
ATOM      7  I   UNL d   1       0.350   1.422  -0.132  0.00  0.00    -0.146 I 
ENDROOT
TORSDOF 0
ENDMDL
