MODEL 1
REMARK minimizedAffinity -0.815871418
REMARK minimizedRMSD -1
REMARK  0 active torsions:
REMARK  status: ('A' for Active; 'I' for Inactive)
ROOT
ATOM      1  C   UNL d   1       1.945   4.261   1.011  0.00  0.00     0.023 A 
ATOM      2  C1  UNL d   1       2.689   3.137   0.651  0.00  0.00     0.003 A 
ATOM      3  C2  UNL d   1       2.041   1.946   0.318  0.00  0.00     0.048 A 
ATOM      4  C3  UNL d   1       0.648   1.886   0.345  0.00  0.00     0.023 A 
ATOM      5  C4  UNL d   1      -0.101   3.008   0.703  0.00  0.00     0.048 A 
ATOM      6  C5  UNL d   1       0.552   4.196   1.037  0.00  0.00     0.003 A 
ATOM      7  I   UNL d   1      -0.319   0.115  -0.151  0.00  0.00    -0.146 I 
ENDROOT
TORSDOF 0
ENDMDL
