MODEL 1
REMARK minimizedAffinity -5.50992489
REMARK minimizedRMSD -1
REMARK  0 active torsions:
REMARK  status: ('A' for Active; 'I' for Inactive)
ROOT
ATOM      1  C   UNL d   1      -0.074  -3.881  -0.573  0.00  0.00     0.023 A 
ATOM      2  C1  UNL d   1      -0.651  -3.246   0.526  0.00  0.00     0.003 A 
ATOM      3  C2  UNL d   1      -0.555  -1.860   0.663  0.00  0.00     0.048 A 
ATOM      4  C3  UNL d   1       0.118  -1.114  -0.304  0.00  0.00     0.023 A 
ATOM      5  C4  UNL d   1       0.697  -1.745  -1.406  0.00  0.00     0.048 A 
ATOM      6  C5  UNL d   1       0.599  -3.132  -1.538  0.00  0.00     0.003 A 
ATOM      7  I   UNL d   1       0.262   0.949  -0.102  0.00  0.00    -0.146 I 
ENDROOT
TORSDOF 0
ENDMDL
