MODEL 1
REMARK minimizedAffinity -0.108088128
REMARK minimizedRMSD -1
REMARK  0 active torsions:
REMARK  status: ('A' for Active; 'I' for Inactive)
ROOT
ATOM      1  C   UNL d   1      -1.117  -0.364   1.347  0.00  0.00     0.023 A 
ATOM      2  C1  UNL d   1      -0.925  -1.629   0.794  0.00  0.00     0.003 A 
ATOM      3  C2  UNL d   1      -0.341  -1.760  -0.468  0.00  0.00     0.048 A 
ATOM      4  C3  UNL d   1       0.050  -0.620  -1.170  0.00  0.00     0.023 A 
ATOM      5  C4  UNL d   1      -0.140   0.649  -0.620  0.00  0.00     0.048 A 
ATOM      6  C5  UNL d   1      -0.725   0.774   0.641  0.00  0.00     0.003 A 
ATOM      7  I   UNL d   1       0.920  -0.812  -3.048  0.00  0.00    -0.146 I 
ENDROOT
TORSDOF 0
ENDMDL
