MODEL 1
REMARK minimizedAffinity -4.01745081
REMARK minimizedRMSD -1
REMARK  0 active torsions:
REMARK  status: ('A' for Active; 'I' for Inactive)
ROOT
ATOM      1  C   UNL d   1       0.221  -4.007  -0.961  0.00  0.00     0.023 A 
ATOM      2  C1  UNL d   1       0.643  -3.325  -2.103  0.00  0.00     0.003 A 
ATOM      3  C2  UNL d   1       0.744  -1.933  -2.089  0.00  0.00     0.048 A 
ATOM      4  C3  UNL d   1       0.424  -1.228  -0.929  0.00  0.00     0.023 A 
ATOM      5  C4  UNL d   1       0.002  -1.905   0.216  0.00  0.00     0.048 A 
ATOM      6  C5  UNL d   1      -0.098  -3.298   0.197  0.00  0.00     0.003 A 
ATOM      7  I   UNL d   1       0.574   0.845  -0.906  0.00  0.00    -0.146 I 
ENDROOT
TORSDOF 0
ENDMDL
