MODEL 1
REMARK minimizedAffinity -0.466098309
REMARK minimizedRMSD -1
REMARK  0 active torsions:
REMARK  status: ('A' for Active; 'I' for Inactive)
ROOT
ATOM      1  C   UNL d   1      -0.460  -0.638  -1.117  0.00  0.00     0.023 A 
ATOM      2  C1  UNL d   1      -0.837  -0.253   0.170  0.00  0.00     0.003 A 
ATOM      3  C2  UNL d   1      -0.236   0.854   0.773  0.00  0.00     0.048 A 
ATOM      4  C3  UNL d   1       0.739   1.572   0.084  0.00  0.00     0.023 A 
ATOM      5  C4  UNL d   1       1.119   1.192  -1.205  0.00  0.00     0.048 A 
ATOM      6  C5  UNL d   1       0.516   0.084  -1.803  0.00  0.00     0.003 A 
ATOM      7  I   UNL d   1       1.635   3.220   0.979  0.00  0.00    -0.146 I 
ENDROOT
TORSDOF 0
ENDMDL
