MODEL 1
REMARK minimizedAffinity -4.3664422
REMARK minimizedRMSD -1
REMARK  0 active torsions:
REMARK  status: ('A' for Active; 'I' for Inactive)
ROOT
ATOM      1  C   UNL d   1       0.463  -3.771  -0.898  0.00  0.00     0.023 A 
ATOM      2  C1  UNL d   1       0.145  -3.033  -2.038  0.00  0.00     0.003 A 
ATOM      3  C2  UNL d   1       0.005  -1.646  -1.956  0.00  0.00     0.048 A 
ATOM      4  C3  UNL d   1       0.186  -1.004  -0.732  0.00  0.00     0.023 A 
ATOM      5  C4  UNL d   1       0.506  -1.739   0.411  0.00  0.00     0.048 A 
ATOM      6  C5  UNL d   1       0.644  -3.125   0.325  0.00  0.00     0.003 A 
ATOM      7  I   UNL d   1      -0.021   1.061  -0.607  0.00  0.00    -0.146 I 
ENDROOT
TORSDOF 0
ENDMDL
