MODEL 1
REMARK minimizedAffinity -5.23015833
REMARK minimizedRMSD -1
REMARK  0 active torsions:
REMARK  status: ('A' for Active; 'I' for Inactive)
ROOT
ATOM      1  C   UNL d   1       0.397  -4.185  -1.107  0.00  0.00     0.023 A 
ATOM      2  C1  UNL d   1      -0.172  -4.073   0.162  0.00  0.00     0.003 A 
ATOM      3  C2  UNL d   1      -0.550  -2.821   0.651  0.00  0.00     0.048 A 
ATOM      4  C3  UNL d   1      -0.357  -1.685  -0.133  0.00  0.00     0.023 A 
ATOM      5  C4  UNL d   1       0.212  -1.792  -1.404  0.00  0.00     0.048 A 
ATOM      6  C5  UNL d   1       0.589  -3.045  -1.888  0.00  0.00     0.003 A 
ATOM      7  I   UNL d   1      -0.918   0.180   0.593  0.00  0.00    -0.146 I 
ENDROOT
TORSDOF 0
ENDMDL
