MODEL 1
REMARK minimizedAffinity -4.9075923
REMARK minimizedRMSD -1
REMARK  0 active torsions:
REMARK  status: ('A' for Active; 'I' for Inactive)
ROOT
ATOM      1  C   UNL d   1      -0.979   1.428   0.435  0.00  0.00     0.023 A 
ATOM      2  C1  UNL d   1      -1.488   0.363   1.178  0.00  0.00     0.003 A 
ATOM      3  C2  UNL d   1      -1.026  -0.934   0.949  0.00  0.00     0.048 A 
ATOM      4  C3  UNL d   1      -0.052  -1.159  -0.023  0.00  0.00     0.023 A 
ATOM      5  C4  UNL d   1       0.461  -0.097  -0.769  0.00  0.00     0.048 A 
ATOM      6  C5  UNL d   1      -0.005   1.198  -0.537  0.00  0.00     0.003 A 
ATOM      7  I   UNL d   1       0.638  -3.090  -0.366  0.00  0.00    -0.146 I 
ENDROOT
TORSDOF 0
ENDMDL
