MODEL 1
REMARK minimizedAffinity -3.07666659
REMARK minimizedRMSD -1
REMARK  0 active torsions:
REMARK  status: ('A' for Active; 'I' for Inactive)
ROOT
ATOM      1  C   UNL d   1       0.878   0.179  -2.079  0.00  0.00     0.023 A 
ATOM      2  C1  UNL d   1       2.174   0.667  -1.913  0.00  0.00     0.003 A 
ATOM      3  C2  UNL d   1       2.430   1.666  -0.971  0.00  0.00     0.048 A 
ATOM      4  C3  UNL d   1       1.385   2.172  -0.198  0.00  0.00     0.023 A 
ATOM      5  C4  UNL d   1       0.086   1.686  -0.361  0.00  0.00     0.048 A 
ATOM      6  C5  UNL d   1      -0.165   0.688  -1.304  0.00  0.00     0.003 A 
ATOM      7  I   UNL d   1       1.763   3.658   1.204  0.00  0.00    -0.146 I 
ENDROOT
TORSDOF 0
ENDMDL
