MODEL 1
REMARK minimizedAffinity -4.83736515
REMARK minimizedRMSD -1
REMARK  0 active torsions:
REMARK  status: ('A' for Active; 'I' for Inactive)
ROOT
ATOM      1  C   UNL d   1      -0.412  -2.540   0.237  0.00  0.00     0.023 A 
ATOM      2  C1  UNL d   1       0.714  -2.143  -0.484  0.00  0.00     0.003 A 
ATOM      3  C2  UNL d   1       1.094  -0.800  -0.504  0.00  0.00     0.048 A 
ATOM      4  C3  UNL d   1       0.344   0.141   0.200  0.00  0.00     0.023 A 
ATOM      5  C4  UNL d   1      -0.783  -0.251   0.924  0.00  0.00     0.048 A 
ATOM      6  C5  UNL d   1      -1.160  -1.596   0.940  0.00  0.00     0.003 A 
ATOM      7  I   UNL d   1       0.908   2.142   0.172  0.00  0.00    -0.146 I 
ENDROOT
TORSDOF 0
ENDMDL
