MODEL 1
REMARK minimizedAffinity -4.0256424
REMARK minimizedRMSD -1
REMARK  0 active torsions:
REMARK  status: ('A' for Active; 'I' for Inactive)
ROOT
ATOM      1  C   UNL d   1       0.061  -3.760  -1.407  0.00  0.00     0.023 A 
ATOM      2  C1  UNL d   1      -0.331  -3.360  -0.130  0.00  0.00     0.003 A 
ATOM      3  C2  UNL d   1      -0.305  -2.008   0.219  0.00  0.00     0.048 A 
ATOM      4  C3  UNL d   1       0.114  -1.061  -0.715  0.00  0.00     0.023 A 
ATOM      5  C4  UNL d   1       0.506  -1.456  -1.995  0.00  0.00     0.048 A 
ATOM      6  C5  UNL d   1       0.479  -2.809  -2.339  0.00  0.00     0.003 A 
ATOM      7  I   UNL d   1       0.154   0.952  -0.199  0.00  0.00    -0.146 I 
ENDROOT
TORSDOF 0
ENDMDL
