MODEL 1
REMARK minimizedAffinity -2.42802954
REMARK minimizedRMSD -1
REMARK  0 active torsions:
REMARK  status: ('A' for Active; 'I' for Inactive)
ROOT
ATOM      1  C   UNL d   1       0.553  -4.137  -1.639  0.00  0.00     0.023 A 
ATOM      2  C1  UNL d   1      -0.068  -3.934  -0.407  0.00  0.00     0.003 A 
ATOM      3  C2  UNL d   1      -0.201  -2.641   0.105  0.00  0.00     0.048 A 
ATOM      4  C3  UNL d   1       0.288  -1.556  -0.622  0.00  0.00     0.023 A 
ATOM      5  C4  UNL d   1       0.908  -1.755  -1.857  0.00  0.00     0.048 A 
ATOM      6  C5  UNL d   1       1.040  -3.049  -2.364  0.00  0.00     0.003 A 
ATOM      7  I   UNL d   1       0.090   0.369   0.136  0.00  0.00    -0.146 I 
ENDROOT
TORSDOF 0
ENDMDL
