MODEL 1
REMARK minimizedAffinity -4.16779947
REMARK minimizedRMSD -1
REMARK  0 active torsions:
REMARK  status: ('A' for Active; 'I' for Inactive)
ROOT
ATOM      1  C   UNL d   1      -0.291  -3.601  -1.327  0.00  0.00     0.023 A 
ATOM      2  C1  UNL d   1      -0.496  -3.028  -0.072  0.00  0.00     0.003 A 
ATOM      3  C2  UNL d   1      -0.255  -1.667   0.123  0.00  0.00     0.048 A 
ATOM      4  C3  UNL d   1       0.191  -0.884  -0.941  0.00  0.00     0.023 A 
ATOM      5  C4  UNL d   1       0.397  -1.453  -2.199  0.00  0.00     0.048 A 
ATOM      6  C5  UNL d   1       0.156  -2.815  -2.389  0.00  0.00     0.003 A 
ATOM      7  I   UNL d   1       0.551   1.142  -0.653  0.00  0.00    -0.146 I 
ENDROOT
TORSDOF 0
ENDMDL
