MODEL 1
REMARK minimizedAffinity 0.654874623
REMARK minimizedRMSD -1
REMARK  1 active torsions:
REMARK  status: ('A' for Active; 'I' for Inactive)
REMARK    1  A    between atoms: C1_2  and  C2_3 
ROOT
ATOM      1  C2  UNL d   1      -0.619   0.619  -2.093  0.00  0.00    -0.081 A 
ATOM      2  C3  UNL d   1      -1.448   1.567  -1.481  0.00  0.00     0.006 A 
ATOM      3  C4  UNL d   1      -1.970   1.334  -0.207  0.00  0.00     0.002 A 
ATOM      4  C5  UNL d   1      -1.666   0.154   0.480  0.00  0.00    -0.080 A 
ATOM      5  C6  UNL d   1      -2.195  -0.095   1.861  0.00  0.00     0.076 C 
ATOM      6  C7  UNL d   1      -0.852  -0.802  -0.138  0.00  0.00     0.002 A 
ATOM      7  C8  UNL d   1      -0.330  -0.569  -1.413  0.00  0.00     0.006 A 
ENDROOT
BRANCH   1   8
ATOM      8  C1  UNL d   1      -0.002   0.895  -3.440  0.00  0.00     0.054 C 
ATOM      9  C   UNL d   1       1.313   1.649  -3.302  0.00  0.00     0.018 C 
ENDBRANCH   1   8
TORSDOF 1
ENDMDL
