MODEL 1
REMARK minimizedAffinity -1.24069893
REMARK minimizedRMSD -1
REMARK  1 active torsions:
REMARK  status: ('A' for Active; 'I' for Inactive)
REMARK    1  A    between atoms: C1_2  and  C2_3 
ROOT
ATOM      1  C2  UNL d   1       0.698   0.108   2.032  0.00  0.00    -0.081 A 
ATOM      2  C3  UNL d   1      -0.461   0.334   2.784  0.00  0.00     0.006 A 
ATOM      3  C4  UNL d   1      -1.665   0.650   2.151  0.00  0.00     0.002 A 
ATOM      4  C5  UNL d   1      -1.733   0.737   0.757  0.00  0.00    -0.080 A 
ATOM      5  C6  UNL d   1      -3.027   1.046   0.063  0.00  0.00     0.076 C 
ATOM      6  C7  UNL d   1      -0.571   0.529   0.006  0.00  0.00     0.002 A 
ATOM      7  C8  UNL d   1       0.634   0.214   0.638  0.00  0.00     0.006 A 
ENDROOT
BRANCH   1   8
ATOM      8  C1  UNL d   1       1.984  -0.296   2.707  0.00  0.00     0.054 C 
ATOM      9  C   UNL d   1       2.908  -1.028   1.745  0.00  0.00     0.018 C 
ENDBRANCH   1   8
TORSDOF 1
ENDMDL
