MODEL 1
REMARK minimizedAffinity -3.63142776
REMARK minimizedRMSD -1
REMARK  1 active torsions:
REMARK  status: ('A' for Active; 'I' for Inactive)
REMARK    1  A    between atoms: C1_2  and  C2_3 
ROOT
ATOM      1  C2  UNL d   1       0.459   0.297   1.876  0.00  0.00    -0.081 A 
ATOM      2  C3  UNL d   1      -0.494   1.095   2.522  0.00  0.00     0.006 A 
ATOM      3  C4  UNL d   1      -1.735   1.336   1.929  0.00  0.00     0.002 A 
ATOM      4  C5  UNL d   1      -2.048   0.777   0.685  0.00  0.00    -0.080 A 
ATOM      5  C6  UNL d   1      -3.388   1.003   0.051  0.00  0.00     0.076 C 
ATOM      6  C7  UNL d   1      -1.090  -0.006   0.032  0.00  0.00     0.002 A 
ATOM      7  C8  UNL d   1       0.152  -0.247   0.624  0.00  0.00     0.006 A 
ENDROOT
BRANCH   1   8
ATOM      8  C1  UNL d   1       1.774  -0.018   2.543  0.00  0.00     0.054 C 
ATOM      9  C   UNL d   1       2.717  -0.740   1.591  0.00  0.00     0.018 C 
ENDBRANCH   1   8
TORSDOF 1
ENDMDL
