MODEL 1
REMARK minimizedAffinity -3.72685504
REMARK minimizedRMSD -1
REMARK  1 active torsions:
REMARK  status: ('A' for Active; 'I' for Inactive)
REMARK    1  A    between atoms: C1_2  and  C2_3 
ROOT
ATOM      1  C2  UNL d   1       0.157  -0.665  -0.862  0.00  0.00    -0.081 A 
ATOM      2  C3  UNL d   1      -0.625   0.160  -0.046  0.00  0.00     0.006 A 
ATOM      3  C4  UNL d   1      -0.324   0.305   1.311  0.00  0.00     0.002 A 
ATOM      4  C5  UNL d   1       0.769  -0.366   1.871  0.00  0.00    -0.080 A 
ATOM      5  C6  UNL d   1       1.121  -0.195   3.318  0.00  0.00     0.076 C 
ATOM      6  C7  UNL d   1       1.540  -1.204   1.059  0.00  0.00     0.002 A 
ATOM      7  C8  UNL d   1       1.239  -1.350  -0.297  0.00  0.00     0.006 A 
ENDROOT
BRANCH   1   8
ATOM      8  C1  UNL d   1      -0.126  -0.773  -2.339  0.00  0.00     0.054 C 
ATOM      9  C   UNL d   1       1.011  -0.188  -3.165  0.00  0.00     0.018 C 
ENDBRANCH   1   8
TORSDOF 1
ENDMDL
