MODEL 1
REMARK minimizedAffinity -1.16343927
REMARK minimizedRMSD -1
REMARK  0 active torsions:
REMARK  status: ('A' for Active; 'I' for Inactive)
ROOT
ATOM      1  C   UNL d   1       1.458   4.399   3.010  0.00  0.00     0.124 A 
ATOM      2  C1  UNL d   1       0.167   4.051   3.383  0.00  0.00     0.062 A 
ATOM      3  C2  UNL d   1      -0.512   3.045   2.702  0.00  0.00     0.162 A 
ATOM      4  C3  UNL d   1       0.100   2.377   1.641  0.00  0.00    -0.034 A 
ATOM      5  C4  UNL d   1       1.398   2.734   1.270  0.00  0.00     0.162 A 
ATOM      6  C5  UNL d   1       2.072   3.740   1.954  0.00  0.00     0.062 A 
ATOM      7  F   UNL d   1       3.318   4.075   1.591  0.00  0.00    -0.097 F 
ATOM      8  F1  UNL d   1       2.015   2.113   0.254  0.00  0.00    -0.096 F 
ATOM      9  I   UNL d   1      -0.912   0.872   0.620  0.00  0.00    -0.060 I 
ATOM     10  F2  UNL d   1      -1.758   2.729   3.085  0.00  0.00    -0.096 F 
ATOM     11  F3  UNL d   1      -0.429   4.687   4.402  0.00  0.00    -0.097 F 
ATOM     12  F4  UNL d   1       2.108   5.369   3.666  0.00  0.00    -0.092 F 
ENDROOT
TORSDOF 0
ENDMDL
