MODEL 1
REMARK minimizedAffinity 0.892651618
REMARK minimizedRMSD -1
REMARK  0 active torsions:
REMARK  status: ('A' for Active; 'I' for Inactive)
ROOT
ATOM      1  C   UNL d   1      -1.612   3.050   3.818  0.00  0.00     0.124 A 
ATOM      2  C1  UNL d   1      -1.344   2.019   2.928  0.00  0.00     0.062 A 
ATOM      3  C2  UNL d   1      -0.145   1.996   2.223  0.00  0.00     0.162 A 
ATOM      4  C3  UNL d   1       0.798   3.008   2.405  0.00  0.00    -0.034 A 
ATOM      5  C4  UNL d   1       0.521   4.043   3.301  0.00  0.00     0.162 A 
ATOM      6  C5  UNL d   1      -0.679   4.060   4.004  0.00  0.00     0.062 A 
ATOM      7  F   UNL d   1      -0.935   5.057   4.863  0.00  0.00    -0.097 F 
ATOM      8  F1  UNL d   1       1.406   5.031   3.500  0.00  0.00    -0.096 F 
ATOM      9  I   UNL d   1       2.593   2.979   1.352  0.00  0.00    -0.060 I 
ATOM     10  F2  UNL d   1       0.087   0.988   1.369  0.00  0.00    -0.096 F 
ATOM     11  F3  UNL d   1      -2.244   1.042   2.746  0.00  0.00    -0.097 F 
ATOM     12  F4  UNL d   1      -2.767   3.069   4.495  0.00  0.00    -0.092 F 
ENDROOT
TORSDOF 0
ENDMDL
