MODEL 1
REMARK minimizedAffinity 19.7059879
REMARK minimizedRMSD -1
REMARK  0 active torsions:
REMARK  status: ('A' for Active; 'I' for Inactive)
ROOT
ATOM      1  C   UNL d   1       1.747   2.747   2.612  0.00  0.00     0.124 A 
ATOM      2  C1  UNL d   1       1.030   1.865   1.816  0.00  0.00     0.062 A 
ATOM      3  C2  UNL d   1      -0.282   1.534   2.143  0.00  0.00     0.162 A 
ATOM      4  C3  UNL d   1      -0.886   2.087   3.273  0.00  0.00    -0.034 A 
ATOM      5  C4  UNL d   1      -0.158   2.973   4.069  0.00  0.00     0.162 A 
ATOM      6  C5  UNL d   1       1.153   3.300   3.737  0.00  0.00     0.062 A 
ATOM      7  F   UNL d   1       1.844   4.153   4.508  0.00  0.00    -0.097 F 
ATOM      8  F1  UNL d   1      -0.708   3.523   5.162  0.00  0.00    -0.096 F 
ATOM      9  I   UNL d   1      -2.847   1.595   3.766  0.00  0.00    -0.060 I 
ATOM     10  F2  UNL d   1      -0.951   0.679   1.356  0.00  0.00    -0.096 F 
ATOM     11  F3  UNL d   1       1.602   1.328   0.728  0.00  0.00    -0.097 F 
ATOM     12  F4  UNL d   1       3.009   3.063   2.295  0.00  0.00    -0.092 F 
ENDROOT
TORSDOF 0
ENDMDL
