MODEL 1
REMARK minimizedAffinity 13.2810869
REMARK minimizedRMSD -1
REMARK  0 active torsions:
REMARK  status: ('A' for Active; 'I' for Inactive)
ROOT
ATOM      1  C   UNL d   1      -1.031  -1.221   2.190  0.00  0.00     0.124 A 
ATOM      2  C1  UNL d   1      -1.911  -0.306   1.630  0.00  0.00     0.062 A 
ATOM      3  C2  UNL d   1      -3.195  -0.163   2.147  0.00  0.00     0.162 A 
ATOM      4  C3  UNL d   1      -3.607  -0.937   3.232  0.00  0.00    -0.034 A 
ATOM      5  C4  UNL d   1      -2.716  -1.856   3.790  0.00  0.00     0.162 A 
ATOM      6  C5  UNL d   1      -1.434  -1.995   3.269  0.00  0.00     0.062 A 
ATOM      7  F   UNL d   1      -0.585  -2.880   3.811  0.00  0.00    -0.097 F 
ATOM      8  F1  UNL d   1      -3.079  -2.616   4.833  0.00  0.00    -0.096 F 
ATOM      9  I   UNL d   1      -5.526  -0.726   4.009  0.00  0.00    -0.060 I 
ATOM     10  F2  UNL d   1      -4.025   0.730   1.586  0.00  0.00    -0.096 F 
ATOM     11  F3  UNL d   1      -1.524   0.443   0.586  0.00  0.00    -0.097 F 
ATOM     12  F4  UNL d   1       0.204  -1.357   1.689  0.00  0.00    -0.092 F 
ENDROOT
TORSDOF 0
ENDMDL
