MODEL 1
REMARK minimizedAffinity 5.77832556
REMARK minimizedRMSD -1
REMARK  0 active torsions:
REMARK  status: ('A' for Active; 'I' for Inactive)
ROOT
ATOM      1  C   UNL d   1       0.844   1.952   1.688  0.00  0.00     0.124 A 
ATOM      2  C1  UNL d   1       1.346   2.540   2.840  0.00  0.00     0.062 A 
ATOM      3  C2  UNL d   1       0.500   3.239   3.696  0.00  0.00     0.162 A 
ATOM      4  C3  UNL d   1      -0.859   3.353   3.403  0.00  0.00    -0.034 A 
ATOM      5  C4  UNL d   1      -1.357   2.760   2.241  0.00  0.00     0.162 A 
ATOM      6  C5  UNL d   1      -0.507   2.062   1.389  0.00  0.00     0.062 A 
ATOM      7  F   UNL d   1      -0.994   1.495   0.276  0.00  0.00    -0.097 F 
ATOM      8  F1  UNL d   1      -2.659   2.851   1.929  0.00  0.00    -0.096 F 
ATOM      9  I   UNL d   1      -2.128   4.398   4.679  0.00  0.00    -0.060 I 
ATOM     10  F2  UNL d   1       1.013   3.797   4.803  0.00  0.00    -0.096 F 
ATOM     11  F3  UNL d   1       2.651   2.435   3.130  0.00  0.00    -0.097 F 
ATOM     12  F4  UNL d   1       1.661   1.281   0.866  0.00  0.00    -0.092 F 
ENDROOT
TORSDOF 0
ENDMDL
