MODEL 1
REMARK minimizedAffinity 15.7396498
REMARK minimizedRMSD -1
REMARK  0 active torsions:
REMARK  status: ('A' for Active; 'I' for Inactive)
ROOT
ATOM      1  C   UNL d   1       2.928   4.114  -2.781  0.00  0.00     0.124 A 
ATOM      2  C1  UNL d   1       3.294   2.799  -2.526  0.00  0.00     0.062 A 
ATOM      3  C2  UNL d   1       4.072   2.099  -3.444  0.00  0.00     0.162 A 
ATOM      4  C3  UNL d   1       4.490   2.712  -4.625  0.00  0.00    -0.034 A 
ATOM      5  C4  UNL d   1       4.117   4.034  -4.874  0.00  0.00     0.162 A 
ATOM      6  C5  UNL d   1       3.340   4.730  -3.954  0.00  0.00     0.062 A 
ATOM      7  F   UNL d   1       2.987   6.000  -4.202  0.00  0.00    -0.097 F 
ATOM      8  F1  UNL d   1       4.502   4.654  -6.000  0.00  0.00    -0.096 F 
ATOM      9  I   UNL d   1       5.653   1.669  -6.000  0.00  0.00    -0.060 I 
ATOM     10  F2  UNL d   1       4.411   0.830  -3.172  0.00  0.00    -0.096 F 
ATOM     11  F3  UNL d   1       2.897   2.202  -1.394  0.00  0.00    -0.097 F 
ATOM     12  F4  UNL d   1       2.179   4.785  -1.896  0.00  0.00    -0.092 F 
ENDROOT
TORSDOF 0
ENDMDL
