MODEL 1
REMARK minimizedAffinity 15.279398
REMARK minimizedRMSD -1
REMARK  0 active torsions:
REMARK  status: ('A' for Active; 'I' for Inactive)
ROOT
ATOM      1  C   UNL d   1       0.089   3.195   3.543  0.00  0.00     0.124 A 
ATOM      2  C1  UNL d   1      -0.591   2.461   2.581  0.00  0.00     0.062 A 
ATOM      3  C2  UNL d   1       0.087   1.958   1.475  0.00  0.00     0.162 A 
ATOM      4  C3  UNL d   1       1.455   2.187   1.324  0.00  0.00    -0.034 A 
ATOM      5  C4  UNL d   1       2.132   2.926   2.295  0.00  0.00     0.162 A 
ATOM      6  C5  UNL d   1       1.450   3.427   3.399  0.00  0.00     0.062 A 
ATOM      7  F   UNL d   1       2.109   4.135   4.327  0.00  0.00    -0.097 F 
ATOM      8  F1  UNL d   1       3.447   3.164   2.181  0.00  0.00    -0.096 F 
ATOM      9  I   UNL d   1       2.472   1.436  -0.329  0.00  0.00    -0.060 I 
ATOM     10  F2  UNL d   1      -0.596   1.253   0.561  0.00  0.00    -0.096 F 
ATOM     11  F3  UNL d   1      -1.906   2.236   2.718  0.00  0.00    -0.097 F 
ATOM     12  F4  UNL d   1      -0.566   3.678   4.606  0.00  0.00    -0.092 F 
ENDROOT
TORSDOF 0
ENDMDL
