MODEL 1
REMARK minimizedAffinity 3.44491863
REMARK minimizedRMSD -1
REMARK  0 active torsions:
REMARK  status: ('A' for Active; 'I' for Inactive)
ROOT
ATOM      1  C   UNL d   1      -1.777   3.010   3.867  0.00  0.00     0.124 A 
ATOM      2  C1  UNL d   1      -0.444   3.245   4.177  0.00  0.00     0.062 A 
ATOM      3  C2  UNL d   1       0.562   2.780   3.336  0.00  0.00     0.162 A 
ATOM      4  C3  UNL d   1       0.241   2.077   2.175  0.00  0.00    -0.034 A 
ATOM      5  C4  UNL d   1      -1.101   1.845   1.870  0.00  0.00     0.162 A 
ATOM      6  C5  UNL d   1      -2.104   2.311   2.714  0.00  0.00     0.062 A 
ATOM      7  F   UNL d   1      -3.391   2.084   2.412  0.00  0.00    -0.097 F 
ATOM      8  F1  UNL d   1      -1.446   1.172   0.761  0.00  0.00    -0.096 F 
ATOM      9  I   UNL d   1       1.744   1.381   0.914  0.00  0.00    -0.060 I 
ATOM     10  F2  UNL d   1       1.841   3.021   3.661  0.00  0.00    -0.096 F 
ATOM     11  F3  UNL d   1      -0.126   3.919   5.291  0.00  0.00    -0.097 F 
ATOM     12  F4  UNL d   1      -2.744   3.457   4.678  0.00  0.00    -0.092 F 
ENDROOT
TORSDOF 0
ENDMDL
