MODEL 1
REMARK minimizedAffinity 8.26690769
REMARK minimizedRMSD -1
REMARK  0 active torsions:
REMARK  status: ('A' for Active; 'I' for Inactive)
ROOT
ATOM      1  C   UNL d   1      -0.466   0.769   1.380  0.00  0.00     0.124 A 
ATOM      2  C1  UNL d   1      -1.383   1.665   1.914  0.00  0.00     0.062 A 
ATOM      3  C2  UNL d   1      -0.948   2.869   2.459  0.00  0.00     0.162 A 
ATOM      4  C3  UNL d   1       0.410   3.186   2.473  0.00  0.00    -0.034 A 
ATOM      5  C4  UNL d   1       1.326   2.281   1.936  0.00  0.00     0.162 A 
ATOM      6  C5  UNL d   1       0.887   1.078   1.392  0.00  0.00     0.062 A 
ATOM      7  F   UNL d   1       1.774   0.214   0.877  0.00  0.00    -0.097 F 
ATOM      8  F1  UNL d   1       2.639   2.554   1.933  0.00  0.00    -0.096 F 
ATOM      9  I   UNL d   1       1.063   4.987   3.288  0.00  0.00    -0.060 I 
ATOM     10  F2  UNL d   1      -1.856   3.715   2.968  0.00  0.00    -0.096 F 
ATOM     11  F3  UNL d   1      -2.690   1.368   1.905  0.00  0.00    -0.097 F 
ATOM     12  F4  UNL d   1      -0.886  -0.389   0.857  0.00  0.00    -0.092 F 
ENDROOT
TORSDOF 0
ENDMDL
