MODEL 1
REMARK minimizedAffinity 5.71707916
REMARK minimizedRMSD -1
REMARK  0 active torsions:
REMARK  status: ('A' for Active; 'I' for Inactive)
ROOT
ATOM      1  C   UNL d   1      -1.297   1.868   1.440  0.00  0.00     0.124 A 
ATOM      2  C1  UNL d   1      -0.102   2.038   2.125  0.00  0.00     0.062 A 
ATOM      3  C2  UNL d   1       1.089   2.202   1.424  0.00  0.00     0.162 A 
ATOM      4  C3  UNL d   1       1.091   2.198   0.029  0.00  0.00    -0.034 A 
ATOM      5  C4  UNL d   1      -0.115   2.026  -0.653  0.00  0.00     0.162 A 
ATOM      6  C5  UNL d   1      -1.303   1.862   0.053  0.00  0.00     0.062 A 
ATOM      7  F   UNL d   1      -2.456   1.698  -0.611  0.00  0.00    -0.097 F 
ATOM      8  F1  UNL d   1      -0.149   2.017  -1.993  0.00  0.00    -0.096 F 
ATOM      9  I   UNL d   1       2.870   2.443  -1.023  0.00  0.00    -0.060 I 
ATOM     10  F2  UNL d   1       2.230   2.363   2.112  0.00  0.00    -0.096 F 
ATOM     11  F3  UNL d   1      -0.094   2.043   3.466  0.00  0.00    -0.097 F 
ATOM     12  F4  UNL d   1      -2.442   1.710   2.118  0.00  0.00    -0.092 F 
ENDROOT
TORSDOF 0
ENDMDL
