MODEL 1
REMARK minimizedAffinity 12.252142
REMARK minimizedRMSD -1
REMARK  0 active torsions:
REMARK  status: ('A' for Active; 'I' for Inactive)
ROOT
ATOM      1  C   UNL d   1       1.125   4.026   3.540  0.00  0.00     0.124 A 
ATOM      2  C1  UNL d   1       1.571   3.015   2.701  0.00  0.00     0.062 A 
ATOM      3  C2  UNL d   1       0.662   2.135   2.120  0.00  0.00     0.162 A 
ATOM      4  C3  UNL d   1      -0.703   2.264   2.374  0.00  0.00    -0.034 A 
ATOM      5  C4  UNL d   1      -1.144   3.284   3.220  0.00  0.00     0.162 A 
ATOM      6  C5  UNL d   1      -0.232   4.160   3.798  0.00  0.00     0.062 A 
ATOM      7  F   UNL d   1      -0.665   5.137   4.608  0.00  0.00    -0.097 F 
ATOM      8  F1  UNL d   1      -2.450   3.436   3.486  0.00  0.00    -0.096 F 
ATOM      9  I   UNL d   1      -2.065   0.951   1.507  0.00  0.00    -0.060 I 
ATOM     10  F2  UNL d   1       1.122   1.167   1.314  0.00  0.00    -0.096 F 
ATOM     11  F3  UNL d   1       2.882   2.883   2.451  0.00  0.00    -0.097 F 
ATOM     12  F4  UNL d   1       2.002   4.871   4.099  0.00  0.00    -0.092 F 
ENDROOT
TORSDOF 0
ENDMDL
