MODEL 1
REMARK minimizedAffinity 17.4382095
REMARK minimizedRMSD -1
REMARK  0 active torsions:
REMARK  status: ('A' for Active; 'I' for Inactive)
ROOT
ATOM      1  C   UNL d   1      -1.553   2.552   4.246  0.00  0.00     0.124 A 
ATOM      2  C1  UNL d   1      -0.356   3.255   4.280  0.00  0.00     0.062 A 
ATOM      3  C2  UNL d   1       0.554   3.139   3.233  0.00  0.00     0.162 A 
ATOM      4  C3  UNL d   1       0.271   2.318   2.142  0.00  0.00    -0.034 A 
ATOM      5  C4  UNL d   1      -0.934   1.613   2.115  0.00  0.00     0.162 A 
ATOM      6  C5  UNL d   1      -1.840   1.732   3.164  0.00  0.00     0.062 A 
ATOM      7  F   UNL d   1      -2.996   1.052   3.129  0.00  0.00    -0.097 F 
ATOM      8  F1  UNL d   1      -1.238   0.814   1.081  0.00  0.00    -0.096 F 
ATOM      9  I   UNL d   1       1.629   2.142   0.575  0.00  0.00    -0.060 I 
ATOM     10  F2  UNL d   1       1.702   3.830   3.293  0.00  0.00    -0.096 F 
ATOM     11  F3  UNL d   1      -0.075   4.047   5.325  0.00  0.00    -0.097 F 
ATOM     12  F4  UNL d   1      -2.426   2.664   5.255  0.00  0.00    -0.092 F 
ENDROOT
TORSDOF 0
ENDMDL
