MODEL 1
REMARK minimizedAffinity 17.9064541
REMARK minimizedRMSD -1
REMARK  0 active torsions:
REMARK  status: ('A' for Active; 'I' for Inactive)
ROOT
ATOM      1  C   UNL d   1       0.808   3.566   2.573  0.00  0.00     0.124 A 
ATOM      2  C1  UNL d   1      -0.007   2.714   1.841  0.00  0.00     0.062 A 
ATOM      3  C2  UNL d   1      -1.230   2.298   2.360  0.00  0.00     0.162 A 
ATOM      4  C3  UNL d   1      -1.647   2.736   3.617  0.00  0.00    -0.034 A 
ATOM      5  C4  UNL d   1      -0.821   3.592   4.348  0.00  0.00     0.162 A 
ATOM      6  C5  UNL d   1       0.400   4.004   3.825  0.00  0.00     0.062 A 
ATOM      7  F   UNL d   1       1.186   4.828   4.533  0.00  0.00    -0.097 F 
ATOM      8  F1  UNL d   1      -1.191   4.032   5.560  0.00  0.00    -0.096 F 
ATOM      9  I   UNL d   1      -3.475   2.117   4.396  0.00  0.00    -0.060 I 
ATOM     10  F2  UNL d   1      -1.998   1.474   1.631  0.00  0.00    -0.096 F 
ATOM     11  F3  UNL d   1       0.384   2.288   0.632  0.00  0.00    -0.097 F 
ATOM     12  F4  UNL d   1       1.984   3.963   2.072  0.00  0.00    -0.092 F 
ENDROOT
TORSDOF 0
ENDMDL
