MODEL 1
REMARK minimizedAffinity 19.71134
REMARK minimizedRMSD -1
REMARK  0 active torsions:
REMARK  status: ('A' for Active; 'I' for Inactive)
ROOT
ATOM      1  C   UNL d   1      -2.095   2.566   4.165  0.00  0.00     0.124 A 
ATOM      2  C1  UNL d   1      -0.837   3.152   4.211  0.00  0.00     0.062 A 
ATOM      3  C2  UNL d   1       0.056   2.975   3.159  0.00  0.00     0.162 A 
ATOM      4  C3  UNL d   1      -0.304   2.209   2.051  0.00  0.00    -0.034 A 
ATOM      5  C4  UNL d   1      -1.570   1.621   2.012  0.00  0.00     0.162 A 
ATOM      6  C5  UNL d   1      -2.460   1.801   3.066  0.00  0.00     0.062 A 
ATOM      7  F   UNL d   1      -3.674   1.234   3.020  0.00  0.00    -0.097 F 
ATOM      8  F1  UNL d   1      -1.949   0.878   0.962  0.00  0.00    -0.096 F 
ATOM      9  I   UNL d   1       1.029   1.941   0.475  0.00  0.00    -0.060 I 
ATOM     10  F2  UNL d   1       1.264   3.553   3.230  0.00  0.00    -0.096 F 
ATOM     11  F3  UNL d   1      -0.482   3.890   5.272  0.00  0.00    -0.097 F 
ATOM     12  F4  UNL d   1      -2.952   2.737   5.180  0.00  0.00    -0.092 F 
ENDROOT
TORSDOF 0
ENDMDL
