MODEL 1
REMARK minimizedAffinity 2.7395823
REMARK minimizedRMSD -1
REMARK  0 active torsions:
REMARK  status: ('A' for Active; 'I' for Inactive)
ROOT
ATOM      1  C   UNL d   1      -0.467   2.062   2.004  0.00  0.00     0.124 A 
ATOM      2  C1  UNL d   1       0.405   2.046   0.923  0.00  0.00     0.062 A 
ATOM      3  C2  UNL d   1       1.635   2.690   1.007  0.00  0.00     0.162 A 
ATOM      4  C3  UNL d   1       2.003   3.356   2.176  0.00  0.00    -0.034 A 
ATOM      5  C4  UNL d   1       1.121   3.370   3.258  0.00  0.00     0.162 A 
ATOM      6  C5  UNL d   1      -0.108   2.724   3.169  0.00  0.00     0.062 A 
ATOM      7  F   UNL d   1      -0.948   2.741   4.214  0.00  0.00    -0.097 F 
ATOM      8  F1  UNL d   1       1.443   4.001   4.397  0.00  0.00    -0.096 F 
ATOM      9  I   UNL d   1       3.843   4.321   2.304  0.00  0.00    -0.060 I 
ATOM     10  F2  UNL d   1       2.457   2.658  -0.053  0.00  0.00    -0.096 F 
ATOM     11  F3  UNL d   1       0.060   1.408  -0.205  0.00  0.00    -0.097 F 
ATOM     12  F4  UNL d   1      -1.651   1.443   1.920  0.00  0.00    -0.092 F 
ENDROOT
TORSDOF 0
ENDMDL
