MODEL 1
REMARK minimizedAffinity 14.3307686
REMARK minimizedRMSD -1
REMARK  0 active torsions:
REMARK  status: ('A' for Active; 'I' for Inactive)
ROOT
ATOM      1  C   UNL d   1      -1.175   2.236   3.552  0.00  0.00     0.124 A 
ATOM      2  C1  UNL d   1      -0.227   2.252   2.538  0.00  0.00     0.062 A 
ATOM      3  C2  UNL d   1       0.941   2.994   2.685  0.00  0.00     0.162 A 
ATOM      4  C3  UNL d   1       1.169   3.725   3.851  0.00  0.00    -0.034 A 
ATOM      5  C4  UNL d   1       0.211   3.704   4.865  0.00  0.00     0.162 A 
ATOM      6  C5  UNL d   1      -0.956   2.961   4.714  0.00  0.00     0.062 A 
ATOM      7  F   UNL d   1      -1.870   2.946   5.695  0.00  0.00    -0.097 F 
ATOM      8  F1  UNL d   1       0.398   4.396   5.999  0.00  0.00    -0.096 F 
ATOM      9  I   UNL d   1       2.915   4.836   4.074  0.00  0.00    -0.060 I 
ATOM     10  F2  UNL d   1       1.840   2.992   1.689  0.00  0.00    -0.096 F 
ATOM     11  F3  UNL d   1      -0.438   1.553   1.414  0.00  0.00    -0.097 F 
ATOM     12  F4  UNL d   1      -2.299   1.522   3.408  0.00  0.00    -0.092 F 
ENDROOT
TORSDOF 0
ENDMDL
