MODEL 1
REMARK minimizedAffinity 18.1122665
REMARK minimizedRMSD -1
REMARK  0 active torsions:
REMARK  status: ('A' for Active; 'I' for Inactive)
ROOT
ATOM      1  C   UNL d   1       2.208  -1.970  -0.393  0.00  0.00     0.124 A 
ATOM      2  C1  UNL d   1       1.285  -1.609   0.579  0.00  0.00     0.062 A 
ATOM      3  C2  UNL d   1       0.027  -2.204   0.604  0.00  0.00     0.162 A 
ATOM      4  C3  UNL d   1      -0.316  -3.166  -0.345  0.00  0.00    -0.034 A 
ATOM      5  C4  UNL d   1       0.618  -3.523  -1.320  0.00  0.00     0.162 A 
ATOM      6  C5  UNL d   1       1.874  -2.926  -1.341  0.00  0.00     0.062 A 
ATOM      7  F   UNL d   1       2.764  -3.275  -2.281  0.00  0.00    -0.097 F 
ATOM      8  F1  UNL d   1       0.321  -4.445  -2.249  0.00  0.00    -0.096 F 
ATOM      9  I   UNL d   1      -2.196  -4.058  -0.311  0.00  0.00    -0.060 I 
ATOM     10  F2  UNL d   1      -0.845  -1.837   1.555  0.00  0.00    -0.096 F 
ATOM     11  F3  UNL d   1       1.605  -0.685   1.496  0.00  0.00    -0.097 F 
ATOM     12  F4  UNL d   1       3.418  -1.395  -0.415  0.00  0.00    -0.092 F 
ENDROOT
TORSDOF 0
ENDMDL
