MODEL 1
REMARK minimizedAffinity 12.9746809
REMARK minimizedRMSD -1
REMARK  0 active torsions:
REMARK  status: ('A' for Active; 'I' for Inactive)
ROOT
ATOM      1  C   UNL d   1       0.077   3.051   3.364  0.00  0.00     0.124 A 
ATOM      2  C1  UNL d   1      -0.965   3.155   4.276  0.00  0.00     0.062 A 
ATOM      3  C2  UNL d   1      -2.100   2.362   4.135  0.00  0.00     0.162 A 
ATOM      4  C3  UNL d   1      -2.200   1.457   3.078  0.00  0.00    -0.034 A 
ATOM      5  C4  UNL d   1      -1.149   1.359   2.165  0.00  0.00     0.162 A 
ATOM      6  C5  UNL d   1      -0.016   2.153   2.310  0.00  0.00     0.062 A 
ATOM      7  F   UNL d   1       0.989   2.052   1.428  0.00  0.00    -0.097 F 
ATOM      8  F1  UNL d   1      -1.211   0.499   1.137  0.00  0.00    -0.096 F 
ATOM      9  I   UNL d   1      -3.896   0.270   2.864  0.00  0.00    -0.060 I 
ATOM     10  F2  UNL d   1      -3.091   2.483   5.030  0.00  0.00    -0.096 F 
ATOM     11  F3  UNL d   1      -0.878   4.022   5.295  0.00  0.00    -0.097 F 
ATOM     12  F4  UNL d   1       1.167   3.816   3.502  0.00  0.00    -0.092 F 
ENDROOT
TORSDOF 0
ENDMDL
