MODEL 1
REMARK minimizedAffinity 1.47758234
REMARK minimizedRMSD -1
REMARK  0 active torsions:
REMARK  status: ('A' for Active; 'I' for Inactive)
ROOT
ATOM      1  C   UNL d   1       3.085  -2.258  -2.651  0.00  0.00     0.077 C 
ATOM      2  C1  UNL d   1       2.178  -1.962  -1.493  0.00  0.00    -0.074 A 
ATOM      3  C2  UNL d   1       2.529  -2.337  -0.192  0.00  0.00    -0.005 A 
ATOM      4  C3  UNL d   1       1.681  -2.047   0.876  0.00  0.00     0.006 A 
ATOM      5  C4  UNL d   1       0.475  -1.380   0.655  0.00  0.00    -0.005 A 
ATOM      6  C5  UNL d   1       0.108  -0.997  -0.639  0.00  0.00    -0.074 A 
ATOM      7  C6  UNL d   1      -1.180  -0.272  -0.894  0.00  0.00     0.077 C 
ATOM      8  C7  UNL d   1       0.969  -1.286  -1.707  0.00  0.00    -0.001 A 
ENDROOT
TORSDOF 0
ENDMDL
