MODEL 1
REMARK minimizedAffinity -0.583365142
REMARK minimizedRMSD -1
REMARK  0 active torsions:
REMARK  status: ('A' for Active; 'I' for Inactive)
ROOT
ATOM      1  C   UNL d   1       0.384  -1.191  -0.151  0.00  0.00     0.077 C 
ATOM      2  C1  UNL d   1      -0.779  -0.245  -0.101  0.00  0.00    -0.074 A 
ATOM      3  C2  UNL d   1      -0.898   0.797  -1.026  0.00  0.00    -0.005 A 
ATOM      4  C3  UNL d   1      -1.990   1.663  -0.973  0.00  0.00     0.006 A 
ATOM      5  C4  UNL d   1      -2.973   1.495   0.004  0.00  0.00    -0.005 A 
ATOM      6  C5  UNL d   1      -2.872   0.458   0.936  0.00  0.00    -0.074 A 
ATOM      7  C6  UNL d   1      -3.924   0.257   1.986  0.00  0.00     0.077 C 
ATOM      8  C7  UNL d   1      -1.775  -0.412   0.872  0.00  0.00    -0.001 A 
ENDROOT
TORSDOF 0
ENDMDL
