MODEL 1
REMARK minimizedAffinity -0.189167798
REMARK minimizedRMSD -1
REMARK  0 active torsions:
REMARK  status: ('A' for Active; 'I' for Inactive)
ROOT
ATOM      1  C   UNL d   1       1.489   2.127   0.584  0.00  0.00     0.077 C 
ATOM      2  C1  UNL d   1       0.255   1.295   0.401  0.00  0.00    -0.074 A 
ATOM      3  C2  UNL d   1       0.263   0.172  -0.432  0.00  0.00    -0.005 A 
ATOM      4  C3  UNL d   1      -0.890  -0.598  -0.586  0.00  0.00     0.006 A 
ATOM      5  C4  UNL d   1      -2.061  -0.253   0.091  0.00  0.00    -0.005 A 
ATOM      6  C5  UNL d   1      -2.087   0.867   0.929  0.00  0.00    -0.074 A 
ATOM      7  C6  UNL d   1      -3.334   1.246   1.671  0.00  0.00     0.077 C 
ATOM      8  C7  UNL d   1      -0.923   1.631   1.083  0.00  0.00    -0.001 A 
ENDROOT
TORSDOF 0
ENDMDL
