MODEL 1
REMARK minimizedAffinity -4.68554783
REMARK minimizedRMSD -1
REMARK  0 active torsions:
REMARK  status: ('A' for Active; 'I' for Inactive)
ROOT
ATOM      1  C   UNL d   1       3.529  -1.176   1.324  0.00  0.00     0.077 C 
ATOM      2  C1  UNL d   1       2.251  -1.216   0.541  0.00  0.00    -0.074 A 
ATOM      3  C2  UNL d   1       1.939  -2.313  -0.269  0.00  0.00    -0.005 A 
ATOM      4  C3  UNL d   1       0.742  -2.341  -0.985  0.00  0.00     0.006 A 
ATOM      5  C4  UNL d   1      -0.154  -1.275  -0.898  0.00  0.00    -0.005 A 
ATOM      6  C5  UNL d   1       0.140  -0.170  -0.092  0.00  0.00    -0.074 A 
ATOM      7  C6  UNL d   1      -0.816   0.980   0.020  0.00  0.00     0.077 C 
ATOM      8  C7  UNL d   1       1.342  -0.153   0.629  0.00  0.00    -0.001 A 
ENDROOT
TORSDOF 0
ENDMDL
