MODEL 1
REMARK minimizedAffinity -2.51890397
REMARK minimizedRMSD -1
REMARK  0 active torsions:
REMARK  status: ('A' for Active; 'I' for Inactive)
ROOT
ATOM      1  C   UNL d   1      -3.503   0.725   1.606  0.00  0.00     0.077 C 
ATOM      2  C1  UNL d   1      -2.281   0.563   0.752  0.00  0.00    -0.074 A 
ATOM      3  C2  UNL d   1      -1.723   1.657   0.081  0.00  0.00    -0.005 A 
ATOM      4  C3  UNL d   1      -0.581   1.493  -0.702  0.00  0.00     0.006 A 
ATOM      5  C4  UNL d   1       0.015   0.237  -0.823  0.00  0.00    -0.005 A 
ATOM      6  C5  UNL d   1      -0.528  -0.868  -0.159  0.00  0.00    -0.074 A 
ATOM      7  C6  UNL d   1       0.105  -2.223  -0.270  0.00  0.00     0.077 C 
ATOM      8  C7  UNL d   1      -1.672  -0.694   0.632  0.00  0.00    -0.001 A 
ENDROOT
TORSDOF 0
ENDMDL
