MODEL 1
REMARK minimizedAffinity -1.79712152
REMARK minimizedRMSD -1
REMARK  0 active torsions:
REMARK  status: ('A' for Active; 'I' for Inactive)
ROOT
ATOM      1  C   UNL d   1      -2.832   0.533  -0.492  0.00  0.00     0.077 C 
ATOM      2  C1  UNL d   1      -1.380   0.162  -0.433  0.00  0.00    -0.074 A 
ATOM      3  C2  UNL d   1      -0.972  -1.168  -0.570  0.00  0.00    -0.005 A 
ATOM      4  C3  UNL d   1       0.383  -1.497  -0.522  0.00  0.00     0.006 A 
ATOM      5  C4  UNL d   1       1.342  -0.500  -0.336  0.00  0.00    -0.005 A 
ATOM      6  C5  UNL d   1       0.952   0.836  -0.198  0.00  0.00    -0.074 A 
ATOM      7  C6  UNL d   1       1.970   1.921  -0.007  0.00  0.00     0.077 C 
ATOM      8  C7  UNL d   1      -0.410   1.159  -0.254  0.00  0.00    -0.001 A 
ENDROOT
TORSDOF 0
ENDMDL
