MODEL 1
REMARK minimizedAffinity -3.10003996
REMARK minimizedRMSD -1
REMARK  0 active torsions:
REMARK  status: ('A' for Active; 'I' for Inactive)
ROOT
ATOM      1  C   UNL d   1       3.976  -1.042   0.623  0.00  0.00     0.077 C 
ATOM      2  C1  UNL d   1       2.883  -0.038   0.412  0.00  0.00    -0.074 A 
ATOM      3  C2  UNL d   1       3.127   1.332   0.556  0.00  0.00    -0.005 A 
ATOM      4  C3  UNL d   1       2.102   2.254   0.346  0.00  0.00     0.006 A 
ATOM      5  C4  UNL d   1       0.825   1.818  -0.009  0.00  0.00    -0.005 A 
ATOM      6  C5  UNL d   1       0.563   0.453  -0.159  0.00  0.00    -0.074 A 
ATOM      7  C6  UNL d   1      -0.802  -0.033  -0.550  0.00  0.00     0.077 C 
ATOM      8  C7  UNL d   1       1.599  -0.468   0.047  0.00  0.00    -0.001 A 
ENDROOT
TORSDOF 0
ENDMDL
