MODEL 1
REMARK minimizedAffinity -3.9497242
REMARK minimizedRMSD -1
REMARK  0 active torsions:
REMARK  status: ('A' for Active; 'I' for Inactive)
ROOT
ATOM      1  C   UNL d   1      -2.796   0.692  -0.757  0.00  0.00     0.077 C 
ATOM      2  C1  UNL d   1      -1.520  -0.049  -0.486  0.00  0.00    -0.074 A 
ATOM      3  C2  UNL d   1      -1.471  -1.445  -0.558  0.00  0.00    -0.005 A 
ATOM      4  C3  UNL d   1      -0.276  -2.120  -0.312  0.00  0.00     0.006 A 
ATOM      5  C4  UNL d   1       0.881  -1.408   0.008  0.00  0.00    -0.005 A 
ATOM      6  C5  UNL d   1       0.851  -0.012   0.083  0.00  0.00    -0.074 A 
ATOM      7  C6  UNL d   1       2.087   0.770   0.416  0.00  0.00     0.077 C 
ATOM      8  C7  UNL d   1      -0.353   0.660  -0.172  0.00  0.00    -0.001 A 
ENDROOT
TORSDOF 0
ENDMDL
