MODEL 1
REMARK minimizedAffinity -5.25522947
REMARK minimizedRMSD -1
REMARK  0 active torsions:
REMARK  status: ('A' for Active; 'I' for Inactive)
ROOT
ATOM      1  C   UNL d   1       3.135  -1.120   1.094  0.00  0.00     0.077 C 
ATOM      2  C1  UNL d   1       1.842  -0.719   0.449  0.00  0.00    -0.074 A 
ATOM      3  C2  UNL d   1       1.293   0.549   0.665  0.00  0.00    -0.005 A 
ATOM      4  C3  UNL d   1       0.094   0.910   0.051  0.00  0.00     0.006 A 
ATOM      5  C4  UNL d   1      -0.567   0.009  -0.785  0.00  0.00    -0.005 A 
ATOM      6  C5  UNL d   1      -0.032  -1.263  -1.014  0.00  0.00    -0.074 A 
ATOM      7  C6  UNL d   1      -0.725  -2.240  -1.917  0.00  0.00     0.077 C 
ATOM      8  C7  UNL d   1       1.176  -1.616  -0.398  0.00  0.00    -0.001 A 
ENDROOT
TORSDOF 0
ENDMDL
