MODEL 1
REMARK minimizedAffinity -4.16200876
REMARK minimizedRMSD -1
REMARK  0 active torsions:
REMARK  status: ('A' for Active; 'I' for Inactive)
ROOT
ATOM      1  C   UNL d   1       2.977  -1.891   0.458  0.00  0.00     0.077 C 
ATOM      2  C1  UNL d   1       1.641  -1.349   0.044  0.00  0.00    -0.074 A 
ATOM      3  C2  UNL d   1       0.826  -2.050  -0.851  0.00  0.00    -0.005 A 
ATOM      4  C3  UNL d   1      -0.418  -1.537  -1.219  0.00  0.00     0.006 A 
ATOM      5  C4  UNL d   1      -0.859  -0.321  -0.697  0.00  0.00    -0.005 A 
ATOM      6  C5  UNL d   1      -0.058   0.394   0.200  0.00  0.00    -0.074 A 
ATOM      7  C6  UNL d   1      -0.521   1.698   0.778  0.00  0.00     0.077 C 
ATOM      8  C7  UNL d   1       1.187  -0.131   0.570  0.00  0.00    -0.001 A 
ENDROOT
TORSDOF 0
ENDMDL
