MODEL 1
REMARK minimizedAffinity -5.15854549
REMARK minimizedRMSD -1
REMARK  0 active torsions:
REMARK  status: ('A' for Active; 'I' for Inactive)
ROOT
ATOM      1  O1  BZF d   1       1.509  -1.220  -0.228  0.00  0.00    -0.204 OA
ATOM      2  C2  BZF d   1       1.076  -1.505  -1.509  0.00  0.00     0.174 A 
ATOM      3  C3  BZF d   1      -0.271  -1.557  -1.557  0.00  0.00    -0.012 A 
ATOM      4  C3A BZF d   1      -0.709  -1.195  -0.244  0.00  0.00    -0.107 A 
ATOM      5  C4  BZF d   1      -1.941  -1.052   0.328  0.00  0.00     0.055 A 
ATOM      6  C5  BZF d   1      -2.023  -0.760   1.653  0.00  0.00    -0.016 A 
ATOM      7  C6  BZF d   1      -0.897  -0.610   2.435  0.00  0.00     0.022 A 
ATOM      8  C7  BZF d   1       0.347  -0.738   1.911  0.00  0.00     0.029 A 
ATOM      9  C7A BZF d   1       0.434  -1.001   0.566  0.00  0.00     0.058 A 
ENDROOT
TORSDOF 0
ENDMDL
