MODEL 1
REMARK minimizedAffinity -4.4637537
REMARK minimizedRMSD -1
REMARK  0 active torsions:
REMARK  status: ('A' for Active; 'I' for Inactive)
ROOT
ATOM      1  O1  BZF d   1      -0.398  -0.325   1.487  0.00  0.00    -0.204 OA
ATOM      2  C2  BZF d   1      -1.749  -0.425   1.217  0.00  0.00     0.174 A 
ATOM      3  C3  BZF d   1      -1.961  -1.155   0.102  0.00  0.00    -0.012 A 
ATOM      4  C3A BZF d   1      -0.666  -1.612  -0.300  0.00  0.00    -0.107 A 
ATOM      5  C4  BZF d   1      -0.224  -2.394  -1.329  0.00  0.00     0.055 A 
ATOM      6  C5  BZF d   1       1.112  -2.590  -1.482  0.00  0.00    -0.016 A 
ATOM      7  C6  BZF d   1       2.033  -2.017  -0.630  0.00  0.00     0.022 A 
ATOM      8  C7  BZF d   1       1.642  -1.238   0.408  0.00  0.00     0.029 A 
ATOM      9  C7A BZF d   1       0.291  -1.064   0.585  0.00  0.00     0.058 A 
ENDROOT
TORSDOF 0
ENDMDL
