MODEL 1
REMARK minimizedAffinity -4.37085629
REMARK minimizedRMSD -1
REMARK  0 active torsions:
REMARK  status: ('A' for Active; 'I' for Inactive)
ROOT
ATOM      1  O1  BZF d   1      -0.851  -1.945   0.204  0.00  0.00    -0.204 OA
ATOM      2  C2  BZF d   1       0.456  -1.777   0.620  0.00  0.00     0.174 A 
ATOM      3  C3  BZF d   1       0.570  -0.691   1.411  0.00  0.00    -0.012 A 
ATOM      4  C3A BZF d   1      -0.764  -0.198   1.569  0.00  0.00    -0.107 A 
ATOM      5  C4  BZF d   1      -1.301   0.852   2.258  0.00  0.00     0.055 A 
ATOM      6  C5  BZF d   1      -2.632   1.103   2.146  0.00  0.00    -0.016 A 
ATOM      7  C6  BZF d   1      -3.453   0.329   1.352  0.00  0.00     0.022 A 
ATOM      8  C7  BZF d   1      -2.966  -0.726   0.654  0.00  0.00     0.029 A 
ATOM      9  C7A BZF d   1      -1.628  -1.002   0.791  0.00  0.00     0.058 A 
ENDROOT
TORSDOF 0
ENDMDL
