MODEL 1
REMARK minimizedAffinity -6.10194111
REMARK minimizedRMSD -1
REMARK  0 active torsions:
REMARK  status: ('A' for Active; 'I' for Inactive)
ROOT
ATOM      1  O1  BZF d   1      -2.173  -1.367   0.063  0.00  0.00    -0.204 OA
ATOM      2  C2  BZF d   1      -0.794  -1.291   0.089  0.00  0.00     0.174 A 
ATOM      3  C3  BZF d   1      -0.387  -0.203   0.774  0.00  0.00    -0.012 A 
ATOM      4  C3A BZF d   1      -1.586   0.391   1.281  0.00  0.00    -0.107 A 
ATOM      5  C4  BZF d   1      -1.835   1.491   2.052  0.00  0.00     0.055 A 
ATOM      6  C5  BZF d   1      -3.124   1.839   2.309  0.00  0.00    -0.016 A 
ATOM      7  C6  BZF d   1      -4.185   1.115   1.807  0.00  0.00     0.022 A 
ATOM      8  C7  BZF d   1      -3.988   0.014   1.041  0.00  0.00     0.029 A 
ATOM      9  C7A BZF d   1      -2.687  -0.359   0.808  0.00  0.00     0.058 A 
ENDROOT
TORSDOF 0
ENDMDL
