MODEL 1
REMARK minimizedAffinity -3.93575597
REMARK minimizedRMSD -1
REMARK  0 active torsions:
REMARK  status: ('A' for Active; 'I' for Inactive)
ROOT
ATOM      1  O1  BZF d   1      -2.656   1.435   2.985  0.00  0.00    -0.204 OA
ATOM      2  C2  BZF d   1      -1.602   1.039   3.785  0.00  0.00     0.174 A 
ATOM      3  C3  BZF d   1      -1.001  -0.056   3.277  0.00  0.00    -0.012 A 
ATOM      4  C3A BZF d   1      -1.666  -0.308   2.035  0.00  0.00    -0.107 A 
ATOM      5  C4  BZF d   1      -1.508  -1.252   1.061  0.00  0.00     0.055 A 
ATOM      6  C5  BZF d   1      -2.369  -1.265   0.009  0.00  0.00    -0.016 A 
ATOM      7  C6  BZF d   1      -3.400  -0.355  -0.097  0.00  0.00     0.022 A 
ATOM      8  C7  BZF d   1      -3.593   0.603   0.842  0.00  0.00     0.029 A 
ATOM      9  C7A BZF d   1      -2.705   0.640   1.889  0.00  0.00     0.058 A 
ENDROOT
TORSDOF 0
ENDMDL
