MODEL 1
REMARK minimizedAffinity -4.71811485
REMARK minimizedRMSD -1
REMARK  0 active torsions:
REMARK  status: ('A' for Active; 'I' for Inactive)
ROOT
ATOM      1  O1  BZF d   1      -0.567   0.428   3.315  0.00  0.00    -0.204 OA
ATOM      2  C2  BZF d   1      -1.767   0.940   3.768  0.00  0.00     0.174 A 
ATOM      3  C3  BZF d   1      -2.694   0.923   2.789  0.00  0.00    -0.012 A 
ATOM      4  C3A BZF d   1      -2.059   0.279   1.680  0.00  0.00    -0.107 A 
ATOM      5  C4  BZF d   1      -2.473  -0.048   0.420  0.00  0.00     0.055 A 
ATOM      6  C5  BZF d   1      -1.584  -0.605  -0.443  0.00  0.00    -0.016 A 
ATOM      7  C6  BZF d   1      -0.273  -0.843  -0.083  0.00  0.00     0.022 A 
ATOM      8  C7  BZF d   1       0.182  -0.540   1.157  0.00  0.00     0.029 A 
ATOM      9  C7A BZF d   1      -0.722  -0.008   2.042  0.00  0.00     0.058 A 
ENDROOT
TORSDOF 0
ENDMDL
