MODEL 1
REMARK minimizedAffinity -5.49849033
REMARK minimizedRMSD -1
REMARK  0 active torsions:
REMARK  status: ('A' for Active; 'I' for Inactive)
ROOT
ATOM      1  O1  BZF d   1      -2.305   0.050   2.542  0.00  0.00    -0.204 OA
ATOM      2  C2  BZF d   1      -3.126   0.167   1.437  0.00  0.00     0.174 A 
ATOM      3  C3  BZF d   1      -2.480  -0.221   0.319  0.00  0.00    -0.012 A 
ATOM      4  C3A BZF d   1      -1.205  -0.692   0.764  0.00  0.00    -0.107 A 
ATOM      5  C4  BZF d   1      -0.122  -1.221   0.121  0.00  0.00     0.055 A 
ATOM      6  C5  BZF d   1       0.995  -1.511   0.838  0.00  0.00    -0.016 A 
ATOM      7  C6  BZF d   1       1.067  -1.280   2.196  0.00  0.00     0.022 A 
ATOM      8  C7  BZF d   1       0.017  -0.761   2.878  0.00  0.00     0.029 A 
ATOM      9  C7A BZF d   1      -1.125  -0.498   2.163  0.00  0.00     0.058 A 
ENDROOT
TORSDOF 0
ENDMDL
