MODEL 1
REMARK minimizedAffinity -3.0501864
REMARK minimizedRMSD -1
REMARK  0 active torsions:
REMARK  status: ('A' for Active; 'I' for Inactive)
ROOT
ATOM      1  O1  BZF d   1      -3.020   0.251   2.166  0.00  0.00    -0.204 OA
ATOM      2  C2  BZF d   1      -3.336   0.321   0.823  0.00  0.00     0.174 A 
ATOM      3  C3  BZF d   1      -2.277  -0.028   0.063  0.00  0.00    -0.012 A 
ATOM      4  C3A BZF d   1      -1.262  -0.424   0.991  0.00  0.00    -0.107 A 
ATOM      5  C4  BZF d   1       0.014  -0.888   0.845  0.00  0.00     0.055 A 
ATOM      6  C5  BZF d   1       0.765  -1.112   1.955  0.00  0.00    -0.016 A 
ATOM      7  C6  BZF d   1       0.276  -0.878   3.223  0.00  0.00     0.022 A 
ATOM      8  C7  BZF d   1      -0.985  -0.423   3.418  0.00  0.00     0.029 A 
ATOM      9  C7A BZF d   1      -1.759  -0.226   2.300  0.00  0.00     0.058 A 
ENDROOT
TORSDOF 0
ENDMDL
