MODEL 1
REMARK minimizedAffinity -2.86894298
REMARK minimizedRMSD -1
REMARK  0 active torsions:
REMARK  status: ('A' for Active; 'I' for Inactive)
ROOT
ATOM      1  O1  BZF d   1      -2.328  -0.918   0.085  0.00  0.00    -0.204 OA
ATOM      2  C2  BZF d   1      -3.163  -0.186   0.907  0.00  0.00     0.174 A 
ATOM      3  C3  BZF d   1      -2.550   0.107   2.073  0.00  0.00    -0.012 A 
ATOM      4  C3A BZF d   1      -1.219  -0.400   1.936  0.00  0.00    -0.107 A 
ATOM      5  C4  BZF d   1      -0.126  -0.400   2.754  0.00  0.00     0.055 A 
ATOM      6  C5  BZF d   1       1.001  -1.043   2.351  0.00  0.00    -0.016 A 
ATOM      7  C6  BZF d   1       1.069  -1.699   1.139  0.00  0.00     0.022 A 
ATOM      8  C7  BZF d   1       0.012  -1.721   0.291  0.00  0.00     0.029 A 
ATOM      9  C7A BZF d   1      -1.118  -1.044   0.681  0.00  0.00     0.058 A 
ENDROOT
TORSDOF 0
ENDMDL
