MODEL 1
REMARK minimizedAffinity -2.07160759
REMARK minimizedRMSD -1
REMARK  0 active torsions:
REMARK  status: ('A' for Active; 'I' for Inactive)
ROOT
ATOM      1  C   UNL d   1       2.148   5.988   4.724  0.00  0.00     0.077 C 
ATOM      2  C1  UNL d   1       2.582   5.290   3.469  0.00  0.00    -0.074 A 
ATOM      3  C2  UNL d   1       3.251   5.984   2.456  0.00  0.00    -0.005 A 
ATOM      4  C3  UNL d   1       3.658   5.320   1.298  0.00  0.00     0.006 A 
ATOM      5  C4  UNL d   1       3.399   3.957   1.143  0.00  0.00    -0.005 A 
ATOM      6  C5  UNL d   1       2.732   3.247   2.146  0.00  0.00    -0.074 A 
ATOM      7  C6  UNL d   1       2.455   1.780   1.999  0.00  0.00     0.077 C 
ATOM      8  C7  UNL d   1       2.333   3.920   3.309  0.00  0.00    -0.001 A 
ENDROOT
TORSDOF 0
ENDMDL
