MODEL 1
REMARK minimizedAffinity 9.79228973
REMARK minimizedRMSD -1
REMARK  0 active torsions:
REMARK  status: ('A' for Active; 'I' for Inactive)
ROOT
ATOM      1  C   UNL d   1       1.464  -5.990  -3.381  0.00  0.00     0.077 C 
ATOM      2  C1  UNL d   1       0.712  -5.983  -2.083  0.00  0.00    -0.074 A 
ATOM      3  C2  UNL d   1       1.391  -5.947  -0.861  0.00  0.00    -0.005 A 
ATOM      4  C3  UNL d   1       0.678  -5.930   0.338  0.00  0.00     0.006 A 
ATOM      5  C4  UNL d   1      -0.717  -5.950   0.327  0.00  0.00    -0.005 A 
ATOM      6  C5  UNL d   1      -1.412  -5.985  -0.886  0.00  0.00    -0.074 A 
ATOM      7  C6  UNL d   1      -2.912  -5.997  -0.916  0.00  0.00     0.077 C 
ATOM      8  C7  UNL d   1      -0.689  -5.994  -2.087  0.00  0.00    -0.001 A 
ENDROOT
TORSDOF 0
ENDMDL
