MODEL 1
REMARK minimizedAffinity 5.95447111
REMARK minimizedRMSD -1
REMARK  0 active torsions:
REMARK  status: ('A' for Active; 'I' for Inactive)
ROOT
ATOM      1  C   UNL d   1       5.961   4.725   5.605  0.00  0.00     0.077 C 
ATOM      2  C1  UNL d   1       5.843   4.326   4.164  0.00  0.00    -0.074 A 
ATOM      3  C2  UNL d   1       6.000   2.993   3.771  0.00  0.00    -0.005 A 
ATOM      4  C3  UNL d   1       5.878   2.636   2.429  0.00  0.00     0.006 A 
ATOM      5  C4  UNL d   1       5.599   3.607   1.466  0.00  0.00    -0.005 A 
ATOM      6  C5  UNL d   1       5.438   4.945   1.840  0.00  0.00    -0.074 A 
ATOM      7  C6  UNL d   1       5.128   6.000   0.819  0.00  0.00     0.077 C 
ATOM      8  C7  UNL d   1       5.555   5.295   3.192  0.00  0.00    -0.001 A 
ENDROOT
TORSDOF 0
ENDMDL
