MODEL 1
REMARK minimizedAffinity 7.34421015
REMARK minimizedRMSD -1
REMARK  0 active torsions:
REMARK  status: ('A' for Active; 'I' for Inactive)
ROOT
ATOM      1  C   UNL d   1       0.082  -5.979  -2.215  0.00  0.00     0.077 C 
ATOM      2  C1  UNL d   1       0.420  -5.219  -0.967  0.00  0.00    -0.074 A 
ATOM      3  C2  UNL d   1       0.060  -5.709   0.293  0.00  0.00    -0.005 A 
ATOM      4  C3  UNL d   1       0.390  -4.995   1.445  0.00  0.00     0.006 A 
ATOM      5  C4  UNL d   1       1.081  -3.787   1.350  0.00  0.00    -0.005 A 
ATOM      6  C5  UNL d   1       1.450  -3.282   0.099  0.00  0.00    -0.074 A 
ATOM      7  C6  UNL d   1       2.202  -1.989  -0.021  0.00  0.00     0.077 C 
ATOM      8  C7  UNL d   1       1.121  -4.008  -1.054  0.00  0.00    -0.001 A 
ENDROOT
TORSDOF 0
ENDMDL
