MODEL 1
REMARK minimizedAffinity 15.2059231
REMARK minimizedRMSD -1
REMARK  0 active torsions:
REMARK  status: ('A' for Active; 'I' for Inactive)
ROOT
ATOM      1  C   UNL d   1       5.994   5.272   5.856  0.00  0.00     0.077 C 
ATOM      2  C1  UNL d   1       5.758   4.697   4.492  0.00  0.00    -0.074 A 
ATOM      3  C2  UNL d   1       5.998   3.344   4.230  0.00  0.00    -0.005 A 
ATOM      4  C3  UNL d   1       5.764   2.822   2.958  0.00  0.00     0.006 A 
ATOM      5  C4  UNL d   1       5.288   3.645   1.937  0.00  0.00    -0.005 A 
ATOM      6  C5  UNL d   1       5.041   4.999   2.180  0.00  0.00    -0.074 A 
ATOM      7  C6  UNL d   1       4.520   5.896   1.096  0.00  0.00     0.077 C 
ATOM      8  C7  UNL d   1       5.272   5.516   3.462  0.00  0.00    -0.001 A 
ENDROOT
TORSDOF 0
ENDMDL
