MODEL 1
REMARK minimizedAffinity -0.13108851
REMARK minimizedRMSD -1
REMARK  0 active torsions:
REMARK  status: ('A' for Active; 'I' for Inactive)
ROOT
ATOM      1  C   UNL d   1      -1.655   2.196  -5.963  0.00  0.00     0.077 C 
ATOM      2  C1  UNL d   1      -3.082   2.656  -5.981  0.00  0.00    -0.074 A 
ATOM      3  C2  UNL d   1      -4.134   1.735  -5.993  0.00  0.00    -0.005 A 
ATOM      4  C3  UNL d   1      -5.457   2.178  -6.000  0.00  0.00     0.006 A 
ATOM      5  C4  UNL d   1      -5.741   3.544  -5.996  0.00  0.00    -0.005 A 
ATOM      6  C5  UNL d   1      -4.702   4.480  -5.984  0.00  0.00    -0.074 A 
ATOM      7  C6  UNL d   1      -4.989   5.952  -5.969  0.00  0.00     0.077 C 
ATOM      8  C7  UNL d   1      -3.375   4.027  -5.970  0.00  0.00    -0.001 A 
ENDROOT
TORSDOF 0
ENDMDL
