MODEL 1
REMARK minimizedAffinity 6.8664813
REMARK minimizedRMSD -1
REMARK  0 active torsions:
REMARK  status: ('A' for Active; 'I' for Inactive)
ROOT
ATOM      1  C   UNL d   1       3.216   2.940   1.957  0.00  0.00     0.077 C 
ATOM      2  C1  UNL d   1       4.185   2.948   3.101  0.00  0.00    -0.074 A 
ATOM      3  C2  UNL d   1       5.084   1.893   3.290  0.00  0.00    -0.005 A 
ATOM      4  C3  UNL d   1       5.986   1.919   4.353  0.00  0.00     0.006 A 
ATOM      5  C4  UNL d   1       5.999   2.998   5.237  0.00  0.00    -0.005 A 
ATOM      6  C5  UNL d   1       5.108   4.063   5.064  0.00  0.00    -0.074 A 
ATOM      7  C6  UNL d   1       5.115   5.235   6.000  0.00  0.00     0.077 C 
ATOM      8  C7  UNL d   1       4.209   4.032   3.989  0.00  0.00    -0.001 A 
ENDROOT
TORSDOF 0
ENDMDL
