MODEL 1
REMARK minimizedAffinity 2.28085494
REMARK minimizedRMSD -1
REMARK  0 active torsions:
REMARK  status: ('A' for Active; 'I' for Inactive)
ROOT
ATOM      1  C   UNL d   1      -3.136  -0.006   0.929  0.00  0.00     0.077 C 
ATOM      2  C1  UNL d   1      -1.641  -0.116   0.965  0.00  0.00    -0.074 A 
ATOM      3  C2  UNL d   1      -1.015  -1.356   1.133  0.00  0.00    -0.005 A 
ATOM      4  C3  UNL d   1       0.377  -1.445   1.155  0.00  0.00     0.006 A 
ATOM      5  C4  UNL d   1       1.156  -0.296   1.009  0.00  0.00    -0.005 A 
ATOM      6  C5  UNL d   1       0.548   0.952   0.839  0.00  0.00    -0.074 A 
ATOM      7  C6  UNL d   1       1.371   2.195   0.671  0.00  0.00     0.077 C 
ATOM      8  C7  UNL d   1      -0.851   1.032   0.811  0.00  0.00    -0.001 A 
ENDROOT
TORSDOF 0
ENDMDL
