MODEL 1
REMARK minimizedAffinity 3.68666339
REMARK minimizedRMSD -1
REMARK  0 active torsions:
REMARK  status: ('A' for Active; 'I' for Inactive)
ROOT
ATOM      1  C   UNL d   1      -2.477   2.520  -5.999  0.00  0.00     0.077 C 
ATOM      2  C1  UNL d   1      -1.018   2.865  -5.965  0.00  0.00    -0.074 A 
ATOM      3  C2  UNL d   1      -0.043   1.864  -5.921  0.00  0.00    -0.005 A 
ATOM      4  C3  UNL d   1       1.311   2.200  -5.899  0.00  0.00     0.006 A 
ATOM      5  C4  UNL d   1       1.702   3.539  -5.921  0.00  0.00    -0.005 A 
ATOM      6  C5  UNL d   1       0.742   4.554  -5.966  0.00  0.00    -0.074 A 
ATOM      7  C6  UNL d   1       1.146   5.998  -6.000  0.00  0.00     0.077 C 
ATOM      8  C7  UNL d   1      -0.616   4.208  -5.995  0.00  0.00    -0.001 A 
ENDROOT
TORSDOF 0
ENDMDL
