MODEL 1
REMARK minimizedAffinity -3.86782503
REMARK minimizedRMSD -1
REMARK  0 active torsions:
REMARK  status: ('A' for Active; 'I' for Inactive)
ROOT
ATOM      1  C   UNL d   1      -3.667   2.625  -5.677  0.00  0.00     0.077 C 
ATOM      2  C1  UNL d   1      -2.199   2.935  -5.692  0.00  0.00    -0.074 A 
ATOM      3  C2  UNL d   1      -1.739   4.219  -5.999  0.00  0.00    -0.005 A 
ATOM      4  C3  UNL d   1      -0.372   4.495  -6.000  0.00  0.00     0.006 A 
ATOM      5  C4  UNL d   1       0.548   3.490  -5.694  0.00  0.00    -0.005 A 
ATOM      6  C5  UNL d   1       0.106   2.200  -5.384  0.00  0.00    -0.074 A 
ATOM      7  C6  UNL d   1       1.080   1.112  -5.043  0.00  0.00     0.077 C 
ATOM      8  C7  UNL d   1      -1.270   1.933  -5.378  0.00  0.00    -0.001 A 
ENDROOT
TORSDOF 0
ENDMDL
