MODEL 1
REMARK minimizedAffinity 0.584568202
REMARK minimizedRMSD -1
REMARK  0 active torsions:
REMARK  status: ('A' for Active; 'I' for Inactive)
ROOT
ATOM      1  C   UNL d   1      -3.382   2.626  -5.991  0.00  0.00     0.077 C 
ATOM      2  C1  UNL d   1      -1.923   2.955  -5.880  0.00  0.00    -0.074 A 
ATOM      3  C2  UNL d   1      -1.473   4.274  -6.000  0.00  0.00    -0.005 A 
ATOM      4  C3  UNL d   1      -0.114   4.566  -5.885  0.00  0.00     0.006 A 
ATOM      5  C4  UNL d   1       0.807   3.545  -5.649  0.00  0.00    -0.005 A 
ATOM      6  C5  UNL d   1       0.375   2.220  -5.526  0.00  0.00    -0.074 A 
ATOM      7  C6  UNL d   1       1.350   1.112  -5.263  0.00  0.00     0.077 C 
ATOM      8  C7  UNL d   1      -0.993   1.935  -5.636  0.00  0.00    -0.001 A 
ENDROOT
TORSDOF 0
ENDMDL
