MODEL 1
REMARK minimizedAffinity -0.946461856
REMARK minimizedRMSD -1
REMARK  0 active torsions:
REMARK  status: ('A' for Active; 'I' for Inactive)
ROOT
ATOM      1  C   UNL d   1      -0.907   1.921   0.374  0.00  0.00     0.077 C 
ATOM      2  C1  UNL d   1       0.524   1.874  -0.076  0.00  0.00    -0.074 A 
ATOM      3  C2  UNL d   1       1.568   2.103   0.825  0.00  0.00    -0.005 A 
ATOM      4  C3  UNL d   1       2.894   2.048   0.394  0.00  0.00     0.006 A 
ATOM      5  C4  UNL d   1       3.187   1.763  -0.940  0.00  0.00    -0.005 A 
ATOM      6  C5  UNL d   1       2.156   1.530  -1.855  0.00  0.00    -0.074 A 
ATOM      7  C6  UNL d   1       2.455   1.214  -3.290  0.00  0.00     0.077 C 
ATOM      8  C7  UNL d   1       0.827   1.581  -1.413  0.00  0.00    -0.001 A 
ENDROOT
TORSDOF 0
ENDMDL
