MODEL 1
REMARK minimizedAffinity 14.0308151
REMARK minimizedRMSD -1
REMARK  0 active torsions:
REMARK  status: ('A' for Active; 'I' for Inactive)
ROOT
ATOM      1  N1  IND d   1       3.227   3.011   4.412  0.00  0.00    -0.196 N 
ATOM      2  C2  IND d   1       4.395   2.613   3.824  0.00  0.00     0.054 A 
ATOM      3  C3  IND d   1       4.259   1.375   3.299  0.00  0.00    -0.031 A 
ATOM      4  C4  IND d   1       2.179  -0.139   3.197  0.00  0.00     0.051 A 
ATOM      5  C5  IND d   1       0.885  -0.222   3.630  0.00  0.00    -0.031 A 
ATOM      6  C6  IND d   1       0.293   0.789   4.358  0.00  0.00     0.015 A 
ATOM      7  C7  IND d   1       0.972   1.932   4.672  0.00  0.00    -0.016 A 
ATOM      8  C8  IND d   1       2.288   2.018   4.240  0.00  0.00    -0.047 A 
ATOM      9  C9  IND d   1       2.908   0.976   3.537  0.00  0.00    -0.096 A 
ATOM     10  HN1 IND d   1       3.100   3.757   4.820  0.00  0.00     0.298 HD
ENDROOT
TORSDOF 0
ENDMDL
