MODEL 1
REMARK minimizedAffinity -0.30133903
REMARK minimizedRMSD -1
REMARK  0 active torsions:
REMARK  status: ('A' for Active; 'I' for Inactive)
ROOT
ATOM      1  N1  IND d   1      -3.520   2.874   3.629  0.00  0.00    -0.196 N 
ATOM      2  C2  IND d   1      -4.268   3.655   2.793  0.00  0.00     0.054 A 
ATOM      3  C3  IND d   1      -4.710   2.930   1.741  0.00  0.00    -0.031 A 
ATOM      4  C4  IND d   1      -4.410   0.422   1.243  0.00  0.00     0.051 A 
ATOM      5  C5  IND d   1      -3.772  -0.698   1.698  0.00  0.00    -0.031 A 
ATOM      6  C6  IND d   1      -3.005  -0.685   2.845  0.00  0.00     0.015 A 
ATOM      7  C7  IND d   1      -2.855   0.451   3.589  0.00  0.00    -0.016 A 
ATOM      8  C8  IND d   1      -3.495   1.592   3.126  0.00  0.00    -0.047 A 
ATOM      9  C9  IND d   1      -4.240   1.595   1.940  0.00  0.00    -0.096 A 
ATOM     10  HN1 IND d   1      -3.131   3.139   4.349  0.00  0.00     0.298 HD
ENDROOT
TORSDOF 0
ENDMDL
