MODEL 1
REMARK minimizedAffinity -1.87635076
REMARK minimizedRMSD -1
REMARK  0 active torsions:
REMARK  status: ('A' for Active; 'I' for Inactive)
ROOT
ATOM      1  N1  IND d   1      -6.000   5.254   2.957  0.00  0.00    -0.196 N 
ATOM      2  C2  IND d   1      -5.066   5.385   1.967  0.00  0.00     0.054 A 
ATOM      3  C3  IND d   1      -3.925   4.746   2.309  0.00  0.00    -0.031 A 
ATOM      4  C4  IND d   1      -3.403   3.336   4.399  0.00  0.00     0.051 A 
ATOM      5  C5  IND d   1      -3.930   2.957   5.602  0.00  0.00    -0.031 A 
ATOM      6  C6  IND d   1      -5.201   3.330   5.991  0.00  0.00     0.015 A 
ATOM      7  C7  IND d   1      -5.999   4.089   5.183  0.00  0.00    -0.016 A 
ATOM      8  C8  IND d   1      -5.465   4.482   3.964  0.00  0.00    -0.047 A 
ATOM      9  C9  IND d   1      -4.161   4.142   3.582  0.00  0.00    -0.096 A 
ATOM     10  HN1 IND d   1      -6.788   5.597   2.951  0.00  0.00     0.298 HD
ENDROOT
TORSDOF 0
ENDMDL
