MODEL 1
REMARK minimizedAffinity 6.56396675
REMARK minimizedRMSD -1
REMARK  0 active torsions:
REMARK  status: ('A' for Active; 'I' for Inactive)
ROOT
ATOM      1  N1  IND d   1       1.871  -0.464  -2.320  0.00  0.00    -0.196 N 
ATOM      2  C2  IND d   1       3.135  -0.893  -2.615  0.00  0.00     0.054 A 
ATOM      3  C3  IND d   1       3.387  -0.743  -3.934  0.00  0.00    -0.031 A 
ATOM      4  C4  IND d   1       1.907   0.280  -5.776  0.00  0.00     0.051 A 
ATOM      5  C5  IND d   1       0.654   0.777  -5.998  0.00  0.00    -0.031 A 
ATOM      6  C6  IND d   1      -0.276   0.891  -4.985  0.00  0.00     0.015 A 
ATOM      7  C7  IND d   1       0.019   0.520  -3.703  0.00  0.00    -0.016 A 
ATOM      8  C8  IND d   1       1.288   0.008  -3.475  0.00  0.00    -0.047 A 
ATOM      9  C9  IND d   1       2.221  -0.149  -4.508  0.00  0.00    -0.096 A 
ATOM     10  HN1 IND d   1       1.502  -0.486  -1.544  0.00  0.00     0.298 HD
ENDROOT
TORSDOF 0
ENDMDL
