MODEL 1
REMARK minimizedAffinity -1.95207608
REMARK minimizedRMSD -1
REMARK  0 active torsions:
REMARK  status: ('A' for Active; 'I' for Inactive)
ROOT
ATOM      1  N1  IND d   1      -5.126   2.887   2.445  0.00  0.00    -0.196 N 
ATOM      2  C2  IND d   1      -5.301   3.841   1.481  0.00  0.00     0.054 A 
ATOM      3  C3  IND d   1      -5.652   5.019   2.043  0.00  0.00    -0.031 A 
ATOM      4  C4  IND d   1      -5.900   5.635   4.531  0.00  0.00     0.051 A 
ATOM      5  C5  IND d   1      -5.878   5.089   5.783  0.00  0.00    -0.031 A 
ATOM      6  C6  IND d   1      -5.595   3.754   5.992  0.00  0.00     0.015 A 
ATOM      7  C7  IND d   1      -5.312   2.915   4.951  0.00  0.00    -0.016 A 
ATOM      8  C8  IND d   1      -5.341   3.465   3.677  0.00  0.00    -0.047 A 
ATOM      9  C9  IND d   1      -5.669   4.809   3.456  0.00  0.00    -0.096 A 
ATOM     10  HN1 IND d   1      -4.918   2.065   2.306  0.00  0.00     0.298 HD
ENDROOT
TORSDOF 0
ENDMDL
