MODEL 1
REMARK minimizedAffinity 10.0375872
REMARK minimizedRMSD -1
REMARK  0 active torsions:
REMARK  status: ('A' for Active; 'I' for Inactive)
ROOT
ATOM      1  N1  IND d   1       2.605   2.796   3.735  0.00  0.00    -0.196 N 
ATOM      2  C2  IND d   1       3.007   2.879   2.431  0.00  0.00     0.054 A 
ATOM      3  C3  IND d   1       3.018   1.652   1.863  0.00  0.00    -0.031 A 
ATOM      4  C4  IND d   1       2.317  -0.617   2.858  0.00  0.00     0.051 A 
ATOM      5  C5  IND d   1       1.914  -1.203   4.025  0.00  0.00    -0.031 A 
ATOM      6  C6  IND d   1       1.714  -0.471   5.177  0.00  0.00     0.015 A 
ATOM      7  C7  IND d   1       1.899   0.882   5.203  0.00  0.00    -0.016 A 
ATOM      8  C8  IND d   1       2.316   1.480   4.022  0.00  0.00    -0.047 A 
ATOM      9  C9  IND d   1       2.561   0.736   2.860  0.00  0.00    -0.096 A 
ATOM     10  HN1 IND d   1       2.544   3.455   4.284  0.00  0.00     0.298 HD
ENDROOT
TORSDOF 0
ENDMDL
