MODEL 1
REMARK minimizedAffinity -2.7462306
REMARK minimizedRMSD -1
REMARK  0 active torsions:
REMARK  status: ('A' for Active; 'I' for Inactive)
ROOT
ATOM      1  N1  IND d   1      -5.396   3.853   2.165  0.00  0.00    -0.196 N 
ATOM      2  C2  IND d   1      -5.688   5.005   1.488  0.00  0.00     0.054 A 
ATOM      3  C3  IND d   1      -6.000   5.994   2.355  0.00  0.00    -0.031 A 
ATOM      4  C4  IND d   1      -5.997   5.974   4.929  0.00  0.00     0.051 A 
ATOM      5  C5  IND d   1      -5.833   5.140   6.000  0.00  0.00    -0.031 A 
ATOM      6  C6  IND d   1      -5.506   3.808   5.843  0.00  0.00     0.015 A 
ATOM      7  C7  IND d   1      -5.319   3.261   4.606  0.00  0.00    -0.016 A 
ATOM      8  C8  IND d   1      -5.491   4.103   3.516  0.00  0.00    -0.047 A 
ATOM      9  C9  IND d   1      -5.865   5.445   3.667  0.00  0.00    -0.096 A 
ATOM     10  HN1 IND d   1      -5.189   3.100   1.807  0.00  0.00     0.298 HD
ENDROOT
TORSDOF 0
ENDMDL
