MODEL 1
REMARK minimizedAffinity 2.34287906
REMARK minimizedRMSD -1
REMARK  0 active torsions:
REMARK  status: ('A' for Active; 'I' for Inactive)
ROOT
ATOM      1  N1  IND d   1      -5.980   5.999   2.870  0.00  0.00    -0.196 N 
ATOM      2  C2  IND d   1      -5.949   5.367   1.658  0.00  0.00     0.054 A 
ATOM      3  C3  IND d   1      -5.912   4.026   1.828  0.00  0.00    -0.031 A 
ATOM      4  C4  IND d   1      -5.999   2.650   4.001  0.00  0.00     0.051 A 
ATOM      5  C5  IND d   1      -5.995   2.783   5.361  0.00  0.00    -0.031 A 
ATOM      6  C6  IND d   1      -5.989   4.020   5.973  0.00  0.00     0.015 A 
ATOM      7  C7  IND d   1      -5.998   5.175   5.244  0.00  0.00    -0.016 A 
ATOM      8  C8  IND d   1      -5.994   5.044   3.862  0.00  0.00    -0.047 A 
ATOM      9  C9  IND d   1      -5.958   3.791   3.236  0.00  0.00    -0.096 A 
ATOM     10  HN1 IND d   1      -5.989   6.850   2.992  0.00  0.00     0.298 HD
ENDROOT
TORSDOF 0
ENDMDL
