MODEL 1
REMARK minimizedAffinity -3.94645381
REMARK minimizedRMSD -1
REMARK  0 active torsions:
REMARK  status: ('A' for Active; 'I' for Inactive)
ROOT
ATOM      1  N1  IND d   1      -5.323   4.382   5.925  0.00  0.00    -0.196 N 
ATOM      2  C2  IND d   1      -5.762   3.089   6.000  0.00  0.00     0.054 A 
ATOM      3  C3  IND d   1      -6.000   2.601   4.762  0.00  0.00    -0.031 A 
ATOM      4  C4  IND d   1      -5.642   3.714   2.468  0.00  0.00     0.051 A 
ATOM      5  C5  IND d   1      -5.292   4.902   1.890  0.00  0.00    -0.031 A 
ATOM      6  C6  IND d   1      -4.925   5.999   2.643  0.00  0.00     0.015 A 
ATOM      7  C7  IND d   1      -4.882   5.944   4.007  0.00  0.00    -0.016 A 
ATOM      8  C8  IND d   1      -5.244   4.742   4.598  0.00  0.00    -0.047 A 
ATOM      9  C9  IND d   1      -5.659   3.639   3.841  0.00  0.00    -0.096 A 
ATOM     10  HN1 IND d   1      -5.130   4.886   6.595  0.00  0.00     0.298 HD
ENDROOT
TORSDOF 0
ENDMDL
