MODEL 1
REMARK minimizedAffinity -3.08161116
REMARK minimizedRMSD -1
REMARK  0 active torsions:
REMARK  status: ('A' for Active; 'I' for Inactive)
ROOT
ATOM      1  N1  IND d   1      -4.875   3.750   2.208  0.00  0.00    -0.196 N 
ATOM      2  C2  IND d   1      -4.772   4.926   1.517  0.00  0.00     0.054 A 
ATOM      3  C3  IND d   1      -4.868   5.977   2.362  0.00  0.00    -0.031 A 
ATOM      4  C4  IND d   1      -5.095   6.000   4.926  0.00  0.00     0.051 A 
ATOM      5  C5  IND d   1      -5.265   5.172   6.000  0.00  0.00    -0.031 A 
ATOM      6  C6  IND d   1      -5.312   3.799   5.862  0.00  0.00     0.015 A 
ATOM      7  C7  IND d   1      -5.179   3.201   4.641  0.00  0.00    -0.016 A 
ATOM      8  C8  IND d   1      -5.013   4.039   3.548  0.00  0.00    -0.047 A 
ATOM      9  C9  IND d   1      -5.007   5.434   3.676  0.00  0.00    -0.096 A 
ATOM     10  HN1 IND d   1      -4.857   2.963   1.863  0.00  0.00     0.298 HD
ENDROOT
TORSDOF 0
ENDMDL
