MODEL 1
REMARK minimizedAffinity -3.09110498
REMARK minimizedRMSD -1
REMARK  0 active torsions:
REMARK  status: ('A' for Active; 'I' for Inactive)
ROOT
ATOM      1  N1  IND d   1      -5.720   4.713   5.391  0.00  0.00    -0.196 N 
ATOM      2  C2  IND d   1      -5.483   3.396   5.669  0.00  0.00     0.054 A 
ATOM      3  C3  IND d   1      -5.399   2.681   4.525  0.00  0.00    -0.031 A 
ATOM      4  C4  IND d   1      -5.517   3.484   2.082  0.00  0.00     0.051 A 
ATOM      5  C5  IND d   1      -5.758   4.596   1.324  0.00  0.00    -0.031 A 
ATOM      6  C6  IND d   1      -6.000   5.829   1.894  0.00  0.00     0.015 A 
ATOM      7  C7  IND d   1      -6.000   5.999   3.250  0.00  0.00    -0.016 A 
ATOM      8  C8  IND d   1      -5.763   4.871   4.023  0.00  0.00    -0.047 A 
ATOM      9  C9  IND d   1      -5.559   3.609   3.450  0.00  0.00    -0.096 A 
ATOM     10  HN1 IND d   1      -5.825   5.338   5.972  0.00  0.00     0.298 HD
ENDROOT
TORSDOF 0
ENDMDL
