MODEL 1
REMARK minimizedAffinity -1.59283459
REMARK minimizedRMSD -1
REMARK  0 active torsions:
REMARK  status: ('A' for Active; 'I' for Inactive)
ROOT
ATOM      1  N1  IND d   1      -5.939   2.675   4.645  0.00  0.00    -0.196 N 
ATOM      2  C2  IND d   1      -5.889   3.332   5.843  0.00  0.00     0.054 A 
ATOM      3  C3  IND d   1      -5.856   4.669   5.645  0.00  0.00    -0.031 A 
ATOM      4  C4  IND d   1      -5.979   6.000   3.445  0.00  0.00     0.051 A 
ATOM      5  C5  IND d   1      -5.996   5.839   2.088  0.00  0.00    -0.031 A 
ATOM      6  C6  IND d   1      -5.999   4.589   1.502  0.00  0.00     0.015 A 
ATOM      7  C7  IND d   1      -5.995   3.449   2.255  0.00  0.00    -0.016 A 
ATOM      8  C8  IND d   1      -5.969   3.609   3.633  0.00  0.00    -0.047 A 
ATOM      9  C9  IND d   1      -5.924   4.875   4.233  0.00  0.00    -0.096 A 
ATOM     10  HN1 IND d   1      -5.949   1.821   4.541  0.00  0.00     0.298 HD
ENDROOT
TORSDOF 0
ENDMDL
