MODEL 1
REMARK minimizedAffinity -3.84001327
REMARK minimizedRMSD -1
REMARK  0 active torsions:
REMARK  status: ('A' for Active; 'I' for Inactive)
ROOT
ATOM      1  N1  IND d   1      -5.732   5.951   3.078  0.00  0.00    -0.196 N 
ATOM      2  C2  IND d   1      -5.299   5.488   1.867  0.00  0.00     0.054 A 
ATOM      3  C3  IND d   1      -4.942   4.187   1.961  0.00  0.00    -0.031 A 
ATOM      4  C4  IND d   1      -5.081   2.595   3.979  0.00  0.00     0.051 A 
ATOM      5  C5  IND d   1      -5.378   2.569   5.313  0.00  0.00    -0.031 A 
ATOM      6  C6  IND d   1      -5.820   3.692   5.983  0.00  0.00     0.015 A 
ATOM      7  C7  IND d   1      -5.993   4.884   5.338  0.00  0.00    -0.016 A 
ATOM      8  C8  IND d   1      -5.685   4.915   3.986  0.00  0.00    -0.047 A 
ATOM      9  C9  IND d   1      -5.196   3.790   3.310  0.00  0.00    -0.096 A 
ATOM     10  HN1 IND d   1      -5.990   6.754   3.245  0.00  0.00     0.298 HD
ENDROOT
TORSDOF 0
ENDMDL
