MODEL 1
REMARK minimizedAffinity -3.35405064
REMARK minimizedRMSD -1
REMARK  0 active torsions:
REMARK  status: ('A' for Active; 'I' for Inactive)
ROOT
ATOM      1  N1  IND d   1      -5.927   4.186   1.984  0.00  0.00    -0.196 N 
ATOM      2  C2  IND d   1      -5.552   5.493   1.842  0.00  0.00     0.054 A 
ATOM      3  C3  IND d   1      -5.155   6.000   3.031  0.00  0.00    -0.031 A 
ATOM      4  C4  IND d   1      -4.944   4.835   5.317  0.00  0.00     0.051 A 
ATOM      5  C5  IND d   1      -5.204   3.654   5.952  0.00  0.00    -0.031 A 
ATOM      6  C6  IND d   1      -5.727   2.566   5.283  0.00  0.00     0.015 A 
ATOM      7  C7  IND d   1      -5.999   2.616   3.945  0.00  0.00    -0.016 A 
ATOM      8  C8  IND d   1      -5.743   3.817   3.299  0.00  0.00    -0.047 A 
ATOM      9  C9  IND d   1      -5.252   4.937   3.981  0.00  0.00    -0.096 A 
ATOM     10  HN1 IND d   1      -6.228   3.679   1.358  0.00  0.00     0.298 HD
ENDROOT
TORSDOF 0
ENDMDL
