MODEL 1
REMARK minimizedAffinity -3.33009791
REMARK minimizedRMSD -1
REMARK  0 active torsions:
REMARK  status: ('A' for Active; 'I' for Inactive)
ROOT
ATOM      1  N1  IND d   1      -5.999   3.942   2.985  0.00  0.00    -0.196 N 
ATOM      2  C2  IND d   1      -5.282   5.052   2.636  0.00  0.00     0.054 A 
ATOM      3  C3  IND d   1      -4.195   5.178   3.429  0.00  0.00    -0.031 A 
ATOM      4  C4  IND d   1      -3.341   3.622   5.294  0.00  0.00     0.051 A 
ATOM      5  C5  IND d   1      -3.678   2.501   6.000  0.00  0.00    -0.031 A 
ATOM      6  C6  IND d   1      -4.828   1.787   5.730  0.00  0.00     0.015 A 
ATOM      7  C7  IND d   1      -5.681   2.163   4.731  0.00  0.00    -0.016 A 
ATOM      8  C8  IND d   1      -5.346   3.305   4.017  0.00  0.00    -0.047 A 
ATOM      9  C9  IND d   1      -4.203   4.057   4.315  0.00  0.00    -0.096 A 
ATOM     10  HN1 IND d   1      -6.734   3.684   2.621  0.00  0.00     0.298 HD
ENDROOT
TORSDOF 0
ENDMDL
