MODEL 1
REMARK minimizedAffinity -4.39528131
REMARK minimizedRMSD -1
REMARK  0 active torsions:
REMARK  status: ('A' for Active; 'I' for Inactive)
ROOT
ATOM      1  N1  IND d   1      -3.796   4.818   2.637  0.00  0.00    -0.196 N 
ATOM      2  C2  IND d   1      -4.990   5.361   2.252  0.00  0.00     0.054 A 
ATOM      3  C3  IND d   1      -5.972   4.991   3.105  0.00  0.00    -0.031 A 
ATOM      4  C4  IND d   1      -5.825   3.584   5.256  0.00  0.00     0.051 A 
ATOM      5  C5  IND d   1      -4.952   2.839   5.998  0.00  0.00    -0.031 A 
ATOM      6  C6  IND d   1      -3.622   2.715   5.652  0.00  0.00     0.015 A 
ATOM      7  C7  IND d   1      -3.110   3.344   4.552  0.00  0.00    -0.016 A 
ATOM      8  C8  IND d   1      -3.995   4.096   3.792  0.00  0.00    -0.047 A 
ATOM      9  C9  IND d   1      -5.355   4.191   4.115  0.00  0.00    -0.096 A 
ATOM     10  HN1 IND d   1      -3.047   4.913   2.226  0.00  0.00     0.298 HD
ENDROOT
TORSDOF 0
ENDMDL
