MODEL 1
REMARK minimizedAffinity -3.48536396
REMARK minimizedRMSD -1
REMARK  0 active torsions:
REMARK  status: ('A' for Active; 'I' for Inactive)
ROOT
ATOM      1  N1  IND d   1      -5.911   5.276  -0.738  0.00  0.00    -0.196 N 
ATOM      2  C2  IND d   1      -5.564   4.159  -1.446  0.00  0.00     0.054 A 
ATOM      3  C3  IND d   1      -5.193   3.166  -0.606  0.00  0.00    -0.031 A 
ATOM      4  C4  IND d   1      -5.176   3.123   1.968  0.00  0.00     0.051 A 
ATOM      5  C5  IND d   1      -5.375   3.920   3.060  0.00  0.00    -0.031 A 
ATOM      6  C6  IND d   1      -5.773   5.236   2.940  0.00  0.00     0.015 A 
ATOM      7  C7  IND d   1      -6.000   5.802   1.717  0.00  0.00    -0.016 A 
ATOM      8  C8  IND d   1      -5.792   4.998   0.606  0.00  0.00    -0.047 A 
ATOM      9  C9  IND d   1      -5.346   3.675   0.720  0.00  0.00    -0.096 A 
ATOM     10  HN1 IND d   1      -6.161   6.026  -1.076  0.00  0.00     0.298 HD
ENDROOT
TORSDOF 0
ENDMDL
