MODEL 1
REMARK minimizedAffinity 1.98030376
REMARK minimizedRMSD -1
REMARK  0 active torsions:
REMARK  status: ('A' for Active; 'I' for Inactive)
ROOT
ATOM      1  C   UNL d   1       0.395   1.453  -0.765  0.00  0.00     0.124 A 
ATOM      2  C1  UNL d   1       0.156   1.148   0.568  0.00  0.00     0.062 A 
ATOM      3  C2  UNL d   1      -0.265  -0.129   0.929  0.00  0.00     0.162 A 
ATOM      4  C3  UNL d   1      -0.448  -1.111  -0.045  0.00  0.00    -0.034 A 
ATOM      5  C4  UNL d   1      -0.206  -0.796  -1.383  0.00  0.00     0.162 A 
ATOM      6  C5  UNL d   1       0.214   0.481  -1.739  0.00  0.00     0.062 A 
ATOM      7  F   UNL d   1       0.445   0.775  -3.027  0.00  0.00    -0.097 F 
ATOM      8  F1  UNL d   1      -0.373  -1.716  -2.345  0.00  0.00    -0.096 F 
ATOM      9  I   UNL d   1      -1.077  -3.021   0.490  0.00  0.00    -0.060 I 
ATOM     10  F2  UNL d   1      -0.489  -0.396   2.224  0.00  0.00    -0.096 F 
ATOM     11  F3  UNL d   1       0.329   2.085   1.511  0.00  0.00    -0.097 F 
ATOM     12  F4  UNL d   1       0.799   2.683  -1.109  0.00  0.00    -0.092 F 
ENDROOT
TORSDOF 0
ENDMDL
