MODEL 1
REMARK minimizedAffinity -1.47703946
REMARK minimizedRMSD -1
REMARK  0 active torsions:
REMARK  status: ('A' for Active; 'I' for Inactive)
ROOT
ATOM      1  C   UNL d   1      -1.368  -2.545   0.618  0.00  0.00     0.124 A 
ATOM      2  C1  UNL d   1      -0.562  -3.323  -0.201  0.00  0.00     0.062 A 
ATOM      3  C2  UNL d   1       0.546  -2.761  -0.830  0.00  0.00     0.162 A 
ATOM      4  C3  UNL d   1       0.855  -1.414  -0.642  0.00  0.00    -0.034 A 
ATOM      5  C4  UNL d   1       0.039  -0.638   0.183  0.00  0.00     0.162 A 
ATOM      6  C5  UNL d   1      -1.067  -1.203   0.810  0.00  0.00     0.062 A 
ATOM      7  F   UNL d   1      -1.844  -0.450   1.601  0.00  0.00    -0.097 F 
ATOM      8  F1  UNL d   1       0.307   0.661   0.387  0.00  0.00    -0.096 F 
ATOM      9  I   UNL d   1       2.510  -0.571  -1.580  0.00  0.00    -0.060 I 
ATOM     10  F2  UNL d   1       1.307  -3.537  -1.617  0.00  0.00    -0.096 F 
ATOM     11  F3  UNL d   1      -0.851  -4.618  -0.389  0.00  0.00    -0.097 F 
ATOM     12  F4  UNL d   1      -2.433  -3.087   1.221  0.00  0.00    -0.092 F 
ENDROOT
TORSDOF 0
ENDMDL
