MODEL 1
REMARK minimizedAffinity -1.0524509
REMARK minimizedRMSD -1
REMARK  0 active torsions:
REMARK  status: ('A' for Active; 'I' for Inactive)
ROOT
ATOM      1  C   UNL d   1       0.054  -2.483   0.014  0.00  0.00     0.124 A 
ATOM      2  C1  UNL d   1      -0.485  -1.945   1.174  0.00  0.00     0.062 A 
ATOM      3  C2  UNL d   1      -0.574  -0.565   1.330  0.00  0.00     0.162 A 
ATOM      4  C3  UNL d   1      -0.124   0.288   0.321  0.00  0.00    -0.034 A 
ATOM      5  C4  UNL d   1       0.418  -0.261  -0.842  0.00  0.00     0.162 A 
ATOM      6  C5  UNL d   1       0.505  -1.642  -0.993  0.00  0.00     0.062 A 
ATOM      7  F   UNL d   1       1.026  -2.160  -2.114  0.00  0.00    -0.097 F 
ATOM      8  F1  UNL d   1       0.860   0.529  -1.831  0.00  0.00    -0.096 F 
ATOM      9  I   UNL d   1      -0.256   2.352   0.550  0.00  0.00    -0.060 I 
ATOM     10  F2  UNL d   1      -1.100  -0.072   2.461  0.00  0.00    -0.096 F 
ATOM     11  F3  UNL d   1      -0.921  -2.756   2.149  0.00  0.00    -0.097 F 
ATOM     12  F4  UNL d   1       0.139  -3.812  -0.132  0.00  0.00    -0.092 F 
ENDROOT
TORSDOF 0
ENDMDL
