MODEL 1
REMARK minimizedAffinity -0.29364413
REMARK minimizedRMSD -1
REMARK  0 active torsions:
REMARK  status: ('A' for Active; 'I' for Inactive)
ROOT
ATOM      1  C   UNL d   1      -1.337   0.148   1.801  0.00  0.00     0.124 A 
ATOM      2  C1  UNL d   1      -1.365  -1.169   1.362  0.00  0.00     0.062 A 
ATOM      3  C2  UNL d   1      -0.841  -1.502   0.116  0.00  0.00     0.162 A 
ATOM      4  C3  UNL d   1      -0.283  -0.517  -0.699  0.00  0.00    -0.034 A 
ATOM      5  C4  UNL d   1      -0.260   0.805  -0.251  0.00  0.00     0.162 A 
ATOM      6  C5  UNL d   1      -0.785   1.133   0.995  0.00  0.00     0.062 A 
ATOM      7  F   UNL d   1      -0.757   2.405   1.418  0.00  0.00    -0.097 F 
ATOM      8  F1  UNL d   1       0.269   1.776  -1.009  0.00  0.00    -0.096 F 
ATOM      9  I   UNL d   1       0.501  -1.012  -2.562  0.00  0.00    -0.060 I 
ATOM     10  F2  UNL d   1      -0.882  -2.782  -0.283  0.00  0.00    -0.096 F 
ATOM     11  F3  UNL d   1      -1.899  -2.122   2.139  0.00  0.00    -0.097 F 
ATOM     12  F4  UNL d   1      -1.843   0.466   3.000  0.00  0.00    -0.092 F 
ENDROOT
TORSDOF 0
ENDMDL
