MODEL 1
REMARK minimizedAffinity -0.0619190373
REMARK minimizedRMSD -1
REMARK  0 active torsions:
REMARK  status: ('A' for Active; 'I' for Inactive)
ROOT
ATOM      1  C   UNL d   1      -0.022  -2.382   0.091  0.00  0.00     0.124 A 
ATOM      2  C1  UNL d   1       0.763  -1.615  -0.759  0.00  0.00     0.062 A 
ATOM      3  C2  UNL d   1       0.767  -0.228  -0.646  0.00  0.00     0.162 A 
ATOM      4  C3  UNL d   1      -0.015   0.402   0.321  0.00  0.00    -0.034 A 
ATOM      5  C4  UNL d   1      -0.803  -0.376   1.172  0.00  0.00     0.162 A 
ATOM      6  C5  UNL d   1      -0.804  -1.762   1.055  0.00  0.00     0.062 A 
ATOM      7  F   UNL d   1      -1.563  -2.501   1.877  0.00  0.00    -0.097 F 
ATOM      8  F1  UNL d   1      -1.567   0.197   2.113  0.00  0.00    -0.096 F 
ATOM      9  I   UNL d   1      -0.012   2.476   0.493  0.00  0.00    -0.060 I 
ATOM     10  F2  UNL d   1       1.535   0.488  -1.481  0.00  0.00    -0.096 F 
ATOM     11  F3  UNL d   1       1.518  -2.212  -1.692  0.00  0.00    -0.097 F 
ATOM     12  F4  UNL d   1      -0.025  -3.717  -0.020  0.00  0.00    -0.092 F 
ENDROOT
TORSDOF 0
ENDMDL
