MODEL 1
REMARK minimizedAffinity 0.56206274
REMARK minimizedRMSD -1
REMARK  0 active torsions:
REMARK  status: ('A' for Active; 'I' for Inactive)
ROOT
ATOM      1  C   UNL d   1       1.098  -1.492  -1.190  0.00  0.00     0.124 A 
ATOM      2  C1  UNL d   1       0.817  -2.367  -0.149  0.00  0.00     0.062 A 
ATOM      3  C2  UNL d   1      -0.092  -2.007   0.841  0.00  0.00     0.162 A 
ATOM      4  C3  UNL d   1      -0.729  -0.767   0.795  0.00  0.00    -0.034 A 
ATOM      5  C4  UNL d   1      -0.441   0.108  -0.254  0.00  0.00     0.162 A 
ATOM      6  C5  UNL d   1       0.469  -0.256  -1.242  0.00  0.00     0.062 A 
ATOM      7  F   UNL d   1       0.739   0.590  -2.246  0.00  0.00    -0.097 F 
ATOM      8  F1  UNL d   1      -1.035   1.308  -0.329  0.00  0.00    -0.096 F 
ATOM      9  I   UNL d   1      -2.089  -0.225   2.274  0.00  0.00    -0.060 I 
ATOM     10  F2  UNL d   1      -0.345  -2.872   1.835  0.00  0.00    -0.096 F 
ATOM     11  F3  UNL d   1       1.424  -3.561  -0.097  0.00  0.00    -0.097 F 
ATOM     12  F4  UNL d   1       1.974  -1.840  -2.141  0.00  0.00    -0.092 F 
ENDROOT
TORSDOF 0
ENDMDL
