MODEL 1
REMARK minimizedAffinity -4.05830574
REMARK minimizedRMSD -1
REMARK  0 active torsions:
REMARK  status: ('A' for Active; 'I' for Inactive)
ROOT
ATOM      1  C   UNL d   1      -0.103  -2.463  -0.349  0.00  0.00     0.124 A 
ATOM      2  C1  UNL d   1      -0.489  -1.858   0.839  0.00  0.00     0.062 A 
ATOM      3  C2  UNL d   1      -0.393  -0.477   0.985  0.00  0.00     0.162 A 
ATOM      4  C3  UNL d   1       0.090   0.309  -0.061  0.00  0.00    -0.034 A 
ATOM      5  C4  UNL d   1       0.477  -0.306  -1.252  0.00  0.00     0.162 A 
ATOM      6  C5  UNL d   1       0.379  -1.687  -1.393  0.00  0.00     0.062 A 
ATOM      7  F   UNL d   1       0.752  -2.270  -2.542  0.00  0.00    -0.097 F 
ATOM      8  F1  UNL d   1       0.946   0.420  -2.278  0.00  0.00    -0.096 F 
ATOM      9  I   UNL d   1       0.235   2.374   0.153  0.00  0.00    -0.060 I 
ATOM     10  F2  UNL d   1      -0.773   0.081   2.144  0.00  0.00    -0.096 F 
ATOM     11  F3  UNL d   1      -0.955  -2.605   1.850  0.00  0.00    -0.097 F 
ATOM     12  F4  UNL d   1      -0.196  -3.792  -0.486  0.00  0.00    -0.092 F 
ENDROOT
TORSDOF 0
ENDMDL
