MODEL 1
REMARK minimizedAffinity -0.418660641
REMARK minimizedRMSD -1
REMARK  0 active torsions:
REMARK  status: ('A' for Active; 'I' for Inactive)
ROOT
ATOM      1  C   UNL d   1      -0.076  -1.543  -0.466  0.00  0.00     0.124 A 
ATOM      2  C1  UNL d   1       0.019  -1.144   0.860  0.00  0.00     0.062 A 
ATOM      3  C2  UNL d   1       0.165   0.204   1.177  0.00  0.00     0.162 A 
ATOM      4  C3  UNL d   1       0.217   1.163   0.165  0.00  0.00    -0.034 A 
ATOM      5  C4  UNL d   1       0.122   0.753  -1.166  0.00  0.00     0.162 A 
ATOM      6  C5  UNL d   1      -0.024  -0.595  -1.477  0.00  0.00     0.062 A 
ATOM      7  F   UNL d   1      -0.116  -0.979  -2.759  0.00  0.00    -0.097 F 
ATOM      8  F1  UNL d   1       0.168   1.649  -2.164  0.00  0.00    -0.096 F 
ATOM      9  I   UNL d   1       0.436   3.179   0.634  0.00  0.00    -0.060 I 
ATOM     10  F2  UNL d   1       0.255   0.561   2.466  0.00  0.00    -0.096 F 
ATOM     11  F3  UNL d   1      -0.029  -2.058   1.840  0.00  0.00    -0.097 F 
ATOM     12  F4  UNL d   1      -0.215  -2.840  -0.767  0.00  0.00    -0.092 F 
ENDROOT
TORSDOF 0
ENDMDL
