MODEL 1
REMARK minimizedAffinity 4.74780607
REMARK minimizedRMSD -1
REMARK  0 active torsions:
REMARK  status: ('A' for Active; 'I' for Inactive)
ROOT
ATOM      1  C   UNL d   1      -0.388   0.747   0.060  0.00  0.00     0.124 A 
ATOM      2  C1  UNL d   1       0.400   0.121  -0.896  0.00  0.00     0.062 A 
ATOM      3  C2  UNL d   1       0.501  -1.267  -0.920  0.00  0.00     0.162 A 
ATOM      4  C3  UNL d   1      -0.188  -2.039   0.016  0.00  0.00    -0.034 A 
ATOM      5  C4  UNL d   1      -0.977  -1.402   0.975  0.00  0.00     0.162 A 
ATOM      6  C5  UNL d   1      -1.075  -0.014   0.995  0.00  0.00     0.062 A 
ATOM      7  F   UNL d   1      -1.836   0.589   1.920  0.00  0.00    -0.097 F 
ATOM      8  F1  UNL d   1      -1.652  -2.114   1.889  0.00  0.00    -0.096 F 
ATOM      9  I   UNL d   1      -0.039  -4.114  -0.016  0.00  0.00    -0.060 I 
ATOM     10  F2  UNL d   1       1.269  -1.845  -1.856  0.00  0.00    -0.096 F 
ATOM     11  F3  UNL d   1       1.065   0.855  -1.800  0.00  0.00    -0.097 F 
ATOM     12  F4  UNL d   1      -0.483   2.083   0.081  0.00  0.00    -0.092 F 
ENDROOT
TORSDOF 0
ENDMDL
