MODEL 1
REMARK minimizedAffinity -2.15782881
REMARK minimizedRMSD -1
REMARK  0 active torsions:
REMARK  status: ('A' for Active; 'I' for Inactive)
ROOT
ATOM      1  C   UNL d   1      -0.323  -3.212  -1.193  0.00  0.00     0.124 A 
ATOM      2  C1  UNL d   1      -0.636  -2.635   0.030  0.00  0.00     0.062 A 
ATOM      3  C2  UNL d   1      -0.473  -1.265   0.220  0.00  0.00     0.162 A 
ATOM      4  C3  UNL d   1       0.004  -0.463  -0.816  0.00  0.00    -0.034 A 
ATOM      5  C4  UNL d   1       0.318  -1.051  -2.043  0.00  0.00     0.162 A 
ATOM      6  C5  UNL d   1       0.153  -2.420  -2.228  0.00  0.00     0.062 A 
ATOM      7  F   UNL d   1       0.456  -2.976  -3.410  0.00  0.00    -0.097 F 
ATOM      8  F1  UNL d   1       0.779  -0.309  -3.061  0.00  0.00    -0.096 F 
ATOM      9  I   UNL d   1       0.249   1.585  -0.536  0.00  0.00    -0.060 I 
ATOM     10  F2  UNL d   1      -0.783  -0.735   1.412  0.00  0.00    -0.096 F 
ATOM     11  F3  UNL d   1      -1.096  -3.398   1.032  0.00  0.00    -0.097 F 
ATOM     12  F4  UNL d   1      -0.480  -4.530  -1.373  0.00  0.00    -0.092 F 
ENDROOT
TORSDOF 0
ENDMDL
