MODEL 1
REMARK minimizedAffinity -0.643633962
REMARK minimizedRMSD -1
REMARK  0 active torsions:
REMARK  status: ('A' for Active; 'I' for Inactive)
ROOT
ATOM      1  C   UNL d   1       1.038   2.897   0.622  0.00  0.00     0.124 A 
ATOM      2  C1  UNL d   1       1.926   1.924   0.186  0.00  0.00     0.062 A 
ATOM      3  C2  UNL d   1       1.523   0.594   0.107  0.00  0.00     0.162 A 
ATOM      4  C3  UNL d   1       0.225   0.229   0.464  0.00  0.00    -0.034 A 
ATOM      5  C4  UNL d   1      -0.662   1.213   0.903  0.00  0.00     0.162 A 
ATOM      6  C5  UNL d   1      -0.255   2.541   0.980  0.00  0.00     0.062 A 
ATOM      7  F   UNL d   1      -1.115   3.481   1.401  0.00  0.00    -0.097 F 
ATOM      8  F1  UNL d   1      -1.917   0.897   1.254  0.00  0.00    -0.096 F 
ATOM      9  I   UNL d   1      -0.381  -1.759   0.348  0.00  0.00    -0.060 I 
ATOM     10  F2  UNL d   1       2.403  -0.326  -0.318  0.00  0.00    -0.096 F 
ATOM     11  F3  UNL d   1       3.175   2.265  -0.160  0.00  0.00    -0.097 F 
ATOM     12  F4  UNL d   1       1.428   4.176   0.697  0.00  0.00    -0.092 F 
ENDROOT
TORSDOF 0
ENDMDL
