MODEL 1
REMARK minimizedAffinity -1.16241574
REMARK minimizedRMSD -1
REMARK  0 active torsions:
REMARK  status: ('A' for Active; 'I' for Inactive)
ROOT
ATOM      1  C   UNL d   1      -0.641  -2.265  -0.646  0.00  0.00     0.124 A 
ATOM      2  C1  UNL d   1      -0.244  -1.429  -1.680  0.00  0.00     0.062 A 
ATOM      3  C2  UNL d   1       0.170  -0.128  -1.408  0.00  0.00     0.162 A 
ATOM      4  C3  UNL d   1       0.188   0.345  -0.096  0.00  0.00    -0.034 A 
ATOM      5  C4  UNL d   1      -0.214  -0.502   0.939  0.00  0.00     0.162 A 
ATOM      6  C5  UNL d   1      -0.626  -1.802   0.661  0.00  0.00     0.062 A 
ATOM      7  F   UNL d   1      -1.011  -2.608   1.661  0.00  0.00    -0.097 F 
ATOM      8  F1  UNL d   1      -0.209  -0.080   2.212  0.00  0.00    -0.096 F 
ATOM      9  I   UNL d   1       0.805   2.289   0.315  0.00  0.00    -0.060 I 
ATOM     10  F2  UNL d   1       0.549   0.659  -2.426  0.00  0.00    -0.096 F 
ATOM     11  F3  UNL d   1      -0.258  -1.874  -2.945  0.00  0.00    -0.097 F 
ATOM     12  F4  UNL d   1      -1.039  -3.516  -0.911  0.00  0.00    -0.092 F 
ENDROOT
TORSDOF 0
ENDMDL
