MODEL 1
REMARK minimizedAffinity -0.331882268
REMARK minimizedRMSD -1
REMARK  0 active torsions:
REMARK  status: ('A' for Active; 'I' for Inactive)
ROOT
ATOM      1  C   UNL d   1       0.235  -2.658  -0.085  0.00  0.00     0.124 A 
ATOM      2  C1  UNL d   1       0.753  -1.979  -1.180  0.00  0.00     0.062 A 
ATOM      3  C2  UNL d   1       0.493  -0.623  -1.349  0.00  0.00     0.162 A 
ATOM      4  C3  UNL d   1      -0.288   0.066  -0.421  0.00  0.00    -0.034 A 
ATOM      5  C4  UNL d   1      -0.806  -0.624   0.677  0.00  0.00     0.162 A 
ATOM      6  C5  UNL d   1      -0.544  -1.980   0.842  0.00  0.00     0.062 A 
ATOM      7  F   UNL d   1      -1.045  -2.633   1.900  0.00  0.00    -0.097 F 
ATOM      8  F1  UNL d   1      -1.562   0.008   1.588  0.00  0.00    -0.096 F 
ATOM      9  I   UNL d   1      -0.680   2.095  -0.671  0.00  0.00    -0.060 I 
ATOM     10  F2  UNL d   1       1.006   0.008  -2.416  0.00  0.00    -0.096 F 
ATOM     11  F3  UNL d   1       1.505  -2.632  -2.077  0.00  0.00    -0.097 F 
ATOM     12  F4  UNL d   1       0.486  -3.963   0.075  0.00  0.00    -0.092 F 
ENDROOT
TORSDOF 0
ENDMDL
