MODEL 1
REMARK minimizedAffinity 1.76473725
REMARK minimizedRMSD -1
REMARK  2 active torsions:
REMARK  status: ('A' for Active; 'I' for Inactive)
REMARK    1  A    between atoms: C2'_3  and  C1'_4 
REMARK    2  A    between atoms: C1'_4  and  C1_5 
ROOT
ATOM      1  C1  I4B d   1       2.448  -0.121  -0.521  0.00  0.00    -0.075 A 
ATOM      2  C2  I4B d   1       1.410   0.765  -0.664  0.00  0.00     0.003 A 
ATOM      3  C3  I4B d   1       0.084   0.292  -0.817  0.00  0.00     0.002 A 
ATOM      4  C4  I4B d   1      -0.150  -1.067  -0.872  0.00  0.00    -0.004 A 
ATOM      5  C5  I4B d   1       0.901  -1.964  -0.704  0.00  0.00     0.002 A 
ATOM      6  C6  I4B d   1       2.207  -1.489  -0.515  0.00  0.00     0.003 A 
ENDROOT
BRANCH   1   7
ATOM      7  C1' I4B d   1       3.839   0.414  -0.395  0.00  0.00     0.060 C 
BRANCH   7   8
ATOM      8  C2' I4B d   1       3.800   1.896  -0.705  0.00  0.00    -0.013 C 
ATOM      9  C4' I4B d   1       3.878   2.719   0.554  0.00  0.00     0.013 C 
ATOM     10  C3' I4B d   1       4.942   2.206  -1.626  0.00  0.00     0.013 C 
ENDBRANCH   7   8
ENDBRANCH   1   7
TORSDOF 2
ENDMDL
