MODEL 1
REMARK minimizedAffinity 2.22153592
REMARK minimizedRMSD -1
REMARK  2 active torsions:
REMARK  status: ('A' for Active; 'I' for Inactive)
REMARK    1  A    between atoms: C2'_3  and  C1'_4 
REMARK    2  A    between atoms: C1'_4  and  C1_5 
ROOT
ATOM      1  C1  I4B d   1       0.974  -0.169  -0.255  0.00  0.00    -0.075 A 
ATOM      2  C2  I4B d   1       2.115  -0.909  -0.066  0.00  0.00     0.003 A 
ATOM      3  C3  I4B d   1       2.107  -2.305  -0.305  0.00  0.00     0.002 A 
ATOM      4  C4  I4B d   1       0.932  -2.923  -0.681  0.00  0.00    -0.004 A 
ATOM      5  C5  I4B d   1      -0.218  -2.168  -0.895  0.00  0.00     0.002 A 
ATOM      6  C6  I4B d   1      -0.194  -0.780  -0.693  0.00  0.00     0.003 A 
ENDROOT
BRANCH   1   7
ATOM      7  C1' I4B d   1       1.010   1.297   0.038  0.00  0.00     0.060 C 
BRANCH   7   8
ATOM      8  C2' I4B d   1       2.287   1.590   0.799  0.00  0.00    -0.013 C 
ATOM      9  C4' I4B d   1       3.204   2.479   0.001  0.00  0.00     0.013 C 
ATOM     10  C3' I4B d   1       1.913   2.229   2.103  0.00  0.00     0.013 C 
ENDBRANCH   7   8
ENDBRANCH   1   7
TORSDOF 2
ENDMDL
