MODEL 1
REMARK minimizedAffinity 0.572024643
REMARK minimizedRMSD -1
REMARK  2 active torsions:
REMARK  status: ('A' for Active; 'I' for Inactive)
REMARK    1  A    between atoms: C2'_3  and  C1'_4 
REMARK    2  A    between atoms: C1'_4  and  C1_5 
ROOT
ATOM      1  C1  I4B d   1       2.982   1.442  -0.228  0.00  0.00    -0.075 A 
ATOM      2  C2  I4B d   1       3.624   2.650  -0.106  0.00  0.00     0.003 A 
ATOM      3  C3  I4B d   1       4.816   2.900  -0.828  0.00  0.00     0.002 A 
ATOM      4  C4  I4B d   1       5.355   1.903  -1.615  0.00  0.00    -0.004 A 
ATOM      5  C5  I4B d   1       4.691   0.688  -1.756  0.00  0.00     0.002 A 
ATOM      6  C6  I4B d   1       3.490   0.460  -1.068  0.00  0.00     0.003 A 
ENDROOT
BRANCH   1   7
ATOM      7  C1' I4B d   1       1.743   1.200   0.574  0.00  0.00     0.060 C 
BRANCH   7   8
ATOM      8  C2' I4B d   1       0.552   1.342  -0.352  0.00  0.00    -0.013 C 
ATOM      9  C4' I4B d   1      -0.138   0.020  -0.558  0.00  0.00     0.013 C 
ATOM     10  C3' I4B d   1      -0.381   2.352   0.246  0.00  0.00     0.013 C 
ENDBRANCH   7   8
ENDBRANCH   1   7
TORSDOF 2
ENDMDL
