MODEL 1
REMARK minimizedAffinity 5.36559343
REMARK minimizedRMSD -1
REMARK  2 active torsions:
REMARK  status: ('A' for Active; 'I' for Inactive)
REMARK    1  A    between atoms: C2'_3  and  C1'_4 
REMARK    2  A    between atoms: C1'_4  and  C1_5 
ROOT
ATOM      1  C1  I4B d   1       2.363  -1.867  -1.506  0.00  0.00    -0.075 A 
ATOM      2  C2  I4B d   1       3.051  -2.214  -2.642  0.00  0.00     0.003 A 
ATOM      3  C3  I4B d   1       4.111  -1.399  -3.110  0.00  0.00     0.002 A 
ATOM      4  C4  I4B d   1       4.412  -0.228  -2.444  0.00  0.00    -0.004 A 
ATOM      5  C5  I4B d   1       3.728   0.110  -1.280  0.00  0.00     0.002 A 
ATOM      6  C6  I4B d   1       2.705  -0.721  -0.800  0.00  0.00     0.003 A 
ENDROOT
BRANCH   1   7
ATOM      7  C1' I4B d   1       1.229  -2.734  -1.058  0.00  0.00     0.060 C 
BRANCH   7   8
ATOM      8  C2' I4B d   1       0.011  -1.851  -0.876  0.00  0.00    -0.013 C 
ATOM      9  C4' I4B d   1      -0.567  -1.439  -2.205  0.00  0.00     0.013 C 
ATOM     10  C3' I4B d   1      -0.993  -2.610  -0.060  0.00  0.00     0.013 C 
ENDBRANCH   7   8
ENDBRANCH   1   7
TORSDOF 2
ENDMDL
