MODEL 1
REMARK minimizedAffinity 2.48337173
REMARK minimizedRMSD -1
REMARK  2 active torsions:
REMARK  status: ('A' for Active; 'I' for Inactive)
REMARK    1  A    between atoms: C2'_3  and  C1'_4 
REMARK    2  A    between atoms: C1'_4  and  C1_5 
ROOT
ATOM      1  C1  I4B d   1       0.298   0.521  -0.396  0.00  0.00    -0.075 A 
ATOM      2  C2  I4B d   1       0.873  -0.625   0.094  0.00  0.00     0.003 A 
ATOM      3  C3  I4B d   1       0.573  -1.879  -0.490  0.00  0.00     0.002 A 
ATOM      4  C4  I4B d   1      -0.339  -1.947  -1.523  0.00  0.00    -0.004 A 
ATOM      5  C5  I4B d   1      -0.904  -0.782  -2.034  0.00  0.00     0.002 A 
ATOM      6  C6  I4B d   1      -0.574   0.462  -1.476  0.00  0.00     0.003 A 
ENDROOT
BRANCH   1   7
ATOM      7  C1' I4B d   1       0.612   1.825   0.265  0.00  0.00     0.060 C 
BRANCH   7   8
ATOM      8  C2' I4B d   1       0.420   1.649   1.758  0.00  0.00    -0.013 C 
ATOM      9  C4' I4B d   1       1.692   1.944   2.509  0.00  0.00     0.013 C 
ATOM     10  C3' I4B d   1      -0.689   2.560   2.193  0.00  0.00     0.013 C 
ENDBRANCH   7   8
ENDBRANCH   1   7
TORSDOF 2
ENDMDL
