MODEL 1
REMARK minimizedAffinity 1.74348271
REMARK minimizedRMSD -1
REMARK  2 active torsions:
REMARK  status: ('A' for Active; 'I' for Inactive)
REMARK    1  A    between atoms: C2'_3  and  C1'_4 
REMARK    2  A    between atoms: C1'_4  and  C1_5 
ROOT
ATOM      1  C1  I4B d   1       3.111  -1.550  -1.094  0.00  0.00    -0.075 A 
ATOM      2  C2  I4B d   1       3.393  -2.025  -2.351  0.00  0.00     0.003 A 
ATOM      3  C3  I4B d   1       4.354  -1.374  -3.161  0.00  0.00     0.002 A 
ATOM      4  C4  I4B d   1       4.968  -0.228  -2.698  0.00  0.00    -0.004 A 
ATOM      5  C5  I4B d   1       4.699   0.239  -1.415  0.00  0.00     0.002 A 
ATOM      6  C6  I4B d   1       3.773  -0.433  -0.603  0.00  0.00     0.003 A 
ENDROOT
BRANCH   1   7
ATOM      7  C1' I4B d   1       2.066  -2.243  -0.279  0.00  0.00     0.060 C 
BRANCH   7   8
ATOM      8  C2' I4B d   1       0.726  -2.017  -0.947  0.00  0.00    -0.013 C 
ATOM      9  C4' I4B d   1      -0.260  -3.092  -0.571  0.00  0.00     0.013 C 
ATOM     10  C3' I4B d   1       0.229  -0.661  -0.541  0.00  0.00     0.013 C 
ENDBRANCH   7   8
ENDBRANCH   1   7
TORSDOF 2
ENDMDL
