MODEL 1
REMARK minimizedAffinity -1.96154392
REMARK minimizedRMSD -1
REMARK  1 active torsions:
REMARK  status: ('A' for Active; 'I' for Inactive)
REMARK    1  A    between atoms: C1_2  and  C2_3 
ROOT
ATOM      1  C2  UNL d   1       3.341  -4.044  -4.351  0.00  0.00    -0.077 A 
ATOM      2  C3  UNL d   1       3.597  -3.507  -5.621  0.00  0.00     0.002 A 
ATOM      3  C4  UNL d   1       3.928  -2.158  -5.762  0.00  0.00     0.002 A 
ATOM      4  C5  UNL d   1       4.011  -1.337  -4.639  0.00  0.00    -0.004 A 
ATOM      5  C6  UNL d   1       3.756  -1.862  -3.373  0.00  0.00     0.002 A 
ATOM      6  C7  UNL d   1       3.424  -3.210  -3.230  0.00  0.00     0.002 A 
ENDROOT
BRANCH   1   7
ATOM      7  C1  UNL d   1       3.032  -5.510  -4.191  0.00  0.00     0.055 C 
ATOM      8  C   UNL d   1       3.361  -5.995  -2.787  0.00  0.00     0.019 C 
ENDBRANCH   1   7
TORSDOF 1
ENDMDL
