MODEL 1
REMARK minimizedAffinity 2.0205915
REMARK minimizedRMSD -1
REMARK  1 active torsions:
REMARK  status: ('A' for Active; 'I' for Inactive)
REMARK    1  A    between atoms: C1_2  and  C2_3 
ROOT
ATOM      1  C2  UNL d   1       2.025   0.185   0.861  0.00  0.00    -0.077 A 
ATOM      2  C3  UNL d   1       0.863   0.967   0.934  0.00  0.00     0.002 A 
ATOM      3  C4  UNL d   1       0.779   2.172   0.234  0.00  0.00     0.002 A 
ATOM      4  C5  UNL d   1       1.849   2.603  -0.546  0.00  0.00    -0.004 A 
ATOM      5  C6  UNL d   1       3.009   1.833  -0.623  0.00  0.00     0.002 A 
ATOM      6  C7  UNL d   1       3.096   0.629   0.077  0.00  0.00     0.002 A 
ENDROOT
BRANCH   1   7
ATOM      7  C1  UNL d   1       2.099  -1.139   1.576  0.00  0.00     0.055 C 
ATOM      8  C   UNL d   1       0.917  -2.028   1.220  0.00  0.00     0.019 C 
ENDBRANCH   1   7
TORSDOF 1
ENDMDL
