MODEL 1
REMARK minimizedAffinity 3.09974265
REMARK minimizedRMSD -1
REMARK  1 active torsions:
REMARK  status: ('A' for Active; 'I' for Inactive)
REMARK    1  A    between atoms: C1_2  and  C2_3 
ROOT
ATOM      1  C2  UNL d   1       0.951  -0.023   0.731  0.00  0.00    -0.077 A 
ATOM      2  C3  UNL d   1       1.806   1.089   0.742  0.00  0.00     0.002 A 
ATOM      3  C4  UNL d   1       2.637   1.330   1.837  0.00  0.00     0.002 A 
ATOM      4  C5  UNL d   1       2.625   0.462   2.928  0.00  0.00    -0.004 A 
ATOM      5  C6  UNL d   1       1.777  -0.645   2.927  0.00  0.00     0.002 A 
ATOM      6  C7  UNL d   1       0.945  -0.887   1.834  0.00  0.00     0.002 A 
ENDROOT
BRANCH   1   7
ATOM      7  C1  UNL d   1       0.090  -0.312  -0.471  0.00  0.00     0.055 C 
ATOM      8  C   UNL d   1       0.113  -1.791  -0.825  0.00  0.00     0.019 C 
ENDBRANCH   1   7
TORSDOF 1
ENDMDL
