MODEL 1
REMARK minimizedAffinity 2.93609262
REMARK minimizedRMSD -1
REMARK  1 active torsions:
REMARK  status: ('A' for Active; 'I' for Inactive)
REMARK    1  A    between atoms: C1_2  and  C2_3 
ROOT
ATOM      1  C2  UNL d   1       1.861  -3.115   4.568  0.00  0.00    -0.077 A 
ATOM      2  C3  UNL d   1       0.788  -3.627   5.311  0.00  0.00     0.002 A 
ATOM      3  C4  UNL d   1       0.814  -4.945   5.772  0.00  0.00     0.002 A 
ATOM      4  C5  UNL d   1       1.912  -5.759   5.499  0.00  0.00    -0.004 A 
ATOM      5  C6  UNL d   1       2.982  -5.259   4.759  0.00  0.00     0.002 A 
ATOM      6  C7  UNL d   1       2.957  -3.943   4.296  0.00  0.00     0.002 A 
ENDROOT
BRANCH   1   7
ATOM      7  C1  UNL d   1       1.856  -1.679   4.112  0.00  0.00     0.055 C 
ATOM      8  C   UNL d   1       1.336  -1.552   2.688  0.00  0.00     0.019 C 
ENDBRANCH   1   7
TORSDOF 1
ENDMDL
