MODEL 1
REMARK minimizedAffinity 11.2545986
REMARK minimizedRMSD -1
REMARK  2 active torsions:
REMARK  status: ('A' for Active; 'I' for Inactive)
REMARK    1  A    between atoms: C2'_3  and  C1'_4 
REMARK    2  A    between atoms: C1'_4  and  C1_5 
ROOT
ATOM      1  C1  I4B d   1       3.692  -5.582  -3.927  0.00  0.00    -0.075 A 
ATOM      2  C2  I4B d   1       3.922  -5.017  -5.156  0.00  0.00     0.003 A 
ATOM      3  C3  I4B d   1       2.835  -4.655  -5.988  0.00  0.00     0.002 A 
ATOM      4  C4  I4B d   1       1.545  -4.920  -5.576  0.00  0.00    -0.004 A 
ATOM      5  C5  I4B d   1       1.314  -5.473  -4.319  0.00  0.00     0.002 A 
ATOM      6  C6  I4B d   1       2.393  -5.795  -3.484  0.00  0.00     0.003 A 
ENDROOT
BRANCH   1   7
ATOM      7  C1' I4B d   1       4.864  -5.983  -3.088  0.00  0.00     0.060 C 
BRANCH   7   8
ATOM      8  C2' I4B d   1       4.741  -5.284  -1.749  0.00  0.00    -0.013 C 
ATOM      9  C4' I4B d   1       5.966  -5.507  -0.903  0.00  0.00     0.013 C 
ATOM     10  C3' I4B d   1       4.519  -3.824  -2.008  0.00  0.00     0.013 C 
ENDBRANCH   7   8
ENDBRANCH   1   7
TORSDOF 2
ENDMDL
