MODEL 1
REMARK minimizedAffinity 3.37441516
REMARK minimizedRMSD -1
REMARK  2 active torsions:
REMARK  status: ('A' for Active; 'I' for Inactive)
REMARK    1  A    between atoms: C2'_3  and  C1'_4 
REMARK    2  A    between atoms: C1'_4  and  C1_5 
ROOT
ATOM      1  C1  I4B d   1       3.588  -5.839  -3.567  0.00  0.00    -0.075 A 
ATOM      2  C2  I4B d   1       4.945  -5.634  -3.591  0.00  0.00     0.003 A 
ATOM      3  C3  I4B d   1       5.638  -5.594  -4.825  0.00  0.00     0.002 A 
ATOM      4  C4  I4B d   1       4.948  -5.814  -6.000  0.00  0.00    -0.004 A 
ATOM      5  C5  I4B d   1       3.569  -5.999  -5.975  0.00  0.00     0.002 A 
ATOM      6  C6  I4B d   1       2.882  -6.000  -4.752  0.00  0.00     0.003 A 
ENDROOT
BRANCH   1   7
ATOM      7  C1' I4B d   1       2.893  -5.908  -2.244  0.00  0.00     0.060 C 
BRANCH   7   8
ATOM      8  C2' I4B d   1       2.507  -4.497  -1.846  0.00  0.00    -0.013 C 
ATOM      9  C4' I4B d   1       1.063  -4.426  -1.424  0.00  0.00     0.013 C 
ATOM     10  C3' I4B d   1       3.417  -4.064  -0.737  0.00  0.00     0.013 C 
ENDBRANCH   7   8
ENDBRANCH   1   7
TORSDOF 2
ENDMDL
