MODEL 1
REMARK minimizedAffinity -0.186418146
REMARK minimizedRMSD -1
REMARK  2 active torsions:
REMARK  status: ('A' for Active; 'I' for Inactive)
REMARK    1  A    between atoms: C2'_3  and  C1'_4 
REMARK    2  A    between atoms: C1'_4  and  C1_5 
ROOT
ATOM      1  C1  I4B d   1       3.279  -5.795  -3.453  0.00  0.00    -0.075 A 
ATOM      2  C2  I4B d   1       1.931  -5.581  -3.597  0.00  0.00     0.003 A 
ATOM      3  C3  I4B d   1       1.348  -5.553  -4.887  0.00  0.00     0.002 A 
ATOM      4  C4  I4B d   1       2.152  -5.692  -6.000  0.00  0.00    -0.004 A 
ATOM      5  C5  I4B d   1       3.515  -5.931  -5.851  0.00  0.00     0.002 A 
ATOM      6  C6  I4B d   1       4.081  -5.996  -4.569  0.00  0.00     0.003 A 
ENDROOT
BRANCH   1   7
ATOM      7  C1' I4B d   1       3.866  -5.786  -2.077  0.00  0.00     0.060 C 
BRANCH   7   8
ATOM      8  C2' I4B d   1       5.367  -5.621  -2.212  0.00  0.00    -0.013 C 
ATOM      9  C4' I4B d   1       5.728  -4.213  -2.603  0.00  0.00     0.013 C 
ATOM     10  C3' I4B d   1       5.993  -5.997  -0.902  0.00  0.00     0.013 C 
ENDBRANCH   7   8
ENDBRANCH   1   7
TORSDOF 2
ENDMDL
