MODEL 1
REMARK minimizedAffinity -0.348093897
REMARK minimizedRMSD -1
REMARK  2 active torsions:
REMARK  status: ('A' for Active; 'I' for Inactive)
REMARK    1  A    between atoms: C2'_3  and  C1'_4 
REMARK    2  A    between atoms: C1'_4  and  C1_5 
ROOT
ATOM      1  C1  I4B d   1       3.337  -5.560  -4.044  0.00  0.00    -0.075 A 
ATOM      2  C2  I4B d   1       4.119  -5.771  -2.935  0.00  0.00     0.003 A 
ATOM      3  C3  I4B d   1       3.519  -5.998  -1.673  0.00  0.00     0.002 A 
ATOM      4  C4  I4B d   1       2.144  -5.957  -1.556  0.00  0.00    -0.004 A 
ATOM      5  C5  I4B d   1       1.353  -5.767  -2.685  0.00  0.00     0.002 A 
ATOM      6  C6  I4B d   1       1.952  -5.579  -3.939  0.00  0.00     0.003 A 
ENDROOT
BRANCH   1   7
ATOM      7  C1' I4B d   1       4.004  -5.290  -5.355  0.00  0.00     0.060 C 
BRANCH   7   8
ATOM      8  C2' I4B d   1       5.470  -5.016  -5.086  0.00  0.00    -0.013 C 
ATOM      9  C4' I4B d   1       5.999  -3.938  -5.995  0.00  0.00     0.013 C 
ATOM     10  C3' I4B d   1       5.610  -4.626  -3.645  0.00  0.00     0.013 C 
ENDBRANCH   7   8
ENDBRANCH   1   7
TORSDOF 2
ENDMDL
