MODEL 1
REMARK minimizedAffinity 3.94437981
REMARK minimizedRMSD -1
REMARK  2 active torsions:
REMARK  status: ('A' for Active; 'I' for Inactive)
REMARK    1  A    between atoms: C2'_3  and  C1'_4 
REMARK    2  A    between atoms: C1'_4  and  C1_5 
ROOT
ATOM      1  C1  I4B d   1       3.395  -5.419  -4.231  0.00  0.00    -0.075 A 
ATOM      2  C2  I4B d   1       3.644  -6.000  -5.449  0.00  0.00     0.003 A 
ATOM      3  C3  I4B d   1       4.948  -5.970  -6.000  0.00  0.00     0.002 A 
ATOM      4  C4  I4B d   1       5.955  -5.310  -5.326  0.00  0.00    -0.004 A 
ATOM      5  C5  I4B d   1       5.706  -4.742  -4.081  0.00  0.00     0.002 A 
ATOM      6  C6  I4B d   1       4.421  -4.807  -3.523  0.00  0.00     0.003 A 
ENDROOT
BRANCH   1   7
ATOM      7  C1' I4B d   1       1.999  -5.440  -3.694  0.00  0.00     0.060 C 
BRANCH   7   8
ATOM      8  C2' I4B d   1       2.032  -4.884  -2.285  0.00  0.00    -0.013 C 
ATOM      9  C4' I4B d   1       0.646  -4.782  -1.706  0.00  0.00     0.013 C 
ATOM     10  C3' I4B d   1       2.902  -5.779  -1.454  0.00  0.00     0.013 C 
ENDBRANCH   7   8
ENDBRANCH   1   7
TORSDOF 2
ENDMDL
