MODEL 1
REMARK minimizedAffinity -1.71287572
REMARK minimizedRMSD -1
REMARK  2 active torsions:
REMARK  status: ('A' for Active; 'I' for Inactive)
REMARK    1  A    between atoms: C2'_3  and  C1'_4 
REMARK    2  A    between atoms: C1'_4  and  C1_5 
ROOT
ATOM      1  C1  I4B d   1       3.603   3.433   1.927  0.00  0.00    -0.075 A 
ATOM      2  C2  I4B d   1       4.349   2.287   2.041  0.00  0.00     0.003 A 
ATOM      3  C3  I4B d   1       5.553   2.292   2.787  0.00  0.00     0.002 A 
ATOM      4  C4  I4B d   1       5.996   3.469   3.354  0.00  0.00    -0.004 A 
ATOM      5  C5  I4B d   1       5.227   4.625   3.256  0.00  0.00     0.002 A 
ATOM      6  C6  I4B d   1       4.016   4.604   2.548  0.00  0.00     0.003 A 
ENDROOT
BRANCH   1   7
ATOM      7  C1' I4B d   1       2.354   3.400   1.104  0.00  0.00     0.060 C 
BRANCH   7   8
ATOM      8  C2' I4B d   1       1.456   2.314   1.662  0.00  0.00    -0.013 C 
ATOM      9  C4' I4B d   1       1.489   2.300   3.168  0.00  0.00     0.013 C 
ATOM     10  C3' I4B d   1       0.067   2.555   1.153  0.00  0.00     0.013 C 
ENDBRANCH   7   8
ENDBRANCH   1   7
TORSDOF 2
ENDMDL
