MODEL 1
REMARK minimizedAffinity -2.07359481
REMARK minimizedRMSD -1
REMARK  2 active torsions:
REMARK  status: ('A' for Active; 'I' for Inactive)
REMARK    1  A    between atoms: C2'_3  and  C1'_4 
REMARK    2  A    between atoms: C1'_4  and  C1_5 
ROOT
ATOM      1  C1  I4B d   1       3.843   2.469   1.811  0.00  0.00    -0.075 A 
ATOM      2  C2  I4B d   1       3.823   3.809   2.107  0.00  0.00     0.003 A 
ATOM      3  C3  I4B d   1       4.685   4.332   3.101  0.00  0.00     0.002 A 
ATOM      4  C4  I4B d   1       5.507   3.477   3.806  0.00  0.00    -0.004 A 
ATOM      5  C5  I4B d   1       5.542   2.122   3.488  0.00  0.00     0.002 A 
ATOM      6  C6  I4B d   1       4.714   1.617   2.476  0.00  0.00     0.003 A 
ENDROOT
BRANCH   1   7
ATOM      7  C1' I4B d   1       2.896   1.945   0.778  0.00  0.00     0.060 C 
BRANCH   7   8
ATOM      8  C2' I4B d   1       1.485   2.214   1.259  0.00  0.00    -0.013 C 
ATOM      9  C4' I4B d   1       0.740   3.102   0.296  0.00  0.00     0.013 C 
ATOM     10  C3' I4B d   1       0.793   0.894   1.424  0.00  0.00     0.013 C 
ENDBRANCH   7   8
ENDBRANCH   1   7
TORSDOF 2
ENDMDL
