MODEL 1
REMARK minimizedAffinity -1.13848698
REMARK minimizedRMSD -1
REMARK  2 active torsions:
REMARK  status: ('A' for Active; 'I' for Inactive)
REMARK    1  A    between atoms: C2'_3  and  C1'_4 
REMARK    2  A    between atoms: C1'_4  and  C1_5 
ROOT
ATOM      1  C1  I4B d   1       4.136  -5.924  -3.585  0.00  0.00    -0.075 A 
ATOM      2  C2  I4B d   1       4.753  -5.955  -4.811  0.00  0.00     0.003 A 
ATOM      3  C3  I4B d   1       3.981  -5.960  -5.998  0.00  0.00     0.002 A 
ATOM      4  C4  I4B d   1       2.604  -5.984  -5.913  0.00  0.00    -0.004 A 
ATOM      5  C5  I4B d   1       1.980  -5.930  -4.670  0.00  0.00     0.002 A 
ATOM      6  C6  I4B d   1       2.750  -5.887  -3.499  0.00  0.00     0.003 A 
ENDROOT
BRANCH   1   7
ATOM      7  C1' I4B d   1       4.981  -5.953  -2.352  0.00  0.00     0.060 C 
BRANCH   7   8
ATOM      8  C2' I4B d   1       5.251  -4.521  -1.937  0.00  0.00    -0.013 C 
ATOM      9  C4' I4B d   1       5.910  -3.747  -3.048  0.00  0.00     0.013 C 
ATOM     10  C3' I4B d   1       3.944  -3.899  -1.545  0.00  0.00     0.013 C 
ENDBRANCH   7   8
ENDBRANCH   1   7
TORSDOF 2
ENDMDL
