MODEL 1
REMARK minimizedAffinity -2.10514736
REMARK minimizedRMSD -1
REMARK  2 active torsions:
REMARK  status: ('A' for Active; 'I' for Inactive)
REMARK    1  A    between atoms: C2'_3  and  C1'_4 
REMARK    2  A    between atoms: C1'_4  and  C1_5 
ROOT
ATOM      1  C1  I4B d   1       4.243  -5.579  -3.349  0.00  0.00    -0.075 A 
ATOM      2  C2  I4B d   1       3.816  -5.035  -2.163  0.00  0.00     0.003 A 
ATOM      3  C3  I4B d   1       2.432  -4.883  -1.907  0.00  0.00     0.002 A 
ATOM      4  C4  I4B d   1       1.517  -5.239  -2.877  0.00  0.00    -0.004 A 
ATOM      5  C5  I4B d   1       1.951  -5.811  -4.069  0.00  0.00     0.002 A 
ATOM      6  C6  I4B d   1       3.322  -5.994  -4.302  0.00  0.00     0.003 A 
ENDROOT
BRANCH   1   7
ATOM      7  C1' I4B d   1       5.713  -5.694  -3.601  0.00  0.00     0.060 C 
BRANCH   7   8
ATOM      8  C2' I4B d   1       6.000  -5.109  -4.969  0.00  0.00    -0.013 C 
ATOM      9  C4' I4B d   1       5.036  -5.635  -5.999  0.00  0.00     0.013 C 
ATOM     10  C3' I4B d   1       5.916  -3.616  -4.860  0.00  0.00     0.013 C 
ENDBRANCH   7   8
ENDBRANCH   1   7
TORSDOF 2
ENDMDL
