MODEL 1
REMARK minimizedAffinity -0.200540006
REMARK minimizedRMSD -1
REMARK  2 active torsions:
REMARK  status: ('A' for Active; 'I' for Inactive)
REMARK    1  A    between atoms: C2'_3  and  C1'_4 
REMARK    2  A    between atoms: C1'_4  and  C1_5 
ROOT
ATOM      1  C1  I4B d   1       3.578  -5.589  -3.994  0.00  0.00    -0.075 A 
ATOM      2  C2  I4B d   1       3.637  -5.999  -5.302  0.00  0.00     0.003 A 
ATOM      3  C3  I4B d   1       4.869  -5.982  -6.000  0.00  0.00     0.002 A 
ATOM      4  C4  I4B d   1       6.000  -5.503  -5.371  0.00  0.00    -0.004 A 
ATOM      5  C5  I4B d   1       5.943  -5.109  -4.037  0.00  0.00     0.002 A 
ATOM      6  C6  I4B d   1       4.727  -5.163  -3.340  0.00  0.00     0.003 A 
ENDROOT
BRANCH   1   7
ATOM      7  C1' I4B d   1       2.254  -5.588  -3.297  0.00  0.00     0.060 C 
BRANCH   7   8
ATOM      8  C2' I4B d   1       2.195  -4.362  -2.409  0.00  0.00    -0.013 C 
ATOM      9  C4' I4B d   1       0.897  -4.304  -1.647  0.00  0.00     0.013 C 
ATOM     10  C3' I4B d   1       3.368  -4.409  -1.476  0.00  0.00     0.013 C 
ENDBRANCH   7   8
ENDBRANCH   1   7
TORSDOF 2
ENDMDL
