MODEL 1
REMARK minimizedAffinity -1.36899424
REMARK minimizedRMSD -1
REMARK  2 active torsions:
REMARK  status: ('A' for Active; 'I' for Inactive)
REMARK    1  A    between atoms: C2'_3  and  C1'_4 
REMARK    2  A    between atoms: C1'_4  and  C1_5 
ROOT
ATOM      1  C1  I4B d   1       5.175  -5.187  -3.706  0.00  0.00    -0.075 A 
ATOM      2  C2  I4B d   1       5.494  -5.863  -4.857  0.00  0.00     0.003 A 
ATOM      3  C3  I4B d   1       5.938  -5.155  -6.000  0.00  0.00     0.002 A 
ATOM      4  C4  I4B d   1       5.998  -3.777  -5.965  0.00  0.00    -0.004 A 
ATOM      5  C5  I4B d   1       5.696  -3.095  -4.790  0.00  0.00     0.002 A 
ATOM      6  C6  I4B d   1       5.294  -3.805  -3.649  0.00  0.00     0.003 A 
ENDROOT
BRANCH   1   7
ATOM      7  C1' I4B d   1       4.679  -5.964  -2.528  0.00  0.00     0.060 C 
BRANCH   7   8
ATOM      8  C2' I4B d   1       3.166  -6.000  -2.596  0.00  0.00    -0.013 C 
ATOM      9  C4' I4B d   1       2.551  -5.138  -1.524  0.00  0.00     0.013 C 
ATOM     10  C3' I4B d   1       2.753  -5.541  -3.963  0.00  0.00     0.013 C 
ENDBRANCH   7   8
ENDBRANCH   1   7
TORSDOF 2
ENDMDL
