MODEL 1
REMARK minimizedAffinity -0.063902989
REMARK minimizedRMSD -1
REMARK  2 active torsions:
REMARK  status: ('A' for Active; 'I' for Inactive)
REMARK    1  A    between atoms: C2'_3  and  C1'_4 
REMARK    2  A    between atoms: C1'_4  and  C1_5 
ROOT
ATOM      1  C1  I4B d   1       3.478  -5.500  -4.056  0.00  0.00    -0.075 A 
ATOM      2  C2  I4B d   1       3.641  -5.999  -5.324  0.00  0.00     0.003 A 
ATOM      3  C3  I4B d   1       4.875  -5.838  -6.000  0.00  0.00     0.002 A 
ATOM      4  C4  I4B d   1       5.895  -5.132  -5.395  0.00  0.00    -0.004 A 
ATOM      5  C5  I4B d   1       5.735  -4.647  -4.100  0.00  0.00     0.002 A 
ATOM      6  C6  I4B d   1       4.523  -4.842  -3.421  0.00  0.00     0.003 A 
ENDROOT
BRANCH   1   7
ATOM      7  C1' I4B d   1       2.151  -5.659  -3.384  0.00  0.00     0.060 C 
BRANCH   7   8
ATOM      8  C2' I4B d   1       1.963  -4.490  -2.439  0.00  0.00    -0.013 C 
ATOM      9  C4' I4B d   1       0.577  -4.483  -1.849  0.00  0.00     0.013 C 
ATOM     10  C3' I4B d   1       3.007  -4.589  -1.367  0.00  0.00     0.013 C 
ENDBRANCH   7   8
ENDBRANCH   1   7
TORSDOF 2
ENDMDL
