MODEL 1
REMARK minimizedAffinity 7.78662968
REMARK minimizedRMSD -1
REMARK  0 active torsions:
REMARK  status: ('A' for Active; 'I' for Inactive)
ROOT
ATOM      1  O1  BZF d   1       0.470   3.134   3.817  0.00  0.00    -0.204 OA
ATOM      2  C2  BZF d   1       1.675   2.976   3.161  0.00  0.00     0.174 A 
ATOM      3  C3  BZF d   1       1.477   2.641   1.870  0.00  0.00    -0.012 A 
ATOM      4  C3A BZF d   1       0.059   2.678   1.685  0.00  0.00    -0.107 A 
ATOM      5  C4  BZF d   1      -0.754   2.455   0.610  0.00  0.00     0.055 A 
ATOM      6  C5  BZF d   1      -2.101   2.500   0.781  0.00  0.00    -0.016 A 
ATOM      7  C6  BZF d   1      -2.669   2.760   2.011  0.00  0.00     0.022 A 
ATOM      8  C7  BZF d   1      -1.904   2.993   3.105  0.00  0.00     0.029 A 
ATOM      9  C7A BZF d   1      -0.542   2.981   2.929  0.00  0.00     0.058 A 
ENDROOT
TORSDOF 0
ENDMDL
