MODEL 1
REMARK minimizedAffinity -1.69869721
REMARK minimizedRMSD -1
REMARK  0 active torsions:
REMARK  status: ('A' for Active; 'I' for Inactive)
ROOT
ATOM      1  O1  BZF d   1       2.772   1.818   1.951  0.00  0.00    -0.204 OA
ATOM      2  C2  BZF d   1       2.767   2.982   2.695  0.00  0.00     0.174 A 
ATOM      3  C3  BZF d   1       1.575   3.606   2.600  0.00  0.00    -0.012 A 
ATOM      4  C3A BZF d   1       0.755   2.733   1.817  0.00  0.00    -0.107 A 
ATOM      5  C4  BZF d   1      -0.541   2.793   1.391  0.00  0.00     0.055 A 
ATOM      6  C5  BZF d   1      -1.016   1.812   0.580  0.00  0.00    -0.016 A 
ATOM      7  C6  BZF d   1      -0.223   0.760   0.172  0.00  0.00     0.022 A 
ATOM      8  C7  BZF d   1       1.068   0.654   0.572  0.00  0.00     0.029 A 
ATOM      9  C7A BZF d   1       1.541   1.627   1.419  0.00  0.00     0.058 A 
ENDROOT
TORSDOF 0
ENDMDL
