MODEL 1
REMARK minimizedAffinity 0.233450666
REMARK minimizedRMSD -1
REMARK  0 active torsions:
REMARK  status: ('A' for Active; 'I' for Inactive)
ROOT
ATOM      1  O1  BZF d   1       2.725   1.397   1.410  0.00  0.00    -0.204 OA
ATOM      2  C2  BZF d   1       3.164   2.493   2.128  0.00  0.00     0.174 A 
ATOM      3  C3  BZF d   1       2.164   3.380   2.307  0.00  0.00    -0.012 A 
ATOM      4  C3A BZF d   1       1.005   2.760   1.740  0.00  0.00    -0.107 A 
ATOM      5  C4  BZF d   1      -0.301   3.141   1.625  0.00  0.00     0.055 A 
ATOM      6  C5  BZF d   1      -1.166   2.337   0.952  0.00  0.00    -0.016 A 
ATOM      7  C6  BZF d   1      -0.758   1.151   0.378  0.00  0.00     0.022 A 
ATOM      8  C7  BZF d   1       0.526   0.729   0.470  0.00  0.00     0.029 A 
ATOM      9  C7A BZF d   1       1.396   1.523   1.178  0.00  0.00     0.058 A 
ENDROOT
TORSDOF 0
ENDMDL
