MODEL 1
REMARK minimizedAffinity 0.259328276
REMARK minimizedRMSD -1
REMARK  0 active torsions:
REMARK  status: ('A' for Active; 'I' for Inactive)
ROOT
ATOM      1  O1  BZF d   1      -3.130   1.977  -5.992  0.00  0.00    -0.204 OA
ATOM      2  C2  BZF d   1      -1.755   2.114  -5.974  0.00  0.00     0.174 A 
ATOM      3  C3  BZF d   1      -1.404   3.416  -6.000  0.00  0.00    -0.012 A 
ATOM      4  C3A BZF d   1      -2.636   4.140  -5.943  0.00  0.00    -0.107 A 
ATOM      5  C4  BZF d   1      -2.944   5.470  -5.921  0.00  0.00     0.055 A 
ATOM      6  C5  BZF d   1      -4.249   5.847  -5.938  0.00  0.00    -0.016 A 
ATOM      7  C6  BZF d   1      -5.271   4.922  -5.982  0.00  0.00     0.022 A 
ATOM      8  C7  BZF d   1      -5.016   3.591  -6.000  0.00  0.00     0.029 A 
ATOM      9  C7A BZF d   1      -3.699   3.206  -5.949  0.00  0.00     0.058 A 
ENDROOT
TORSDOF 0
ENDMDL
