MODEL 1
REMARK minimizedAffinity 7.87470341
REMARK minimizedRMSD -1
REMARK  0 active torsions:
REMARK  status: ('A' for Active; 'I' for Inactive)
ROOT
ATOM      1  O1  BZF d   1      -0.143  -0.615   0.277  0.00  0.00    -0.204 OA
ATOM      2  C2  BZF d   1       1.064   0.022   0.065  0.00  0.00     0.174 A 
ATOM      3  C3  BZF d   1       0.971   1.334   0.362  0.00  0.00    -0.012 A 
ATOM      4  C3A BZF d   1      -0.354   1.511   0.874  0.00  0.00    -0.107 A 
ATOM      5  C4  BZF d   1      -1.039   2.591   1.353  0.00  0.00     0.055 A 
ATOM      6  C5  BZF d   1      -2.343   2.443   1.705  0.00  0.00    -0.016 A 
ATOM      7  C6  BZF d   1      -2.994   1.232   1.587  0.00  0.00     0.022 A 
ATOM      8  C7  BZF d   1      -2.354   0.131   1.122  0.00  0.00     0.029 A 
ATOM      9  C7A BZF d   1      -1.027   0.270   0.796  0.00  0.00     0.058 A 
ENDROOT
TORSDOF 0
ENDMDL
