MODEL 1
REMARK minimizedAffinity 6.73556519
REMARK minimizedRMSD -1
REMARK  0 active torsions:
REMARK  status: ('A' for Active; 'I' for Inactive)
ROOT
ATOM      1  O1  BZF d   1       1.508   0.073  -1.261  0.00  0.00    -0.204 OA
ATOM      2  C2  BZF d   1       2.512  -0.451  -2.052  0.00  0.00     0.174 A 
ATOM      3  C3  BZF d   1       3.719  -0.006  -1.650  0.00  0.00    -0.012 A 
ATOM      4  C3A BZF d   1       3.461   0.778  -0.481  0.00  0.00    -0.107 A 
ATOM      5  C4  BZF d   1       4.263   1.471   0.380  0.00  0.00     0.055 A 
ATOM      6  C5  BZF d   1       3.690   2.191   1.381  0.00  0.00    -0.016 A 
ATOM      7  C6  BZF d   1       2.322   2.244   1.546  0.00  0.00     0.022 A 
ATOM      8  C7  BZF d   1       1.486   1.568   0.720  0.00  0.00     0.029 A 
ATOM      9  C7A BZF d   1       2.063   0.813  -0.272  0.00  0.00     0.058 A 
ENDROOT
TORSDOF 0
ENDMDL
