MODEL 1
REMARK minimizedAffinity -2.47747183
REMARK minimizedRMSD -1
REMARK  0 active torsions:
REMARK  status: ('A' for Active; 'I' for Inactive)
ROOT
ATOM      1  O1  BZF d   1      -0.954   1.905   0.763  0.00  0.00    -0.204 OA
ATOM      2  C2  BZF d   1      -1.821   2.614   1.572  0.00  0.00     0.174 A 
ATOM      3  C3  BZF d   1      -1.166   3.150   2.622  0.00  0.00    -0.012 A 
ATOM      4  C3A BZF d   1       0.212   2.828   2.410  0.00  0.00    -0.107 A 
ATOM      5  C4  BZF d   1       1.357   3.098   3.103  0.00  0.00     0.055 A 
ATOM      6  C5  BZF d   1       2.533   2.576   2.666  0.00  0.00    -0.016 A 
ATOM      7  C6  BZF d   1       2.600   1.777   1.543  0.00  0.00     0.022 A 
ATOM      8  C7  BZF d   1       1.492   1.485   0.820  0.00  0.00     0.029 A 
ATOM      9  C7A BZF d   1       0.307   2.038   1.241  0.00  0.00     0.058 A 
ENDROOT
TORSDOF 0
ENDMDL
