MODEL 1
REMARK minimizedAffinity 2.50862908
REMARK minimizedRMSD -1
REMARK  0 active torsions:
REMARK  status: ('A' for Active; 'I' for Inactive)
ROOT
ATOM      1  O1  BZF d   1       3.129   1.880   1.493  0.00  0.00    -0.204 OA
ATOM      2  C2  BZF d   1       3.201   3.041   2.239  0.00  0.00     0.174 A 
ATOM      3  C3  BZF d   1       2.003   3.659   2.279  0.00  0.00    -0.012 A 
ATOM      4  C3A BZF d   1       1.106   2.786   1.587  0.00  0.00    -0.107 A 
ATOM      5  C4  BZF d   1      -0.229   2.842   1.306  0.00  0.00     0.055 A 
ATOM      6  C5  BZF d   1      -0.787   1.862   0.548  0.00  0.00    -0.016 A 
ATOM      7  C6  BZF d   1      -0.039   0.815   0.050  0.00  0.00     0.022 A 
ATOM      8  C7  BZF d   1       1.288   0.714   0.305  0.00  0.00     0.029 A 
ATOM      9  C7A BZF d   1       1.848   1.685   1.099  0.00  0.00     0.058 A 
ENDROOT
TORSDOF 0
ENDMDL
