MODEL 1
REMARK minimizedAffinity 9.34985542
REMARK minimizedRMSD -1
REMARK  0 active torsions:
REMARK  status: ('A' for Active; 'I' for Inactive)
ROOT
ATOM      1  O1  BZF d   1      -3.368  -5.811  -1.573  0.00  0.00    -0.204 OA
ATOM      2  C2  BZF d   1      -4.054  -5.854  -0.375  0.00  0.00     0.174 A 
ATOM      3  C3  BZF d   1      -3.560  -4.946   0.492  0.00  0.00    -0.012 A 
ATOM      4  C3A BZF d   1      -2.559  -4.232  -0.240  0.00  0.00    -0.107 A 
ATOM      5  C4  BZF d   1      -1.725  -3.198   0.074  0.00  0.00     0.055 A 
ATOM      6  C5  BZF d   1      -0.814  -2.782  -0.845  0.00  0.00    -0.016 A 
ATOM      7  C6  BZF d   1      -0.706  -3.380  -2.083  0.00  0.00     0.022 A 
ATOM      8  C7  BZF d   1      -1.515  -4.407  -2.442  0.00  0.00     0.029 A 
ATOM      9  C7A BZF d   1      -2.459  -4.808  -1.528  0.00  0.00     0.058 A 
ENDROOT
TORSDOF 0
ENDMDL
