MODEL 1
REMARK minimizedAffinity 6.29703283
REMARK minimizedRMSD -1
REMARK  0 active torsions:
REMARK  status: ('A' for Active; 'I' for Inactive)
ROOT
ATOM      1  O1  BZF d   1      -4.238  -3.679  -0.361  0.00  0.00    -0.204 OA
ATOM      2  C2  BZF d   1      -4.230  -5.052  -0.203  0.00  0.00     0.174 A 
ATOM      3  C3  BZF d   1      -3.024  -5.563  -0.523  0.00  0.00    -0.012 A 
ATOM      4  C3A BZF d   1      -2.201  -4.430  -0.816  0.00  0.00    -0.107 A 
ATOM      5  C4  BZF d   1      -0.893  -4.289  -1.182  0.00  0.00     0.055 A 
ATOM      6  C5  BZF d   1      -0.415  -3.049  -1.463  0.00  0.00    -0.016 A 
ATOM      7  C6  BZF d   1      -1.218  -1.929  -1.394  0.00  0.00     0.022 A 
ATOM      8  C7  BZF d   1      -2.521  -2.018  -1.031  0.00  0.00     0.029 A 
ATOM      9  C7A BZF d   1      -2.997  -3.266  -0.714  0.00  0.00     0.058 A 
ENDROOT
TORSDOF 0
ENDMDL
