MODEL 1
REMARK minimizedAffinity 8.69621086
REMARK minimizedRMSD -1
REMARK  0 active torsions:
REMARK  status: ('A' for Active; 'I' for Inactive)
ROOT
ATOM      1  O1  BZF d   1       3.958   3.338   0.980  0.00  0.00    -0.204 OA
ATOM      2  C2  BZF d   1       2.989   3.919   1.776  0.00  0.00     0.174 A 
ATOM      3  C3  BZF d   1       1.782   3.366   1.540  0.00  0.00    -0.012 A 
ATOM      4  C3A BZF d   1       2.026   2.316   0.600  0.00  0.00    -0.107 A 
ATOM      5  C4  BZF d   1       1.222   1.395  -0.009  0.00  0.00     0.055 A 
ATOM      6  C5  BZF d   1       1.760   0.555  -0.932  0.00  0.00    -0.016 A 
ATOM      7  C6  BZF d   1       3.095   0.613  -1.275  0.00  0.00     0.022 A 
ATOM      8  C7  BZF d   1       3.933   1.506  -0.695  0.00  0.00     0.029 A 
ATOM      9  C7A BZF d   1       3.399   2.334   0.263  0.00  0.00     0.058 A 
ENDROOT
TORSDOF 0
ENDMDL
