MODEL 1
REMARK minimizedAffinity 8.23914337
REMARK minimizedRMSD -1
REMARK  0 active torsions:
REMARK  status: ('A' for Active; 'I' for Inactive)
ROOT
ATOM      1  O1  BZF d   1      -1.196   3.008   1.877  0.00  0.00    -0.204 OA
ATOM      2  C2  BZF d   1      -2.111   3.138   2.904  0.00  0.00     0.174 A 
ATOM      3  C3  BZF d   1      -1.484   3.359   4.077  0.00  0.00    -0.012 A 
ATOM      4  C3A BZF d   1      -0.095   3.460   3.749  0.00  0.00    -0.107 A 
ATOM      5  C4  BZF d   1       1.030   3.691   4.488  0.00  0.00     0.055 A 
ATOM      6  C5  BZF d   1       2.242   3.655   3.874  0.00  0.00    -0.016 A 
ATOM      7  C6  BZF d   1       2.366   3.386   2.526  0.00  0.00     0.022 A 
ATOM      8  C7  BZF d   1       1.278   3.157   1.751  0.00  0.00     0.029 A 
ATOM      9  C7A BZF d   1       0.050   3.225   2.362  0.00  0.00     0.058 A 
ENDROOT
TORSDOF 0
ENDMDL
