MODEL 1
REMARK minimizedAffinity 5.91439819
REMARK minimizedRMSD -1
REMARK  0 active torsions:
REMARK  status: ('A' for Active; 'I' for Inactive)
ROOT
ATOM      1  O1  BZF d   1      -2.430   1.574   0.448  0.00  0.00    -0.204 OA
ATOM      2  C2  BZF d   1      -1.728   1.322  -0.715  0.00  0.00     0.174 A 
ATOM      3  C3  BZF d   1      -0.534   1.949  -0.698  0.00  0.00    -0.012 A 
ATOM      4  C3A BZF d   1      -0.448   2.560   0.593  0.00  0.00    -0.107 A 
ATOM      5  C4  BZF d   1       0.508   3.312   1.214  0.00  0.00     0.055 A 
ATOM      6  C5  BZF d   1       0.251   3.818   2.449  0.00  0.00    -0.016 A 
ATOM      7  C6  BZF d   1      -0.951   3.596   3.089  0.00  0.00     0.022 A 
ATOM      8  C7  BZF d   1      -1.928   2.853   2.515  0.00  0.00     0.029 A 
ATOM      9  C7A BZF d   1      -1.659   2.313   1.281  0.00  0.00     0.058 A 
ENDROOT
TORSDOF 0
ENDMDL
