MODEL 1
REMARK minimizedAffinity 5.33671618
REMARK minimizedRMSD -1
REMARK  0 active torsions:
REMARK  status: ('A' for Active; 'I' for Inactive)
ROOT
ATOM      1  O1  BZF d   1      -3.369  -6.000  -1.380  0.00  0.00    -0.204 OA
ATOM      2  C2  BZF d   1      -4.182  -5.860  -0.271  0.00  0.00     0.174 A 
ATOM      3  C3  BZF d   1      -3.943  -4.687   0.351  0.00  0.00    -0.012 A 
ATOM      4  C3A BZF d   1      -2.983  -4.014  -0.469  0.00  0.00    -0.107 A 
ATOM      5  C4  BZF d   1      -2.364  -2.800  -0.386  0.00  0.00     0.055 A 
ATOM      6  C5  BZF d   1      -1.422  -2.474  -1.310  0.00  0.00    -0.016 A 
ATOM      7  C6  BZF d   1      -1.072  -3.338  -2.326  0.00  0.00     0.022 A 
ATOM      8  C7  BZF d   1      -1.663  -4.552  -2.453  0.00  0.00     0.029 A 
ATOM      9  C7A BZF d   1      -2.638  -4.871  -1.540  0.00  0.00     0.058 A 
ENDROOT
TORSDOF 0
ENDMDL
