MODEL 1
REMARK minimizedAffinity 2.28279757
REMARK minimizedRMSD -1
REMARK  0 active torsions:
REMARK  status: ('A' for Active; 'I' for Inactive)
ROOT
ATOM      1  O1  BZF d   1      -1.511   3.229   0.695  0.00  0.00    -0.204 OA
ATOM      2  C2  BZF d   1      -0.171   3.193   1.029  0.00  0.00     0.174 A 
ATOM      3  C3  BZF d   1       0.216   1.933   1.318  0.00  0.00    -0.012 A 
ATOM      4  C3A BZF d   1      -0.933   1.119   1.064  0.00  0.00    -0.107 A 
ATOM      5  C4  BZF d   1      -1.170  -0.223   1.151  0.00  0.00     0.055 A 
ATOM      6  C5  BZF d   1      -2.422  -0.689   0.903  0.00  0.00    -0.016 A 
ATOM      7  C6  BZF d   1      -3.460   0.157   0.570  0.00  0.00     0.022 A 
ATOM      8  C7  BZF d   1      -3.272   1.495   0.466  0.00  0.00     0.029 A 
ATOM      9  C7A BZF d   1      -2.000   1.966   0.685  0.00  0.00     0.058 A 
ENDROOT
TORSDOF 0
ENDMDL
