MODEL 1
REMARK minimizedAffinity 3.70671988
REMARK minimizedRMSD -1
REMARK  0 active torsions:
REMARK  status: ('A' for Active; 'I' for Inactive)
ROOT
ATOM      1  O1  BZF d   1       1.601   1.624   1.118  0.00  0.00    -0.204 OA
ATOM      2  C2  BZF d   1       2.132   0.416   0.709  0.00  0.00     0.174 A 
ATOM      3  C3  BZF d   1       1.160  -0.509   0.566  0.00  0.00    -0.012 A 
ATOM      4  C3A BZF d   1      -0.063   0.189   0.818  0.00  0.00    -0.107 A 
ATOM      5  C4  BZF d   1      -1.376  -0.187   0.813  0.00  0.00     0.055 A 
ATOM      6  C5  BZF d   1      -2.324   0.718   1.174  0.00  0.00    -0.016 A 
ATOM      7  C6  BZF d   1      -1.994   2.003   1.551  0.00  0.00     0.022 A 
ATOM      8  C7  BZF d   1      -0.705   2.423   1.568  0.00  0.00     0.029 A 
ATOM      9  C7A BZF d   1       0.252   1.521   1.171  0.00  0.00     0.058 A 
ENDROOT
TORSDOF 0
ENDMDL
