MODEL 1
REMARK minimizedAffinity 12.7515497
REMARK minimizedRMSD -1
REMARK  0 active torsions:
REMARK  status: ('A' for Active; 'I' for Inactive)
ROOT
ATOM      1  O1  BZF d   1       2.123  -1.128  -1.904  0.00  0.00    -0.204 OA
ATOM      2  C2  BZF d   1       2.543  -0.184  -2.821  0.00  0.00     0.174 A 
ATOM      3  C3  BZF d   1       2.502   1.053  -2.287  0.00  0.00    -0.012 A 
ATOM      4  C3A BZF d   1       2.115   0.862  -0.923  0.00  0.00    -0.107 A 
ATOM      5  C4  BZF d   1       1.917   1.714   0.125  0.00  0.00     0.055 A 
ATOM      6  C5  BZF d   1       1.470   1.215   1.308  0.00  0.00    -0.016 A 
ATOM      7  C6  BZF d   1       1.206  -0.129   1.475  0.00  0.00     0.022 A 
ATOM      8  C7  BZF d   1       1.392  -1.014   0.465  0.00  0.00     0.029 A 
ATOM      9  C7A BZF d   1       1.875  -0.517  -0.720  0.00  0.00     0.058 A 
ENDROOT
TORSDOF 0
ENDMDL
