MODEL 1
REMARK minimizedAffinity 5.96659613
REMARK minimizedRMSD -1
REMARK  0 active torsions:
REMARK  status: ('A' for Active; 'I' for Inactive)
ROOT
ATOM      1  C   UNL d   1      -2.311  -5.638   1.711  0.00  0.00     0.078 C 
ATOM      2  C1  UNL d   1      -3.600  -5.621   0.945  0.00  0.00    -0.077 A 
ATOM      3  C2  UNL d   1      -4.799  -5.242   1.560  0.00  0.00    -0.001 A 
ATOM      4  C3  UNL d   1      -5.993  -5.240   0.837  0.00  0.00     0.003 A 
ATOM      5  C4  UNL d   1      -6.000  -5.617  -0.504  0.00  0.00    -0.005 A 
ATOM      6  C5  UNL d   1      -4.811  -5.997  -1.124  0.00  0.00     0.003 A 
ATOM      7  C6  UNL d   1      -3.616  -6.000  -0.403  0.00  0.00    -0.001 A 
ENDROOT
TORSDOF 0
ENDMDL
