MODEL 1
REMARK minimizedAffinity 2.92568302
REMARK minimizedRMSD -1
REMARK  0 active torsions:
REMARK  status: ('A' for Active; 'I' for Inactive)
ROOT
ATOM      1  C   UNL d   1      -4.499   3.340   6.000  0.00  0.00     0.078 C 
ATOM      2  C1  UNL d   1      -3.934   2.200   5.205  0.00  0.00    -0.077 A 
ATOM      3  C2  UNL d   1      -4.006   2.190   3.807  0.00  0.00    -0.001 A 
ATOM      4  C3  UNL d   1      -3.485   1.118   3.081  0.00  0.00     0.003 A 
ATOM      5  C4  UNL d   1      -2.889   0.047   3.745  0.00  0.00    -0.005 A 
ATOM      6  C5  UNL d   1      -2.814   0.048   5.136  0.00  0.00     0.003 A 
ATOM      7  C6  UNL d   1      -3.335   1.119   5.864  0.00  0.00    -0.001 A 
ENDROOT
TORSDOF 0
ENDMDL
