MODEL 1
REMARK minimizedAffinity 7.37731457
REMARK minimizedRMSD -1
REMARK  0 active torsions:
REMARK  status: ('A' for Active; 'I' for Inactive)
ROOT
ATOM      1  C   UNL d   1       0.992   1.435   2.086  0.00  0.00     0.078 C 
ATOM      2  C1  UNL d   1       1.467   1.244   0.676  0.00  0.00    -0.077 A 
ATOM      3  C2  UNL d   1       1.405  -0.011   0.059  0.00  0.00    -0.001 A 
ATOM      4  C3  UNL d   1       1.859  -0.176  -1.251  0.00  0.00     0.003 A 
ATOM      5  C4  UNL d   1       2.379   0.909  -1.953  0.00  0.00    -0.005 A 
ATOM      6  C5  UNL d   1       2.446   2.162  -1.346  0.00  0.00     0.003 A 
ATOM      7  C6  UNL d   1       1.993   2.329  -0.037  0.00  0.00    -0.001 A 
ENDROOT
TORSDOF 0
ENDMDL
