MODEL 1
REMARK minimizedAffinity 15.6888638
REMARK minimizedRMSD -1
REMARK  0 active torsions:
REMARK  status: ('A' for Active; 'I' for Inactive)
ROOT
ATOM      1  C   UNL d   1      -3.746   0.729   2.567  0.00  0.00     0.078 C 
ATOM      2  C1  UNL d   1      -4.000   1.607   3.756  0.00  0.00    -0.077 A 
ATOM      3  C2  UNL d   1      -5.036   2.549   3.749  0.00  0.00    -0.001 A 
ATOM      4  C3  UNL d   1      -5.254   3.366   4.859  0.00  0.00     0.003 A 
ATOM      5  C4  UNL d   1      -4.441   3.250   5.984  0.00  0.00    -0.005 A 
ATOM      6  C5  UNL d   1      -3.406   2.317   6.000  0.00  0.00     0.003 A 
ATOM      7  C6  UNL d   1      -3.186   1.499   4.890  0.00  0.00    -0.001 A 
ENDROOT
TORSDOF 0
ENDMDL
