MODEL 1
REMARK minimizedAffinity 15.4452915
REMARK minimizedRMSD -1
REMARK  0 active torsions:
REMARK  status: ('A' for Active; 'I' for Inactive)
ROOT
ATOM      1  C   UNL d   1      -3.371   0.834   2.477  0.00  0.00     0.078 C 
ATOM      2  C1  UNL d   1      -3.617   1.665   3.701  0.00  0.00    -0.077 A 
ATOM      3  C2  UNL d   1      -2.859   1.478   4.864  0.00  0.00    -0.001 A 
ATOM      4  C3  UNL d   1      -3.105   2.251   5.999  0.00  0.00     0.003 A 
ATOM      5  C4  UNL d   1      -4.110   3.216   5.984  0.00  0.00    -0.005 A 
ATOM      6  C5  UNL d   1      -4.871   3.408   4.832  0.00  0.00     0.003 A 
ATOM      7  C6  UNL d   1      -4.626   2.636   3.696  0.00  0.00    -0.001 A 
ENDROOT
TORSDOF 0
ENDMDL
