MODEL 1
REMARK minimizedAffinity 13.2131805
REMARK minimizedRMSD -1
REMARK  0 active torsions:
REMARK  status: ('A' for Active; 'I' for Inactive)
ROOT
ATOM      1  C   UNL d   1       1.799  -0.588  -2.352  0.00  0.00     0.078 C 
ATOM      2  C1  UNL d   1       2.638   0.337  -1.523  0.00  0.00    -0.077 A 
ATOM      3  C2  UNL d   1       3.014   1.597  -2.005  0.00  0.00    -0.001 A 
ATOM      4  C3  UNL d   1       3.803   2.445  -1.225  0.00  0.00     0.003 A 
ATOM      5  C4  UNL d   1       4.224   2.041   0.040  0.00  0.00    -0.005 A 
ATOM      6  C5  UNL d   1       3.857   0.788   0.527  0.00  0.00     0.003 A 
ATOM      7  C6  UNL d   1       3.068  -0.060  -0.250  0.00  0.00    -0.001 A 
ENDROOT
TORSDOF 0
ENDMDL
