MODEL 1
REMARK minimizedAffinity 3.94830632
REMARK minimizedRMSD -1
REMARK  0 active torsions:
REMARK  status: ('A' for Active; 'I' for Inactive)
ROOT
ATOM      1  C   UNL d   1       5.444   1.967  -1.099  0.00  0.00     0.078 C 
ATOM      2  C1  UNL d   1       4.616   0.718  -1.032  0.00  0.00    -0.077 A 
ATOM      3  C2  UNL d   1       5.048  -0.394  -0.298  0.00  0.00    -0.001 A 
ATOM      4  C3  UNL d   1       4.272  -1.553  -0.252  0.00  0.00     0.003 A 
ATOM      5  C4  UNL d   1       3.061  -1.612  -0.938  0.00  0.00    -0.005 A 
ATOM      6  C5  UNL d   1       2.624  -0.511  -1.673  0.00  0.00     0.003 A 
ATOM      7  C6  UNL d   1       3.399   0.649  -1.720  0.00  0.00    -0.001 A 
ENDROOT
TORSDOF 0
ENDMDL
