MODEL 1
REMARK minimizedAffinity 13.1948128
REMARK minimizedRMSD -1
REMARK  0 active torsions:
REMARK  status: ('A' for Active; 'I' for Inactive)
ROOT
ATOM      1  C   UNL d   1      -0.982   1.147   2.371  0.00  0.00     0.078 C 
ATOM      2  C1  UNL d   1      -0.166   1.188   3.629  0.00  0.00    -0.077 A 
ATOM      3  C2  UNL d   1       1.165   0.754   3.639  0.00  0.00    -0.001 A 
ATOM      4  C3  UNL d   1       1.910   0.789   4.819  0.00  0.00     0.003 A 
ATOM      5  C4  UNL d   1       1.331   1.255   5.998  0.00  0.00    -0.005 A 
ATOM      6  C5  UNL d   1       0.006   1.686   5.998  0.00  0.00     0.003 A 
ATOM      7  C6  UNL d   1      -0.740   1.653   4.819  0.00  0.00    -0.001 A 
ENDROOT
TORSDOF 0
ENDMDL
