MODEL 1
REMARK minimizedAffinity 6.03217363
REMARK minimizedRMSD -1
REMARK  0 active torsions:
REMARK  status: ('A' for Active; 'I' for Inactive)
ROOT
ATOM      1  C   UNL d   1      -5.999  -1.837  -5.487  0.00  0.00     0.078 C 
ATOM      2  C1  UNL d   1      -5.285  -3.152  -5.578  0.00  0.00    -0.077 A 
ATOM      3  C2  UNL d   1      -3.905  -3.241  -5.357  0.00  0.00    -0.001 A 
ATOM      4  C3  UNL d   1      -3.252  -4.471  -5.455  0.00  0.00     0.003 A 
ATOM      5  C4  UNL d   1      -3.970  -5.621  -5.776  0.00  0.00    -0.005 A 
ATOM      6  C5  UNL d   1      -5.343  -5.542  -6.000  0.00  0.00     0.003 A 
ATOM      7  C6  UNL d   1      -5.998  -4.313  -5.902  0.00  0.00    -0.001 A 
ENDROOT
TORSDOF 0
ENDMDL
