MODEL 1
REMARK minimizedAffinity 12.3655558
REMARK minimizedRMSD -1
REMARK  0 active torsions:
REMARK  status: ('A' for Active; 'I' for Inactive)
ROOT
ATOM      1  C   UNL d   1      -3.137   0.754   2.621  0.00  0.00     0.078 C 
ATOM      2  C1  UNL d   1      -3.841   1.534   3.690  0.00  0.00    -0.077 A 
ATOM      3  C2  UNL d   1      -3.380   1.523   5.013  0.00  0.00    -0.001 A 
ATOM      4  C3  UNL d   1      -4.051   2.246   6.000  0.00  0.00     0.003 A 
ATOM      5  C4  UNL d   1      -5.187   2.985   5.676  0.00  0.00    -0.005 A 
ATOM      6  C5  UNL d   1      -5.655   3.000   4.363  0.00  0.00     0.003 A 
ATOM      7  C6  UNL d   1      -4.985   2.277   3.375  0.00  0.00    -0.001 A 
ENDROOT
TORSDOF 0
ENDMDL
