MODEL 1
REMARK minimizedAffinity 13.2159147
REMARK minimizedRMSD -1
REMARK  0 active torsions:
REMARK  status: ('A' for Active; 'I' for Inactive)
ROOT
ATOM      1  C   UNL d   1       1.032   1.573   5.908  0.00  0.00     0.078 C 
ATOM      2  C1  UNL d   1       1.008   1.733   4.417  0.00  0.00    -0.077 A 
ATOM      3  C2  UNL d   1       2.144   2.162   3.719  0.00  0.00    -0.001 A 
ATOM      4  C3  UNL d   1       2.105   2.316   2.333  0.00  0.00     0.003 A 
ATOM      5  C4  UNL d   1       0.931   2.045   1.632  0.00  0.00    -0.005 A 
ATOM      6  C5  UNL d   1      -0.205   1.620   2.318  0.00  0.00     0.003 A 
ATOM      7  C6  UNL d   1      -0.167   1.465   3.704  0.00  0.00    -0.001 A 
ENDROOT
TORSDOF 0
ENDMDL
