MODEL 1
REMARK minimizedAffinity 6.81786919
REMARK minimizedRMSD -1
REMARK  0 active torsions:
REMARK  status: ('A' for Active; 'I' for Inactive)
ROOT
ATOM      1  C   UNL d   1       2.047   0.327  -0.168  0.00  0.00     0.078 C 
ATOM      2  C1  UNL d   1       3.170   1.300   0.034  0.00  0.00    -0.077 A 
ATOM      3  C2  UNL d   1       4.254   1.343  -0.851  0.00  0.00    -0.001 A 
ATOM      4  C3  UNL d   1       5.298   2.247  -0.645  0.00  0.00     0.003 A 
ATOM      5  C4  UNL d   1       5.269   3.113   0.446  0.00  0.00    -0.005 A 
ATOM      6  C5  UNL d   1       4.195   3.075   1.334  0.00  0.00     0.003 A 
ATOM      7  C6  UNL d   1       3.151   2.172   1.130  0.00  0.00    -0.001 A 
ENDROOT
TORSDOF 0
ENDMDL
