MODEL 1
REMARK minimizedAffinity 3.30732679
REMARK minimizedRMSD -1
REMARK  0 active torsions:
REMARK  status: ('A' for Active; 'I' for Inactive)
ROOT
ATOM      1  C   UNL d   1      -4.244   5.980  -5.989  0.00  0.00     0.078 C 
ATOM      2  C1  UNL d   1      -3.131   5.123  -5.463  0.00  0.00    -0.077 A 
ATOM      3  C2  UNL d   1      -2.283   5.586  -4.449  0.00  0.00    -0.001 A 
ATOM      4  C3  UNL d   1      -1.245   4.782  -3.976  0.00  0.00     0.003 A 
ATOM      5  C4  UNL d   1      -1.045   3.511  -4.511  0.00  0.00    -0.005 A 
ATOM      6  C5  UNL d   1      -1.882   3.043  -5.522  0.00  0.00     0.003 A 
ATOM      7  C6  UNL d   1      -2.921   3.846  -5.996  0.00  0.00    -0.001 A 
ENDROOT
TORSDOF 0
ENDMDL
