MODEL 1
REMARK minimizedAffinity 2.98952723
REMARK minimizedRMSD -1
REMARK  0 active torsions:
REMARK  status: ('A' for Active; 'I' for Inactive)
ROOT
ATOM      1  C   UNL d   1       3.854  -4.395  -0.078  0.00  0.00     0.078 C 
ATOM      2  C1  UNL d   1       2.991  -3.356  -0.729  0.00  0.00    -0.077 A 
ATOM      3  C2  UNL d   1       2.469  -3.553  -2.013  0.00  0.00    -0.001 A 
ATOM      4  C3  UNL d   1       1.676  -2.573  -2.611  0.00  0.00     0.003 A 
ATOM      5  C4  UNL d   1       1.398  -1.388  -1.932  0.00  0.00    -0.005 A 
ATOM      6  C5  UNL d   1       1.914  -1.182  -0.655  0.00  0.00     0.003 A 
ATOM      7  C6  UNL d   1       2.708  -2.161  -0.055  0.00  0.00    -0.001 A 
ENDROOT
TORSDOF 0
ENDMDL
