MODEL 1
REMARK minimizedAffinity 7.19021225
REMARK minimizedRMSD -1
REMARK  0 active torsions:
REMARK  status: ('A' for Active; 'I' for Inactive)
ROOT
ATOM      1  C   UNL d   1       3.032  -3.636   0.146  0.00  0.00     0.078 C 
ATOM      2  C1  UNL d   1       2.343  -2.507  -0.561  0.00  0.00    -0.077 A 
ATOM      3  C2  UNL d   1       1.829  -2.672  -1.853  0.00  0.00    -0.001 A 
ATOM      4  C3  UNL d   1       1.199  -1.609  -2.502  0.00  0.00     0.003 A 
ATOM      5  C4  UNL d   1       1.078  -0.375  -1.868  0.00  0.00    -0.005 A 
ATOM      6  C5  UNL d   1       1.588  -0.201  -0.583  0.00  0.00     0.003 A 
ATOM      7  C6  UNL d   1       2.218  -1.262   0.068  0.00  0.00    -0.001 A 
ENDROOT
TORSDOF 0
ENDMDL
