MODEL 1
REMARK minimizedAffinity -0.472063631
REMARK minimizedRMSD -1
REMARK  0 active torsions:
REMARK  status: ('A' for Active; 'I' for Inactive)
ROOT
ATOM      1  C   UNL d   1      -1.906  -5.994  -5.622  0.00  0.00     0.078 C 
ATOM      2  C1  UNL d   1      -3.094  -5.079  -5.653  0.00  0.00    -0.077 A 
ATOM      3  C2  UNL d   1      -4.370  -5.563  -5.965  0.00  0.00    -0.001 A 
ATOM      4  C3  UNL d   1      -5.465  -4.698  -5.999  0.00  0.00     0.003 A 
ATOM      5  C4  UNL d   1      -5.294  -3.343  -5.722  0.00  0.00    -0.005 A 
ATOM      6  C5  UNL d   1      -4.028  -2.851  -5.413  0.00  0.00     0.003 A 
ATOM      7  C6  UNL d   1      -2.932  -3.715  -5.379  0.00  0.00    -0.001 A 
ENDROOT
TORSDOF 0
ENDMDL
