MODEL 1
REMARK minimizedAffinity 7.29452276
REMARK minimizedRMSD -1
REMARK  0 active torsions:
REMARK  status: ('A' for Active; 'I' for Inactive)
ROOT
ATOM      1  C   UNL d   1      -3.569  -5.994  -6.000  0.00  0.00     0.078 C 
ATOM      2  C1  UNL d   1      -3.051  -4.873  -5.149  0.00  0.00    -0.077 A 
ATOM      3  C2  UNL d   1      -2.420  -5.129  -3.925  0.00  0.00    -0.001 A 
ATOM      4  C3  UNL d   1      -1.951  -4.076  -3.139  0.00  0.00     0.003 A 
ATOM      5  C4  UNL d   1      -2.110  -2.759  -3.566  0.00  0.00    -0.005 A 
ATOM      6  C5  UNL d   1      -2.739  -2.494  -4.781  0.00  0.00     0.003 A 
ATOM      7  C6  UNL d   1      -3.208  -3.546  -5.569  0.00  0.00    -0.001 A 
ENDROOT
TORSDOF 0
ENDMDL
