MODEL 1
REMARK minimizedAffinity 8.15480328
REMARK minimizedRMSD -1
REMARK  0 active torsions:
REMARK  status: ('A' for Active; 'I' for Inactive)
ROOT
ATOM      1  C   UNL d   1      -3.728  -2.389   4.005  0.00  0.00     0.078 C 
ATOM      2  C1  UNL d   1      -3.775  -0.911   4.256  0.00  0.00    -0.077 A 
ATOM      3  C2  UNL d   1      -3.503  -0.386   5.525  0.00  0.00    -0.001 A 
ATOM      4  C3  UNL d   1      -3.560   0.991   5.746  0.00  0.00     0.003 A 
ATOM      5  C4  UNL d   1      -3.891   1.854   4.703  0.00  0.00    -0.005 A 
ATOM      6  C5  UNL d   1      -4.165   1.340   3.437  0.00  0.00     0.003 A 
ATOM      7  C6  UNL d   1      -4.108  -0.036   3.214  0.00  0.00    -0.001 A 
ENDROOT
TORSDOF 0
ENDMDL
