MODEL 1
REMARK minimizedAffinity -1.69899845
REMARK minimizedRMSD -1
REMARK  0 active torsions:
REMARK  status: ('A' for Active; 'I' for Inactive)
ROOT
ATOM      1  C   UNL d   1      -1.619   5.998  -3.593  0.00  0.00     0.078 C 
ATOM      2  C1  UNL d   1      -2.612   5.241  -4.424  0.00  0.00    -0.077 A 
ATOM      3  C2  UNL d   1      -2.528   3.850  -4.558  0.00  0.00    -0.001 A 
ATOM      4  C3  UNL d   1      -3.453   3.160  -5.343  0.00  0.00     0.003 A 
ATOM      5  C4  UNL d   1      -4.469   3.852  -6.000  0.00  0.00    -0.005 A 
ATOM      6  C5  UNL d   1      -4.559   5.237  -5.874  0.00  0.00     0.003 A 
ATOM      7  C6  UNL d   1      -3.634   5.929  -5.090  0.00  0.00    -0.001 A 
ENDROOT
TORSDOF 0
ENDMDL
