MODEL 1
REMARK minimizedAffinity 11.4536057
REMARK minimizedRMSD -1
REMARK  0 active torsions:
REMARK  status: ('A' for Active; 'I' for Inactive)
ROOT
ATOM      1  O1  BZF d   1      -1.864  -1.024  -0.655  0.00  0.00    -0.204 OA
ATOM      2  C2  BZF d   1      -1.423  -0.969  -1.963  0.00  0.00     0.174 A 
ATOM      3  C3  BZF d   1      -0.937   0.256  -2.253  0.00  0.00    -0.012 A 
ATOM      4  C3A BZF d   1      -1.000   0.985  -1.024  0.00  0.00    -0.107 A 
ATOM      5  C4  BZF d   1      -0.645   2.255  -0.667  0.00  0.00     0.055 A 
ATOM      6  C5  BZF d   1      -0.904   2.683   0.597  0.00  0.00    -0.016 A 
ATOM      7  C6  BZF d   1      -1.520   1.870   1.526  0.00  0.00     0.022 A 
ATOM      8  C7  BZF d   1      -1.886   0.602   1.220  0.00  0.00     0.029 A 
ATOM      9  C7A BZF d   1      -1.595   0.156  -0.046  0.00  0.00     0.058 A 
ENDROOT
TORSDOF 0
ENDMDL
