MODEL 1
REMARK minimizedAffinity 5.12543869
REMARK minimizedRMSD -1
REMARK  0 active torsions:
REMARK  status: ('A' for Active; 'I' for Inactive)
ROOT
ATOM      1  O1  BZF d   1      -0.066  -1.588  -4.869  0.00  0.00    -0.204 OA
ATOM      2  C2  BZF d   1      -1.224  -2.022  -5.486  0.00  0.00     0.174 A 
ATOM      3  C3  BZF d   1      -2.261  -2.004  -4.624  0.00  0.00    -0.012 A 
ATOM      4  C3A BZF d   1      -1.737  -1.442  -3.417  0.00  0.00    -0.107 A 
ATOM      5  C4  BZF d   1      -2.285  -1.152  -2.200  0.00  0.00     0.055 A 
ATOM      6  C5  BZF d   1      -1.484  -0.677  -1.210  0.00  0.00    -0.016 A 
ATOM      7  C6  BZF d   1      -0.132  -0.485  -1.400  0.00  0.00     0.022 A 
ATOM      8  C7  BZF d   1       0.457  -0.754  -2.591  0.00  0.00     0.029 A 
ATOM      9  C7A BZF d   1      -0.355  -1.203  -3.603  0.00  0.00     0.058 A 
ENDROOT
TORSDOF 0
ENDMDL
