MODEL 1
REMARK minimizedAffinity 4.1051116
REMARK minimizedRMSD -1
REMARK  0 active torsions:
REMARK  status: ('A' for Active; 'I' for Inactive)
ROOT
ATOM      1  O1  BZF d   1       1.014   1.604   1.443  0.00  0.00    -0.204 OA
ATOM      2  C2  BZF d   1      -0.024   2.481   1.691  0.00  0.00     0.174 A 
ATOM      3  C3  BZF d   1      -0.683   2.136   2.816  0.00  0.00    -0.012 A 
ATOM      4  C3A BZF d   1       0.041   1.024   3.351  0.00  0.00    -0.107 A 
ATOM      5  C4  BZF d   1      -0.114   0.251   4.466  0.00  0.00     0.055 A 
ATOM      6  C5  BZF d   1       0.722  -0.802   4.661  0.00  0.00    -0.016 A 
ATOM      7  C6  BZF d   1       1.719  -1.114   3.760  0.00  0.00     0.022 A 
ATOM      8  C7  BZF d   1       1.915  -0.374   2.642  0.00  0.00     0.029 A 
ATOM      9  C7A BZF d   1       1.093   0.711   2.459  0.00  0.00     0.058 A 
ENDROOT
TORSDOF 0
ENDMDL
