MODEL 1
REMARK minimizedAffinity 5.68973398
REMARK minimizedRMSD -1
REMARK  0 active torsions:
REMARK  status: ('A' for Active; 'I' for Inactive)
ROOT
ATOM      1  O1  BZF d   1       2.334  -3.961  -0.948  0.00  0.00    -0.204 OA
ATOM      2  C2  BZF d   1       2.340  -4.870  -1.989  0.00  0.00     0.174 A 
ATOM      3  C3  BZF d   1       3.393  -4.655  -2.805  0.00  0.00    -0.012 A 
ATOM      4  C3A BZF d   1       4.139  -3.602  -2.187  0.00  0.00    -0.107 A 
ATOM      5  C4  BZF d   1       5.298  -2.957  -2.513  0.00  0.00     0.055 A 
ATOM      6  C5  BZF d   1       5.719  -1.923  -1.738  0.00  0.00    -0.016 A 
ATOM      7  C6  BZF d   1       5.004  -1.506  -0.634  0.00  0.00     0.022 A 
ATOM      8  C7  BZF d   1       3.852  -2.118  -0.268  0.00  0.00     0.029 A 
ATOM      9  C7A BZF d   1       3.441  -3.184  -1.031  0.00  0.00     0.058 A 
ENDROOT
TORSDOF 0
ENDMDL
