MODEL 1
REMARK minimizedAffinity 7.45874548
REMARK minimizedRMSD -1
REMARK  0 active torsions:
REMARK  status: ('A' for Active; 'I' for Inactive)
ROOT
ATOM      1  O1  BZF d   1       0.212   3.124   2.491  0.00  0.00    -0.204 OA
ATOM      2  C2  BZF d   1      -0.317   1.871   2.734  0.00  0.00     0.174 A 
ATOM      3  C3  BZF d   1      -0.962   1.405   1.645  0.00  0.00    -0.012 A 
ATOM      4  C3A BZF d   1      -0.749   2.390   0.630  0.00  0.00    -0.107 A 
ATOM      5  C4  BZF d   1      -1.129   2.489  -0.678  0.00  0.00     0.055 A 
ATOM      6  C5  BZF d   1      -0.819   3.615  -1.373  0.00  0.00    -0.016 A 
ATOM      7  C6  BZF d   1      -0.137   4.663  -0.790  0.00  0.00     0.022 A 
ATOM      8  C7  BZF d   1       0.264   4.610   0.503  0.00  0.00     0.029 A 
ATOM      9  C7A BZF d   1      -0.018   3.459   1.198  0.00  0.00     0.058 A 
ENDROOT
TORSDOF 0
ENDMDL
