MODEL 1
REMARK minimizedAffinity 1.43664932
REMARK minimizedRMSD -1
REMARK  0 active torsions:
REMARK  status: ('A' for Active; 'I' for Inactive)
ROOT
ATOM      1  O1  BZF d   1       1.020   4.791  -0.772  0.00  0.00    -0.204 OA
ATOM      2  C2  BZF d   1      -0.159   4.286  -1.284  0.00  0.00     0.174 A 
ATOM      3  C3  BZF d   1      -0.773   3.494  -0.381  0.00  0.00    -0.012 A 
ATOM      4  C3A BZF d   1       0.030   3.578   0.800  0.00  0.00    -0.107 A 
ATOM      5  C4  BZF d   1      -0.071   3.026   2.045  0.00  0.00     0.055 A 
ATOM      6  C5  BZF d   1       0.919   3.249   2.949  0.00  0.00    -0.016 A 
ATOM      7  C6  BZF d   1       2.024   4.016   2.641  0.00  0.00     0.022 A 
ATOM      8  C7  BZF d   1       2.166   4.589   1.421  0.00  0.00     0.029 A 
ATOM      9  C7A BZF d   1       1.151   4.392   0.516  0.00  0.00     0.058 A 
ENDROOT
TORSDOF 0
ENDMDL
