MODEL 1
REMARK minimizedAffinity 2.11935592
REMARK minimizedRMSD -1
REMARK  0 active torsions:
REMARK  status: ('A' for Active; 'I' for Inactive)
ROOT
ATOM      1  O1  BZF d   1      -0.759   4.234  -2.365  0.00  0.00    -0.204 OA
ATOM      2  C2  BZF d   1      -0.553   5.473  -1.790  0.00  0.00     0.174 A 
ATOM      3  C3  BZF d   1      -0.358   5.357  -0.461  0.00  0.00    -0.012 A 
ATOM      4  C3A BZF d   1      -0.356   3.950  -0.202  0.00  0.00    -0.107 A 
ATOM      5  C4  BZF d   1      -0.191   3.203   0.929  0.00  0.00     0.055 A 
ATOM      6  C5  BZF d   1      -0.318   1.852   0.854  0.00  0.00    -0.016 A 
ATOM      7  C6  BZF d   1      -0.614   1.216  -0.334  0.00  0.00     0.022 A 
ATOM      8  C7  BZF d   1      -0.781   1.914  -1.484  0.00  0.00     0.029 A 
ATOM      9  C7A BZF d   1      -0.620   3.276  -1.417  0.00  0.00     0.058 A 
ENDROOT
TORSDOF 0
ENDMDL
