MODEL 1
REMARK minimizedAffinity 2.53100324
REMARK minimizedRMSD -1
REMARK  0 active torsions:
REMARK  status: ('A' for Active; 'I' for Inactive)
ROOT
ATOM      1  C1  DEN d   1      -0.461   2.550  -0.002  0.00  0.00     0.130 A 
ATOM      2  C2  DEN d   1       0.570   1.903   0.804  0.00  0.00    -0.031 A 
ATOM      3  C3  DEN d   1      -0.067   0.816   1.573  0.00  0.00     0.027 A 
ATOM      4  C4  DEN d   1      -2.536   0.072   1.592  0.00  0.00     0.027 A 
ATOM      5  C5  DEN d   1      -3.789   0.328   1.080  0.00  0.00    -0.003 A 
ATOM      6  C6  DEN d   1      -4.025   1.355   0.205  0.00  0.00     0.001 A 
ATOM      7  C7  DEN d   1      -2.984   2.137  -0.220  0.00  0.00     0.017 A 
ATOM      8  C8  DEN d   1      -1.719   1.890   0.297  0.00  0.00    -0.094 A 
ATOM      9  C9  DEN d   1      -1.499   0.840   1.171  0.00  0.00    -0.072 A 
ENDROOT
TORSDOF 0
ENDMDL
