MODEL 1
REMARK minimizedAffinity 1.03182709
REMARK minimizedRMSD -1
REMARK  0 active torsions:
REMARK  status: ('A' for Active; 'I' for Inactive)
ROOT
ATOM      1  C1  DEN d   1       0.259   2.273   0.355  0.00  0.00     0.130 A 
ATOM      2  C2  DEN d   1       0.986   1.302   1.167  0.00  0.00    -0.031 A 
ATOM      3  C3  DEN d   1       0.049   0.223   1.538  0.00  0.00     0.027 A 
ATOM      4  C4  DEN d   1      -2.445  -0.038   0.934  0.00  0.00     0.027 A 
ATOM      5  C5  DEN d   1      -3.507   0.540   0.273  0.00  0.00    -0.003 A 
ATOM      6  C6  DEN d   1      -3.397   1.743  -0.373  0.00  0.00     0.001 A 
ATOM      7  C7  DEN d   1      -2.188   2.386  -0.411  0.00  0.00     0.017 A 
ATOM      8  C8  DEN d   1      -1.115   1.813   0.260  0.00  0.00    -0.094 A 
ATOM      9  C9  DEN d   1      -1.243   0.590   0.897  0.00  0.00    -0.072 A 
ENDROOT
TORSDOF 0
ENDMDL
