MODEL 1
REMARK minimizedAffinity 4.64540482
REMARK minimizedRMSD -1
REMARK  0 active torsions:
REMARK  status: ('A' for Active; 'I' for Inactive)
ROOT
ATOM      1  C1  DEN d   1      -1.214  -0.990   2.293  0.00  0.00     0.130 A 
ATOM      2  C2  DEN d   1      -2.617  -1.306   2.543  0.00  0.00    -0.031 A 
ATOM      3  C3  DEN d   1      -3.442  -0.263   1.900  0.00  0.00     0.027 A 
ATOM      4  C4  DEN d   1      -2.686   1.797   0.545  0.00  0.00     0.027 A 
ATOM      5  C5  DEN d   1      -1.593   2.492   0.074  0.00  0.00    -0.003 A 
ATOM      6  C6  DEN d   1      -0.308   2.097   0.337  0.00  0.00     0.001 A 
ATOM      7  C7  DEN d   1      -0.083   0.952   1.053  0.00  0.00     0.017 A 
ATOM      8  C8  DEN d   1      -1.179   0.249   1.537  0.00  0.00    -0.094 A 
ATOM      9  C9  DEN d   1      -2.471   0.657   1.250  0.00  0.00    -0.072 A 
ENDROOT
TORSDOF 0
ENDMDL
