MODEL 1
REMARK minimizedAffinity -5.4830327
REMARK minimizedRMSD -1
REMARK  0 active torsions:
REMARK  status: ('A' for Active; 'I' for Inactive)
ROOT
ATOM      1  C1  DEN d   1      -3.064   2.867  -0.757  0.00  0.00     0.130 A 
ATOM      2  C2  DEN d   1      -4.255   2.230  -0.201  0.00  0.00    -0.031 A 
ATOM      3  C3  DEN d   1      -3.817   1.107   0.651  0.00  0.00     0.027 A 
ATOM      4  C4  DEN d   1      -1.423   0.298   1.166  0.00  0.00     0.027 A 
ATOM      5  C5  DEN d   1      -0.086   0.516   0.915  0.00  0.00    -0.003 A 
ATOM      6  C6  DEN d   1       0.347   1.503   0.069  0.00  0.00     0.001 A 
ATOM      7  C7  DEN d   1      -0.564   2.339  -0.521  0.00  0.00     0.017 A 
ATOM      8  C8  DEN d   1      -1.914   2.121  -0.278  0.00  0.00    -0.094 A 
ATOM      9  C9  DEN d   1      -2.331   1.125   0.589  0.00  0.00    -0.072 A 
ENDROOT
TORSDOF 0
ENDMDL
