MODEL 1
REMARK minimizedAffinity 4.42088461
REMARK minimizedRMSD -1
REMARK  0 active torsions:
REMARK  status: ('A' for Active; 'I' for Inactive)
ROOT
ATOM      1  C1  DEN d   1       3.650   5.999   3.872  0.00  0.00     0.130 A 
ATOM      2  C2  DEN d   1       4.943   5.977   4.549  0.00  0.00    -0.031 A 
ATOM      3  C3  DEN d   1       5.999   5.962   3.517  0.00  0.00     0.027 A 
ATOM      4  C4  DEN d   1       5.757   5.974   0.949  0.00  0.00     0.027 A 
ATOM      5  C5  DEN d   1       4.857   5.979  -0.094  0.00  0.00    -0.003 A 
ATOM      6  C6  DEN d   1       3.503   5.957   0.110  0.00  0.00     0.001 A 
ATOM      7  C7  DEN d   1       3.009   5.974   1.388  0.00  0.00     0.017 A 
ATOM      8  C8  DEN d   1       3.910   5.962   2.444  0.00  0.00    -0.094 A 
ATOM      9  C9  DEN d   1       5.275   5.997   2.217  0.00  0.00    -0.072 A 
ENDROOT
TORSDOF 0
ENDMDL
