MODEL 1
REMARK minimizedAffinity 3.57312417
REMARK minimizedRMSD -1
REMARK  0 active torsions:
REMARK  status: ('A' for Active; 'I' for Inactive)
ROOT
ATOM      1  C1  DEN d   1      -2.427  -4.131   0.451  0.00  0.00     0.130 A 
ATOM      2  C2  DEN d   1      -2.649  -2.696   0.607  0.00  0.00    -0.031 A 
ATOM      3  C3  DEN d   1      -1.947  -2.255   1.829  0.00  0.00     0.027 A 
ATOM      4  C4  DEN d   1      -0.540  -3.646   3.483  0.00  0.00     0.027 A 
ATOM      5  C5  DEN d   1      -0.075  -4.909   3.776  0.00  0.00    -0.003 A 
ATOM      6  C6  DEN d   1      -0.387  -5.999   3.006  0.00  0.00     0.001 A 
ATOM      7  C7  DEN d   1      -1.149  -5.838   1.879  0.00  0.00     0.017 A 
ATOM      8  C8  DEN d   1      -1.628  -4.568   1.582  0.00  0.00    -0.094 A 
ATOM      9  C9  DEN d   1      -1.291  -3.478   2.366  0.00  0.00    -0.072 A 
ENDROOT
TORSDOF 0
ENDMDL
