MODEL 1
REMARK minimizedAffinity 2.37551808
REMARK minimizedRMSD -1
REMARK  0 active torsions:
REMARK  status: ('A' for Active; 'I' for Inactive)
ROOT
ATOM      1  C1  DEN d   1       1.274   0.729   0.539  0.00  0.00     0.130 A 
ATOM      2  C2  DEN d   1       2.733   0.677   0.532  0.00  0.00    -0.031 A 
ATOM      3  C3  DEN d   1       3.227   1.565   1.604  0.00  0.00     0.027 A 
ATOM      4  C4  DEN d   1       1.880   3.003   3.269  0.00  0.00     0.027 A 
ATOM      5  C5  DEN d   1       0.614   3.382   3.655  0.00  0.00    -0.003 A 
ATOM      6  C6  DEN d   1      -0.511   2.935   3.014  0.00  0.00     0.001 A 
ATOM      7  C7  DEN d   1      -0.393   2.045   1.979  0.00  0.00     0.017 A 
ATOM      8  C8  DEN d   1       0.881   1.663   1.579  0.00  0.00    -0.094 A 
ATOM      9  C9  DEN d   1       2.005   2.117   2.248  0.00  0.00    -0.072 A 
ENDROOT
TORSDOF 0
ENDMDL
