MODEL 1
REMARK minimizedAffinity 3.97777772
REMARK minimizedRMSD -1
REMARK  0 active torsions:
REMARK  status: ('A' for Active; 'I' for Inactive)
ROOT
ATOM      1  C1  DEN d   1       0.808   0.933   0.510  0.00  0.00     0.130 A 
ATOM      2  C2  DEN d   1       2.266   0.861   0.533  0.00  0.00    -0.031 A 
ATOM      3  C3  DEN d   1       2.747   1.696   1.653  0.00  0.00     0.027 A 
ATOM      4  C4  DEN d   1       1.381   3.079   3.348  0.00  0.00     0.027 A 
ATOM      5  C5  DEN d   1       0.112   3.459   3.723  0.00  0.00    -0.003 A 
ATOM      6  C6  DEN d   1      -1.004   3.055   3.038  0.00  0.00     0.001 A 
ATOM      7  C7  DEN d   1      -0.874   2.208   1.969  0.00  0.00     0.017 A 
ATOM      8  C8  DEN d   1       0.403   1.827   1.581  0.00  0.00    -0.094 A 
ATOM      9  C9  DEN d   1       1.518   2.237   2.293  0.00  0.00    -0.072 A 
ENDROOT
TORSDOF 0
ENDMDL
