MODEL 1
REMARK minimizedAffinity 7.0600276
REMARK minimizedRMSD -1
REMARK  0 active torsions:
REMARK  status: ('A' for Active; 'I' for Inactive)
ROOT
ATOM      1  C1  DEN d   1       0.387   0.484   0.348  0.00  0.00     0.130 A 
ATOM      2  C2  DEN d   1       1.824   0.228   0.403  0.00  0.00    -0.031 A 
ATOM      3  C3  DEN d   1       2.413   1.142   1.401  0.00  0.00     0.027 A 
ATOM      4  C4  DEN d   1       1.246   2.918   2.863  0.00  0.00     0.027 A 
ATOM      5  C5  DEN d   1       0.038   3.509   3.161  0.00  0.00    -0.003 A 
ATOM      6  C6  DEN d   1      -1.123   3.161   2.523  0.00  0.00     0.001 A 
ATOM      7  C7  DEN d   1      -1.108   2.162   1.586  0.00  0.00     0.017 A 
ATOM      8  C8  DEN d   1       0.107   1.566   1.275  0.00  0.00    -0.094 A 
ATOM      9  C9  DEN d   1       1.267   1.924   1.940  0.00  0.00    -0.072 A 
ENDROOT
TORSDOF 0
ENDMDL
