MODEL 1
REMARK minimizedAffinity 7.886168
REMARK minimizedRMSD -1
REMARK  0 active torsions:
REMARK  status: ('A' for Active; 'I' for Inactive)
ROOT
ATOM      1  C1  DEN d   1      -0.365   1.711   0.007  0.00  0.00     0.130 A 
ATOM      2  C2  DEN d   1       0.341   1.186   1.172  0.00  0.00    -0.031 A 
ATOM      3  C3  DEN d   1       1.710   0.824   0.751  0.00  0.00     0.027 A 
ATOM      4  C4  DEN d   1       2.798   1.028  -1.578  0.00  0.00     0.027 A 
ATOM      5  C5  DEN d   1       2.589   1.407  -2.886  0.00  0.00    -0.003 A 
ATOM      6  C6  DEN d   1       1.380   1.878  -3.325  0.00  0.00     0.001 A 
ATOM      7  C7  DEN d   1       0.346   2.025  -2.438  0.00  0.00     0.017 A 
ATOM      8  C8  DEN d   1       0.547   1.638  -1.119  0.00  0.00    -0.094 A 
ATOM      9  C9  DEN d   1       1.780   1.176  -0.692  0.00  0.00    -0.072 A 
ENDROOT
TORSDOF 0
ENDMDL
