MODEL 1
REMARK minimizedAffinity -1.78323734
REMARK minimizedRMSD -1
REMARK  0 active torsions:
REMARK  status: ('A' for Active; 'I' for Inactive)
ROOT
ATOM      1  C1  DEN d   1      -0.173   0.554  -0.105  0.00  0.00     0.130 A 
ATOM      2  C2  DEN d   1      -1.624   0.450   0.021  0.00  0.00    -0.031 A 
ATOM      3  C3  DEN d   1      -2.021   1.112   1.279  0.00  0.00     0.027 A 
ATOM      4  C4  DEN d   1      -0.539   2.287   3.033  0.00  0.00     0.027 A 
ATOM      5  C5  DEN d   1       0.756   2.619   3.368  0.00  0.00    -0.003 A 
ATOM      6  C6  DEN d   1       1.825   2.260   2.592  0.00  0.00     0.001 A 
ATOM      7  C7  DEN d   1       1.616   1.585   1.418  0.00  0.00     0.017 A 
ATOM      8  C8  DEN d   1       0.315   1.240   1.078  0.00  0.00    -0.094 A 
ATOM      9  C9  DEN d   1      -0.754   1.623   1.869  0.00  0.00    -0.072 A 
ENDROOT
TORSDOF 0
ENDMDL
