MODEL 1
REMARK minimizedAffinity 7.63934374
REMARK minimizedRMSD -1
REMARK  0 active torsions:
REMARK  status: ('A' for Active; 'I' for Inactive)
ROOT
ATOM      1  C1  DEN d   1       0.231  -5.971   1.538  0.00  0.00     0.130 A 
ATOM      2  C2  DEN d   1      -1.229  -5.999   1.563  0.00  0.00    -0.031 A 
ATOM      3  C3  DEN d   1      -1.661  -5.999   2.975  0.00  0.00     0.027 A 
ATOM      4  C4  DEN d   1      -0.219  -5.952   5.113  0.00  0.00     0.027 A 
ATOM      5  C5  DEN d   1       1.070  -5.935   5.598  0.00  0.00    -0.003 A 
ATOM      6  C6  DEN d   1       2.162  -5.962   4.770  0.00  0.00     0.001 A 
ATOM      7  C7  DEN d   1       1.984  -5.963   3.412  0.00  0.00     0.017 A 
ATOM      8  C8  DEN d   1       0.687  -5.988   2.916  0.00  0.00    -0.094 A 
ATOM      9  C9  DEN d   1      -0.403  -5.948   3.769  0.00  0.00    -0.072 A 
ENDROOT
TORSDOF 0
ENDMDL
