MODEL 1
REMARK minimizedAffinity 12.3757372
REMARK minimizedRMSD -1
REMARK  0 active torsions:
REMARK  status: ('A' for Active; 'I' for Inactive)
ROOT
ATOM      1  C1  DEN d   1      -0.178   2.911   2.924  0.00  0.00     0.130 A 
ATOM      2  C2  DEN d   1      -1.486   2.575   2.366  0.00  0.00    -0.031 A 
ATOM      3  C3  DEN d   1      -1.290   1.529   1.342  0.00  0.00     0.027 A 
ATOM      4  C4  DEN d   1       0.898   0.400   0.573  0.00  0.00     0.027 A 
ATOM      5  C5  DEN d   1       2.263   0.363   0.748  0.00  0.00    -0.003 A 
ATOM      6  C6  DEN d   1       2.910   1.190   1.628  0.00  0.00     0.001 A 
ATOM      7  C7  DEN d   1       2.185   2.058   2.401  0.00  0.00     0.017 A 
ATOM      8  C8  DEN d   1       0.808   2.106   2.225  0.00  0.00    -0.094 A 
ATOM      9  C9  DEN d   1       0.172   1.254   1.339  0.00  0.00    -0.072 A 
ENDROOT
TORSDOF 0
ENDMDL
