MODEL 1
REMARK minimizedAffinity 0.981773913
REMARK minimizedRMSD -1
REMARK  0 active torsions:
REMARK  status: ('A' for Active; 'I' for Inactive)
ROOT
ATOM      1  C1  DEN d   1      -0.557   1.849   2.439  0.00  0.00     0.130 A 
ATOM      2  C2  DEN d   1      -0.320   2.792   3.529  0.00  0.00    -0.031 A 
ATOM      3  C3  DEN d   1       1.116   3.136   3.531  0.00  0.00     0.027 A 
ATOM      4  C4  DEN d   1       2.985   2.307   1.958  0.00  0.00     0.027 A 
ATOM      5  C5  DEN d   1       3.270   1.490   0.887  0.00  0.00    -0.003 A 
ATOM      6  C6  DEN d   1       2.315   0.715   0.285  0.00  0.00     0.001 A 
ATOM      7  C7  DEN d   1       1.018   0.776   0.721  0.00  0.00     0.017 A 
ATOM      8  C8  DEN d   1       0.724   1.592   1.805  0.00  0.00    -0.094 A 
ATOM      9  C9  DEN d   1       1.701   2.377   2.393  0.00  0.00    -0.072 A 
ENDROOT
TORSDOF 0
ENDMDL
