MODEL 1
REMARK minimizedAffinity 3.17970371
REMARK minimizedRMSD -1
REMARK  0 active torsions:
REMARK  status: ('A' for Active; 'I' for Inactive)
ROOT
ATOM      1  C   UNL d   1       1.727   0.311  -0.939  0.00  0.00     0.077 C 
ATOM      2  C1  UNL d   1       0.467   1.047  -0.594  0.00  0.00    -0.074 A 
ATOM      3  C2  UNL d   1      -0.787   0.495  -0.873  0.00  0.00    -0.005 A 
ATOM      4  C3  UNL d   1      -1.951   1.188  -0.538  0.00  0.00     0.006 A 
ATOM      5  C4  UNL d   1      -1.872   2.437   0.079  0.00  0.00    -0.005 A 
ATOM      6  C5  UNL d   1      -0.627   3.004   0.368  0.00  0.00    -0.074 A 
ATOM      7  C6  UNL d   1      -0.525   4.341   1.040  0.00  0.00     0.077 C 
ATOM      8  C7  UNL d   1       0.538   2.299   0.034  0.00  0.00    -0.001 A 
ENDROOT
TORSDOF 0
ENDMDL
