MODEL 1
REMARK minimizedAffinity 3.34322166
REMARK minimizedRMSD -1
REMARK  0 active torsions:
REMARK  status: ('A' for Active; 'I' for Inactive)
ROOT
ATOM      1  C   UNL d   1      -4.191   0.533  -0.234  0.00  0.00     0.077 C 
ATOM      2  C1  UNL d   1      -3.722   1.652   0.649  0.00  0.00    -0.074 A 
ATOM      3  C2  UNL d   1      -4.260   1.833   1.927  0.00  0.00    -0.005 A 
ATOM      4  C3  UNL d   1      -3.808   2.872   2.740  0.00  0.00     0.006 A 
ATOM      5  C4  UNL d   1      -2.814   3.739   2.284  0.00  0.00    -0.005 A 
ATOM      6  C5  UNL d   1      -2.263   3.573   1.009  0.00  0.00    -0.074 A 
ATOM      7  C6  UNL d   1      -1.188   4.490   0.507  0.00  0.00     0.077 C 
ATOM      8  C7  UNL d   1      -2.718   2.522   0.201  0.00  0.00    -0.001 A 
ENDROOT
TORSDOF 0
ENDMDL
