MODEL 1
REMARK minimizedAffinity 2.41055107
REMARK minimizedRMSD -1
REMARK  0 active torsions:
REMARK  status: ('A' for Active; 'I' for Inactive)
ROOT
ATOM      1  C   UNL d   1       5.130   2.056   0.773  0.00  0.00     0.077 C 
ATOM      2  C1  UNL d   1       4.069   1.318   0.012  0.00  0.00    -0.074 A 
ATOM      3  C2  UNL d   1       2.891   0.902   0.642  0.00  0.00    -0.005 A 
ATOM      4  C3  UNL d   1       1.909   0.225  -0.081  0.00  0.00     0.006 A 
ATOM      5  C4  UNL d   1       2.094  -0.043  -1.438  0.00  0.00    -0.005 A 
ATOM      6  C5  UNL d   1       3.264   0.366  -2.084  0.00  0.00    -0.074 A 
ATOM      7  C6  UNL d   1       3.475   0.095  -3.544  0.00  0.00     0.077 C 
ATOM      8  C7  UNL d   1       4.244   1.052  -1.353  0.00  0.00    -0.001 A 
ENDROOT
TORSDOF 0
ENDMDL
