MODEL 1
REMARK minimizedAffinity 6.73510408
REMARK minimizedRMSD -1
REMARK  0 active torsions:
REMARK  status: ('A' for Active; 'I' for Inactive)
ROOT
ATOM      1  C   UNL d   1      -0.412   0.732  -1.349  0.00  0.00     0.077 C 
ATOM      2  C1  UNL d   1       0.958   0.716  -0.740  0.00  0.00    -0.074 A 
ATOM      3  C2  UNL d   1       2.089   0.462  -1.522  0.00  0.00    -0.005 A 
ATOM      4  C3  UNL d   1       3.358   0.460  -0.943  0.00  0.00     0.006 A 
ATOM      5  C4  UNL d   1       3.509   0.711   0.422  0.00  0.00    -0.005 A 
ATOM      6  C5  UNL d   1       2.389   0.968   1.219  0.00  0.00    -0.074 A 
ATOM      7  C6  UNL d   1       2.534   1.249   2.685  0.00  0.00     0.077 C 
ATOM      8  C7  UNL d   1       1.118   0.975   0.629  0.00  0.00    -0.001 A 
ENDROOT
TORSDOF 0
ENDMDL
