MODEL 1
REMARK minimizedAffinity 2.8944056
REMARK minimizedRMSD -1
REMARK  0 active torsions:
REMARK  status: ('A' for Active; 'I' for Inactive)
ROOT
ATOM      1  C   UNL d   1       1.541   0.518  -1.140  0.00  0.00     0.077 C 
ATOM      2  C1  UNL d   1       0.385   1.383  -0.732  0.00  0.00    -0.074 A 
ATOM      3  C2  UNL d   1      -0.916   1.089  -1.151  0.00  0.00    -0.005 A 
ATOM      4  C3  UNL d   1      -1.982   1.897  -0.756  0.00  0.00     0.006 A 
ATOM      5  C4  UNL d   1      -1.758   3.006   0.060  0.00  0.00    -0.005 A 
ATOM      6  C5  UNL d   1      -0.463   3.316   0.490  0.00  0.00    -0.074 A 
ATOM      7  C6  UNL d   1      -0.206   4.498   1.376  0.00  0.00     0.077 C 
ATOM      8  C7  UNL d   1       0.601   2.495   0.095  0.00  0.00    -0.001 A 
ENDROOT
TORSDOF 0
ENDMDL
