MODEL 1
REMARK minimizedAffinity -0.241100162
REMARK minimizedRMSD -1
REMARK  0 active torsions:
REMARK  status: ('A' for Active; 'I' for Inactive)
ROOT
ATOM      1  C   UNL d   1       3.682   1.373   1.496  0.00  0.00     0.077 C 
ATOM      2  C1  UNL d   1       2.940   0.722   0.367  0.00  0.00    -0.074 A 
ATOM      3  C2  UNL d   1       1.623   0.282   0.531  0.00  0.00    -0.005 A 
ATOM      4  C3  UNL d   1       0.942  -0.313  -0.532  0.00  0.00     0.006 A 
ATOM      5  C4  UNL d   1       1.572  -0.474  -1.767  0.00  0.00    -0.005 A 
ATOM      6  C5  UNL d   1       2.888  -0.040  -1.950  0.00  0.00    -0.074 A 
ATOM      7  C6  UNL d   1       3.576  -0.196  -3.274  0.00  0.00     0.077 C 
ATOM      8  C7  UNL d   1       3.563   0.563  -0.879  0.00  0.00    -0.001 A 
ENDROOT
TORSDOF 0
ENDMDL
