MODEL 1
REMARK minimizedAffinity 6.82351065
REMARK minimizedRMSD -1
REMARK  0 active torsions:
REMARK  status: ('A' for Active; 'I' for Inactive)
ROOT
ATOM      1  C   UNL d   1      -0.826   0.906  -1.568  0.00  0.00     0.077 C 
ATOM      2  C1  UNL d   1       0.611   0.729  -1.174  0.00  0.00    -0.074 A 
ATOM      3  C2  UNL d   1       1.543   0.202  -2.074  0.00  0.00    -0.005 A 
ATOM      4  C3  UNL d   1       2.877   0.052  -1.696  0.00  0.00     0.006 A 
ATOM      5  C4  UNL d   1       3.292   0.427  -0.418  0.00  0.00    -0.005 A 
ATOM      6  C5  UNL d   1       2.375   0.957   0.495  0.00  0.00    -0.074 A 
ATOM      7  C6  UNL d   1       2.806   1.374   1.869  0.00  0.00     0.077 C 
ATOM      8  C7  UNL d   1       1.037   1.111   0.106  0.00  0.00    -0.001 A 
ENDROOT
TORSDOF 0
ENDMDL
