MODEL 1
REMARK minimizedAffinity 6.45952988
REMARK minimizedRMSD -1
REMARK  0 active torsions:
REMARK  status: ('A' for Active; 'I' for Inactive)
ROOT
ATOM      1  C   UNL d   1       2.586   0.451   0.645  0.00  0.00     0.077 C 
ATOM      2  C1  UNL d   1       1.375   0.536  -0.236  0.00  0.00    -0.074 A 
ATOM      3  C2  UNL d   1       0.702   1.748  -0.418  0.00  0.00    -0.005 A 
ATOM      4  C3  UNL d   1      -0.417   1.814  -1.248  0.00  0.00     0.006 A 
ATOM      5  C4  UNL d   1      -0.875   0.669  -1.902  0.00  0.00    -0.005 A 
ATOM      6  C5  UNL d   1      -0.214  -0.552  -1.733  0.00  0.00    -0.074 A 
ATOM      7  C6  UNL d   1      -0.686  -1.789  -2.436  0.00  0.00     0.077 C 
ATOM      8  C7  UNL d   1       0.914  -0.608  -0.903  0.00  0.00    -0.001 A 
ENDROOT
TORSDOF 0
ENDMDL
