MODEL 1
REMARK minimizedAffinity 1.87783408
REMARK minimizedRMSD -1
REMARK  0 active torsions:
REMARK  status: ('A' for Active; 'I' for Inactive)
ROOT
ATOM      1  C   UNL d   1      -1.262   4.056  -0.028  0.00  0.00     0.077 C 
ATOM      2  C1  UNL d   1      -0.684   2.688  -0.237  0.00  0.00    -0.074 A 
ATOM      3  C2  UNL d   1      -1.008   1.936  -1.371  0.00  0.00    -0.005 A 
ATOM      4  C3  UNL d   1      -0.454   0.669  -1.556  0.00  0.00     0.006 A 
ATOM      5  C4  UNL d   1       0.427   0.142  -0.611  0.00  0.00    -0.005 A 
ATOM      6  C5  UNL d   1       0.763   0.880   0.528  0.00  0.00    -0.074 A 
ATOM      7  C6  UNL d   1       1.717   0.332   1.548  0.00  0.00     0.077 C 
ATOM      8  C7  UNL d   1       0.209   2.155   0.704  0.00  0.00    -0.001 A 
ENDROOT
TORSDOF 0
ENDMDL
