MODEL 1
REMARK minimizedAffinity 10.6302834
REMARK minimizedRMSD -1
REMARK  0 active torsions:
REMARK  status: ('A' for Active; 'I' for Inactive)
ROOT
ATOM      1  C   UNL d   1       3.521   0.045   1.855  0.00  0.00     0.077 C 
ATOM      2  C1  UNL d   1       3.384   0.342   0.391  0.00  0.00    -0.074 A 
ATOM      3  C2  UNL d   1       2.312  -0.169  -0.349  0.00  0.00    -0.005 A 
ATOM      4  C3  UNL d   1       2.193   0.124  -1.707  0.00  0.00     0.006 A 
ATOM      5  C4  UNL d   1       3.142   0.928  -2.339  0.00  0.00    -0.005 A 
ATOM      6  C5  UNL d   1       4.220   1.448  -1.615  0.00  0.00    -0.074 A 
ATOM      7  C6  UNL d   1       5.243   2.323  -2.277  0.00  0.00     0.077 C 
ATOM      8  C7  UNL d   1       4.329   1.156  -0.249  0.00  0.00    -0.001 A 
ENDROOT
TORSDOF 0
ENDMDL
