MODEL 1
REMARK minimizedAffinity 13.5197659
REMARK minimizedRMSD -1
REMARK  0 active torsions:
REMARK  status: ('A' for Active; 'I' for Inactive)
ROOT
ATOM      1  C   UNL d   1       2.853   0.813   1.439  0.00  0.00    -0.002 A 
ATOM      2  C1  UNL d   1       2.539  -0.332   0.720  0.00  0.00     0.010 A 
ATOM      3  C2  UNL d   1       1.275  -0.916   0.831  0.00  0.00     0.041 A 
ATOM      4  C3  UNL d   1       0.323  -0.324   1.683  0.00  0.00    -0.075 A 
ATOM      5  S   UNL d   1      -1.288  -0.863   1.976  0.00  0.00     0.015 SA
ATOM      6  C4  UNL d   1      -1.598   0.414   3.062  0.00  0.00     0.022 A 
ATOM      7  C5  UNL d   1      -0.509   1.241   3.209  0.00  0.00     0.026 A 
ATOM      8  C6  UNL d   1       0.615   0.830   2.417  0.00  0.00    -0.082 A 
ATOM      9  C7  UNL d   1       1.905   1.398   2.283  0.00  0.00     0.045 A 
ENDROOT
TORSDOF 0
ENDMDL
