MODEL 1
REMARK minimizedAffinity 3.55838752
REMARK minimizedRMSD -1
REMARK  0 active torsions:
REMARK  status: ('A' for Active; 'I' for Inactive)
ROOT
ATOM      1  C   UNL d   1      -2.184  -2.325  -0.210  0.00  0.00    -0.002 A 
ATOM      2  C1  UNL d   1      -1.837  -2.329   1.133  0.00  0.00     0.010 A 
ATOM      3  C2  UNL d   1      -0.523  -2.590   1.526  0.00  0.00     0.041 A 
ATOM      4  C3  UNL d   1       0.446  -2.849   0.537  0.00  0.00    -0.075 A 
ATOM      5  S   UNL d   1       2.117  -3.194   0.784  0.00  0.00     0.015 SA
ATOM      6  C4  UNL d   1       2.410  -3.343  -0.889  0.00  0.00     0.022 A 
ATOM      7  C5  UNL d   1       1.272  -3.138  -1.632  0.00  0.00     0.026 A 
ATOM      8  C6  UNL d   1       0.121  -2.849  -0.822  0.00  0.00    -0.082 A 
ATOM      9  C7  UNL d   1      -1.220  -2.582  -1.189  0.00  0.00     0.045 A 
ENDROOT
TORSDOF 0
ENDMDL
