MODEL 1
REMARK minimizedAffinity 10.0803442
REMARK minimizedRMSD -1
REMARK  0 active torsions:
REMARK  status: ('A' for Active; 'I' for Inactive)
ROOT
ATOM      1  C   UNL d   1      -6.000  -1.864   2.424  0.00  0.00    -0.002 A 
ATOM      2  C1  UNL d   1      -6.000  -2.257   3.755  0.00  0.00     0.010 A 
ATOM      3  C2  UNL d   1      -4.813  -2.277   4.490  0.00  0.00     0.041 A 
ATOM      4  C3  UNL d   1      -3.614  -1.890   3.859  0.00  0.00    -0.075 A 
ATOM      5  S   UNL d   1      -2.041  -1.835   4.561  0.00  0.00     0.015 SA
ATOM      6  C4  UNL d   1      -1.331  -1.288   3.112  0.00  0.00     0.022 A 
ATOM      7  C5  UNL d   1      -2.257  -1.146   2.106  0.00  0.00     0.026 A 
ATOM      8  C6  UNL d   1      -3.589  -1.490   2.520  0.00  0.00    -0.082 A 
ATOM      9  C7  UNL d   1      -4.808  -1.481   1.802  0.00  0.00     0.045 A 
ENDROOT
TORSDOF 0
ENDMDL
