MODEL 1
REMARK minimizedAffinity 15.0098295
REMARK minimizedRMSD -1
REMARK  0 active torsions:
REMARK  status: ('A' for Active; 'I' for Inactive)
ROOT
ATOM      1  C   UNL d   1      -5.999   1.545   0.469  0.00  0.00    -0.002 A 
ATOM      2  C1  UNL d   1      -5.150   2.642   0.475  0.00  0.00     0.010 A 
ATOM      3  C2  UNL d   1      -3.803   2.497   0.816  0.00  0.00     0.041 A 
ATOM      4  C3  UNL d   1      -3.320   1.217   1.152  0.00  0.00    -0.075 A 
ATOM      5  S   UNL d   1      -1.708   0.800   1.601  0.00  0.00     0.015 SA
ATOM      6  C4  UNL d   1      -2.109  -0.845   1.794  0.00  0.00     0.022 A 
ATOM      7  C5  UNL d   1      -3.435  -1.088   1.527  0.00  0.00     0.026 A 
ATOM      8  C6  UNL d   1      -4.155   0.096   1.152  0.00  0.00    -0.082 A 
ATOM      9  C7  UNL d   1      -5.515   0.277   0.803  0.00  0.00     0.045 A 
ENDROOT
TORSDOF 0
ENDMDL
