MODEL 1
REMARK minimizedAffinity 8.68700218
REMARK minimizedRMSD -1
REMARK  0 active torsions:
REMARK  status: ('A' for Active; 'I' for Inactive)
ROOT
ATOM      1  C   UNL d   1      -2.997  -3.178   0.099  0.00  0.00    -0.002 A 
ATOM      2  C1  UNL d   1      -3.423  -4.498   0.059  0.00  0.00     0.010 A 
ATOM      3  C2  UNL d   1      -2.908  -5.437   0.954  0.00  0.00     0.041 A 
ATOM      4  C3  UNL d   1      -1.951  -5.023   1.901  0.00  0.00    -0.075 A 
ATOM      5  S   UNL d   1      -1.182  -5.999   3.097  0.00  0.00     0.015 SA
ATOM      6  C4  UNL d   1      -0.272  -4.686   3.690  0.00  0.00     0.022 A 
ATOM      7  C5  UNL d   1      -0.535  -3.524   3.004  0.00  0.00     0.026 A 
ATOM      8  C6  UNL d   1      -1.507  -3.699   1.962  0.00  0.00    -0.082 A 
ATOM      9  C7  UNL d   1      -2.047  -2.771   1.040  0.00  0.00     0.045 A 
ENDROOT
TORSDOF 0
ENDMDL
