MODEL 1
REMARK minimizedAffinity 23.4569111
REMARK minimizedRMSD -1
REMARK  0 active torsions:
REMARK  status: ('A' for Active; 'I' for Inactive)
ROOT
ATOM      1  C   UNL d   1       3.436   5.261   5.965  0.00  0.00    -0.002 A 
ATOM      2  C1  UNL d   1       2.866   4.003   5.831  0.00  0.00     0.010 A 
ATOM      3  C2  UNL d   1       2.703   3.428   4.569  0.00  0.00     0.041 A 
ATOM      4  C3  UNL d   1       3.131   4.144   3.433  0.00  0.00    -0.075 A 
ATOM      5  S   UNL d   1       3.033   3.637   1.788  0.00  0.00     0.015 SA
ATOM      6  C4  UNL d   1       3.749   5.078   1.225  0.00  0.00     0.022 A 
ATOM      7  C5  UNL d   1       4.060   5.936   2.253  0.00  0.00     0.026 A 
ATOM      8  C6  UNL d   1       3.709   5.411   3.543  0.00  0.00    -0.082 A 
ATOM      9  C7  UNL d   1       3.859   5.968   4.836  0.00  0.00     0.045 A 
ENDROOT
TORSDOF 0
ENDMDL
