MODEL 1
REMARK minimizedAffinity 12.0431967
REMARK minimizedRMSD -1
REMARK  0 active torsions:
REMARK  status: ('A' for Active; 'I' for Inactive)
ROOT
ATOM      1  C   UNL d   1       0.035  -6.000   4.239  0.00  0.00    -0.002 A 
ATOM      2  C1  UNL d   1       1.145  -5.345   4.754  0.00  0.00     0.010 A 
ATOM      3  C2  UNL d   1       1.743  -4.299   4.049  0.00  0.00     0.041 A 
ATOM      4  C3  UNL d   1       1.200  -3.917   2.806  0.00  0.00    -0.075 A 
ATOM      5  S   UNL d   1       1.765  -2.663   1.766  0.00  0.00     0.015 SA
ATOM      6  C4  UNL d   1       0.545  -2.966   0.615  0.00  0.00     0.022 A 
ATOM      7  C5  UNL d   1      -0.281  -3.996   0.998  0.00  0.00     0.026 A 
ATOM      8  C6  UNL d   1       0.082  -4.560   2.268  0.00  0.00    -0.082 A 
ATOM      9  C7  UNL d   1      -0.501  -5.618   3.007  0.00  0.00     0.045 A 
ENDROOT
TORSDOF 0
ENDMDL
