MODEL 1
REMARK minimizedAffinity 12.1782598
REMARK minimizedRMSD -1
REMARK  0 active torsions:
REMARK  status: ('A' for Active; 'I' for Inactive)
ROOT
ATOM      1  C   UNL d   1       2.541   1.920  -5.253  0.00  0.00    -0.002 A 
ATOM      2  C1  UNL d   1       2.253   1.522  -3.955  0.00  0.00     0.010 A 
ATOM      3  C2  UNL d   1       1.019   1.826  -3.376  0.00  0.00     0.041 A 
ATOM      4  C3  UNL d   1       0.070   2.542  -4.131  0.00  0.00    -0.075 A 
ATOM      5  S   UNL d   1      -1.508   3.025  -3.630  0.00  0.00     0.015 SA
ATOM      6  C4  UNL d   1      -1.837   3.770  -5.127  0.00  0.00     0.022 A 
ATOM      7  C5  UNL d   1      -0.780   3.662  -6.000  0.00  0.00     0.026 A 
ATOM      8  C6  UNL d   1       0.336   2.952  -5.441  0.00  0.00    -0.082 A 
ATOM      9  C7  UNL d   1       1.596   2.630  -5.999  0.00  0.00     0.045 A 
ENDROOT
TORSDOF 0
ENDMDL
