MODEL 1
REMARK minimizedAffinity 10.7579975
REMARK minimizedRMSD -1
REMARK  0 active torsions:
REMARK  status: ('A' for Active; 'I' for Inactive)
ROOT
ATOM      1  C   UNL d   1       1.253   2.729  -5.452  0.00  0.00    -0.002 A 
ATOM      2  C1  UNL d   1       1.319   2.168  -4.185  0.00  0.00     0.010 A 
ATOM      3  C2  UNL d   1       0.157   1.961  -3.438  0.00  0.00     0.041 A 
ATOM      4  C3  UNL d   1      -1.084   2.329  -3.993  0.00  0.00    -0.075 A 
ATOM      5  S   UNL d   1      -2.638   2.169  -3.263  0.00  0.00     0.015 SA
ATOM      6  C4  UNL d   1      -3.426   2.840  -4.617  0.00  0.00     0.022 A 
ATOM      7  C5  UNL d   1      -2.541   3.184  -5.611  0.00  0.00     0.026 A 
ATOM      8  C6  UNL d   1      -1.176   2.895  -5.268  0.00  0.00    -0.082 A 
ATOM      9  C7  UNL d   1       0.019   3.093  -5.999  0.00  0.00     0.045 A 
ENDROOT
TORSDOF 0
ENDMDL
