MODEL 1
REMARK minimizedAffinity 4.61587858
REMARK minimizedRMSD -1
REMARK  0 active torsions:
REMARK  status: ('A' for Active; 'I' for Inactive)
ROOT
ATOM      1  C   UNL d   1      -4.592   1.198   1.222  0.00  0.00    -0.002 A 
ATOM      2  C1  UNL d   1      -3.757   2.268   1.511  0.00  0.00     0.010 A 
ATOM      3  C2  UNL d   1      -2.394   2.064   1.739  0.00  0.00     0.041 A 
ATOM      4  C3  UNL d   1      -1.880   0.755   1.669  0.00  0.00    -0.075 A 
ATOM      5  S   UNL d   1      -0.245   0.266   1.912  0.00  0.00     0.015 SA
ATOM      6  C4  UNL d   1      -0.616  -1.375   1.636  0.00  0.00     0.022 A 
ATOM      7  C5  UNL d   1      -1.951  -1.563   1.365  0.00  0.00     0.026 A 
ATOM      8  C6  UNL d   1      -2.701  -0.339   1.379  0.00  0.00    -0.082 A 
ATOM      9  C7  UNL d   1      -4.078  -0.099   1.153  0.00  0.00     0.045 A 
ENDROOT
TORSDOF 0
ENDMDL
