MODEL 1
REMARK minimizedAffinity -1.0965519
REMARK minimizedRMSD -1
REMARK  0 active torsions:
REMARK  status: ('A' for Active; 'I' for Inactive)
ROOT
ATOM      1  C   UNL d   1      -1.053   1.757  -0.463  0.00  0.00    -0.002 A 
ATOM      2  C1  UNL d   1      -0.774   0.888   0.582  0.00  0.00     0.010 A 
ATOM      3  C2  UNL d   1      -1.802   0.401   1.393  0.00  0.00     0.041 A 
ATOM      4  C3  UNL d   1      -3.126   0.803   1.131  0.00  0.00    -0.075 A 
ATOM      5  S   UNL d   1      -4.544   0.333   1.991  0.00  0.00     0.015 SA
ATOM      6  C4  UNL d   1      -5.553   1.274   0.990  0.00  0.00     0.022 A 
ATOM      7  C5  UNL d   1      -4.842   1.937   0.018  0.00  0.00     0.026 A 
ATOM      8  C6  UNL d   1      -3.431   1.676   0.083  0.00  0.00    -0.082 A 
ATOM      9  C7  UNL d   1      -2.368   2.154  -0.720  0.00  0.00     0.045 A 
ENDROOT
TORSDOF 0
ENDMDL
