MODEL 1
REMARK minimizedAffinity -4.90482283
REMARK minimizedRMSD -1
REMARK  1 active torsions:
REMARK  status: ('A' for Active; 'I' for Inactive)
REMARK    1  A    between atoms: C1_2  and  C2_3 
ROOT
ATOM      1  C2  UNL d   1      -1.352  -0.016   0.766  0.00  0.00    -0.073 A 
ATOM      2  C3  UNL d   1      -0.378  -0.949   0.392  0.00  0.00    -0.002 A 
ATOM      3  C4  UNL d   1       0.853  -0.521  -0.105  0.00  0.00     0.004 A 
ATOM      4  C5  UNL d   1       1.126   0.841  -0.228  0.00  0.00    -0.004 A 
ATOM      5  C6  UNL d   1       0.170   1.789   0.151  0.00  0.00    -0.075 A 
ATOM      6  C7  UNL d   1       0.447   3.258   0.023  0.00  0.00     0.076 C 
ATOM      7  C8  UNL d   1      -1.065   1.352   0.647  0.00  0.00     0.001 A 
ENDROOT
BRANCH   1   8
ATOM      8  C1  UNL d   1      -2.681  -0.472   1.310  0.00  0.00     0.053 C 
ATOM      9  C   UNL d   1      -2.880  -0.051   2.757  0.00  0.00     0.018 C 
ENDBRANCH   1   8
TORSDOF 1
ENDMDL
