MODEL 1
REMARK minimizedAffinity -4.85098696
REMARK minimizedRMSD -1
REMARK  1 active torsions:
REMARK  status: ('A' for Active; 'I' for Inactive)
REMARK    1  A    between atoms: C1_2  and  C2_3 
ROOT
ATOM      1  C2  UNL d   1      -0.108  -1.227  -0.033  0.00  0.00    -0.073 A 
ATOM      2  C3  UNL d   1       1.259  -1.139   0.256  0.00  0.00    -0.002 A 
ATOM      3  C4  UNL d   1       1.838   0.094   0.556  0.00  0.00     0.004 A 
ATOM      4  C5  UNL d   1       1.057   1.250   0.579  0.00  0.00    -0.004 A 
ATOM      5  C6  UNL d   1      -0.313   1.181   0.305  0.00  0.00    -0.075 A 
ATOM      6  C7  UNL d   1      -1.166   2.415   0.323  0.00  0.00     0.076 C 
ATOM      7  C8  UNL d   1      -0.887  -0.061   0.001  0.00  0.00     0.001 A 
ENDROOT
BRANCH   1   8
ATOM      8  C1  UNL d   1      -0.739  -2.558  -0.351  0.00  0.00     0.053 C 
ATOM      9  C   UNL d   1      -0.324  -3.072  -1.721  0.00  0.00     0.018 C 
ENDBRANCH   1   8
TORSDOF 1
ENDMDL
