MODEL 1
REMARK minimizedAffinity -2.01599479
REMARK minimizedRMSD -1
REMARK  1 active torsions:
REMARK  status: ('A' for Active; 'I' for Inactive)
REMARK    1  A    between atoms: C1_2  and  C2_3 
ROOT
ATOM      1  C2  UNL d   1       0.329  -0.857  -0.311  0.00  0.00    -0.073 A 
ATOM      2  C3  UNL d   1       1.682  -1.111  -0.061  0.00  0.00    -0.002 A 
ATOM      3  C4  UNL d   1       2.555  -0.062   0.226  0.00  0.00     0.004 A 
ATOM      4  C5  UNL d   1       2.085   1.251   0.272  0.00  0.00    -0.004 A 
ATOM      5  C6  UNL d   1       0.734   1.524   0.036  0.00  0.00    -0.075 A 
ATOM      6  C7  UNL d   1       0.212   2.930   0.080  0.00  0.00     0.076 C 
ATOM      7  C8  UNL d   1      -0.137   0.465  -0.254  0.00  0.00     0.001 A 
ENDROOT
BRANCH   1   8
ATOM      8  C1  UNL d   1      -0.620  -1.988  -0.615  0.00  0.00     0.053 C 
ATOM      9  C   UNL d   1       0.101  -3.197  -1.189  0.00  0.00     0.018 C 
ENDBRANCH   1   8
TORSDOF 1
ENDMDL
