MODEL 1
REMARK minimizedAffinity -2.31749678
REMARK minimizedRMSD -1
REMARK  1 active torsions:
REMARK  status: ('A' for Active; 'I' for Inactive)
REMARK    1  A    between atoms: C1_2  and  C2_3 
ROOT
ATOM      1  C2  UNL d   1       0.084  -1.975  -1.122  0.00  0.00    -0.073 A 
ATOM      2  C3  UNL d   1      -0.779  -2.313  -0.073  0.00  0.00    -0.002 A 
ATOM      3  C4  UNL d   1      -0.941  -1.449   1.011  0.00  0.00     0.004 A 
ATOM      4  C5  UNL d   1      -0.250  -0.238   1.054  0.00  0.00    -0.004 A 
ATOM      5  C6  UNL d   1       0.608   0.122   0.009  0.00  0.00    -0.075 A 
ATOM      6  C7  UNL d   1       1.361   1.419   0.041  0.00  0.00     0.076 C 
ATOM      7  C8  UNL d   1       0.768  -0.752  -1.075  0.00  0.00     0.001 A 
ENDROOT
BRANCH   1   8
ATOM      8  C1  UNL d   1       0.257  -2.902  -2.298  0.00  0.00     0.053 C 
ATOM      9  C   UNL d   1      -0.967  -3.774  -2.522  0.00  0.00     0.018 C 
ENDBRANCH   1   8
TORSDOF 1
ENDMDL
