MODEL 1
REMARK minimizedAffinity -5.24480724
REMARK minimizedRMSD -1
REMARK  1 active torsions:
REMARK  status: ('A' for Active; 'I' for Inactive)
REMARK    1  A    between atoms: C1_2  and  C2_3 
ROOT
ATOM      1  C2  UNL d   1       0.016  -0.623  -0.239  0.00  0.00    -0.073 A 
ATOM      2  C3  UNL d   1      -1.349  -0.770   0.031  0.00  0.00    -0.002 A 
ATOM      3  C4  UNL d   1      -2.157   0.353   0.215  0.00  0.00     0.004 A 
ATOM      4  C5  UNL d   1      -1.610   1.633   0.124  0.00  0.00    -0.004 A 
ATOM      5  C6  UNL d   1      -0.251   1.801  -0.157  0.00  0.00    -0.075 A 
ATOM      6  C7  UNL d   1       0.353   3.172  -0.256  0.00  0.00     0.076 C 
ATOM      7  C8  UNL d   1       0.554   0.669  -0.338  0.00  0.00     0.001 A 
ENDROOT
BRANCH   1   8
ATOM      8  C1  UNL d   1       0.891  -1.832  -0.445  0.00  0.00     0.053 C 
ATOM      9  C   UNL d   1       0.395  -2.707  -1.585  0.00  0.00     0.018 C 
ENDBRANCH   1   8
TORSDOF 1
ENDMDL
