MODEL 1
REMARK minimizedAffinity -3.01045728
REMARK minimizedRMSD -1
REMARK  1 active torsions:
REMARK  status: ('A' for Active; 'I' for Inactive)
REMARK    1  A    between atoms: C1_2  and  C2_3 
ROOT
ATOM      1  C2  UNL d   1      -0.093  -0.273   0.190  0.00  0.00    -0.073 A 
ATOM      2  C3  UNL d   1      -1.362  -0.273   0.779  0.00  0.00    -0.002 A 
ATOM      3  C4  UNL d   1      -2.002   0.931   1.075  0.00  0.00     0.004 A 
ATOM      4  C5  UNL d   1      -1.383   2.146   0.780  0.00  0.00    -0.004 A 
ATOM      5  C6  UNL d   1      -0.119   2.166   0.181  0.00  0.00    -0.075 A 
ATOM      6  C7  UNL d   1       0.561   3.465  -0.141  0.00  0.00     0.076 C 
ATOM      7  C8  UNL d   1       0.518   0.953  -0.111  0.00  0.00     0.001 A 
ENDROOT
BRANCH   1   8
ATOM      8  C1  UNL d   1       0.599  -1.571  -0.137  0.00  0.00     0.053 C 
ATOM      9  C   UNL d   1      -0.373  -2.622  -0.651  0.00  0.00     0.018 C 
ENDBRANCH   1   8
TORSDOF 1
ENDMDL
