MODEL 1
REMARK minimizedAffinity -3.72965097
REMARK minimizedRMSD -1
REMARK  1 active torsions:
REMARK  status: ('A' for Active; 'I' for Inactive)
REMARK    1  A    between atoms: C1_2  and  C2_3 
ROOT
ATOM      1  C2  UNL d   1      -0.033  -1.221  -1.003  0.00  0.00    -0.073 A 
ATOM      2  C3  UNL d   1      -0.745  -1.326   0.198  0.00  0.00    -0.002 A 
ATOM      3  C4  UNL d   1      -0.739  -0.275   1.115  0.00  0.00     0.004 A 
ATOM      4  C5  UNL d   1      -0.028   0.893   0.839  0.00  0.00    -0.004 A 
ATOM      5  C6  UNL d   1       0.680   1.022  -0.360  0.00  0.00    -0.075 A 
ATOM      6  C7  UNL d   1       1.451   2.271  -0.670  0.00  0.00     0.076 C 
ATOM      7  C8  UNL d   1       0.671  -0.040  -1.275  0.00  0.00     0.001 A 
ENDROOT
BRANCH   1   8
ATOM      8  C1  UNL d   1      -0.041  -2.352  -1.999  0.00  0.00     0.053 C 
ATOM      9  C   UNL d   1      -1.069  -3.415  -1.646  0.00  0.00     0.018 C 
ENDBRANCH   1   8
TORSDOF 1
ENDMDL
