MODEL 1
REMARK minimizedAffinity -4.56188202
REMARK minimizedRMSD -1
REMARK  1 active torsions:
REMARK  status: ('A' for Active; 'I' for Inactive)
REMARK    1  A    between atoms: C1_2  and  C2_3 
ROOT
ATOM      1  C2  UNL d   1       0.293  -0.334   0.191  0.00  0.00    -0.073 A 
ATOM      2  C3  UNL d   1      -1.072  -0.386   0.498  0.00  0.00    -0.002 A 
ATOM      3  C4  UNL d   1      -1.806   0.791   0.648  0.00  0.00     0.004 A 
ATOM      4  C5  UNL d   1      -1.187   2.030   0.487  0.00  0.00    -0.004 A 
ATOM      5  C6  UNL d   1       0.173   2.103   0.169  0.00  0.00    -0.075 A 
ATOM      6  C7  UNL d   1       0.854   3.429  -0.006  0.00  0.00     0.076 C 
ATOM      7  C8  UNL d   1       0.904   0.917   0.022  0.00  0.00     0.001 A 
ENDROOT
BRANCH   1   8
ATOM      8  C1  UNL d   1       1.089  -1.602   0.022  0.00  0.00     0.053 C 
ATOM      9  C   UNL d   1       0.246  -2.731  -0.551  0.00  0.00     0.018 C 
ENDBRANCH   1   8
TORSDOF 1
ENDMDL
