MODEL 1
REMARK minimizedAffinity -2.69595933
REMARK minimizedRMSD -1
REMARK  1 active torsions:
REMARK  status: ('A' for Active; 'I' for Inactive)
REMARK    1  A    between atoms: C1_2  and  C2_3 
ROOT
ATOM      1  C2  UNL d   1       0.997   0.128   0.399  0.00  0.00    -0.073 A 
ATOM      2  C3  UNL d   1      -0.212  -0.439   0.820  0.00  0.00    -0.002 A 
ATOM      3  C4  UNL d   1      -1.413   0.249   0.644  0.00  0.00     0.004 A 
ATOM      4  C5  UNL d   1      -1.419   1.507   0.041  0.00  0.00    -0.004 A 
ATOM      5  C6  UNL d   1      -0.223   2.086  -0.397  0.00  0.00    -0.075 A 
ATOM      6  C7  UNL d   1      -0.213   3.439  -1.046  0.00  0.00     0.076 C 
ATOM      7  C8  UNL d   1       0.979   1.389  -0.214  0.00  0.00     0.001 A 
ENDROOT
BRANCH   1   8
ATOM      8  C1  UNL d   1       2.295  -0.614   0.581  0.00  0.00     0.053 C 
ATOM      9  C   UNL d   1       3.450   0.325   0.892  0.00  0.00     0.018 C 
ENDBRANCH   1   8
TORSDOF 1
ENDMDL
