MODEL 1
REMARK minimizedAffinity -4.09394455
REMARK minimizedRMSD -1
REMARK  1 active torsions:
REMARK  status: ('A' for Active; 'I' for Inactive)
REMARK    1  A    between atoms: C1_2  and  C2_3 
ROOT
ATOM      1  C2  UNL d   1      -0.486  -0.459   0.282  0.00  0.00    -0.073 A 
ATOM      2  C3  UNL d   1      -1.446   0.539   0.483  0.00  0.00    -0.002 A 
ATOM      3  C4  UNL d   1      -1.055   1.861   0.699  0.00  0.00     0.004 A 
ATOM      4  C5  UNL d   1       0.299   2.199   0.710  0.00  0.00    -0.004 A 
ATOM      5  C6  UNL d   1       1.273   1.218   0.499  0.00  0.00    -0.075 A 
ATOM      6  C7  UNL d   1       2.732   1.565   0.510  0.00  0.00     0.076 C 
ATOM      7  C8  UNL d   1       0.871  -0.108   0.285  0.00  0.00     0.001 A 
ENDROOT
BRANCH   1   8
ATOM      8  C1  UNL d   1      -0.905  -1.887   0.041  0.00  0.00     0.053 C 
ATOM      9  C   UNL d   1      -0.331  -2.439  -1.254  0.00  0.00     0.018 C 
ENDBRANCH   1   8
TORSDOF 1
ENDMDL
