MODEL 1
REMARK minimizedAffinity -1.48155344
REMARK minimizedRMSD -1
REMARK  2 active torsions:
REMARK  status: ('A' for Active; 'I' for Inactive)
REMARK    1  A    between atoms: C2'_3  and  C1'_4 
REMARK    2  A    between atoms: C1'_4  and  C1_5 
ROOT
ATOM      1  C1  I4B d   1      -1.391  -3.214  -2.787  0.00  0.00    -0.075 A 
ATOM      2  C2  I4B d   1      -1.933  -1.988  -2.490  0.00  0.00     0.003 A 
ATOM      3  C3  I4B d   1      -1.611  -1.342  -1.272  0.00  0.00     0.002 A 
ATOM      4  C4  I4B d   1      -0.787  -1.976  -0.364  0.00  0.00    -0.004 A 
ATOM      5  C5  I4B d   1      -0.220  -3.208  -0.677  0.00  0.00     0.002 A 
ATOM      6  C6  I4B d   1      -0.514  -3.826  -1.901  0.00  0.00     0.003 A 
ENDROOT
BRANCH   1   7
ATOM      7  C1' I4B d   1      -1.779  -3.882  -4.068  0.00  0.00     0.060 C 
BRANCH   7   8
ATOM      8  C2' I4B d   1      -1.802  -2.828  -5.156  0.00  0.00    -0.013 C 
ATOM      9  C4' I4B d   1      -0.550  -2.880  -5.992  0.00  0.00     0.013 C 
ATOM     10  C3' I4B d   1      -3.023  -3.057  -5.996  0.00  0.00     0.013 C 
ENDBRANCH   7   8
ENDBRANCH   1   7
TORSDOF 2
ENDMDL
