MODEL 1
REMARK minimizedAffinity 3.12285233
REMARK minimizedRMSD -1
REMARK  2 active torsions:
REMARK  status: ('A' for Active; 'I' for Inactive)
REMARK    1  A    between atoms: C2'_3  and  C1'_4 
REMARK    2  A    between atoms: C1'_4  and  C1_5 
ROOT
ATOM      1  C1  I4B d   1      -1.690  -2.654  -1.572  0.00  0.00    -0.075 A 
ATOM      2  C2  I4B d   1      -0.625  -3.447  -1.222  0.00  0.00     0.003 A 
ATOM      3  C3  I4B d   1      -0.347  -3.706   0.142  0.00  0.00     0.002 A 
ATOM      4  C4  I4B d   1      -1.124  -3.116   1.118  0.00  0.00    -0.004 A 
ATOM      5  C5  I4B d   1      -2.217  -2.331   0.761  0.00  0.00     0.002 A 
ATOM      6  C6  I4B d   1      -2.509  -2.109  -0.592  0.00  0.00     0.003 A 
ENDROOT
BRANCH   1   7
ATOM      7  C1' I4B d   1      -1.935  -2.374  -3.021  0.00  0.00     0.060 C 
BRANCH   7   8
ATOM      8  C2' I4B d   1      -2.026  -3.703  -3.744  0.00  0.00    -0.013 C 
ATOM      9  C4' I4B d   1      -3.282  -4.443  -3.368  0.00  0.00     0.013 C 
ATOM     10  C3' I4B d   1      -1.978  -3.431  -5.218  0.00  0.00     0.013 C 
ENDBRANCH   7   8
ENDBRANCH   1   7
TORSDOF 2
ENDMDL
