MODEL 1
REMARK minimizedAffinity 10.6379051
REMARK minimizedRMSD -1
REMARK  2 active torsions:
REMARK  status: ('A' for Active; 'I' for Inactive)
REMARK    1  A    between atoms: C2'_3  and  C1'_4 
REMARK    2  A    between atoms: C1'_4  and  C1_5 
ROOT
ATOM      1  C1  I4B d   1      -1.348  -2.845   0.726  0.00  0.00    -0.075 A 
ATOM      2  C2  I4B d   1      -0.583  -3.669  -0.061  0.00  0.00     0.003 A 
ATOM      3  C3  I4B d   1      -0.798  -3.722  -1.460  0.00  0.00     0.002 A 
ATOM      4  C4  I4B d   1      -1.816  -2.977  -2.019  0.00  0.00    -0.004 A 
ATOM      5  C5  I4B d   1      -2.576  -2.124  -1.223  0.00  0.00     0.002 A 
ATOM      6  C6  I4B d   1      -2.333  -2.049   0.157  0.00  0.00     0.003 A 
ENDROOT
BRANCH   1   7
ATOM      7  C1' I4B d   1      -1.115  -2.839   2.203  0.00  0.00     0.060 C 
BRANCH   7   8
ATOM      8  C2' I4B d   1      -2.466  -2.831   2.889  0.00  0.00    -0.013 C 
ATOM      9  C4' I4B d   1      -2.654  -4.059   3.739  0.00  0.00     0.013 C 
ATOM     10  C3' I4B d   1      -2.559  -1.582   3.714  0.00  0.00     0.013 C 
ENDBRANCH   7   8
ENDBRANCH   1   7
TORSDOF 2
ENDMDL
