MODEL 1
REMARK minimizedAffinity 5.89961529
REMARK minimizedRMSD -1
REMARK  2 active torsions:
REMARK  status: ('A' for Active; 'I' for Inactive)
REMARK    1  A    between atoms: C2'_3  and  C1'_4 
REMARK    2  A    between atoms: C1'_4  and  C1_5 
ROOT
ATOM      1  C1  I4B d   1       2.158   2.059   1.670  0.00  0.00    -0.075 A 
ATOM      2  C2  I4B d   1       2.489   2.270   0.354  0.00  0.00     0.003 A 
ATOM      3  C3  I4B d   1       3.512   1.504  -0.255  0.00  0.00     0.002 A 
ATOM      4  C4  I4B d   1       4.208   0.580   0.497  0.00  0.00    -0.004 A 
ATOM      5  C5  I4B d   1       3.856   0.351   1.824  0.00  0.00     0.002 A 
ATOM      6  C6  I4B d   1       2.816   1.087   2.411  0.00  0.00     0.003 A 
ENDROOT
BRANCH   1   7
ATOM      7  C1' I4B d   1       1.094   2.908   2.290  0.00  0.00     0.060 C 
BRANCH   7   8
ATOM      8  C2' I4B d   1       0.932   4.150   1.438  0.00  0.00    -0.013 C 
ATOM      9  C4' I4B d   1      -0.522   4.451   1.183  0.00  0.00     0.013 C 
ATOM     10  C3' I4B d   1       1.605   5.289   2.145  0.00  0.00     0.013 C 
ENDBRANCH   7   8
ENDBRANCH   1   7
TORSDOF 2
ENDMDL
