MODEL 1
REMARK minimizedAffinity 11.0605297
REMARK minimizedRMSD -1
REMARK  2 active torsions:
REMARK  status: ('A' for Active; 'I' for Inactive)
REMARK    1  A    between atoms: C2'_3  and  C1'_4 
REMARK    2  A    between atoms: C1'_4  and  C1_5 
ROOT
ATOM      1  C1  I4B d   1       3.096   0.489  -5.371  0.00  0.00    -0.075 A 
ATOM      2  C2  I4B d   1       2.637  -0.777  -5.638  0.00  0.00     0.003 A 
ATOM      3  C3  I4B d   1       3.304  -1.904  -5.100  0.00  0.00     0.002 A 
ATOM      4  C4  I4B d   1       4.446  -1.724  -4.347  0.00  0.00    -0.004 A 
ATOM      5  C5  I4B d   1       4.896  -0.439  -4.058  0.00  0.00     0.002 A 
ATOM      6  C6  I4B d   1       4.210   0.676  -4.563  0.00  0.00     0.003 A 
ENDROOT
BRANCH   1   7
ATOM      7  C1' I4B d   1       2.388   1.656  -5.982  0.00  0.00     0.060 C 
BRANCH   7   8
ATOM      8  C2' I4B d   1       2.689   2.879  -5.140  0.00  0.00    -0.013 C 
ATOM      9  C4' I4B d   1       2.812   4.113  -5.994  0.00  0.00     0.013 C 
ATOM     10  C3' I4B d   1       1.591   3.027  -4.129  0.00  0.00     0.013 C 
ENDBRANCH   7   8
ENDBRANCH   1   7
TORSDOF 2
ENDMDL
