MODEL 1
REMARK minimizedAffinity 11.7918606
REMARK minimizedRMSD -1
REMARK  2 active torsions:
REMARK  status: ('A' for Active; 'I' for Inactive)
REMARK    1  A    between atoms: C2'_3  and  C1'_4 
REMARK    2  A    between atoms: C1'_4  and  C1_5 
ROOT
ATOM      1  C1  I4B d   1      -1.472  -1.190   2.101  0.00  0.00    -0.075 A 
ATOM      2  C2  I4B d   1      -2.451  -0.667   1.293  0.00  0.00     0.003 A 
ATOM      3  C3  I4B d   1      -2.433  -0.916  -0.101  0.00  0.00     0.002 A 
ATOM      4  C4  I4B d   1      -1.398  -1.646  -0.647  0.00  0.00    -0.004 A 
ATOM      5  C5  I4B d   1      -0.419  -2.195   0.176  0.00  0.00     0.002 A 
ATOM      6  C6  I4B d   1      -0.463  -1.976   1.561  0.00  0.00     0.003 A 
ENDROOT
BRANCH   1   7
ATOM      7  C1' I4B d   1      -1.504  -0.879   3.564  0.00  0.00     0.060 C 
BRANCH   7   8
ATOM      8  C2' I4B d   1      -0.364   0.074   3.863  0.00  0.00    -0.013 C 
ATOM      9  C4' I4B d   1      -0.627   1.438   3.282  0.00  0.00     0.013 C 
ATOM     10  C3' I4B d   1      -0.196   0.142   5.352  0.00  0.00     0.013 C 
ENDBRANCH   7   8
ENDBRANCH   1   7
TORSDOF 2
ENDMDL
