MODEL 1
REMARK minimizedAffinity 4.06757116
REMARK minimizedRMSD -1
REMARK  2 active torsions:
REMARK  status: ('A' for Active; 'I' for Inactive)
REMARK    1  A    between atoms: C2'_3  and  C1'_4 
REMARK    2  A    between atoms: C1'_4  and  C1_5 
ROOT
ATOM      1  C1  I4B d   1      -3.188  -3.101  -2.769  0.00  0.00    -0.075 A 
ATOM      2  C2  I4B d   1      -4.338  -3.451  -2.106  0.00  0.00     0.003 A 
ATOM      3  C3  I4B d   1      -4.651  -2.857  -0.860  0.00  0.00     0.002 A 
ATOM      4  C4  I4B d   1      -3.768  -1.961  -0.292  0.00  0.00    -0.004 A 
ATOM      5  C5  I4B d   1      -2.614  -1.590  -0.977  0.00  0.00     0.002 A 
ATOM      6  C6  I4B d   1      -2.328  -2.154  -2.228  0.00  0.00     0.003 A 
ENDROOT
BRANCH   1   7
ATOM      7  C1' I4B d   1      -2.872  -3.772  -4.068  0.00  0.00     0.060 C 
BRANCH   7   8
ATOM      8  C2' I4B d   1      -2.939  -2.727  -5.162  0.00  0.00    -0.013 C 
ATOM      9  C4' I4B d   1      -1.686  -2.732  -5.998  0.00  0.00     0.013 C 
ATOM     10  C3' I4B d   1      -4.150  -3.010  -6.000  0.00  0.00     0.013 C 
ENDBRANCH   7   8
ENDBRANCH   1   7
TORSDOF 2
ENDMDL
