MODEL 1
REMARK minimizedAffinity 5.54935026
REMARK minimizedRMSD -1
REMARK  2 active torsions:
REMARK  status: ('A' for Active; 'I' for Inactive)
REMARK    1  A    between atoms: C2'_3  and  C1'_4 
REMARK    2  A    between atoms: C1'_4  and  C1_5 
ROOT
ATOM      1  C1  I4B d   1      -1.866  -2.882  -2.786  0.00  0.00    -0.075 A 
ATOM      2  C2  I4B d   1      -0.983  -3.616  -2.035  0.00  0.00     0.003 A 
ATOM      3  C3  I4B d   1      -0.463  -3.088  -0.828  0.00  0.00     0.002 A 
ATOM      4  C4  I4B d   1      -0.812  -1.810  -0.439  0.00  0.00    -0.004 A 
ATOM      5  C5  I4B d   1      -1.726  -1.077  -1.191  0.00  0.00     0.002 A 
ATOM      6  C6  I4B d   1      -2.266  -1.620  -2.365  0.00  0.00     0.003 A 
ENDROOT
BRANCH   1   7
ATOM      7  C1' I4B d   1      -2.370  -3.456  -4.072  0.00  0.00     0.060 C 
BRANCH   7   8
ATOM      8  C2' I4B d   1      -2.160  -2.423  -5.160  0.00  0.00    -0.013 C 
ATOM      9  C4' I4B d   1      -0.951  -2.750  -5.996  0.00  0.00     0.013 C 
ATOM     10  C3' I4B d   1      -3.402  -2.375  -5.999  0.00  0.00     0.013 C 
ENDBRANCH   7   8
ENDBRANCH   1   7
TORSDOF 2
ENDMDL
