MODEL 1
REMARK minimizedAffinity 13.692441
REMARK minimizedRMSD -1
REMARK  2 active torsions:
REMARK  status: ('A' for Active; 'I' for Inactive)
REMARK    1  A    between atoms: C2'_3  and  C1'_4 
REMARK    2  A    between atoms: C1'_4  and  C1_5 
ROOT
ATOM      1  C1  I4B d   1       0.777   3.419   1.785  0.00  0.00    -0.075 A 
ATOM      2  C2  I4B d   1       0.249   2.478   2.633  0.00  0.00     0.003 A 
ATOM      3  C3  I4B d   1      -1.116   2.539   3.005  0.00  0.00     0.002 A 
ATOM      4  C4  I4B d   1      -1.898   3.580   2.549  0.00  0.00    -0.004 A 
ATOM      5  C5  I4B d   1      -1.367   4.521   1.671  0.00  0.00     0.002 A 
ATOM      6  C6  I4B d   1      -0.024   4.433   1.277  0.00  0.00     0.003 A 
ENDROOT
BRANCH   1   7
ATOM      7  C1' I4B d   1       2.231   3.343   1.439  0.00  0.00     0.060 C 
BRANCH   7   8
ATOM      8  C2' I4B d   1       2.627   4.658   0.799  0.00  0.00    -0.013 C 
ATOM      9  C4' I4B d   1       3.522   5.459   1.708  0.00  0.00     0.013 C 
ATOM     10  C3' I4B d   1       3.309   4.352  -0.501  0.00  0.00     0.013 C 
ENDBRANCH   7   8
ENDBRANCH   1   7
TORSDOF 2
ENDMDL
