MODEL 1
REMARK minimizedAffinity 9.07655716
REMARK minimizedRMSD -1
REMARK  2 active torsions:
REMARK  status: ('A' for Active; 'I' for Inactive)
REMARK    1  A    between atoms: C2'_3  and  C1'_4 
REMARK    2  A    between atoms: C1'_4  and  C1_5 
ROOT
ATOM      1  C1  I4B d   1      -1.956  -2.134  -1.508  0.00  0.00    -0.075 A 
ATOM      2  C2  I4B d   1      -0.773  -2.729  -1.149  0.00  0.00     0.003 A 
ATOM      3  C3  I4B d   1      -0.451  -2.908   0.219  0.00  0.00     0.002 A 
ATOM      4  C4  I4B d   1      -1.313  -2.436   1.187  0.00  0.00    -0.004 A 
ATOM      5  C5  I4B d   1      -2.523  -1.853   0.821  0.00  0.00     0.002 A 
ATOM      6  C6  I4B d   1      -2.853  -1.713  -0.534  0.00  0.00     0.003 A 
ENDROOT
BRANCH   1   7
ATOM      7  C1' I4B d   1      -2.249  -1.931  -2.960  0.00  0.00     0.060 C 
BRANCH   7   8
ATOM      8  C2' I4B d   1      -2.247  -3.290  -3.631  0.00  0.00    -0.013 C 
ATOM      9  C4' I4B d   1      -3.553  -4.007  -3.415  0.00  0.00     0.013 C 
ATOM     10  C3' I4B d   1      -1.978  -3.084  -5.092  0.00  0.00     0.013 C 
ENDBRANCH   7   8
ENDBRANCH   1   7
TORSDOF 2
ENDMDL
