MODEL 1
REMARK minimizedAffinity 5.01221466
REMARK minimizedRMSD -1
REMARK  2 active torsions:
REMARK  status: ('A' for Active; 'I' for Inactive)
REMARK    1  A    between atoms: C2'_3  and  C1'_4 
REMARK    2  A    between atoms: C1'_4  and  C1_5 
ROOT
ATOM      1  C1  I4B d   1       0.644   4.481   0.216  0.00  0.00    -0.075 A 
ATOM      2  C2  I4B d   1      -0.098   5.586   0.551  0.00  0.00     0.003 A 
ATOM      3  C3  I4B d   1      -1.173   6.000  -0.272  0.00  0.00     0.002 A 
ATOM      4  C4  I4B d   1      -1.438   5.314  -1.440  0.00  0.00    -0.004 A 
ATOM      5  C5  I4B d   1      -0.699   4.181  -1.767  0.00  0.00     0.002 A 
ATOM      6  C6  I4B d   1       0.340   3.754  -0.928  0.00  0.00     0.003 A 
ENDROOT
BRANCH   1   7
ATOM      7  C1' I4B d   1       1.793   4.092   1.090  0.00  0.00     0.060 C 
BRANCH   7   8
ATOM      8  C2' I4B d   1       3.021   4.836   0.606  0.00  0.00    -0.013 C 
ATOM      9  C4' I4B d   1       3.938   5.178   1.751  0.00  0.00     0.013 C 
ATOM     10  C3' I4B d   1       3.716   3.975  -0.406  0.00  0.00     0.013 C 
ENDBRANCH   7   8
ENDBRANCH   1   7
TORSDOF 2
ENDMDL
