MODEL 1
REMARK minimizedAffinity -4.08212566
REMARK minimizedRMSD -1
REMARK  0 active torsions:
REMARK  status: ('A' for Active; 'I' for Inactive)
ROOT
ATOM      1  C   UNL d   1       0.415   0.061  -0.691  0.00  0.00     0.078 C 
ATOM      2  C1  UNL d   1       0.300  -0.018   0.802  0.00  0.00    -0.077 A 
ATOM      3  C2  UNL d   1      -0.357  -1.090   1.419  0.00  0.00    -0.001 A 
ATOM      4  C3  UNL d   1      -0.465  -1.145   2.810  0.00  0.00     0.003 A 
ATOM      5  C4  UNL d   1       0.081  -0.132   3.595  0.00  0.00    -0.005 A 
ATOM      6  C5  UNL d   1       0.734   0.940   2.990  0.00  0.00     0.003 A 
ATOM      7  C6  UNL d   1       0.843   0.997   1.599  0.00  0.00    -0.001 A 
ENDROOT
TORSDOF 0
ENDMDL
