MODEL 1
REMARK minimizedAffinity -3.28106117
REMARK minimizedRMSD -1
REMARK  0 active torsions:
REMARK  status: ('A' for Active; 'I' for Inactive)
ROOT
ATOM      1  C   UNL d   1       1.057  -2.581  -3.506  0.00  0.00     0.078 C 
ATOM      2  C1  UNL d   1       0.680  -1.219  -3.006  0.00  0.00    -0.077 A 
ATOM      3  C2  UNL d   1       1.101  -0.063  -3.676  0.00  0.00    -0.001 A 
ATOM      4  C3  UNL d   1       0.751   1.199  -3.194  0.00  0.00     0.003 A 
ATOM      5  C4  UNL d   1      -0.020   1.318  -2.039  0.00  0.00    -0.005 A 
ATOM      6  C5  UNL d   1      -0.440   0.174  -1.364  0.00  0.00     0.003 A 
ATOM      7  C6  UNL d   1      -0.092  -1.089  -1.845  0.00  0.00    -0.001 A 
ENDROOT
TORSDOF 0
ENDMDL
