MODEL 1
REMARK minimizedAffinity -5.47891998
REMARK minimizedRMSD -1
REMARK  0 active torsions:
REMARK  status: ('A' for Active; 'I' for Inactive)
ROOT
ATOM      1  C   UNL d   1       1.199  -0.214   0.507  0.00  0.00     0.078 C 
ATOM      2  C1  UNL d   1      -0.099  -0.007   1.228  0.00  0.00    -0.077 A 
ATOM      3  C2  UNL d   1      -0.157  -0.018   2.627  0.00  0.00    -0.001 A 
ATOM      4  C3  UNL d   1      -1.374   0.167   3.284  0.00  0.00     0.003 A 
ATOM      5  C4  UNL d   1      -2.543   0.362   2.551  0.00  0.00    -0.005 A 
ATOM      6  C5  UNL d   1      -2.496   0.373   1.158  0.00  0.00     0.003 A 
ATOM      7  C6  UNL d   1      -1.279   0.189   0.499  0.00  0.00    -0.001 A 
ENDROOT
TORSDOF 0
ENDMDL
