MODEL 1
REMARK minimizedAffinity -4.63853073
REMARK minimizedRMSD -1
REMARK  0 active torsions:
REMARK  status: ('A' for Active; 'I' for Inactive)
ROOT
ATOM      1  C   UNL d   1       0.222   0.410  -1.344  0.00  0.00     0.078 C 
ATOM      2  C1  UNL d   1       0.105  -0.036   0.083  0.00  0.00    -0.077 A 
ATOM      3  C2  UNL d   1      -0.778  -1.059   0.448  0.00  0.00    -0.001 A 
ATOM      4  C3  UNL d   1      -0.885  -1.457   1.782  0.00  0.00     0.003 A 
ATOM      5  C4  UNL d   1      -0.112  -0.836   2.761  0.00  0.00    -0.005 A 
ATOM      6  C5  UNL d   1       0.768   0.185   2.407  0.00  0.00     0.003 A 
ATOM      7  C6  UNL d   1       0.875   0.584   1.074  0.00  0.00    -0.001 A 
ENDROOT
TORSDOF 0
ENDMDL
