MODEL 1
REMARK minimizedAffinity -5.16455317
REMARK minimizedRMSD -1
REMARK  0 active torsions:
REMARK  status: ('A' for Active; 'I' for Inactive)
ROOT
ATOM      1  C   UNL d   1       0.542   0.048  -0.673  0.00  0.00     0.078 C 
ATOM      2  C1  UNL d   1      -0.274  -0.050   0.581  0.00  0.00    -0.077 A 
ATOM      3  C2  UNL d   1      -1.629   0.304   0.590  0.00  0.00    -0.001 A 
ATOM      4  C3  UNL d   1      -2.374   0.217   1.768  0.00  0.00     0.003 A 
ATOM      5  C4  UNL d   1      -1.772  -0.222   2.945  0.00  0.00    -0.005 A 
ATOM      6  C5  UNL d   1      -0.423  -0.573   2.947  0.00  0.00     0.003 A 
ATOM      7  C6  UNL d   1       0.323  -0.487   1.770  0.00  0.00    -0.001 A 
ENDROOT
TORSDOF 0
ENDMDL
