MODEL 1
REMARK minimizedAffinity -0.986810088
REMARK minimizedRMSD -1
REMARK  0 active torsions:
REMARK  status: ('A' for Active; 'I' for Inactive)
ROOT
ATOM      1  C   UNL d   1      -1.524  -0.877   2.237  0.00  0.00     0.078 C 
ATOM      2  C1  UNL d   1      -1.181  -0.531   0.819  0.00  0.00    -0.077 A 
ATOM      3  C2  UNL d   1       0.056   0.040   0.495  0.00  0.00    -0.001 A 
ATOM      4  C3  UNL d   1       0.359   0.365  -0.828  0.00  0.00     0.003 A 
ATOM      5  C4  UNL d   1      -0.570   0.125  -1.838  0.00  0.00    -0.005 A 
ATOM      6  C5  UNL d   1      -1.805  -0.441  -1.525  0.00  0.00     0.003 A 
ATOM      7  C6  UNL d   1      -2.109  -0.767  -0.203  0.00  0.00    -0.001 A 
ENDROOT
TORSDOF 0
ENDMDL
