MODEL 1
REMARK minimizedAffinity -5.33892918
REMARK minimizedRMSD -1
REMARK  0 active torsions:
REMARK  status: ('A' for Active; 'I' for Inactive)
ROOT
ATOM      1  C   UNL d   1       0.359   0.375  -0.749  0.00  0.00     0.078 C 
ATOM      2  C1  UNL d   1      -0.028   0.109   0.675  0.00  0.00    -0.077 A 
ATOM      3  C2  UNL d   1      -0.935  -0.908   0.997  0.00  0.00    -0.001 A 
ATOM      4  C3  UNL d   1      -1.294  -1.138   2.327  0.00  0.00     0.003 A 
ATOM      5  C4  UNL d   1      -0.751  -0.355   3.343  0.00  0.00    -0.005 A 
ATOM      6  C5  UNL d   1       0.151   0.661   3.032  0.00  0.00     0.003 A 
ATOM      7  C6  UNL d   1       0.511   0.892   1.703  0.00  0.00    -0.001 A 
ENDROOT
TORSDOF 0
ENDMDL
