MODEL 1
REMARK minimizedAffinity -4.04305124
REMARK minimizedRMSD -1
REMARK  0 active torsions:
REMARK  status: ('A' for Active; 'I' for Inactive)
ROOT
ATOM      1  C   UNL d   1      -0.853  -0.882   2.898  0.00  0.00     0.078 C 
ATOM      2  C1  UNL d   1      -0.921  -0.256   1.537  0.00  0.00    -0.077 A 
ATOM      3  C2  UNL d   1       0.240  -0.041   0.783  0.00  0.00    -0.001 A 
ATOM      4  C3  UNL d   1       0.163   0.552  -0.478  0.00  0.00     0.003 A 
ATOM      5  C4  UNL d   1      -1.072   0.934  -0.997  0.00  0.00    -0.005 A 
ATOM      6  C5  UNL d   1      -2.232   0.726  -0.254  0.00  0.00     0.003 A 
ATOM      7  C6  UNL d   1      -2.157   0.134   1.008  0.00  0.00    -0.001 A 
ENDROOT
TORSDOF 0
ENDMDL
