MODEL 1
REMARK minimizedAffinity -5.21950436
REMARK minimizedRMSD -1
REMARK  0 active torsions:
REMARK  status: ('A' for Active; 'I' for Inactive)
ROOT
ATOM      1  C   UNL d   1      -0.638  -1.423   3.146  0.00  0.00     0.078 C 
ATOM      2  C1  UNL d   1      -0.205  -0.453   2.087  0.00  0.00    -0.077 A 
ATOM      3  C2  UNL d   1       0.885   0.400   2.292  0.00  0.00    -0.001 A 
ATOM      4  C3  UNL d   1       1.270   1.305   1.301  0.00  0.00     0.003 A 
ATOM      5  C4  UNL d   1       0.569   1.365   0.099  0.00  0.00    -0.005 A 
ATOM      6  C5  UNL d   1      -0.519   0.521  -0.114  0.00  0.00     0.003 A 
ATOM      7  C6  UNL d   1      -0.905  -0.384   0.875  0.00  0.00    -0.001 A 
ENDROOT
TORSDOF 0
ENDMDL
