MODEL 1
REMARK minimizedAffinity -5.80806732
REMARK minimizedRMSD -1
REMARK  0 active torsions:
REMARK  status: ('A' for Active; 'I' for Inactive)
ROOT
ATOM      1  C   UNL d   1       0.392  -0.127  -1.022  0.00  0.00     0.078 C 
ATOM      2  C1  UNL d   1       0.415  -0.283   0.469  0.00  0.00    -0.077 A 
ATOM      3  C2  UNL d   1      -0.766  -0.497   1.191  0.00  0.00    -0.001 A 
ATOM      4  C3  UNL d   1      -0.730  -0.631   2.580  0.00  0.00     0.003 A 
ATOM      5  C4  UNL d   1       0.483  -0.552   3.259  0.00  0.00    -0.005 A 
ATOM      6  C5  UNL d   1       1.663  -0.337   2.550  0.00  0.00     0.003 A 
ATOM      7  C6  UNL d   1       1.630  -0.203   1.161  0.00  0.00    -0.001 A 
ENDROOT
TORSDOF 0
ENDMDL
