MODEL 1
REMARK minimizedAffinity -4.87450743
REMARK minimizedRMSD -1
REMARK  0 active torsions:
REMARK  status: ('A' for Active; 'I' for Inactive)
ROOT
ATOM      1  C   UNL d   1      -2.237   0.439  -0.082  0.00  0.00     0.078 C 
ATOM      2  C1  UNL d   1      -0.910   0.378   0.613  0.00  0.00    -0.077 A 
ATOM      3  C2  UNL d   1      -0.827   0.139   1.990  0.00  0.00    -0.001 A 
ATOM      4  C3  UNL d   1       0.416   0.096   2.625  0.00  0.00     0.003 A 
ATOM      5  C4  UNL d   1       1.584   0.291   1.891  0.00  0.00    -0.005 A 
ATOM      6  C5  UNL d   1       1.511   0.531   0.521  0.00  0.00     0.003 A 
ATOM      7  C6  UNL d   1       0.270   0.575  -0.116  0.00  0.00    -0.001 A 
ENDROOT
TORSDOF 0
ENDMDL
