MODEL 1
REMARK minimizedAffinity 8.50876713
REMARK minimizedRMSD -1
REMARK  1 active torsions:
REMARK  status: ('A' for Active; 'I' for Inactive)
REMARK    1  A    between atoms: C1_2  and  C2_3 
ROOT
ATOM      1  C2  UNL d   1       5.098   2.255  -0.294  0.00  0.00    -0.081 A 
ATOM      2  C3  UNL d   1       3.780   2.267   0.178  0.00  0.00     0.006 A 
ATOM      3  C4  UNL d   1       2.965   1.142   0.031  0.00  0.00     0.002 A 
ATOM      4  C5  UNL d   1       3.456  -0.015  -0.582  0.00  0.00    -0.080 A 
ATOM      5  C6  UNL d   1       2.602  -1.240  -0.719  0.00  0.00     0.076 C 
ATOM      6  C7  UNL d   1       4.768  -0.021  -1.070  0.00  0.00     0.002 A 
ATOM      7  C8  UNL d   1       5.583   1.103  -0.924  0.00  0.00     0.006 A 
ENDROOT
BRANCH   1   8
ATOM      8  C1  UNL d   1       6.000   3.444  -0.080  0.00  0.00     0.054 C 
ATOM      9  C   UNL d   1       5.307   4.741  -0.472  0.00  0.00     0.018 C 
ENDBRANCH   1   8
TORSDOF 1
ENDMDL
