MODEL 1
REMARK minimizedAffinity 4.92440844
REMARK minimizedRMSD -1
REMARK  1 active torsions:
REMARK  status: ('A' for Active; 'I' for Inactive)
REMARK    1  A    between atoms: C1_2  and  C2_3 
ROOT
ATOM      1  C2  UNL d   1       2.072  -0.854  -0.619  0.00  0.00    -0.081 A 
ATOM      2  C3  UNL d   1       1.054  -0.721  -1.571  0.00  0.00     0.006 A 
ATOM      3  C4  UNL d   1       0.198  -1.790  -1.847  0.00  0.00     0.002 A 
ATOM      4  C5  UNL d   1       0.341  -3.006  -1.170  0.00  0.00    -0.080 A 
ATOM      5  C6  UNL d   1      -0.590  -4.152  -1.435  0.00  0.00     0.076 C 
ATOM      6  C7  UNL d   1       1.369  -3.145  -0.231  0.00  0.00     0.002 A 
ATOM      7  C8  UNL d   1       2.225  -2.076   0.044  0.00  0.00     0.006 A 
ENDROOT
BRANCH   1   8
ATOM      8  C1  UNL d   1       2.955   0.318  -0.273  0.00  0.00     0.054 C 
ATOM      9  C   UNL d   1       4.335   0.174  -0.897  0.00  0.00     0.018 C 
ENDBRANCH   1   8
TORSDOF 1
ENDMDL
