MODEL 1
REMARK minimizedAffinity 10.050643
REMARK minimizedRMSD -1
REMARK  1 active torsions:
REMARK  status: ('A' for Active; 'I' for Inactive)
REMARK    1  A    between atoms: C1_2  and  C2_3 
ROOT
ATOM      1  C2  UNL d   1       3.549  -0.657  -0.182  0.00  0.00    -0.081 A 
ATOM      2  C3  UNL d   1       4.871  -0.564   0.272  0.00  0.00     0.006 A 
ATOM      3  C4  UNL d   1       5.598   0.616   0.098  0.00  0.00     0.002 A 
ATOM      4  C5  UNL d   1       5.014   1.724  -0.525  0.00  0.00    -0.080 A 
ATOM      5  C6  UNL d   1       5.773   3.007  -0.691  0.00  0.00     0.076 C 
ATOM      6  C7  UNL d   1       3.699   1.626  -0.993  0.00  0.00     0.002 A 
ATOM      7  C8  UNL d   1       2.972   0.446  -0.820  0.00  0.00     0.006 A 
ENDROOT
BRANCH   1   8
ATOM      8  C1  UNL d   1       2.742  -1.906   0.062  0.00  0.00     0.054 C 
ATOM      9  C   UNL d   1       2.373  -2.591  -1.246  0.00  0.00     0.018 C 
ENDBRANCH   1   8
TORSDOF 1
ENDMDL
