MODEL 1
REMARK minimizedAffinity 8.33856392
REMARK minimizedRMSD -1
REMARK  1 active torsions:
REMARK  status: ('A' for Active; 'I' for Inactive)
REMARK    1  A    between atoms: C1_2  and  C2_3 
ROOT
ATOM      1  C2  UNL d   1       1.726  -2.770  -0.646  0.00  0.00    -0.081 A 
ATOM      2  C3  UNL d   1       2.079  -2.298   0.625  0.00  0.00     0.006 A 
ATOM      3  C4  UNL d   1       2.965  -1.227   0.762  0.00  0.00     0.002 A 
ATOM      4  C5  UNL d   1       3.507  -0.605  -0.368  0.00  0.00    -0.080 A 
ATOM      5  C6  UNL d   1       4.436   0.565  -0.235  0.00  0.00     0.076 C 
ATOM      6  C7  UNL d   1       3.169  -1.087  -1.637  0.00  0.00     0.002 A 
ATOM      7  C8  UNL d   1       2.283  -2.159  -1.774  0.00  0.00     0.006 A 
ENDROOT
BRANCH   1   8
ATOM      8  C1  UNL d   1       0.721  -3.882  -0.798  0.00  0.00     0.054 C 
ATOM      9  C   UNL d   1      -0.241  -3.605  -1.944  0.00  0.00     0.018 C 
ENDBRANCH   1   8
TORSDOF 1
ENDMDL
