MODEL 1
REMARK minimizedAffinity 5.07900953
REMARK minimizedRMSD -1
REMARK  1 active torsions:
REMARK  status: ('A' for Active; 'I' for Inactive)
REMARK    1  A    between atoms: C1_2  and  C2_3 
ROOT
ATOM      1  C2  UNL d   1       4.654   0.739  -1.401  0.00  0.00    -0.081 A 
ATOM      2  C3  UNL d   1       3.893   0.484  -0.253  0.00  0.00     0.006 A 
ATOM      3  C4  UNL d   1       2.975  -0.569  -0.232  0.00  0.00     0.002 A 
ATOM      4  C5  UNL d   1       2.807  -1.387  -1.354  0.00  0.00    -0.080 A 
ATOM      5  C6  UNL d   1       1.847  -2.539  -1.334  0.00  0.00     0.076 C 
ATOM      6  C7  UNL d   1       3.554  -1.122  -2.507  0.00  0.00     0.002 A 
ATOM      7  C8  UNL d   1       4.472  -0.069  -2.529  0.00  0.00     0.006 A 
ENDROOT
BRANCH   1   8
ATOM      8  C1  UNL d   1       5.691   1.832  -1.405  0.00  0.00     0.054 C 
ATOM      9  C   UNL d   1       5.999   2.308   0.007  0.00  0.00     0.018 C 
ENDBRANCH   1   8
TORSDOF 1
ENDMDL
