MODEL 1
REMARK minimizedAffinity 7.07831001
REMARK minimizedRMSD -1
REMARK  1 active torsions:
REMARK  status: ('A' for Active; 'I' for Inactive)
REMARK    1  A    between atoms: C1_2  and  C2_3 
ROOT
ATOM      1  C2  UNL d   1       3.752  -1.152   0.005  0.00  0.00    -0.081 A 
ATOM      2  C3  UNL d   1       5.084  -1.023   0.415  0.00  0.00     0.006 A 
ATOM      3  C4  UNL d   1       5.818   0.120   0.092  0.00  0.00     0.002 A 
ATOM      4  C5  UNL d   1       5.230   1.157  -0.641  0.00  0.00    -0.080 A 
ATOM      5  C6  UNL d   1       5.997   2.403  -0.969  0.00  0.00     0.076 C 
ATOM      6  C7  UNL d   1       3.904   1.021  -1.066  0.00  0.00     0.002 A 
ATOM      7  C8  UNL d   1       3.170  -0.122  -0.743  0.00  0.00     0.006 A 
ENDROOT
BRANCH   1   8
ATOM      8  C1  UNL d   1       2.938  -2.355   0.407  0.00  0.00     0.054 C 
ATOM      9  C   UNL d   1       2.274  -3.003  -0.799  0.00  0.00     0.018 C 
ENDBRANCH   1   8
TORSDOF 1
ENDMDL
