MODEL 1
REMARK minimizedAffinity 6.20538902
REMARK minimizedRMSD -1
REMARK  1 active torsions:
REMARK  status: ('A' for Active; 'I' for Inactive)
REMARK    1  A    between atoms: C1_2  and  C2_3 
ROOT
ATOM      1  C2  UNL d   1       3.479   0.077  -0.994  0.00  0.00    -0.081 A 
ATOM      2  C3  UNL d   1       4.014  -1.211  -0.864  0.00  0.00     0.006 A 
ATOM      3  C4  UNL d   1       3.172  -2.318  -0.741  0.00  0.00     0.002 A 
ATOM      4  C5  UNL d   1       1.782  -2.158  -0.753  0.00  0.00    -0.080 A 
ATOM      5  C6  UNL d   1       0.867  -3.342  -0.652  0.00  0.00     0.076 C 
ATOM      6  C7  UNL d   1       1.248  -0.870  -0.865  0.00  0.00     0.002 A 
ATOM      7  C8  UNL d   1       2.089   0.238  -0.988  0.00  0.00     0.006 A 
ENDROOT
BRANCH   1   8
ATOM      8  C1  UNL d   1       4.384   1.266  -1.192  0.00  0.00     0.054 C 
ATOM      9  C   UNL d   1       5.748   1.035  -0.558  0.00  0.00     0.018 C 
ENDBRANCH   1   8
TORSDOF 1
ENDMDL
