MODEL 1
REMARK minimizedAffinity 5.57381153
REMARK minimizedRMSD -1
REMARK  1 active torsions:
REMARK  status: ('A' for Active; 'I' for Inactive)
REMARK    1  A    between atoms: C1_2  and  C2_3 
ROOT
ATOM      1  C2  UNL d   1       1.749  -2.236  -0.697  0.00  0.00    -0.081 A 
ATOM      2  C3  UNL d   1       1.736  -1.087   0.103  0.00  0.00     0.006 A 
ATOM      3  C4  UNL d   1       2.614  -0.032  -0.159  0.00  0.00     0.002 A 
ATOM      4  C5  UNL d   1       3.514  -0.107  -1.228  0.00  0.00    -0.080 A 
ATOM      5  C6  UNL d   1       4.441   1.031  -1.538  0.00  0.00     0.076 C 
ATOM      6  C7  UNL d   1       3.539  -1.262  -2.016  0.00  0.00     0.002 A 
ATOM      7  C8  UNL d   1       2.661  -2.317  -1.754  0.00  0.00     0.006 A 
ENDROOT
BRANCH   1   8
ATOM      8  C1  UNL d   1       0.759  -3.348  -0.457  0.00  0.00     0.054 C 
ATOM      9  C   UNL d   1      -0.420  -3.255  -1.415  0.00  0.00     0.018 C 
ENDBRANCH   1   8
TORSDOF 1
ENDMDL
