MODEL 1
REMARK minimizedAffinity -2.27056766
REMARK minimizedRMSD -1
REMARK  1 active torsions:
REMARK  status: ('A' for Active; 'I' for Inactive)
REMARK    1  A    between atoms: C1_2  and  C2_3 
ROOT
ATOM      1  C2  UNL d   1      -3.765  -4.214  -4.802  0.00  0.00    -0.077 A 
ATOM      2  C3  UNL d   1      -2.990  -4.080  -5.963  0.00  0.00     0.002 A 
ATOM      3  C4  UNL d   1      -1.682  -4.568  -6.000  0.00  0.00     0.002 A 
ATOM      4  C5  UNL d   1      -1.139  -5.195  -4.881  0.00  0.00    -0.004 A 
ATOM      5  C6  UNL d   1      -1.901  -5.331  -3.721  0.00  0.00     0.002 A 
ATOM      6  C7  UNL d   1      -3.208  -4.843  -3.682  0.00  0.00     0.002 A 
ENDROOT
BRANCH   1   7
ATOM      7  C1  UNL d   1      -5.192  -3.733  -4.777  0.00  0.00     0.055 C 
ATOM      8  C   UNL d   1      -5.267  -2.216  -4.873  0.00  0.00     0.019 C 
ENDBRANCH   1   7
TORSDOF 1
ENDMDL
