MODEL 1
REMARK minimizedAffinity -0.953235626
REMARK minimizedRMSD -1
REMARK  1 active torsions:
REMARK  status: ('A' for Active; 'I' for Inactive)
REMARK    1  A    between atoms: C1_2  and  C2_3 
ROOT
ATOM      1  C2  UNL d   1      -5.480  -3.381  -4.657  0.00  0.00    -0.077 A 
ATOM      2  C3  UNL d   1      -5.997  -4.140  -5.716  0.00  0.00     0.002 A 
ATOM      3  C4  UNL d   1      -5.548  -5.443  -5.937  0.00  0.00     0.002 A 
ATOM      4  C5  UNL d   1      -4.583  -6.000  -5.101  0.00  0.00    -0.004 A 
ATOM      5  C6  UNL d   1      -4.061  -5.253  -4.046  0.00  0.00     0.002 A 
ATOM      6  C7  UNL d   1      -4.508  -3.950  -3.824  0.00  0.00     0.002 A 
ENDROOT
BRANCH   1   7
ATOM      7  C1  UNL d   1      -6.000  -1.993  -4.386  0.00  0.00     0.055 C 
ATOM      8  C   UNL d   1      -5.903  -1.115  -5.626  0.00  0.00     0.019 C 
ENDBRANCH   1   7
TORSDOF 1
ENDMDL
