MODEL 1
REMARK minimizedAffinity -3.62674999
REMARK minimizedRMSD -1
REMARK  1 active torsions:
REMARK  status: ('A' for Active; 'I' for Inactive)
REMARK    1  A    between atoms: C1_2  and  C2_3 
ROOT
ATOM      1  C2  UNL d   1      -4.133  -2.953  -5.307  0.00  0.00    -0.077 A 
ATOM      2  C3  UNL d   1      -2.910  -3.035  -5.987  0.00  0.00     0.002 A 
ATOM      3  C4  UNL d   1      -2.096  -4.160  -5.844  0.00  0.00     0.002 A 
ATOM      4  C5  UNL d   1      -2.499  -5.214  -5.026  0.00  0.00    -0.004 A 
ATOM      5  C6  UNL d   1      -3.713  -5.141  -4.344  0.00  0.00     0.002 A 
ATOM      6  C7  UNL d   1      -4.527  -4.016  -4.485  0.00  0.00     0.002 A 
ENDROOT
BRANCH   1   7
ATOM      7  C1  UNL d   1      -5.035  -1.762  -5.499  0.00  0.00     0.055 C 
ATOM      8  C   UNL d   1      -5.811  -1.445  -4.229  0.00  0.00     0.019 C 
ENDBRANCH   1   7
TORSDOF 1
ENDMDL
