MODEL 1
REMARK minimizedAffinity -2.49568987
REMARK minimizedRMSD -1
REMARK  1 active torsions:
REMARK  status: ('A' for Active; 'I' for Inactive)
REMARK    1  A    between atoms: C1_2  and  C2_3 
ROOT
ATOM      1  C2  UNL d   1      -4.947  -3.910  -4.858  0.00  0.00    -0.077 A 
ATOM      2  C3  UNL d   1      -3.749  -3.937  -4.130  0.00  0.00     0.002 A 
ATOM      3  C4  UNL d   1      -2.837  -4.979  -4.307  0.00  0.00     0.002 A 
ATOM      4  C5  UNL d   1      -3.112  -6.000  -5.216  0.00  0.00    -0.004 A 
ATOM      5  C6  UNL d   1      -4.301  -5.983  -5.943  0.00  0.00     0.002 A 
ATOM      6  C7  UNL d   1      -5.214  -4.943  -5.766  0.00  0.00     0.002 A 
ENDROOT
BRANCH   1   7
ATOM      7  C1  UNL d   1      -5.908  -2.761  -4.705  0.00  0.00     0.055 C 
ATOM      8  C   UNL d   1      -6.000  -1.941  -5.983  0.00  0.00     0.019 C 
ENDBRANCH   1   7
TORSDOF 1
ENDMDL
