MODEL 1
REMARK minimizedAffinity -3.65816903
REMARK minimizedRMSD -1
REMARK  1 active torsions:
REMARK  status: ('A' for Active; 'I' for Inactive)
REMARK    1  A    between atoms: C1_2  and  C2_3 
ROOT
ATOM      1  C2  UNL d   1      -4.125  -4.853  -4.942  0.00  0.00    -0.077 A 
ATOM      2  C3  UNL d   1      -4.547  -4.642  -3.622  0.00  0.00     0.002 A 
ATOM      3  C4  UNL d   1      -5.470  -3.637  -3.327  0.00  0.00     0.002 A 
ATOM      4  C5  UNL d   1      -5.983  -2.840  -4.348  0.00  0.00    -0.004 A 
ATOM      5  C6  UNL d   1      -5.568  -3.040  -5.664  0.00  0.00     0.002 A 
ATOM      6  C7  UNL d   1      -4.644  -4.043  -5.960  0.00  0.00     0.002 A 
ENDROOT
BRANCH   1   7
ATOM      7  C1  UNL d   1      -3.166  -5.969  -5.268  0.00  0.00     0.055 C 
ATOM      8  C   UNL d   1      -1.912  -5.439  -5.948  0.00  0.00     0.019 C 
ENDBRANCH   1   7
TORSDOF 1
ENDMDL
