MODEL 1
REMARK minimizedAffinity 3.9700973
REMARK minimizedRMSD -1
REMARK  1 active torsions:
REMARK  status: ('A' for Active; 'I' for Inactive)
REMARK    1  A    between atoms: C1_2  and  C2_3 
ROOT
ATOM      1  C2  UNL d   1      -2.874  -5.069  -5.306  0.00  0.00    -0.077 A 
ATOM      2  C3  UNL d   1      -3.593  -4.085  -5.999  0.00  0.00     0.002 A 
ATOM      3  C4  UNL d   1      -4.562  -3.324  -5.343  0.00  0.00     0.002 A 
ATOM      4  C5  UNL d   1      -4.819  -3.537  -3.990  0.00  0.00    -0.004 A 
ATOM      5  C6  UNL d   1      -4.111  -4.515  -3.292  0.00  0.00     0.002 A 
ATOM      6  C7  UNL d   1      -3.142  -5.277  -3.947  0.00  0.00     0.002 A 
ENDROOT
BRANCH   1   7
ATOM      7  C1  UNL d   1      -1.793  -5.856  -6.000  0.00  0.00     0.055 C 
ATOM      8  C   UNL d   1      -0.561  -6.000  -5.119  0.00  0.00     0.019 C 
ENDBRANCH   1   7
TORSDOF 1
ENDMDL
