MODEL 1
REMARK minimizedAffinity -2.17636347
REMARK minimizedRMSD -1
REMARK  1 active torsions:
REMARK  status: ('A' for Active; 'I' for Inactive)
REMARK    1  A    between atoms: C1_2  and  C2_3 
ROOT
ATOM      1  C2  UNL d   1      -4.325  -3.815  -4.963  0.00  0.00    -0.077 A 
ATOM      2  C3  UNL d   1      -2.929  -3.749  -4.852  0.00  0.00     0.002 A 
ATOM      3  C4  UNL d   1      -2.133  -4.801  -5.311  0.00  0.00     0.002 A 
ATOM      4  C5  UNL d   1      -2.724  -5.924  -5.886  0.00  0.00    -0.004 A 
ATOM      5  C6  UNL d   1      -4.112  -6.000  -5.999  0.00  0.00     0.002 A 
ATOM      6  C7  UNL d   1      -4.908  -4.950  -5.540  0.00  0.00     0.002 A 
ENDROOT
BRANCH   1   7
ATOM      7  C1  UNL d   1      -5.182  -2.661  -4.513  0.00  0.00     0.055 C 
ATOM      8  C   UNL d   1      -5.352  -2.653  -3.001  0.00  0.00     0.019 C 
ENDBRANCH   1   7
TORSDOF 1
ENDMDL
