MODEL 1
REMARK minimizedAffinity -1.60868669
REMARK minimizedRMSD -1
REMARK  1 active torsions:
REMARK  status: ('A' for Active; 'I' for Inactive)
REMARK    1  A    between atoms: C1_2  and  C2_3 
ROOT
ATOM      1  C2  UNL d   1      -3.775  -5.023  -4.241  0.00  0.00    -0.077 A 
ATOM      2  C3  UNL d   1      -4.289  -3.786  -3.828  0.00  0.00     0.002 A 
ATOM      3  C4  UNL d   1      -5.395  -3.229  -4.474  0.00  0.00     0.002 A 
ATOM      4  C5  UNL d   1      -5.998  -3.905  -5.533  0.00  0.00    -0.004 A 
ATOM      5  C6  UNL d   1      -5.492  -5.135  -5.952  0.00  0.00     0.002 A 
ATOM      6  C7  UNL d   1      -4.386  -5.692  -5.309  0.00  0.00     0.002 A 
ENDROOT
BRANCH   1   7
ATOM      7  C1  UNL d   1      -2.613  -5.647  -3.513  0.00  0.00     0.055 C 
ATOM      8  C   UNL d   1      -2.345  -4.944  -2.191  0.00  0.00     0.019 C 
ENDBRANCH   1   7
TORSDOF 1
ENDMDL
