MODEL 1
REMARK minimizedAffinity -3.67317533
REMARK minimizedRMSD -1
REMARK  1 active torsions:
REMARK  status: ('A' for Active; 'I' for Inactive)
REMARK    1  A    between atoms: C1_2  and  C2_3 
ROOT
ATOM      1  C2  UNL d   1      -3.550  -3.959  -5.617  0.00  0.00    -0.077 A 
ATOM      2  C3  UNL d   1      -3.663  -2.562  -5.633  0.00  0.00     0.002 A 
ATOM      3  C4  UNL d   1      -4.878  -1.949  -5.322  0.00  0.00     0.002 A 
ATOM      4  C5  UNL d   1      -5.987  -2.724  -4.989  0.00  0.00    -0.004 A 
ATOM      5  C6  UNL d   1      -5.885  -4.114  -4.971  0.00  0.00     0.002 A 
ATOM      6  C7  UNL d   1      -4.671  -4.729  -5.283  0.00  0.00     0.002 A 
ENDROOT
BRANCH   1   7
ATOM      7  C1  UNL d   1      -2.227  -4.621  -5.904  0.00  0.00     0.055 C 
ATOM      8  C   UNL d   1      -2.147  -5.999  -5.263  0.00  0.00     0.019 C 
ENDBRANCH   1   7
TORSDOF 1
ENDMDL
