MODEL 1
REMARK minimizedAffinity 3.80536151
REMARK minimizedRMSD -1
REMARK  1 active torsions:
REMARK  status: ('A' for Active; 'I' for Inactive)
REMARK    1  A    between atoms: C1_2  and  C2_3 
ROOT
ATOM      1  C2  UNL d   1      -4.396  -4.418  -4.914  0.00  0.00    -0.077 A 
ATOM      2  C3  UNL d   1      -3.339  -3.746  -5.545  0.00  0.00     0.002 A 
ATOM      3  C4  UNL d   1      -2.090  -3.658  -4.928  0.00  0.00     0.002 A 
ATOM      4  C5  UNL d   1      -1.884  -4.243  -3.680  0.00  0.00    -0.004 A 
ATOM      5  C6  UNL d   1      -2.929  -4.911  -3.044  0.00  0.00     0.002 A 
ATOM      6  C7  UNL d   1      -4.179  -4.999  -3.658  0.00  0.00     0.002 A 
ENDROOT
BRANCH   1   7
ATOM      7  C1  UNL d   1      -5.730  -4.556  -5.600  0.00  0.00     0.055 C 
ATOM      8  C   UNL d   1      -6.000  -5.999  -6.000  0.00  0.00     0.019 C 
ENDBRANCH   1   7
TORSDOF 1
ENDMDL
