MODEL 1
REMARK minimizedAffinity -3.49160624
REMARK minimizedRMSD -1
REMARK  1 active torsions:
REMARK  status: ('A' for Active; 'I' for Inactive)
REMARK    1  A    between atoms: C1_2  and  C2_3 
ROOT
ATOM      1  C2  UNL d   1      -3.061  -4.951  -4.880  0.00  0.00    -0.077 A 
ATOM      2  C3  UNL d   1      -3.882  -3.892  -4.467  0.00  0.00     0.002 A 
ATOM      3  C4  UNL d   1      -5.239  -3.883  -4.792  0.00  0.00     0.002 A 
ATOM      4  C5  UNL d   1      -5.789  -4.931  -5.527  0.00  0.00    -0.004 A 
ATOM      5  C6  UNL d   1      -4.980  -5.988  -5.944  0.00  0.00     0.002 A 
ATOM      6  C7  UNL d   1      -3.623  -5.998  -5.621  0.00  0.00     0.002 A 
ENDROOT
BRANCH   1   7
ATOM      7  C1  UNL d   1      -1.607  -4.987  -4.488  0.00  0.00     0.055 C 
ATOM      8  C   UNL d   1      -1.387  -5.851  -3.255  0.00  0.00     0.019 C 
ENDBRANCH   1   7
TORSDOF 1
ENDMDL
