MODEL 1
REMARK minimizedAffinity -3.10877824
REMARK minimizedRMSD -1
REMARK  1 active torsions:
REMARK  status: ('A' for Active; 'I' for Inactive)
REMARK    1  A    between atoms: C1_2  and  C2_3 
ROOT
ATOM      1  C2  UNL d   1      -3.949  -5.173  -5.088  0.00  0.00    -0.077 A 
ATOM      2  C3  UNL d   1      -3.249  -4.433  -4.124  0.00  0.00     0.002 A 
ATOM      3  C4  UNL d   1      -1.855  -4.478  -4.074  0.00  0.00     0.002 A 
ATOM      4  C5  UNL d   1      -1.148  -5.258  -4.988  0.00  0.00    -0.004 A 
ATOM      5  C6  UNL d   1      -1.835  -5.999  -5.949  0.00  0.00     0.002 A 
ATOM      6  C7  UNL d   1      -3.229  -5.955  -6.000  0.00  0.00     0.002 A 
ENDROOT
BRANCH   1   7
ATOM      7  C1  UNL d   1      -5.450  -5.086  -5.175  0.00  0.00     0.055 C 
ATOM      8  C   UNL d   1      -5.994  -3.984  -4.278  0.00  0.00     0.019 C 
ENDBRANCH   1   7
TORSDOF 1
ENDMDL
