MODEL 1
REMARK minimizedAffinity 12.9645433
REMARK minimizedRMSD -1
REMARK  1 active torsions:
REMARK  status: ('A' for Active; 'I' for Inactive)
REMARK    1  A    between atoms: C1_2  and  C2_3 
ROOT
ATOM      1  C2  UNL d   1       4.863  -4.156  -2.111  0.00  0.00    -0.073 A 
ATOM      2  C3  UNL d   1       4.705  -5.516  -1.822  0.00  0.00    -0.002 A 
ATOM      3  C4  UNL d   1       4.973  -6.000  -0.541  0.00  0.00     0.004 A 
ATOM      4  C5  UNL d   1       5.393  -5.129   0.465  0.00  0.00    -0.004 A 
ATOM      5  C6  UNL d   1       5.546  -3.765   0.198  0.00  0.00    -0.075 A 
ATOM      6  C7  UNL d   1       5.999  -2.816   1.268  0.00  0.00     0.076 C 
ATOM      7  C8  UNL d   1       5.278  -3.287  -1.092  0.00  0.00     0.001 A 
ENDROOT
BRANCH   1   8
ATOM      8  C1  UNL d   1       4.569  -3.628  -3.492  0.00  0.00     0.053 C 
ATOM      9  C   UNL d   1       3.165  -3.053  -3.595  0.00  0.00     0.018 C 
ENDBRANCH   1   8
TORSDOF 1
ENDMDL
