MODEL 1
REMARK minimizedAffinity -1.64543712
REMARK minimizedRMSD -1
REMARK  1 active torsions:
REMARK  status: ('A' for Active; 'I' for Inactive)
REMARK    1  A    between atoms: C1_2  and  C2_3 
ROOT
ATOM      1  C2  UNL d   1      -0.766   1.766  -0.563  0.00  0.00    -0.073 A 
ATOM      2  C3  UNL d   1      -1.703   2.458   0.212  0.00  0.00    -0.002 A 
ATOM      3  C4  UNL d   1      -2.009   2.023   1.502  0.00  0.00     0.004 A 
ATOM      4  C5  UNL d   1      -1.378   0.899   2.033  0.00  0.00    -0.004 A 
ATOM      5  C6  UNL d   1      -0.429   0.201   1.279  0.00  0.00    -0.075 A 
ATOM      6  C7  UNL d   1       0.258  -1.012   1.834  0.00  0.00     0.076 C 
ATOM      7  C8  UNL d   1      -0.129   0.642  -0.017  0.00  0.00     0.001 A 
ENDROOT
BRANCH   1   8
ATOM      8  C1  UNL d   1      -0.427   2.235  -1.954  0.00  0.00     0.053 C 
ATOM      9  C   UNL d   1       1.066   2.157  -2.234  0.00  0.00     0.018 C 
ENDBRANCH   1   8
TORSDOF 1
ENDMDL
