MODEL 1
REMARK minimizedAffinity -3.34579158
REMARK minimizedRMSD -1
REMARK  1 active torsions:
REMARK  status: ('A' for Active; 'I' for Inactive)
REMARK    1  A    between atoms: C1_2  and  C2_3 
ROOT
ATOM      1  C2  UNL d   1      -1.489   1.987   0.853  0.00  0.00    -0.073 A 
ATOM      2  C3  UNL d   1      -0.875   2.016  -0.404  0.00  0.00    -0.002 A 
ATOM      3  C4  UNL d   1       0.152   1.121  -0.708  0.00  0.00     0.004 A 
ATOM      4  C5  UNL d   1       0.570   0.186   0.238  0.00  0.00    -0.004 A 
ATOM      5  C6  UNL d   1      -0.039   0.133   1.496  0.00  0.00    -0.075 A 
ATOM      6  C7  UNL d   1       0.401  -0.866   2.525  0.00  0.00     0.076 C 
ATOM      7  C8  UNL d   1      -1.068   1.037   1.795  0.00  0.00     0.001 A 
ENDROOT
BRANCH   1   8
ATOM      8  C1  UNL d   1      -2.603   2.947   1.184  0.00  0.00     0.053 C 
ATOM      9  C   UNL d   1      -2.495   4.240   0.391  0.00  0.00     0.018 C 
ENDBRANCH   1   8
TORSDOF 1
ENDMDL
