MODEL 1
REMARK minimizedAffinity -5.22737694
REMARK minimizedRMSD -1
REMARK  1 active torsions:
REMARK  status: ('A' for Active; 'I' for Inactive)
REMARK    1  A    between atoms: C1_2  and  C2_3 
ROOT
ATOM      1  C2  UNL d   1      -0.588   0.752   1.054  0.00  0.00    -0.073 A 
ATOM      2  C3  UNL d   1       0.009  -0.500   1.239  0.00  0.00    -0.002 A 
ATOM      3  C4  UNL d   1       0.997  -0.947   0.361  0.00  0.00     0.004 A 
ATOM      4  C5  UNL d   1       1.403  -0.146  -0.706  0.00  0.00    -0.004 A 
ATOM      5  C6  UNL d   1       0.827   1.114  -0.901  0.00  0.00    -0.075 A 
ATOM      6  C7  UNL d   1       1.251   1.987  -2.045  0.00  0.00     0.076 C 
ATOM      7  C8  UNL d   1      -0.167   1.554  -0.016  0.00  0.00     0.001 A 
ENDROOT
BRANCH   1   8
ATOM      8  C1  UNL d   1      -1.651   1.241   2.003  0.00  0.00     0.053 C 
ATOM      9  C   UNL d   1      -1.956   2.717   1.806  0.00  0.00     0.018 C 
ENDBRANCH   1   8
TORSDOF 1
ENDMDL
