MODEL 1
REMARK minimizedAffinity -3.01489782
REMARK minimizedRMSD -1
REMARK  1 active torsions:
REMARK  status: ('A' for Active; 'I' for Inactive)
REMARK    1  A    between atoms: C1_2  and  C2_3 
ROOT
ATOM      1  C2  UNL d   1      -0.641   0.864   2.084  0.00  0.00    -0.073 A 
ATOM      2  C3  UNL d   1      -1.501   1.742   1.416  0.00  0.00    -0.002 A 
ATOM      3  C4  UNL d   1      -1.610   1.700   0.025  0.00  0.00     0.004 A 
ATOM      4  C5  UNL d   1      -0.866   0.776  -0.709  0.00  0.00    -0.004 A 
ATOM      5  C6  UNL d   1      -0.010  -0.118  -0.058  0.00  0.00    -0.075 A 
ATOM      6  C7  UNL d   1       0.798  -1.116  -0.834  0.00  0.00     0.076 C 
ATOM      7  C8  UNL d   1       0.095  -0.067   1.338  0.00  0.00     0.001 A 
ENDROOT
BRANCH   1   8
ATOM      8  C1  UNL d   1      -0.526   0.902   3.586  0.00  0.00     0.053 C 
ATOM      9  C   UNL d   1       0.426   1.990   4.058  0.00  0.00     0.018 C 
ENDBRANCH   1   8
TORSDOF 1
ENDMDL
