MODEL 1
REMARK minimizedAffinity -2.45639062
REMARK minimizedRMSD -1
REMARK  2 active torsions:
REMARK  status: ('A' for Active; 'I' for Inactive)
REMARK    1  A    between atoms: C2'_3  and  C1'_4 
REMARK    2  A    between atoms: C1'_4  and  C1_5 
ROOT
ATOM      1  C1  I4B d   1      -0.379  -1.273  -0.212  0.00  0.00    -0.075 A 
ATOM      2  C2  I4B d   1      -0.855  -2.431   0.352  0.00  0.00     0.003 A 
ATOM      3  C3  I4B d   1      -1.062  -3.581  -0.448  0.00  0.00     0.002 A 
ATOM      4  C4  I4B d   1      -0.832  -3.514  -1.807  0.00  0.00    -0.004 A 
ATOM      5  C5  I4B d   1      -0.328  -2.346  -2.373  0.00  0.00     0.002 A 
ATOM      6  C6  I4B d   1      -0.089  -1.222  -1.569  0.00  0.00     0.003 A 
ENDROOT
BRANCH   1   7
ATOM      7  C1' I4B d   1      -0.203  -0.068   0.656  0.00  0.00     0.060 C 
BRANCH   7   8
ATOM      8  C2' I4B d   1       0.538   0.981  -0.147  0.00  0.00    -0.013 C 
ATOM      9  C4' I4B d   1      -0.304   1.491  -1.287  0.00  0.00     0.013 C 
ATOM     10  C3' I4B d   1       0.919   2.094   0.784  0.00  0.00     0.013 C 
ENDBRANCH   7   8
ENDBRANCH   1   7
TORSDOF 2
ENDMDL
