MODEL 1
REMARK minimizedAffinity -4.80051851
REMARK minimizedRMSD -1
REMARK  2 active torsions:
REMARK  status: ('A' for Active; 'I' for Inactive)
REMARK    1  A    between atoms: C2'_3  and  C1'_4 
REMARK    2  A    between atoms: C1'_4  and  C1_5 
ROOT
ATOM      1  C1  I4B d   1      -0.483   0.330  -0.103  0.00  0.00    -0.075 A 
ATOM      2  C2  I4B d   1      -0.447  -0.744  -0.957  0.00  0.00     0.003 A 
ATOM      3  C3  I4B d   1      -0.820  -2.031  -0.499  0.00  0.00     0.002 A 
ATOM      4  C4  I4B d   1      -1.173  -2.206   0.823  0.00  0.00    -0.004 A 
ATOM      5  C5  I4B d   1      -1.231  -1.112   1.682  0.00  0.00     0.002 A 
ATOM      6  C6  I4B d   1      -0.896   0.167   1.213  0.00  0.00     0.003 A 
ENDROOT
BRANCH   1   7
ATOM      7  C1' I4B d   1      -0.050   1.669  -0.611  0.00  0.00     0.060 C 
BRANCH   7   8
ATOM      8  C2' I4B d   1       0.524   2.447   0.555  0.00  0.00    -0.013 C 
ATOM      9  C4' I4B d   1       1.953   2.845   0.294  0.00  0.00     0.013 C 
ATOM     10  C3' I4B d   1      -0.341   3.651   0.780  0.00  0.00     0.013 C 
ENDBRANCH   7   8
ENDBRANCH   1   7
TORSDOF 2
ENDMDL
