MODEL 1
REMARK minimizedAffinity -2.51514816
REMARK minimizedRMSD -1
REMARK  2 active torsions:
REMARK  status: ('A' for Active; 'I' for Inactive)
REMARK    1  A    between atoms: C2'_3  and  C1'_4 
REMARK    2  A    between atoms: C1'_4  and  C1_5 
ROOT
ATOM      1  C1  I4B d   1      -0.260   0.634   0.008  0.00  0.00    -0.075 A 
ATOM      2  C2  I4B d   1      -0.658   0.594   1.321  0.00  0.00     0.003 A 
ATOM      3  C3  I4B d   1      -0.908  -0.648   1.952  0.00  0.00     0.002 A 
ATOM      4  C4  I4B d   1      -0.797  -1.815   1.224  0.00  0.00    -0.004 A 
ATOM      5  C5  I4B d   1      -0.371  -1.774  -0.100  0.00  0.00     0.002 A 
ATOM      6  C6  I4B d   1      -0.089  -0.543  -0.709  0.00  0.00     0.003 A 
ENDROOT
BRANCH   1   7
ATOM      7  C1' I4B d   1      -0.036   1.965  -0.637  0.00  0.00     0.060 C 
BRANCH   7   8
ATOM      8  C2' I4B d   1       0.783   2.814   0.314  0.00  0.00    -0.013 C 
ATOM      9  C4' I4B d   1       2.093   3.220  -0.308  0.00  0.00     0.013 C 
ATOM     10  C3' I4B d   1      -0.035   4.014   0.686  0.00  0.00     0.013 C 
ENDBRANCH   7   8
ENDBRANCH   1   7
TORSDOF 2
ENDMDL
