MODEL 1
REMARK minimizedAffinity -5.60256863
REMARK minimizedRMSD -1
REMARK  2 active torsions:
REMARK  status: ('A' for Active; 'I' for Inactive)
REMARK    1  A    between atoms: C2'_3  and  C1'_4 
REMARK    2  A    between atoms: C1'_4  and  C1_5 
ROOT
ATOM      1  C1  I4B d   1       0.492  -1.489  -0.470  0.00  0.00    -0.075 A 
ATOM      2  C2  I4B d   1      -0.055  -2.568   0.179  0.00  0.00     0.003 A 
ATOM      3  C3  I4B d   1      -0.435  -3.721  -0.550  0.00  0.00     0.002 A 
ATOM      4  C4  I4B d   1      -0.299  -3.732  -1.923  0.00  0.00    -0.004 A 
ATOM      5  C5  I4B d   1       0.276  -2.647  -2.577  0.00  0.00     0.002 A 
ATOM      6  C6  I4B d   1       0.686  -1.523  -1.845  0.00  0.00     0.003 A 
ENDROOT
BRANCH   1   7
ATOM      7  C1' I4B d   1       0.852  -0.276   0.326  0.00  0.00     0.060 C 
BRANCH   7   8
ATOM      8  C2' I4B d   1      -0.225   0.766   0.102  0.00  0.00    -0.013 C 
ATOM      9  C4' I4B d   1      -1.408   0.530   1.003  0.00  0.00     0.013 C 
ATOM     10  C3' I4B d   1       0.380   2.117   0.345  0.00  0.00     0.013 C 
ENDBRANCH   7   8
ENDBRANCH   1   7
TORSDOF 2
ENDMDL
