MODEL 1
REMARK minimizedAffinity -0.530415058
REMARK minimizedRMSD -1
REMARK  2 active torsions:
REMARK  status: ('A' for Active; 'I' for Inactive)
REMARK    1  A    between atoms: C2'_3  and  C1'_4 
REMARK    2  A    between atoms: C1'_4  and  C1_5 
ROOT
ATOM      1  C1  I4B d   1       0.025   1.598   0.266  0.00  0.00    -0.075 A 
ATOM      2  C2  I4B d   1       0.152   0.990   1.490  0.00  0.00     0.003 A 
ATOM      3  C3  I4B d   1       0.017  -0.415   1.606  0.00  0.00     0.002 A 
ATOM      4  C4  I4B d   1      -0.292  -1.162   0.487  0.00  0.00    -0.004 A 
ATOM      5  C5  I4B d   1      -0.397  -0.546  -0.757  0.00  0.00     0.002 A 
ATOM      6  C6  I4B d   1      -0.226   0.841  -0.871  0.00  0.00     0.003 A 
ENDROOT
BRANCH   1   7
ATOM      7  C1' I4B d   1       0.141   3.087   0.186  0.00  0.00     0.060 C 
BRANCH   7   8
ATOM      8  C2' I4B d   1       1.598   3.454   0.378  0.00  0.00    -0.013 C 
ATOM      9  C4' I4B d   1       1.983   3.412   1.833  0.00  0.00     0.013 C 
ATOM     10  C3' I4B d   1       2.426   2.499  -0.429  0.00  0.00     0.013 C 
ENDBRANCH   7   8
ENDBRANCH   1   7
TORSDOF 2
ENDMDL
