MODEL 1
REMARK minimizedAffinity -4.4196372
REMARK minimizedRMSD -1
REMARK  2 active torsions:
REMARK  status: ('A' for Active; 'I' for Inactive)
REMARK    1  A    between atoms: C2'_3  and  C1'_4 
REMARK    2  A    between atoms: C1'_4  and  C1_5 
ROOT
ATOM      1  C1  I4B d   1      -0.262   0.491   0.011  0.00  0.00    -0.075 A 
ATOM      2  C2  I4B d   1      -1.246   0.704   0.944  0.00  0.00     0.003 A 
ATOM      3  C3  I4B d   1      -1.856  -0.392   1.600  0.00  0.00     0.002 A 
ATOM      4  C4  I4B d   1      -1.490  -1.678   1.258  0.00  0.00    -0.004 A 
ATOM      5  C5  I4B d   1      -0.475  -1.892   0.329  0.00  0.00     0.002 A 
ATOM      6  C6  I4B d   1       0.151  -0.800  -0.290  0.00  0.00     0.003 A 
ENDROOT
BRANCH   1   7
ATOM      7  C1' I4B d   1       0.338   1.671  -0.686  0.00  0.00     0.060 C 
BRANCH   7   8
ATOM      8  C2' I4B d   1       0.711   2.695   0.367  0.00  0.00    -0.013 C 
ATOM      9  C4' I4B d   1       2.167   3.070   0.271  0.00  0.00     0.013 C 
ATOM     10  C3' I4B d   1      -0.170   3.894   0.180  0.00  0.00     0.013 C 
ENDBRANCH   7   8
ENDBRANCH   1   7
TORSDOF 2
ENDMDL
