MODEL 1
REMARK minimizedAffinity -1.16671896
REMARK minimizedRMSD -1
REMARK  2 active torsions:
REMARK  status: ('A' for Active; 'I' for Inactive)
REMARK    1  A    between atoms: C2'_3  and  C1'_4 
REMARK    2  A    between atoms: C1'_4  and  C1_5 
ROOT
ATOM      1  C1  I4B d   1       0.266   0.974   0.071  0.00  0.00    -0.075 A 
ATOM      2  C2  I4B d   1       1.247   1.006   1.030  0.00  0.00     0.003 A 
ATOM      3  C3  I4B d   1       1.922   2.217   1.319  0.00  0.00     0.002 A 
ATOM      4  C4  I4B d   1       1.620   3.353   0.596  0.00  0.00    -0.004 A 
ATOM      5  C5  I4B d   1       0.609   3.324  -0.360  0.00  0.00     0.002 A 
ATOM      6  C6  I4B d   1      -0.082   2.130  -0.616  0.00  0.00     0.003 A 
ENDROOT
BRANCH   1   7
ATOM      7  C1' I4B d   1      -0.403  -0.329  -0.233  0.00  0.00     0.060 C 
BRANCH   7   8
ATOM      8  C2' I4B d   1      -0.565  -1.086   1.070  0.00  0.00    -0.013 C 
ATOM      9  C4' I4B d   1      -1.565  -0.411   1.971  0.00  0.00     0.013 C 
ATOM     10  C3' I4B d   1      -0.989  -2.486   0.742  0.00  0.00     0.013 C 
ENDBRANCH   7   8
ENDBRANCH   1   7
TORSDOF 2
ENDMDL
