MODEL 1
REMARK minimizedAffinity -3.12163615
REMARK minimizedRMSD -1
REMARK  2 active torsions:
REMARK  status: ('A' for Active; 'I' for Inactive)
REMARK    1  A    between atoms: C2'_3  and  C1'_4 
REMARK    2  A    between atoms: C1'_4  and  C1_5 
ROOT
ATOM      1  C1  I4B d   1      -0.049   1.211   0.480  0.00  0.00    -0.075 A 
ATOM      2  C2  I4B d   1      -0.753   0.760   1.569  0.00  0.00     0.003 A 
ATOM      3  C3  I4B d   1      -1.186  -0.586   1.631  0.00  0.00     0.002 A 
ATOM      4  C4  I4B d   1      -0.940  -1.429   0.566  0.00  0.00    -0.004 A 
ATOM      5  C5  I4B d   1      -0.206  -0.977  -0.527  0.00  0.00     0.002 A 
ATOM      6  C6  I4B d   1       0.253   0.348  -0.566  0.00  0.00     0.003 A 
ENDROOT
BRANCH   1   7
ATOM      7  C1' I4B d   1       0.365   2.647   0.432  0.00  0.00     0.060 C 
BRANCH   7   8
ATOM      8  C2' I4B d   1       1.874   2.703   0.554  0.00  0.00    -0.013 C 
ATOM      9  C4' I4B d   1       2.487   3.444  -0.605  0.00  0.00     0.013 C 
ATOM     10  C3' I4B d   1       2.209   3.363   1.857  0.00  0.00     0.013 C 
ENDBRANCH   7   8
ENDBRANCH   1   7
TORSDOF 2
ENDMDL
