MODEL 1
REMARK minimizedAffinity -2.3998518
REMARK minimizedRMSD -1
REMARK  2 active torsions:
REMARK  status: ('A' for Active; 'I' for Inactive)
REMARK    1  A    between atoms: C2'_3  and  C1'_4 
REMARK    2  A    between atoms: C1'_4  and  C1_5 
ROOT
ATOM      1  C1  I4B d   1      -0.105   0.916   0.003  0.00  0.00    -0.075 A 
ATOM      2  C2  I4B d   1       0.079   0.057  -1.052  0.00  0.00     0.003 A 
ATOM      3  C3  I4B d   1      -0.213  -1.321  -0.908  0.00  0.00     0.002 A 
ATOM      4  C4  I4B d   1      -0.635  -1.802   0.314  0.00  0.00    -0.004 A 
ATOM      5  C5  I4B d   1      -0.843  -0.927   1.375  0.00  0.00     0.002 A 
ATOM      6  C6  I4B d   1      -0.589   0.443   1.216  0.00  0.00     0.003 A 
ENDROOT
BRANCH   1   7
ATOM      7  C1' I4B d   1       0.244   2.360  -0.174  0.00  0.00     0.060 C 
BRANCH   7   8
ATOM      8  C2' I4B d   1       1.479   2.646   0.656  0.00  0.00    -0.013 C 
ATOM      9  C4' I4B d   1       2.711   2.718  -0.207  0.00  0.00     0.013 C 
ATOM     10  C3' I4B d   1       1.256   3.935   1.389  0.00  0.00     0.013 C 
ENDBRANCH   7   8
ENDBRANCH   1   7
TORSDOF 2
ENDMDL
