MODEL 1
REMARK minimizedAffinity 0.407093734
REMARK minimizedRMSD -1
REMARK  2 active torsions:
REMARK  status: ('A' for Active; 'I' for Inactive)
REMARK    1  A    between atoms: C2'_3  and  C1'_4 
REMARK    2  A    between atoms: C1'_4  and  C1_5 
ROOT
ATOM      1  C1  I4B d   1      -0.248   0.486   0.071  0.00  0.00    -0.075 A 
ATOM      2  C2  I4B d   1      -0.491  -0.646  -0.667  0.00  0.00     0.003 A 
ATOM      3  C3  I4B d   1      -0.966  -1.821  -0.036  0.00  0.00     0.002 A 
ATOM      4  C4  I4B d   1      -1.134  -1.835   1.334  0.00  0.00    -0.004 A 
ATOM      5  C5  I4B d   1      -0.909  -0.680   2.077  0.00  0.00     0.002 A 
ATOM      6  C6  I4B d   1      -0.475   0.491   1.441  0.00  0.00     0.003 A 
ENDROOT
BRANCH   1   7
ATOM      7  C1' I4B d   1       0.284   1.699  -0.624  0.00  0.00     0.060 C 
BRANCH   7   8
ATOM      8  C2' I4B d   1       1.105   2.487   0.376  0.00  0.00    -0.013 C 
ATOM      9  C4' I4B d   1       2.517   2.682  -0.110  0.00  0.00     0.013 C 
ATOM     10  C3' I4B d   1       0.423   3.803   0.600  0.00  0.00     0.013 C 
ENDBRANCH   7   8
ENDBRANCH   1   7
TORSDOF 2
ENDMDL
