MODEL 1
REMARK minimizedAffinity 18.9787273
REMARK minimizedRMSD -1
REMARK  2 active torsions:
REMARK  status: ('A' for Active; 'I' for Inactive)
REMARK    1  A    between atoms: C1_2  and  C2_3 
REMARK    2  A    between atoms: C2_3  and  C3_4 
ROOT
ATOM      1  C3  UNL d   1      -0.355   0.877   2.317  0.00  0.00    -0.075 A 
ATOM      2  C4  UNL d   1       0.786   1.498   1.788  0.00  0.00     0.002 A 
ATOM      3  C5  UNL d   1       1.561   0.853   0.824  0.00  0.00     0.002 A 
ATOM      4  C6  UNL d   1       1.212  -0.423   0.385  0.00  0.00    -0.004 A 
ATOM      5  C7  UNL d   1       0.090  -1.055   0.915  0.00  0.00     0.002 A 
ATOM      6  C8  UNL d   1      -0.690  -0.410   1.877  0.00  0.00     0.002 A 
ENDROOT
BRANCH   1   7
ATOM      7  C2  UNL d   1      -1.215   1.582   3.339  0.00  0.00     0.056 C 
BRANCH   7   8
ATOM      8  C1  UNL d   1      -2.580   2.028   2.805  0.00  0.00     0.007 C 
ATOM      9  C   UNL d   1      -3.673   0.986   3.006  0.00  0.00     0.009 C 
ENDBRANCH   7   8
ENDBRANCH   1   7
TORSDOF 2
ENDMDL
