MODEL 1
REMARK minimizedAffinity 10.6293364
REMARK minimizedRMSD -1
REMARK  2 active torsions:
REMARK  status: ('A' for Active; 'I' for Inactive)
REMARK    1  A    between atoms: C1_2  and  C2_3 
REMARK    2  A    between atoms: C2_3  and  C3_4 
ROOT
ATOM      1  C3  UNL d   1       3.135   1.205  -1.353  0.00  0.00    -0.075 A 
ATOM      2  C4  UNL d   1       3.925   0.378  -0.542  0.00  0.00     0.002 A 
ATOM      3  C5  UNL d   1       3.479  -0.010   0.722  0.00  0.00     0.002 A 
ATOM      4  C6  UNL d   1       2.245   0.431   1.194  0.00  0.00    -0.004 A 
ATOM      5  C7  UNL d   1       1.459   1.267   0.403  0.00  0.00     0.002 A 
ATOM      6  C8  UNL d   1       1.901   1.653  -0.864  0.00  0.00     0.002 A 
ENDROOT
BRANCH   1   7
ATOM      7  C2  UNL d   1       3.599   1.605  -2.733  0.00  0.00     0.056 C 
BRANCH   7   8
ATOM      8  C1  UNL d   1       5.063   2.056  -2.793  0.00  0.00     0.007 C 
ATOM      9  C   UNL d   1       5.287   3.247  -3.715  0.00  0.00     0.009 C 
ENDBRANCH   7   8
ENDBRANCH   1   7
TORSDOF 2
ENDMDL
