MODEL 1
REMARK minimizedAffinity 19.7888985
REMARK minimizedRMSD -1
REMARK  2 active torsions:
REMARK  status: ('A' for Active; 'I' for Inactive)
REMARK    1  A    between atoms: C1_2  and  C2_3 
REMARK    2  A    between atoms: C2_3  and  C3_4 
ROOT
ATOM      1  C3  UNL d   1      -4.041   1.506   3.853  0.00  0.00    -0.075 A 
ATOM      2  C4  UNL d   1      -4.158   1.771   5.226  0.00  0.00     0.002 A 
ATOM      3  C5  UNL d   1      -5.101   1.094   6.000  0.00  0.00     0.002 A 
ATOM      4  C6  UNL d   1      -5.943   0.153   5.412  0.00  0.00    -0.004 A 
ATOM      5  C7  UNL d   1      -5.846  -0.107   4.047  0.00  0.00     0.002 A 
ATOM      6  C8  UNL d   1      -4.901   0.567   3.270  0.00  0.00     0.002 A 
ENDROOT
BRANCH   1   7
ATOM      7  C2  UNL d   1      -3.003   2.215   3.016  0.00  0.00     0.056 C 
BRANCH   7   8
ATOM      8  C1  UNL d   1      -1.558   1.901   3.416  0.00  0.00     0.007 C 
ATOM      9  C   UNL d   1      -0.552   2.193   2.311  0.00  0.00     0.009 C 
ENDBRANCH   7   8
ENDBRANCH   1   7
TORSDOF 2
ENDMDL
