MODEL 1
REMARK minimizedAffinity 12.7552795
REMARK minimizedRMSD -1
REMARK  2 active torsions:
REMARK  status: ('A' for Active; 'I' for Inactive)
REMARK    1  A    between atoms: C1_2  and  C2_3 
REMARK    2  A    between atoms: C2_3  and  C3_4 
ROOT
ATOM      1  C3  UNL d   1      -2.158  -3.788   0.368  0.00  0.00    -0.075 A 
ATOM      2  C4  UNL d   1      -1.231  -3.828   1.420  0.00  0.00     0.002 A 
ATOM      3  C5  UNL d   1      -1.176  -4.930   2.273  0.00  0.00     0.002 A 
ATOM      4  C6  UNL d   1      -2.051  -5.999   2.093  0.00  0.00    -0.004 A 
ATOM      5  C7  UNL d   1      -2.987  -5.962   1.062  0.00  0.00     0.002 A 
ATOM      6  C8  UNL d   1      -3.042  -4.863   0.204  0.00  0.00     0.002 A 
ENDROOT
BRANCH   1   7
ATOM      7  C2  UNL d   1      -2.204  -2.611  -0.577  0.00  0.00     0.056 C 
BRANCH   7   8
ATOM      8  C1  UNL d   1      -3.378  -2.646  -1.561  0.00  0.00     0.007 C 
ATOM      9  C   UNL d   1      -2.955  -2.971  -2.988  0.00  0.00     0.009 C 
ENDBRANCH   7   8
ENDBRANCH   1   7
TORSDOF 2
ENDMDL
