MODEL 1
REMARK minimizedAffinity 14.1647205
REMARK minimizedRMSD -1
REMARK  2 active torsions:
REMARK  status: ('A' for Active; 'I' for Inactive)
REMARK    1  A    between atoms: C1_2  and  C2_3 
REMARK    2  A    between atoms: C2_3  and  C3_4 
ROOT
ATOM      1  C3  UNL d   1      -0.333  -1.088   0.842  0.00  0.00    -0.075 A 
ATOM      2  C4  UNL d   1      -0.279  -0.922   2.234  0.00  0.00     0.002 A 
ATOM      3  C5  UNL d   1       0.397   0.163   2.792  0.00  0.00     0.002 A 
ATOM      4  C6  UNL d   1       1.035   1.089   1.969  0.00  0.00    -0.004 A 
ATOM      5  C7  UNL d   1       1.001   0.925   0.586  0.00  0.00     0.002 A 
ATOM      6  C8  UNL d   1       0.322  -0.158   0.024  0.00  0.00     0.002 A 
ENDROOT
BRANCH   1   7
ATOM      7  C2  UNL d   1      -1.089  -2.244   0.231  0.00  0.00     0.056 C 
BRANCH   7   8
ATOM      8  C1  UNL d   1      -1.948  -3.025   1.230  0.00  0.00     0.007 C 
ATOM      9  C   UNL d   1      -1.402  -4.414   1.534  0.00  0.00     0.009 C 
ENDBRANCH   7   8
ENDBRANCH   1   7
TORSDOF 2
ENDMDL
