MODEL 1
REMARK minimizedAffinity 15.3000898
REMARK minimizedRMSD -1
REMARK  2 active torsions:
REMARK  status: ('A' for Active; 'I' for Inactive)
REMARK    1  A    between atoms: C1_2  and  C2_3 
REMARK    2  A    between atoms: C2_3  and  C3_4 
ROOT
ATOM      1  C3  UNL d   1      -0.053   2.301   2.418  0.00  0.00    -0.075 A 
ATOM      2  C4  UNL d   1       0.277   2.711   1.118  0.00  0.00     0.002 A 
ATOM      3  C5  UNL d   1       0.897   1.828   0.233  0.00  0.00     0.002 A 
ATOM      4  C6  UNL d   1       1.203   0.531   0.638  0.00  0.00    -0.004 A 
ATOM      5  C7  UNL d   1       0.894   0.118   1.933  0.00  0.00     0.002 A 
ATOM      6  C8  UNL d   1       0.270   0.998   2.819  0.00  0.00     0.002 A 
ENDROOT
BRANCH   1   7
ATOM      7  C2  UNL d   1      -0.751   3.242   3.371  0.00  0.00     0.056 C 
BRANCH   7   8
ATOM      8  C1  UNL d   1      -2.240   2.939   3.569  0.00  0.00     0.007 C 
ATOM      9  C   UNL d   1      -2.844   3.655   4.769  0.00  0.00     0.009 C 
ENDBRANCH   7   8
ENDBRANCH   1   7
TORSDOF 2
ENDMDL
