MODEL 1
REMARK minimizedAffinity 8.18506432
REMARK minimizedRMSD -1
REMARK  2 active torsions:
REMARK  status: ('A' for Active; 'I' for Inactive)
REMARK    1  A    between atoms: C1_2  and  C2_3 
REMARK    2  A    between atoms: C2_3  and  C3_4 
ROOT
ATOM      1  C3  UNL d   1      -4.026   4.004   4.891  0.00  0.00    -0.075 A 
ATOM      2  C4  UNL d   1      -4.877   4.166   3.788  0.00  0.00     0.002 A 
ATOM      3  C5  UNL d   1      -5.854   5.162   3.787  0.00  0.00     0.002 A 
ATOM      4  C6  UNL d   1      -6.000   6.000   4.890  0.00  0.00    -0.004 A 
ATOM      5  C7  UNL d   1      -5.171   5.838   5.998  0.00  0.00     0.002 A 
ATOM      6  C8  UNL d   1      -4.190   4.845   6.000  0.00  0.00     0.002 A 
ENDROOT
BRANCH   1   7
ATOM      7  C2  UNL d   1      -2.947   2.948   4.887  0.00  0.00     0.056 C 
BRANCH   7   8
ATOM      8  C1  UNL d   1      -2.361   2.661   3.500  0.00  0.00     0.007 C 
ATOM      9  C   UNL d   1      -0.889   3.031   3.382  0.00  0.00     0.009 C 
ENDBRANCH   7   8
ENDBRANCH   1   7
TORSDOF 2
ENDMDL
