MODEL 1
REMARK minimizedAffinity 2.82947588
REMARK minimizedRMSD -1
REMARK  1 active torsions:
REMARK  status: ('A' for Active; 'I' for Inactive)
REMARK    1  A    between atoms: C1_2  and  C2_3 
ROOT
ATOM      1  C2  UNL d   1       0.538  -0.260   1.705  0.00  0.00    -0.081 A 
ATOM      2  C3  UNL d   1       0.401  -0.807   2.987  0.00  0.00     0.006 A 
ATOM      3  C4  UNL d   1       1.507  -0.915   3.833  0.00  0.00     0.002 A 
ATOM      4  C5  UNL d   1       2.766  -0.470   3.415  0.00  0.00    -0.080 A 
ATOM      5  C6  UNL d   1       3.956  -0.552   4.324  0.00  0.00     0.076 C 
ATOM      6  C7  UNL d   1       2.907   0.060   2.128  0.00  0.00     0.002 A 
ATOM      7  C8  UNL d   1       1.801   0.167   1.281  0.00  0.00     0.006 A 
ENDROOT
BRANCH   1   8
ATOM      8  C1  UNL d   1      -0.666  -0.083   0.815  0.00  0.00     0.054 C 
ATOM      9  C   UNL d   1      -1.856   0.457   1.595  0.00  0.00     0.018 C 
ENDBRANCH   1   8
TORSDOF 1
ENDMDL
