MODEL 1
REMARK minimizedAffinity -0.834024549
REMARK minimizedRMSD -1
REMARK  1 active torsions:
REMARK  status: ('A' for Active; 'I' for Inactive)
REMARK    1  A    between atoms: C1_2  and  C2_3 
ROOT
ATOM      1  C2  UNL d   1       0.622  -0.543   2.726  0.00  0.00    -0.081 A 
ATOM      2  C3  UNL d   1      -0.631  -0.164   3.222  0.00  0.00     0.006 A 
ATOM      3  C4  UNL d   1      -1.684   0.116   2.348  0.00  0.00     0.002 A 
ATOM      4  C5  UNL d   1      -1.503   0.014   0.964  0.00  0.00    -0.080 A 
ATOM      5  C6  UNL d   1      -2.633   0.282   0.016  0.00  0.00     0.076 C 
ATOM      6  C7  UNL d   1      -0.246  -0.348   0.468  0.00  0.00     0.002 A 
ATOM      7  C8  UNL d   1       0.807  -0.627   1.342  0.00  0.00     0.006 A 
ENDROOT
BRANCH   1   8
ATOM      8  C1  UNL d   1       1.741  -0.908   3.668  0.00  0.00     0.054 C 
ATOM      9  C   UNL d   1       1.225  -1.708   4.856  0.00  0.00     0.018 C 
ENDBRANCH   1   8
TORSDOF 1
ENDMDL
