MODEL 1
REMARK minimizedAffinity -2.23127413
REMARK minimizedRMSD -1
REMARK  1 active torsions:
REMARK  status: ('A' for Active; 'I' for Inactive)
REMARK    1  A    between atoms: C1_2  and  C2_3 
ROOT
ATOM      1  C2  UNL d   1       0.708  -0.782   2.354  0.00  0.00    -0.081 A 
ATOM      2  C3  UNL d   1      -0.548  -0.433   2.864  0.00  0.00     0.006 A 
ATOM      3  C4  UNL d   1      -1.635  -0.250   2.005  0.00  0.00     0.002 A 
ATOM      4  C5  UNL d   1      -1.485  -0.419   0.624  0.00  0.00    -0.080 A 
ATOM      5  C6  UNL d   1      -2.650  -0.254  -0.306  0.00  0.00     0.076 C 
ATOM      6  C7  UNL d   1      -0.225  -0.751   0.114  0.00  0.00     0.002 A 
ATOM      7  C8  UNL d   1       0.862  -0.934   0.972  0.00  0.00     0.006 A 
ENDROOT
BRANCH   1   8
ATOM      8  C1  UNL d   1       1.866  -1.045   3.283  0.00  0.00     0.054 C 
ATOM      9  C   UNL d   1       1.384  -1.507   4.651  0.00  0.00     0.018 C 
ENDBRANCH   1   8
TORSDOF 1
ENDMDL
