MODEL 1
REMARK minimizedAffinity 2.58450985
REMARK minimizedRMSD -1
REMARK  1 active torsions:
REMARK  status: ('A' for Active; 'I' for Inactive)
REMARK    1  A    between atoms: C1_2  and  C2_3 
ROOT
ATOM      1  C2  UNL d   1      -0.208  -0.661   2.128  0.00  0.00    -0.081 A 
ATOM      2  C3  UNL d   1      -0.482  -1.119   3.422  0.00  0.00     0.006 A 
ATOM      3  C4  UNL d   1       0.560  -1.456   4.290  0.00  0.00     0.002 A 
ATOM      4  C5  UNL d   1       1.892  -1.333   3.881  0.00  0.00    -0.080 A 
ATOM      5  C6  UNL d   1       3.020  -1.663   4.813  0.00  0.00     0.076 C 
ATOM      6  C7  UNL d   1       2.166  -0.891   2.582  0.00  0.00     0.002 A 
ATOM      7  C8  UNL d   1       1.125  -0.555   1.714  0.00  0.00     0.006 A 
ENDROOT
BRANCH   1   8
ATOM      8  C1  UNL d   1      -1.327  -0.235   1.213  0.00  0.00     0.054 C 
ATOM      9  C   UNL d   1      -2.432   0.473   1.982  0.00  0.00     0.018 C 
ENDBRANCH   1   8
TORSDOF 1
ENDMDL
