MODEL 1
REMARK minimizedAffinity -1.2115252
REMARK minimizedRMSD -1
REMARK  1 active torsions:
REMARK  status: ('A' for Active; 'I' for Inactive)
REMARK    1  A    between atoms: C1_2  and  C2_3 
ROOT
ATOM      1  C2  UNL d   1      -0.872  -0.683   2.954  0.00  0.00    -0.081 A 
ATOM      2  C3  UNL d   1       0.215  -0.516   2.088  0.00  0.00     0.006 A 
ATOM      3  C4  UNL d   1       1.499  -0.905   2.480  0.00  0.00     0.002 A 
ATOM      4  C5  UNL d   1       1.714  -1.474   3.739  0.00  0.00    -0.080 A 
ATOM      5  C6  UNL d   1       3.082  -1.924   4.160  0.00  0.00     0.076 C 
ATOM      6  C7  UNL d   1       0.631  -1.624   4.612  0.00  0.00     0.002 A 
ATOM      7  C8  UNL d   1      -0.652  -1.235   4.221  0.00  0.00     0.006 A 
ENDROOT
BRANCH   1   8
ATOM      8  C1  UNL d   1      -2.267  -0.324   2.510  0.00  0.00     0.054 C 
ATOM      9  C   UNL d   1      -3.305  -1.224   3.167  0.00  0.00     0.018 C 
ENDBRANCH   1   8
TORSDOF 1
ENDMDL
