MODEL 1
REMARK minimizedAffinity 9.11194611
REMARK minimizedRMSD -1
REMARK  1 active torsions:
REMARK  status: ('A' for Active; 'I' for Inactive)
REMARK    1  A    between atoms: C1_2  and  C2_3 
ROOT
ATOM      1  C2  UNL d   1       2.605  -0.923   3.618  0.00  0.00    -0.081 A 
ATOM      2  C3  UNL d   1       3.726  -0.095   3.475  0.00  0.00     0.006 A 
ATOM      3  C4  UNL d   1       3.911   0.649   2.307  0.00  0.00     0.002 A 
ATOM      4  C5  UNL d   1       2.977   0.585   1.268  0.00  0.00    -0.080 A 
ATOM      5  C6  UNL d   1       3.148   1.402   0.022  0.00  0.00     0.076 C 
ATOM      6  C7  UNL d   1       1.866  -0.256   1.404  0.00  0.00     0.002 A 
ATOM      7  C8  UNL d   1       1.681  -1.001   2.571  0.00  0.00     0.006 A 
ENDROOT
BRANCH   1   8
ATOM      8  C1  UNL d   1       2.369  -1.677   4.902  0.00  0.00     0.054 C 
ATOM      9  C   UNL d   1       1.859  -0.754   6.000  0.00  0.00     0.018 C 
ENDBRANCH   1   8
TORSDOF 1
ENDMDL
