MODEL 1
REMARK minimizedAffinity 17.5327225
REMARK minimizedRMSD -1
REMARK  0 active torsions:
REMARK  status: ('A' for Active; 'I' for Inactive)
ROOT
ATOM      1  C2' OXE d   1      -1.903   5.953  -2.846  0.00  0.00     0.078 C 
ATOM      2  C1' OXE d   1      -1.904   3.287  -3.724  0.00  0.00     0.078 C 
ATOM      3  C1  OXE d   1      -2.932   3.690  -2.696  0.00  0.00    -0.078 A 
ATOM      4  C2  OXE d   1      -2.894   4.985  -2.238  0.00  0.00    -0.078 A 
ATOM      5  C3  OXE d   1      -3.854   5.423  -1.331  0.00  0.00     0.003 A 
ATOM      6  C4  OXE d   1      -4.761   4.518  -0.766  0.00  0.00    -0.002 A 
ATOM      7  C5  OXE d   1      -4.791   3.186  -1.189  0.00  0.00    -0.002 A 
ATOM      8  C6  OXE d   1      -3.913   2.766  -2.183  0.00  0.00     0.003 A 
ENDROOT
TORSDOF 0
ENDMDL
