MODEL 1
REMARK minimizedAffinity 11.0381756
REMARK minimizedRMSD -1
REMARK  0 active torsions:
REMARK  status: ('A' for Active; 'I' for Inactive)
ROOT
ATOM      1  C2' OXE d   1       3.014   0.262   2.991  0.00  0.00     0.078 C 
ATOM      2  C1' OXE d   1       2.727   0.342   5.782  0.00  0.00     0.078 C 
ATOM      3  C1  OXE d   1       1.480   0.171   4.952  0.00  0.00    -0.078 A 
ATOM      4  C2  OXE d   1       1.625   0.179   3.585  0.00  0.00    -0.078 A 
ATOM      5  C3  OXE d   1       0.514  -0.031   2.773  0.00  0.00     0.003 A 
ATOM      6  C4  OXE d   1      -0.769  -0.096   3.330  0.00  0.00    -0.002 A 
ATOM      7  C5  OXE d   1      -0.943  -0.067   4.718  0.00  0.00    -0.002 A 
ATOM      8  C6  OXE d   1       0.173   0.023   5.543  0.00  0.00     0.003 A 
ENDROOT
TORSDOF 0
ENDMDL
