MODEL 1
REMARK minimizedAffinity 10.022974
REMARK minimizedRMSD -1
REMARK  0 active torsions:
REMARK  status: ('A' for Active; 'I' for Inactive)
ROOT
ATOM      1  C2' OXE d   1       0.721  -1.735   1.964  0.00  0.00     0.078 C 
ATOM      2  C1' OXE d   1      -1.693  -2.998   2.639  0.00  0.00     0.078 C 
ATOM      3  C1  OXE d   1      -1.133  -1.988   3.608  0.00  0.00    -0.078 A 
ATOM      4  C2  OXE d   1       0.073  -1.409   3.292  0.00  0.00    -0.078 A 
ATOM      5  C3  OXE d   1       0.608  -0.430   4.125  0.00  0.00     0.003 A 
ATOM      6  C4  OXE d   1       0.007  -0.142   5.356  0.00  0.00    -0.002 A 
ATOM      7  C5  OXE d   1      -1.201  -0.749   5.716  0.00  0.00    -0.002 A 
ATOM      8  C6  OXE d   1      -1.804  -1.641   4.836  0.00  0.00     0.003 A 
ENDROOT
TORSDOF 0
ENDMDL
