MODEL 1
REMARK minimizedAffinity 19.9497337
REMARK minimizedRMSD -1
REMARK  0 active torsions:
REMARK  status: ('A' for Active; 'I' for Inactive)
ROOT
ATOM      1  C2' OXE d   1      -1.752   2.884  -3.038  0.00  0.00     0.078 C 
ATOM      2  C1' OXE d   1      -1.759   5.687  -3.180  0.00  0.00     0.078 C 
ATOM      3  C1  OXE d   1      -2.783   5.025  -2.293  0.00  0.00    -0.078 A 
ATOM      4  C2  OXE d   1      -2.803   3.651  -2.266  0.00  0.00    -0.078 A 
ATOM      5  C3  OXE d   1      -3.692   2.991  -1.423  0.00  0.00     0.003 A 
ATOM      6  C4  OXE d   1      -4.667   3.708  -0.719  0.00  0.00    -0.002 A 
ATOM      7  C5  OXE d   1      -4.691   5.106  -0.764  0.00  0.00    -0.002 A 
ATOM      8  C6  OXE d   1      -3.731   5.780  -1.511  0.00  0.00     0.003 A 
ENDROOT
TORSDOF 0
ENDMDL
