MODEL 1
REMARK minimizedAffinity 24.0979824
REMARK minimizedRMSD -1
REMARK  0 active torsions:
REMARK  status: ('A' for Active; 'I' for Inactive)
ROOT
ATOM      1  C2' OXE d   1      -0.980   0.154   5.972  0.00  0.00     0.078 C 
ATOM      2  C1' OXE d   1       1.827   0.192   6.000  0.00  0.00     0.078 C 
ATOM      3  C1  OXE d   1       1.140  -0.079   4.685  0.00  0.00    -0.078 A 
ATOM      4  C2  OXE d   1      -0.233  -0.142   4.690  0.00  0.00    -0.078 A 
ATOM      5  C3  OXE d   1      -0.919  -0.335   3.494  0.00  0.00     0.003 A 
ATOM      6  C4  OXE d   1      -0.220  -0.617   2.314  0.00  0.00    -0.002 A 
ATOM      7  C5  OXE d   1       1.179  -0.597   2.295  0.00  0.00    -0.002 A 
ATOM      8  C6  OXE d   1       1.872  -0.288   3.460  0.00  0.00     0.003 A 
ENDROOT
TORSDOF 0
ENDMDL
