MODEL 1
REMARK minimizedAffinity 5.73097467
REMARK minimizedRMSD -1
REMARK  0 active torsions:
REMARK  status: ('A' for Active; 'I' for Inactive)
ROOT
ATOM      1  C2' OXE d   1      -1.802   2.128  -2.156  0.00  0.00     0.078 C 
ATOM      2  C1' OXE d   1      -1.791   4.564  -3.551  0.00  0.00     0.078 C 
ATOM      3  C1  OXE d   1      -2.821   4.380  -2.464  0.00  0.00    -0.078 A 
ATOM      4  C2  OXE d   1      -2.849   3.168  -1.819  0.00  0.00    -0.078 A 
ATOM      5  C3  OXE d   1      -3.743   2.965  -0.771  0.00  0.00     0.003 A 
ATOM      6  C4  OXE d   1      -4.715   3.928  -0.472  0.00  0.00    -0.002 A 
ATOM      7  C5  OXE d   1      -4.729   5.155  -1.145  0.00  0.00    -0.002 A 
ATOM      8  C6  OXE d   1      -3.764   5.413  -2.112  0.00  0.00     0.003 A 
ENDROOT
TORSDOF 0
ENDMDL
