MODEL 1
REMARK minimizedAffinity 2.91299033
REMARK minimizedRMSD -1
REMARK  0 active torsions:
REMARK  status: ('A' for Active; 'I' for Inactive)
ROOT
ATOM      1  C2' OXE d   1       0.668  -0.747   5.017  0.00  0.00     0.078 C 
ATOM      2  C1' OXE d   1       0.671  -2.576   2.888  0.00  0.00     0.078 C 
ATOM      3  C1  OXE d   1      -0.385  -2.738   3.953  0.00  0.00    -0.078 A 
ATOM      4  C2  OXE d   1      -0.350  -1.867   5.015  0.00  0.00    -0.078 A 
ATOM      5  C3  OXE d   1      -1.334  -1.937   5.997  0.00  0.00     0.003 A 
ATOM      6  C4  OXE d   1      -2.266  -2.982   5.993  0.00  0.00    -0.002 A 
ATOM      7  C5  OXE d   1      -2.294  -3.904   4.941  0.00  0.00    -0.002 A 
ATOM      8  C6  OXE d   1      -1.389  -3.771   3.893  0.00  0.00     0.003 A 
ENDROOT
TORSDOF 0
ENDMDL
