MODEL 1
REMARK minimizedAffinity 6.14625406
REMARK minimizedRMSD -1
REMARK  0 active torsions:
REMARK  status: ('A' for Active; 'I' for Inactive)
ROOT
ATOM      1  C2' OXE d   1      -3.018   3.193  -2.257  0.00  0.00     0.078 C 
ATOM      2  C1' OXE d   1      -2.972   6.000  -2.261  0.00  0.00     0.078 C 
ATOM      3  C1  OXE d   1      -2.670   5.289  -3.557  0.00  0.00    -0.078 A 
ATOM      4  C2  OXE d   1      -2.649   3.915  -3.535  0.00  0.00    -0.078 A 
ATOM      5  C3  OXE d   1      -2.430   3.210  -4.715  0.00  0.00     0.003 A 
ATOM      6  C4  OXE d   1      -2.079   3.886  -5.890  0.00  0.00    -0.002 A 
ATOM      7  C5  OXE d   1      -2.056   5.284  -5.925  0.00  0.00    -0.002 A 
ATOM      8  C6  OXE d   1      -2.390   6.000  -4.780  0.00  0.00     0.003 A 
ENDROOT
TORSDOF 0
ENDMDL
