MODEL 1
REMARK minimizedAffinity 15.4869184
REMARK minimizedRMSD -1
REMARK  0 active torsions:
REMARK  status: ('A' for Active; 'I' for Inactive)
ROOT
ATOM      1  C2' OXE d   1       1.568  -0.625   2.148  0.00  0.00     0.078 C 
ATOM      2  C1' OXE d   1       0.209  -0.467   4.599  0.00  0.00     0.078 C 
ATOM      3  C1  OXE d   1      -0.425  -1.275   3.494  0.00  0.00    -0.078 A 
ATOM      4  C2  OXE d   1       0.224  -1.308   2.283  0.00  0.00    -0.078 A 
ATOM      5  C3  OXE d   1      -0.289  -2.083   1.247  0.00  0.00     0.003 A 
ATOM      6  C4  OXE d   1      -1.537  -2.704   1.378  0.00  0.00    -0.002 A 
ATOM      7  C5  OXE d   1      -2.234  -2.650   2.590  0.00  0.00    -0.002 A 
ATOM      8  C6  OXE d   1      -1.673  -1.977   3.669  0.00  0.00     0.003 A 
ENDROOT
TORSDOF 0
ENDMDL
