MODEL 1
REMARK minimizedAffinity 8.55913448
REMARK minimizedRMSD -1
REMARK  0 active torsions:
REMARK  status: ('A' for Active; 'I' for Inactive)
ROOT
ATOM      1  C2' OXE d   1      -4.010   2.986  -1.753  0.00  0.00     0.078 C 
ATOM      2  C1' OXE d   1      -2.097   3.213  -3.795  0.00  0.00     0.078 C 
ATOM      3  C1  OXE d   1      -1.601   3.016  -2.385  0.00  0.00    -0.078 A 
ATOM      4  C2  OXE d   1      -2.542   2.953  -1.386  0.00  0.00    -0.078 A 
ATOM      5  C3  OXE d   1      -2.140   2.717  -0.074  0.00  0.00     0.003 A 
ATOM      6  C4  OXE d   1      -0.780   2.698   0.258  0.00  0.00    -0.002 A 
ATOM      7  C5  OXE d   1       0.196   2.801  -0.739  0.00  0.00    -0.002 A 
ATOM      8  C6  OXE d   1      -0.197   2.917  -2.068  0.00  0.00     0.003 A 
ENDROOT
TORSDOF 0
ENDMDL
