MODEL 1
REMARK minimizedAffinity 10.0893488
REMARK minimizedRMSD -1
REMARK  0 active torsions:
REMARK  status: ('A' for Active; 'I' for Inactive)
ROOT
ATOM      1  C2' OXE d   1       1.282  -0.541   2.488  0.00  0.00     0.078 C 
ATOM      2  C1' OXE d   1      -0.372  -0.551   4.756  0.00  0.00     0.078 C 
ATOM      3  C1  OXE d   1      -0.673  -1.543   3.661  0.00  0.00    -0.078 A 
ATOM      4  C2  OXE d   1       0.113  -1.500   2.535  0.00  0.00    -0.078 A 
ATOM      5  C3  OXE d   1      -0.088  -2.430   1.518  0.00  0.00     0.003 A 
ATOM      6  C4  OXE d   1      -1.178  -3.307   1.565  0.00  0.00    -0.002 A 
ATOM      7  C5  OXE d   1      -2.015  -3.341   2.686  0.00  0.00    -0.002 A 
ATOM      8  C6  OXE d   1      -1.751  -2.497   3.759  0.00  0.00     0.003 A 
ENDROOT
TORSDOF 0
ENDMDL
