MODEL 1
REMARK minimizedAffinity 5.89243793
REMARK minimizedRMSD -1
REMARK  0 active torsions:
REMARK  status: ('A' for Active; 'I' for Inactive)
ROOT
ATOM      1  C2' OXE d   1       1.694   2.878  -2.159  0.00  0.00     0.078 C 
ATOM      2  C1' OXE d   1      -0.296   2.011  -0.379  0.00  0.00     0.078 C 
ATOM      3  C1  OXE d   1       0.211   3.423  -0.233  0.00  0.00    -0.078 A 
ATOM      4  C2  OXE d   1       1.218   3.824  -1.077  0.00  0.00    -0.078 A 
ATOM      5  C3  OXE d   1       1.685   5.134  -1.021  0.00  0.00     0.003 A 
ATOM      6  C4  OXE d   1       1.247   6.000  -0.012  0.00  0.00    -0.002 A 
ATOM      7  C5  OXE d   1       0.250   5.599   0.884  0.00  0.00    -0.002 A 
ATOM      8  C6  OXE d   1      -0.307   4.331   0.761  0.00  0.00     0.003 A 
ENDROOT
TORSDOF 0
ENDMDL
