MODEL 1
REMARK minimizedAffinity 14.1019735
REMARK minimizedRMSD -1
REMARK  0 active torsions:
REMARK  status: ('A' for Active; 'I' for Inactive)
ROOT
ATOM      1  C2' OXE d   1       0.364   1.879   0.238  0.00  0.00     0.078 C 
ATOM      2  C1' OXE d   1      -0.681   2.650  -2.250  0.00  0.00     0.078 C 
ATOM      3  C1  OXE d   1       0.009   3.703  -1.421  0.00  0.00    -0.078 A 
ATOM      4  C2  OXE d   1       0.476   3.328  -0.184  0.00  0.00    -0.078 A 
ATOM      5  C3  OXE d   1       1.169   4.247   0.599  0.00  0.00     0.003 A 
ATOM      6  C4  OXE d   1       1.259   5.588   0.205  0.00  0.00    -0.002 A 
ATOM      7  C5  OXE d   1       0.755   6.000  -1.033  0.00  0.00    -0.002 A 
ATOM      8  C6  OXE d   1       0.166   5.063  -1.875  0.00  0.00     0.003 A 
ENDROOT
TORSDOF 0
ENDMDL
