MODEL 1
REMARK minimizedAffinity 4.99262476
REMARK minimizedRMSD -1
REMARK  0 active torsions:
REMARK  status: ('A' for Active; 'I' for Inactive)
ROOT
ATOM      1  C2' OXE d   1       0.484   6.000   0.758  0.00  0.00     0.078 C 
ATOM      2  C1' OXE d   1       1.335   5.999  -1.917  0.00  0.00     0.078 C 
ATOM      3  C1  OXE d   1       0.870   4.691  -1.326  0.00  0.00    -0.078 A 
ATOM      4  C2  OXE d   1       0.500   4.692  -0.003  0.00  0.00    -0.078 A 
ATOM      5  C3  OXE d   1       0.012   3.524   0.577  0.00  0.00     0.003 A 
ATOM      6  C4  OXE d   1       0.039   2.316  -0.131  0.00  0.00    -0.002 A 
ATOM      7  C5  OXE d   1       0.450   2.286  -1.468  0.00  0.00    -0.002 A 
ATOM      8  C6  OXE d   1       0.827   3.470  -2.092  0.00  0.00     0.003 A 
ENDROOT
TORSDOF 0
ENDMDL
