MODEL 1
REMARK minimizedAffinity 5.37250948
REMARK minimizedRMSD -1
REMARK  0 active torsions:
REMARK  status: ('A' for Active; 'I' for Inactive)
ROOT
ATOM      1  C2' OXE d   1       1.845   6.000   0.459  0.00  0.00     0.078 C 
ATOM      2  C1' OXE d   1       1.745   5.999  -2.346  0.00  0.00     0.078 C 
ATOM      3  C1  OXE d   1       1.068   4.865  -1.618  0.00  0.00    -0.078 A 
ATOM      4  C2  OXE d   1       1.162   4.849  -0.247  0.00  0.00    -0.078 A 
ATOM      5  C3  OXE d   1       0.509   3.855   0.476  0.00  0.00     0.003 A 
ATOM      6  C4  OXE d   1      -0.112   2.788  -0.185  0.00  0.00    -0.002 A 
ATOM      7  C5  OXE d   1      -0.185   2.765  -1.582  0.00  0.00    -0.002 A 
ATOM      8  C6  OXE d   1       0.362   3.816  -2.310  0.00  0.00     0.003 A 
ENDROOT
TORSDOF 0
ENDMDL
