MODEL 1
REMARK minimizedAffinity 12.7842646
REMARK minimizedRMSD -1
REMARK  0 active torsions:
REMARK  status: ('A' for Active; 'I' for Inactive)
ROOT
ATOM      1  C2' OXE d   1       3.181  -0.643   1.050  0.00  0.00     0.078 C 
ATOM      2  C1' OXE d   1       4.134   0.726   3.308  0.00  0.00     0.078 C 
ATOM      3  C1  OXE d   1       2.731   0.176   3.359  0.00  0.00    -0.078 A 
ATOM      4  C2  OXE d   1       2.256  -0.452   2.232  0.00  0.00    -0.078 A 
ATOM      5  C3  OXE d   1       0.988  -1.026   2.245  0.00  0.00     0.003 A 
ATOM      6  C4  OXE d   1       0.135  -0.836   3.340  0.00  0.00    -0.002 A 
ATOM      7  C5  OXE d   1       0.585  -0.165   4.482  0.00  0.00    -0.002 A 
ATOM      8  C6  OXE d   1       1.892   0.309   4.524  0.00  0.00     0.003 A 
ENDROOT
TORSDOF 0
ENDMDL
