MODEL 1
REMARK minimizedAffinity 4.98526049
REMARK minimizedRMSD -1
REMARK  0 active torsions:
REMARK  status: ('A' for Active; 'I' for Inactive)
ROOT
ATOM      1  C2' OXE d   1      -2.724  -2.715   4.173  0.00  0.00     0.078 C 
ATOM      2  C1' OXE d   1      -0.989  -0.637   4.916  0.00  0.00     0.078 C 
ATOM      3  C1  OXE d   1      -0.725  -1.340   3.608  0.00  0.00    -0.078 A 
ATOM      4  C2  OXE d   1      -1.551  -2.387   3.275  0.00  0.00    -0.078 A 
ATOM      5  C3  OXE d   1      -1.385  -3.034   2.054  0.00  0.00     0.003 A 
ATOM      6  C4  OXE d   1      -0.291  -2.731   1.233  0.00  0.00    -0.002 A 
ATOM      7  C5  OXE d   1       0.585  -1.695   1.573  0.00  0.00    -0.002 A 
ATOM      8  C6  OXE d   1       0.358  -0.963   2.734  0.00  0.00     0.003 A 
ENDROOT
TORSDOF 0
ENDMDL
