MODEL 1
REMARK minimizedAffinity 18.5939426
REMARK minimizedRMSD -1
REMARK  0 active torsions:
REMARK  status: ('A' for Active; 'I' for Inactive)
ROOT
ATOM      1  C2' OXE d   1       2.420   2.246   0.207  0.00  0.00     0.078 C 
ATOM      2  C1' OXE d   1       2.515   2.610  -2.575  0.00  0.00     0.078 C 
ATOM      3  C1  OXE d   1       2.004   3.753  -1.733  0.00  0.00    -0.078 A 
ATOM      4  C2  OXE d   1       1.917   3.549  -0.376  0.00  0.00    -0.078 A 
ATOM      5  C3  OXE d   1       1.503   4.588   0.452  0.00  0.00     0.003 A 
ATOM      6  C4  OXE d   1       1.030   5.786  -0.097  0.00  0.00    -0.002 A 
ATOM      7  C5  OXE d   1       1.073   6.000  -1.479  0.00  0.00    -0.002 A 
ATOM      8  C6  OXE d   1       1.595   5.011  -2.305  0.00  0.00     0.003 A 
ENDROOT
TORSDOF 0
ENDMDL
