MODEL 1
REMARK minimizedAffinity -5.8511219
REMARK minimizedRMSD -1
REMARK  0 active torsions:
REMARK  status: ('A' for Active; 'I' for Inactive)
ROOT
ATOM      1  C2' OXE d   1      -3.200  -1.355   0.141  0.00  0.00     0.078 C 
ATOM      2  C1' OXE d   1      -1.564  -2.368   2.185  0.00  0.00     0.078 C 
ATOM      3  C1  OXE d   1      -0.950  -1.396   1.210  0.00  0.00    -0.078 A 
ATOM      4  C2  OXE d   1      -1.745  -0.941   0.185  0.00  0.00    -0.078 A 
ATOM      5  C3  OXE d   1      -1.244  -0.001  -0.710  0.00  0.00     0.003 A 
ATOM      6  C4  OXE d   1       0.106   0.369  -0.669  0.00  0.00    -0.002 A 
ATOM      7  C5  OXE d   1       0.943  -0.113   0.343  0.00  0.00    -0.002 A 
ATOM      8  C6  OXE d   1       0.421  -0.961   1.313  0.00  0.00     0.003 A 
ENDROOT
TORSDOF 0
ENDMDL
