MODEL 1
REMARK minimizedAffinity -3.99600601
REMARK minimizedRMSD -1
REMARK  0 active torsions:
REMARK  status: ('A' for Active; 'I' for Inactive)
ROOT
ATOM      1  C2' OXE d   1       1.944   3.146   0.948  0.00  0.00     0.078 C 
ATOM      2  C1' OXE d   1       1.138   2.099   3.425  0.00  0.00     0.078 C 
ATOM      3  C1  OXE d   1       1.103   1.181   2.229  0.00  0.00    -0.078 A 
ATOM      4  C2  OXE d   1       1.455   1.715   1.012  0.00  0.00    -0.078 A 
ATOM      5  C3  OXE d   1       1.493   0.898  -0.114  0.00  0.00     0.003 A 
ATOM      6  C4  OXE d   1       1.030  -0.422  -0.048  0.00  0.00    -0.002 A 
ATOM      7  C5  OXE d   1       0.630  -0.974   1.173  0.00  0.00    -0.002 A 
ATOM      8  C6  OXE d   1       0.701  -0.200   2.326  0.00  0.00     0.003 A 
ENDROOT
TORSDOF 0
ENDMDL
