MODEL 1
REMARK minimizedAffinity -3.98672962
REMARK minimizedRMSD -1
REMARK  0 active torsions:
REMARK  status: ('A' for Active; 'I' for Inactive)
ROOT
ATOM      1  C2' OXE d   1       0.116  -1.194   1.915  0.00  0.00     0.078 C 
ATOM      2  C1' OXE d   1       0.763  -0.165  -0.615  0.00  0.00     0.078 C 
ATOM      3  C1  OXE d   1       1.206   0.617   0.596  0.00  0.00    -0.078 A 
ATOM      4  C2  OXE d   1       0.844   0.130   1.829  0.00  0.00    -0.078 A 
ATOM      5  C3  OXE d   1       1.274   0.783   2.981  0.00  0.00     0.003 A 
ATOM      6  C4  OXE d   1       1.939   2.012   2.893  0.00  0.00    -0.002 A 
ATOM      7  C5  OXE d   1       2.282   2.546   1.647  0.00  0.00    -0.002 A 
ATOM      8  C6  OXE d   1       1.961   1.841   0.492  0.00  0.00     0.003 A 
ENDROOT
TORSDOF 0
ENDMDL
