MODEL 1
REMARK minimizedAffinity -2.99612689
REMARK minimizedRMSD -1
REMARK  0 active torsions:
REMARK  status: ('A' for Active; 'I' for Inactive)
ROOT
ATOM      1  C2' OXE d   1      -2.000  -1.605  -0.844  0.00  0.00     0.078 C 
ATOM      2  C1' OXE d   1       0.015  -1.888   1.090  0.00  0.00     0.078 C 
ATOM      3  C1  OXE d   1       0.106  -0.715   0.146  0.00  0.00    -0.078 A 
ATOM      4  C2  OXE d   1      -0.859  -0.611  -0.827  0.00  0.00    -0.078 A 
ATOM      5  C3  OXE d   1      -0.853   0.482  -1.689  0.00  0.00     0.003 A 
ATOM      6  C4  OXE d   1       0.211   1.392  -1.674  0.00  0.00    -0.002 A 
ATOM      7  C5  OXE d   1       1.225   1.282  -0.716  0.00  0.00    -0.002 A 
ATOM      8  C6  OXE d   1       1.165   0.261   0.226  0.00  0.00     0.003 A 
ENDROOT
TORSDOF 0
ENDMDL
