MODEL 1
REMARK minimizedAffinity -2.0051434
REMARK minimizedRMSD -1
REMARK  0 active torsions:
REMARK  status: ('A' for Active; 'I' for Inactive)
ROOT
ATOM      1  C2' OXE d   1       1.326   0.996   0.330  0.00  0.00     0.078 C 
ATOM      2  C1' OXE d   1      -0.031  -1.066   1.667  0.00  0.00     0.078 C 
ATOM      3  C1  OXE d   1      -0.565  -0.626   0.327  0.00  0.00    -0.078 A 
ATOM      4  C2  OXE d   1       0.078   0.415  -0.299  0.00  0.00    -0.078 A 
ATOM      5  C3  OXE d   1      -0.340   0.823  -1.562  0.00  0.00     0.003 A 
ATOM      6  C4  OXE d   1      -1.502   0.288  -2.132  0.00  0.00    -0.002 A 
ATOM      7  C5  OXE d   1      -2.194  -0.746  -1.493  0.00  0.00    -0.002 A 
ATOM      8  C6  OXE d   1      -1.716  -1.243  -0.286  0.00  0.00     0.003 A 
ENDROOT
TORSDOF 0
ENDMDL
