MODEL 1
REMARK minimizedAffinity -3.81226563
REMARK minimizedRMSD -1
REMARK  0 active torsions:
REMARK  status: ('A' for Active; 'I' for Inactive)
ROOT
ATOM      1  C2' OXE d   1       2.042   2.681   2.116  0.00  0.00     0.078 C 
ATOM      2  C1' OXE d   1       3.303   1.481  -0.086  0.00  0.00     0.078 C 
ATOM      3  C1  OXE d   1       2.264   0.676   0.654  0.00  0.00    -0.078 A 
ATOM      4  C2  OXE d   1       1.685   1.254   1.758  0.00  0.00    -0.078 A 
ATOM      5  C3  OXE d   1       0.682   0.577   2.445  0.00  0.00     0.003 A 
ATOM      6  C4  OXE d   1       0.365  -0.746   2.114  0.00  0.00    -0.002 A 
ATOM      7  C5  OXE d   1       0.971  -1.368   1.017  0.00  0.00    -0.002 A 
ATOM      8  C6  OXE d   1       1.889  -0.657   0.252  0.00  0.00     0.003 A 
ENDROOT
TORSDOF 0
ENDMDL
