MODEL 1
REMARK minimizedAffinity -6.01734686
REMARK minimizedRMSD -1
REMARK  0 active torsions:
REMARK  status: ('A' for Active; 'I' for Inactive)
ROOT
ATOM      1  C2' OXE d   1      -2.079  -3.106   1.443  0.00  0.00     0.078 C 
ATOM      2  C1' OXE d   1      -2.964  -1.166  -0.382  0.00  0.00     0.078 C 
ATOM      3  C1  OXE d   1      -1.623  -0.954   0.275  0.00  0.00    -0.078 A 
ATOM      4  C2  OXE d   1      -1.219  -1.884   1.202  0.00  0.00    -0.078 A 
ATOM      5  C3  OXE d   1       0.033  -1.765   1.798  0.00  0.00     0.003 A 
ATOM      6  C4  OXE d   1       0.818  -0.627   1.577  0.00  0.00    -0.002 A 
ATOM      7  C5  OXE d   1       0.407   0.353   0.666  0.00  0.00    -0.002 A 
ATOM      8  C6  OXE d   1      -0.789   0.184  -0.023  0.00  0.00     0.003 A 
ENDROOT
TORSDOF 0
ENDMDL
