MODEL 1
REMARK minimizedAffinity -5.50254965
REMARK minimizedRMSD -1
REMARK  0 active torsions:
REMARK  status: ('A' for Active; 'I' for Inactive)
ROOT
ATOM      1  C2' OXE d   1       1.342   0.968   0.313  0.00  0.00     0.078 C 
ATOM      2  C1' OXE d   1      -0.333   1.286  -1.916  0.00  0.00     0.078 C 
ATOM      3  C1  OXE d   1      -0.786   0.350  -0.824  0.00  0.00    -0.078 A 
ATOM      4  C2  OXE d   1       0.062   0.165   0.242  0.00  0.00    -0.078 A 
ATOM      5  C3  OXE d   1      -0.332  -0.646   1.303  0.00  0.00     0.003 A 
ATOM      6  C4  OXE d   1      -1.513  -1.393   1.224  0.00  0.00    -0.002 A 
ATOM      7  C5  OXE d   1      -2.372  -1.250   0.129  0.00  0.00    -0.002 A 
ATOM      8  C6  OXE d   1      -2.045  -0.352  -0.881  0.00  0.00     0.003 A 
ENDROOT
TORSDOF 0
ENDMDL
