MODEL 1
REMARK minimizedAffinity -6.14836979
REMARK minimizedRMSD -1
REMARK  0 active torsions:
REMARK  status: ('A' for Active; 'I' for Inactive)
ROOT
ATOM      1  C2' OXE d   1       0.960   0.309  -0.118  0.00  0.00     0.078 C 
ATOM      2  C1' OXE d   1       0.372  -1.497   1.949  0.00  0.00     0.078 C 
ATOM      3  C1  OXE d   1      -0.735  -1.144   0.987  0.00  0.00    -0.078 A 
ATOM      4  C2  OXE d   1      -0.451  -0.224   0.007  0.00  0.00    -0.078 A 
ATOM      5  C3  OXE d   1      -1.420   0.096  -0.940  0.00  0.00     0.003 A 
ATOM      6  C4  OXE d   1      -2.725  -0.394  -0.811  0.00  0.00    -0.002 A 
ATOM      7  C5  OXE d   1      -3.046  -1.301   0.204  0.00  0.00    -0.002 A 
ATOM      8  C6  OXE d   1      -2.054  -1.719   1.084  0.00  0.00     0.003 A 
ENDROOT
TORSDOF 0
ENDMDL
