MODEL 1
REMARK minimizedAffinity -5.07726288
REMARK minimizedRMSD -1
REMARK  0 active torsions:
REMARK  status: ('A' for Active; 'I' for Inactive)
ROOT
ATOM      1  C2' OXE d   1      -1.056   0.958  -1.511  0.00  0.00     0.078 C 
ATOM      2  C1' OXE d   1      -2.768  -0.818  -0.172  0.00  0.00     0.078 C 
ATOM      3  C1  OXE d   1      -1.330  -0.750   0.280  0.00  0.00    -0.078 A 
ATOM      4  C2  OXE d   1      -0.489   0.088  -0.411  0.00  0.00    -0.078 A 
ATOM      5  C3  OXE d   1       0.833   0.229   0.000  0.00  0.00     0.003 A 
ATOM      6  C4  OXE d   1       1.352  -0.587   1.013  0.00  0.00    -0.002 A 
ATOM      7  C5  OXE d   1       0.522  -1.476   1.703  0.00  0.00    -0.002 A 
ATOM      8  C6  OXE d   1      -0.829  -1.539   1.379  0.00  0.00     0.003 A 
ENDROOT
TORSDOF 0
ENDMDL
