MODEL 1
REMARK minimizedAffinity -5.74710655
REMARK minimizedRMSD -1
REMARK  0 active torsions:
REMARK  status: ('A' for Active; 'I' for Inactive)
ROOT
ATOM      1  C2' OXE d   1      -2.125  -1.878   1.764  0.00  0.00     0.078 C 
ATOM      2  C1' OXE d   1      -2.751  -1.174  -0.880  0.00  0.00     0.078 C 
ATOM      3  C1  OXE d   1      -1.485  -0.612  -0.284  0.00  0.00    -0.078 A 
ATOM      4  C2  OXE d   1      -1.211  -0.924   1.026  0.00  0.00    -0.078 A 
ATOM      5  C3  OXE d   1      -0.028  -0.476   1.608  0.00  0.00     0.003 A 
ATOM      6  C4  OXE d   1       0.807   0.414   0.921  0.00  0.00    -0.002 A 
ATOM      7  C5  OXE d   1       0.525   0.776  -0.400  0.00  0.00    -0.002 A 
ATOM      8  C6  OXE d   1      -0.592   0.240  -1.030  0.00  0.00     0.003 A 
ENDROOT
TORSDOF 0
ENDMDL
