MODEL 1
REMARK minimizedAffinity -5.82575655
REMARK minimizedRMSD -1
REMARK  0 active torsions:
REMARK  status: ('A' for Active; 'I' for Inactive)
ROOT
ATOM      1  C2' OXE d   1      -1.879  -2.784   0.805  0.00  0.00     0.078 C 
ATOM      2  C1' OXE d   1      -2.300  -0.767  -1.101  0.00  0.00     0.078 C 
ATOM      3  C1  OXE d   1      -1.004  -0.746  -0.330  0.00  0.00    -0.078 A 
ATOM      4  C2  OXE d   1      -0.826  -1.710   0.634  0.00  0.00    -0.078 A 
ATOM      5  C3  OXE d   1       0.374  -1.770   1.336  0.00  0.00     0.003 A 
ATOM      6  C4  OXE d   1       1.338  -0.766   1.179  0.00  0.00    -0.002 A 
ATOM      7  C5  OXE d   1       1.160   0.247   0.231  0.00  0.00    -0.002 A 
ATOM      8  C6  OXE d   1       0.016   0.247  -0.560  0.00  0.00     0.003 A 
ENDROOT
TORSDOF 0
ENDMDL
