MODEL 1
REMARK minimizedAffinity -0.126129419
REMARK minimizedRMSD -1
REMARK  0 active torsions:
REMARK  status: ('A' for Active; 'I' for Inactive)
ROOT
ATOM      1  C2' OXE d   1      -2.595  -2.559  -0.472  0.00  0.00     0.078 C 
ATOM      2  C1' OXE d   1      -0.276  -2.386   1.101  0.00  0.00     0.078 C 
ATOM      3  C1  OXE d   1      -0.456  -1.372  -0.002  0.00  0.00    -0.078 A 
ATOM      4  C2  OXE d   1      -1.570  -1.493  -0.796  0.00  0.00    -0.078 A 
ATOM      5  C3  OXE d   1      -1.812  -0.551  -1.792  0.00  0.00     0.003 A 
ATOM      6  C4  OXE d   1      -0.854   0.425  -2.092  0.00  0.00    -0.002 A 
ATOM      7  C5  OXE d   1       0.307   0.541  -1.321  0.00  0.00    -0.002 A 
ATOM      8  C6  OXE d   1       0.501  -0.321  -0.247  0.00  0.00     0.003 A 
ENDROOT
TORSDOF 0
ENDMDL
