MODEL 1
REMARK minimizedAffinity -2.89224648
REMARK minimizedRMSD -1
REMARK  0 active torsions:
REMARK  status: ('A' for Active; 'I' for Inactive)
ROOT
ATOM      1  O1  BZF d   1       1.330  -1.845  -1.642  0.00  0.00    -0.204 OA
ATOM      2  C2  BZF d   1       2.468  -1.065  -1.591  0.00  0.00     0.174 A 
ATOM      3  C3  BZF d   1       2.275   0.011  -0.801  0.00  0.00    -0.012 A 
ATOM      4  C3A BZF d   1       0.962  -0.153  -0.255  0.00  0.00    -0.107 A 
ATOM      5  C4  BZF d   1       0.208   0.583   0.613  0.00  0.00     0.055 A 
ATOM      6  C5  BZF d   1      -1.063   0.185   0.884  0.00  0.00    -0.016 A 
ATOM      7  C6  BZF d   1      -1.612  -0.939   0.302  0.00  0.00     0.022 A 
ATOM      8  C7  BZF d   1      -0.900  -1.703  -0.562  0.00  0.00     0.029 A 
ATOM      9  C7A BZF d   1       0.395  -1.322  -0.812  0.00  0.00     0.058 A 
ENDROOT
TORSDOF 0
ENDMDL
