MODEL 1
REMARK minimizedAffinity -4.20542717
REMARK minimizedRMSD -1
REMARK  0 active torsions:
REMARK  status: ('A' for Active; 'I' for Inactive)
ROOT
ATOM      1  O1  BZF d   1      -1.392   0.564  -0.581  0.00  0.00    -0.204 OA
ATOM      2  C2  BZF d   1      -1.425  -0.643   0.090  0.00  0.00     0.174 A 
ATOM      3  C3  BZF d   1      -0.176  -1.077   0.356  0.00  0.00    -0.012 A 
ATOM      4  C3A BZF d   1       0.690  -0.034  -0.100  0.00  0.00    -0.107 A 
ATOM      5  C4  BZF d   1       2.046   0.130  -0.097  0.00  0.00     0.055 A 
ATOM      6  C5  BZF d   1       2.580   1.232  -0.685  0.00  0.00    -0.016 A 
ATOM      7  C6  BZF d   1       1.789   2.187  -1.290  0.00  0.00     0.022 A 
ATOM      8  C7  BZF d   1       0.439   2.071  -1.314  0.00  0.00     0.029 A 
ATOM      9  C7A BZF d   1      -0.105   0.975  -0.691  0.00  0.00     0.058 A 
ENDROOT
TORSDOF 0
ENDMDL
