MODEL 1
REMARK minimizedAffinity -5.25696421
REMARK minimizedRMSD -1
REMARK  0 active torsions:
REMARK  status: ('A' for Active; 'I' for Inactive)
ROOT
ATOM      1  O1  BZF d   1      -0.439   1.078   0.458  0.00  0.00    -0.204 OA
ATOM      2  C2  BZF d   1      -1.135  -0.034   0.893  0.00  0.00     0.174 A 
ATOM      3  C3  BZF d   1      -0.509  -1.168   0.516  0.00  0.00    -0.012 A 
ATOM      4  C3A BZF d   1       0.698  -0.737  -0.119  0.00  0.00    -0.107 A 
ATOM      5  C4  BZF d   1       1.746  -1.401  -0.691  0.00  0.00     0.055 A 
ATOM      6  C5  BZF d   1       2.735  -0.685  -1.288  0.00  0.00    -0.016 A 
ATOM      7  C6  BZF d   1       2.705   0.693  -1.338  0.00  0.00     0.022 A 
ATOM      8  C7  BZF d   1       1.688   1.396  -0.780  0.00  0.00     0.029 A 
ATOM      9  C7A BZF d   1       0.705   0.676  -0.147  0.00  0.00     0.058 A 
ENDROOT
TORSDOF 0
ENDMDL
