MODEL 1
REMARK minimizedAffinity -5.07360792
REMARK minimizedRMSD -1
REMARK  0 active torsions:
REMARK  status: ('A' for Active; 'I' for Inactive)
ROOT
ATOM      1  O1  BZF d   1       0.322   1.749  -1.880  0.00  0.00    -0.204 OA
ATOM      2  C2  BZF d   1       1.164   2.011  -2.943  0.00  0.00     0.174 A 
ATOM      3  C3  BZF d   1       2.112   1.057  -3.048  0.00  0.00    -0.012 A 
ATOM      4  C3A BZF d   1       1.789   0.093  -2.041  0.00  0.00    -0.107 A 
ATOM      5  C4  BZF d   1       2.352  -1.091  -1.660  0.00  0.00     0.055 A 
ATOM      6  C5  BZF d   1       1.837  -1.753  -0.591  0.00  0.00    -0.016 A 
ATOM      7  C6  BZF d   1       0.765  -1.259   0.122  0.00  0.00     0.022 A 
ATOM      8  C7  BZF d   1       0.170  -0.090  -0.221  0.00  0.00     0.029 A 
ATOM      9  C7A BZF d   1       0.667   0.565  -1.321  0.00  0.00     0.058 A 
ENDROOT
TORSDOF 0
ENDMDL
