MODEL 1
REMARK minimizedAffinity -6.12994671
REMARK minimizedRMSD -1
REMARK  0 active torsions:
REMARK  status: ('A' for Active; 'I' for Inactive)
ROOT
ATOM      1  O1  BZF d   1      -0.223  -1.272  -0.649  0.00  0.00    -0.204 OA
ATOM      2  C2  BZF d   1      -0.888  -0.166  -0.157  0.00  0.00     0.174 A 
ATOM      3  C3  BZF d   1      -0.110   0.933  -0.236  0.00  0.00    -0.012 A 
ATOM      4  C3A BZF d   1       1.083   0.504  -0.898  0.00  0.00    -0.107 A 
ATOM      5  C4  BZF d   1       2.227   1.144  -1.280  0.00  0.00     0.055 A 
ATOM      6  C5  BZF d   1       3.233   0.422  -1.839  0.00  0.00    -0.016 A 
ATOM      7  C6  BZF d   1       3.131  -0.941  -2.027  0.00  0.00     0.022 A 
ATOM      8  C7  BZF d   1       2.013  -1.620  -1.668  0.00  0.00     0.029 A 
ATOM      9  C7A BZF d   1       0.982  -0.887  -1.133  0.00  0.00     0.058 A 
ENDROOT
TORSDOF 0
ENDMDL
