MODEL 1
REMARK minimizedAffinity -3.2051363
REMARK minimizedRMSD -1
REMARK  0 active torsions:
REMARK  status: ('A' for Active; 'I' for Inactive)
ROOT
ATOM      1  O1  BZF d   1       0.714   1.935  -1.457  0.00  0.00    -0.204 OA
ATOM      2  C2  BZF d   1      -0.521   2.364  -1.011  0.00  0.00     0.174 A 
ATOM      3  C3  BZF d   1      -1.206   1.349  -0.446  0.00  0.00    -0.012 A 
ATOM      4  C3A BZF d   1      -0.308   0.235  -0.462  0.00  0.00    -0.107 A 
ATOM      5  C4  BZF d   1      -0.405  -1.055  -0.026  0.00  0.00     0.055 A 
ATOM      6  C5  BZF d   1       0.626  -1.910  -0.258  0.00  0.00    -0.016 A 
ATOM      7  C6  BZF d   1       1.764  -1.510  -0.927  0.00  0.00     0.022 A 
ATOM      8  C7  BZF d   1       1.908  -0.239  -1.374  0.00  0.00     0.029 A 
ATOM      9  C7A BZF d   1       0.882   0.636  -1.112  0.00  0.00     0.058 A 
ENDROOT
TORSDOF 0
ENDMDL
