MODEL 1
REMARK minimizedAffinity -4.3640008
REMARK minimizedRMSD -1
REMARK  0 active torsions:
REMARK  status: ('A' for Active; 'I' for Inactive)
ROOT
ATOM      1  O1  BZF d   1      -1.339   1.503   0.371  0.00  0.00    -0.204 OA
ATOM      2  C2  BZF d   1      -2.118   0.671   1.152  0.00  0.00     0.174 A 
ATOM      3  C3  BZF d   1      -1.663  -0.597   1.102  0.00  0.00    -0.012 A 
ATOM      4  C3A BZF d   1      -0.473  -0.539   0.310  0.00  0.00    -0.107 A 
ATOM      5  C4  BZF d   1       0.438  -1.477  -0.085  0.00  0.00     0.055 A 
ATOM      6  C5  BZF d   1       1.447  -1.107  -0.916  0.00  0.00    -0.016 A 
ATOM      7  C6  BZF d   1       1.573   0.188  -1.375  0.00  0.00     0.022 A 
ATOM      8  C7  BZF d   1       0.697   1.154  -1.006  0.00  0.00     0.029 A 
ATOM      9  C7A BZF d   1      -0.306   0.791  -0.140  0.00  0.00     0.058 A 
ENDROOT
TORSDOF 0
ENDMDL
