MODEL 1
REMARK minimizedAffinity -5.41747808
REMARK minimizedRMSD -1
REMARK  0 active torsions:
REMARK  status: ('A' for Active; 'I' for Inactive)
ROOT
ATOM      1  O1  BZF d   1      -0.355   0.657  -0.439  0.00  0.00    -0.204 OA
ATOM      2  C2  BZF d   1      -0.625  -0.331   0.489  0.00  0.00     0.174 A 
ATOM      3  C3  BZF d   1       0.327  -1.286   0.461  0.00  0.00    -0.012 A 
ATOM      4  C3A BZF d   1       1.298  -0.822  -0.482  0.00  0.00    -0.107 A 
ATOM      5  C4  BZF d   1       2.484  -1.327  -0.933  0.00  0.00     0.055 A 
ATOM      6  C5  BZF d   1       3.154  -0.663  -1.911  0.00  0.00    -0.016 A 
ATOM      7  C6  BZF d   1       2.666   0.503  -2.464  0.00  0.00     0.022 A 
ATOM      8  C7  BZF d   1       1.496   1.044  -2.046  0.00  0.00     0.029 A 
ATOM      9  C7A BZF d   1       0.833   0.394  -1.034  0.00  0.00     0.058 A 
ENDROOT
TORSDOF 0
ENDMDL
