MODEL 1
REMARK minimizedAffinity -4.05241108
REMARK minimizedRMSD -1
REMARK  0 active torsions:
REMARK  status: ('A' for Active; 'I' for Inactive)
ROOT
ATOM      1  O1  BZF d   1       1.987  -1.590  -1.600  0.00  0.00    -0.204 OA
ATOM      2  C2  BZF d   1       2.990  -0.641  -1.651  0.00  0.00     0.174 A 
ATOM      3  C3  BZF d   1       2.710   0.395  -0.834  0.00  0.00    -0.012 A 
ATOM      4  C3A BZF d   1       1.498   0.030  -0.166  0.00  0.00    -0.107 A 
ATOM      5  C4  BZF d   1       0.727   0.643   0.780  0.00  0.00     0.055 A 
ATOM      6  C5  BZF d   1      -0.434   0.053   1.169  0.00  0.00    -0.016 A 
ATOM      7  C6  BZF d   1      -0.855  -1.146   0.631  0.00  0.00     0.022 A 
ATOM      8  C7  BZF d   1      -0.121  -1.793  -0.306  0.00  0.00     0.029 A 
ATOM      9  C7A BZF d   1       1.069  -1.216  -0.678  0.00  0.00     0.058 A 
ENDROOT
TORSDOF 0
ENDMDL
