MODEL 1
REMARK minimizedAffinity -6.60031271
REMARK minimizedRMSD -1
REMARK  0 active torsions:
REMARK  status: ('A' for Active; 'I' for Inactive)
ROOT
ATOM      1  O1  BZF d   1      -0.622   0.961   0.042  0.00  0.00    -0.204 OA
ATOM      2  C2  BZF d   1      -0.569  -0.213   0.767  0.00  0.00     0.174 A 
ATOM      3  C3  BZF d   1       0.429  -1.005   0.326  0.00  0.00    -0.012 A 
ATOM      4  C3A BZF d   1       1.098  -0.239  -0.682  0.00  0.00    -0.107 A 
ATOM      5  C4  BZF d   1       2.180  -0.479  -1.479  0.00  0.00     0.055 A 
ATOM      6  C5  BZF d   1       2.532   0.445  -2.411  0.00  0.00    -0.016 A 
ATOM      7  C6  BZF d   1       1.822   1.616  -2.576  0.00  0.00     0.022 A 
ATOM      8  C7  BZF d   1       0.744   1.901  -1.805  0.00  0.00     0.029 A 
ATOM      9  C7A BZF d   1       0.406   0.984  -0.841  0.00  0.00     0.058 A 
ENDROOT
TORSDOF 0
ENDMDL
