MODEL 1
REMARK minimizedAffinity -2.17139435
REMARK minimizedRMSD -1
REMARK  0 active torsions:
REMARK  status: ('A' for Active; 'I' for Inactive)
ROOT
ATOM      1  O1  BZF d   1       0.339   1.196   0.662  0.00  0.00    -0.204 OA
ATOM      2  C2  BZF d   1       0.258   0.066  -0.129  0.00  0.00     0.174 A 
ATOM      3  C3  BZF d   1      -0.761  -0.724   0.267  0.00  0.00    -0.012 A 
ATOM      4  C3A BZF d   1      -1.411  -0.001   1.316  0.00  0.00    -0.107 A 
ATOM      5  C4  BZF d   1      -2.501  -0.259   2.099  0.00  0.00     0.055 A 
ATOM      6  C5  BZF d   1      -2.831   0.620   3.082  0.00  0.00    -0.016 A 
ATOM      7  C6  BZF d   1      -2.092   1.762   3.313  0.00  0.00     0.022 A 
ATOM      8  C7  BZF d   1      -1.006   2.063   2.560  0.00  0.00     0.029 A 
ATOM      9  C7A BZF d   1      -0.689   1.194   1.544  0.00  0.00     0.058 A 
ENDROOT
TORSDOF 0
ENDMDL
