MODEL 1
REMARK minimizedAffinity -5.9774251
REMARK minimizedRMSD -1
REMARK  0 active torsions:
REMARK  status: ('A' for Active; 'I' for Inactive)
ROOT
ATOM      1  O1  BZF d   1       2.616  -1.020  -1.043  0.00  0.00    -0.204 OA
ATOM      2  C2  BZF d   1       2.911   0.319  -1.209  0.00  0.00     0.174 A 
ATOM      3  C3  BZF d   1       1.800   1.073  -1.079  0.00  0.00    -0.012 A 
ATOM      4  C3A BZF d   1       0.761   0.155  -0.725  0.00  0.00    -0.107 A 
ATOM      5  C4  BZF d   1      -0.567   0.303  -0.446  0.00  0.00     0.055 A 
ATOM      6  C5  BZF d   1      -1.319  -0.804  -0.208  0.00  0.00    -0.016 A 
ATOM      7  C6  BZF d   1      -0.777  -2.072  -0.246  0.00  0.00     0.022 A 
ATOM      8  C7  BZF d   1       0.537  -2.268  -0.513  0.00  0.00     0.029 A 
ATOM      9  C7A BZF d   1       1.306  -1.150  -0.721  0.00  0.00     0.058 A 
ENDROOT
TORSDOF 0
ENDMDL
