MODEL 1
REMARK minimizedAffinity -4.176301
REMARK minimizedRMSD -1
REMARK  0 active torsions:
REMARK  status: ('A' for Active; 'I' for Inactive)
ROOT
ATOM      1  O1  BZF d   1       2.795  -0.870  -1.361  0.00  0.00    -0.204 OA
ATOM      2  C2  BZF d   1       2.968   0.473  -1.091  0.00  0.00     0.174 A 
ATOM      3  C3  BZF d   1       1.826   1.019  -0.625  0.00  0.00    -0.012 A 
ATOM      4  C3A BZF d   1       0.906  -0.072  -0.516  0.00  0.00    -0.107 A 
ATOM      5  C4  BZF d   1      -0.390  -0.168  -0.097  0.00  0.00     0.055 A 
ATOM      6  C5  BZF d   1      -1.025  -1.366  -0.184  0.00  0.00    -0.016 A 
ATOM      7  C6  BZF d   1      -0.398  -2.486  -0.690  0.00  0.00     0.022 A 
ATOM      8  C7  BZF d   1       0.889  -2.440  -1.113  0.00  0.00     0.029 A 
ATOM      9  C7A BZF d   1       1.544  -1.239  -0.996  0.00  0.00     0.058 A 
ENDROOT
TORSDOF 0
ENDMDL
