MODEL 1
REMARK minimizedAffinity -2.51289678
REMARK minimizedRMSD -1
REMARK  0 active torsions:
REMARK  status: ('A' for Active; 'I' for Inactive)
ROOT
ATOM      1  O1  BZF d   1       1.500  -1.960  -1.149  0.00  0.00    -0.204 OA
ATOM      2  C2  BZF d   1       2.579  -1.137  -1.402  0.00  0.00     0.174 A 
ATOM      3  C3  BZF d   1       2.319   0.127  -1.011  0.00  0.00    -0.012 A 
ATOM      4  C3A BZF d   1       1.029   0.072  -0.395  0.00  0.00    -0.107 A 
ATOM      5  C4  BZF d   1       0.234   1.007   0.204  0.00  0.00     0.055 A 
ATOM      6  C5  BZF d   1      -1.002   0.644   0.638  0.00  0.00    -0.016 A 
ATOM      7  C6  BZF d   1      -1.476  -0.643   0.484  0.00  0.00     0.022 A 
ATOM      8  C7  BZF d   1      -0.721  -1.606  -0.099  0.00  0.00     0.029 A 
ATOM      9  C7A BZF d   1       0.540  -1.250  -0.509  0.00  0.00     0.058 A 
ENDROOT
TORSDOF 0
ENDMDL
