MODEL 1
REMARK minimizedAffinity -5.50787258
REMARK minimizedRMSD -1
REMARK  0 active torsions:
REMARK  status: ('A' for Active; 'I' for Inactive)
ROOT
ATOM      1  O1  BZF d   1      -1.028  -0.892   0.062  0.00  0.00    -0.204 OA
ATOM      2  C2  BZF d   1      -1.537   0.291   0.562  0.00  0.00     0.174 A 
ATOM      3  C3  BZF d   1      -0.586   1.246   0.591  0.00  0.00    -0.012 A 
ATOM      4  C3A BZF d   1       0.567   0.648  -0.010  0.00  0.00    -0.107 A 
ATOM      5  C4  BZF d   1       1.826   1.101  -0.282  0.00  0.00     0.055 A 
ATOM      6  C5  BZF d   1       2.738   0.242  -0.808  0.00  0.00    -0.016 A 
ATOM      7  C6  BZF d   1       2.427  -1.076  -1.070  0.00  0.00     0.022 A 
ATOM      8  C7  BZF d   1       1.190  -1.571  -0.821  0.00  0.00     0.029 A 
ATOM      9  C7A BZF d   1       0.256  -0.696  -0.320  0.00  0.00     0.058 A 
ENDROOT
TORSDOF 0
ENDMDL
