MODEL 1
REMARK minimizedAffinity -0.393605262
REMARK minimizedRMSD -1
REMARK  2 active torsions:
REMARK  status: ('A' for Active; 'I' for Inactive)
REMARK    1  A    between atoms: C2'_3  and  C1'_4 
REMARK    2  A    between atoms: C1'_4  and  C1_5 
ROOT
ATOM      1  C1  I4B d   1       0.769  -1.003   2.575  0.00  0.00    -0.075 A 
ATOM      2  C2  I4B d   1       2.134  -1.066   2.706  0.00  0.00     0.003 A 
ATOM      3  C3  I4B d   1       2.713  -1.486   3.927  0.00  0.00     0.002 A 
ATOM      4  C4  I4B d   1       1.898  -1.782   5.000  0.00  0.00    -0.004 A 
ATOM      5  C5  I4B d   1       0.514  -1.740   4.858  0.00  0.00     0.002 A 
ATOM      6  C6  I4B d   1      -0.055  -1.359   3.634  0.00  0.00     0.003 A 
ENDROOT
BRANCH   1   7
ATOM      7  C1' I4B d   1       0.190  -0.523   1.281  0.00  0.00     0.060 C 
BRANCH   7   8
ATOM      8  C2' I4B d   1      -1.304  -0.768   1.319  0.00  0.00    -0.013 C 
ATOM      9  C4' I4B d   1      -2.000   0.240   2.195  0.00  0.00     0.013 C 
ATOM     10  C3' I4B d   1      -1.819  -0.709  -0.089  0.00  0.00     0.013 C 
ENDBRANCH   7   8
ENDBRANCH   1   7
TORSDOF 2
ENDMDL
