MODEL 1
REMARK minimizedAffinity -2.01739907
REMARK minimizedRMSD -1
REMARK  2 active torsions:
REMARK  status: ('A' for Active; 'I' for Inactive)
REMARK    1  A    between atoms: C2'_3  and  C1'_4 
REMARK    2  A    between atoms: C1'_4  and  C1_5 
ROOT
ATOM      1  C1  I4B d   1       0.595  -0.741   2.627  0.00  0.00    -0.075 A 
ATOM      2  C2  I4B d   1       0.589  -0.706   1.255  0.00  0.00     0.003 A 
ATOM      3  C3  I4B d   1      -0.553  -0.244   0.558  0.00  0.00     0.002 A 
ATOM      4  C4  I4B d   1      -1.678   0.125   1.267  0.00  0.00    -0.004 A 
ATOM      5  C5  I4B d   1      -1.663   0.112   2.658  0.00  0.00     0.002 A 
ATOM      6  C6  I4B d   1      -0.515  -0.312   3.344  0.00  0.00     0.003 A 
ENDROOT
BRANCH   1   7
ATOM      7  C1' I4B d   1       1.806  -1.266   3.330  0.00  0.00     0.060 C 
BRANCH   7   8
ATOM      8  C2' I4B d   1       1.491  -1.340   4.811  0.00  0.00    -0.013 C 
ATOM      9  C4' I4B d   1       0.532  -2.462   5.109  0.00  0.00     0.013 C 
ATOM     10  C3' I4B d   1       2.783  -1.521   5.550  0.00  0.00     0.013 C 
ENDBRANCH   7   8
ENDBRANCH   1   7
TORSDOF 2
ENDMDL
