MODEL 1
REMARK minimizedAffinity 3.99661374
REMARK minimizedRMSD -1
REMARK  2 active torsions:
REMARK  status: ('A' for Active; 'I' for Inactive)
REMARK    1  A    between atoms: C2'_3  and  C1'_4 
REMARK    2  A    between atoms: C1'_4  and  C1_5 
ROOT
ATOM      1  C1  I4B d   1       0.664  -0.655   2.302  0.00  0.00    -0.075 A 
ATOM      2  C2  I4B d   1       2.025  -0.775   2.435  0.00  0.00     0.003 A 
ATOM      3  C3  I4B d   1       2.586  -1.217   3.657  0.00  0.00     0.002 A 
ATOM      4  C4  I4B d   1       1.758  -1.479   4.729  0.00  0.00    -0.004 A 
ATOM      5  C5  I4B d   1       0.377  -1.379   4.586  0.00  0.00     0.002 A 
ATOM      6  C6  I4B d   1      -0.174  -0.976   3.361  0.00  0.00     0.003 A 
ENDROOT
BRANCH   1   7
ATOM      7  C1' I4B d   1       0.107  -0.153   1.007  0.00  0.00     0.060 C 
BRANCH   7   8
ATOM      8  C2' I4B d   1      -1.361  -0.522   0.957  0.00  0.00    -0.013 C 
ATOM      9  C4' I4B d   1      -2.233   0.667   1.264  0.00  0.00     0.013 C 
ATOM     10  C3' I4B d   1      -1.654  -1.069  -0.408  0.00  0.00     0.013 C 
ENDBRANCH   7   8
ENDBRANCH   1   7
TORSDOF 2
ENDMDL
