MODEL 1
REMARK minimizedAffinity -0.743986309
REMARK minimizedRMSD -1
REMARK  2 active torsions:
REMARK  status: ('A' for Active; 'I' for Inactive)
REMARK    1  A    between atoms: C2'_3  and  C1'_4 
REMARK    2  A    between atoms: C1'_4  and  C1_5 
ROOT
ATOM      1  C1  I4B d   1      -1.846  -0.976   3.671  0.00  0.00    -0.075 A 
ATOM      2  C2  I4B d   1      -2.386  -1.860   4.571  0.00  0.00     0.003 A 
ATOM      3  C3  I4B d   1      -1.545  -2.589   5.447  0.00  0.00     0.002 A 
ATOM      4  C4  I4B d   1      -0.176  -2.440   5.355  0.00  0.00    -0.004 A 
ATOM      5  C5  I4B d   1       0.369  -1.526   4.457  0.00  0.00     0.002 A 
ATOM      6  C6  I4B d   1      -0.472  -0.780   3.618  0.00  0.00     0.003 A 
ENDROOT
BRANCH   1   7
ATOM      7  C1' I4B d   1      -2.761  -0.248   2.738  0.00  0.00     0.060 C 
BRANCH   7   8
ATOM      8  C2' I4B d   1      -1.927   0.298   1.597  0.00  0.00    -0.013 C 
ATOM      9  C4' I4B d   1      -2.548  -0.026   0.264  0.00  0.00     0.013 C 
ATOM     10  C3' I4B d   1      -1.795   1.780   1.788  0.00  0.00     0.013 C 
ENDBRANCH   7   8
ENDBRANCH   1   7
TORSDOF 2
ENDMDL
