MODEL 1
REMARK minimizedAffinity 9.07749653
REMARK minimizedRMSD -1
REMARK  2 active torsions:
REMARK  status: ('A' for Active; 'I' for Inactive)
REMARK    1  A    between atoms: C2'_3  and  C1'_4 
REMARK    2  A    between atoms: C1'_4  and  C1_5 
ROOT
ATOM      1  C1  I4B d   1      -0.107  -0.789   3.386  0.00  0.00    -0.075 A 
ATOM      2  C2  I4B d   1       0.136  -1.104   4.700  0.00  0.00     0.003 A 
ATOM      3  C3  I4B d   1       1.459  -1.348   5.141  0.00  0.00     0.002 A 
ATOM      4  C4  I4B d   1       2.496  -1.314   4.231  0.00  0.00    -0.004 A 
ATOM      5  C5  I4B d   1       2.251  -0.971   2.905  0.00  0.00     0.002 A 
ATOM      6  C6  I4B d   1       0.943  -0.695   2.482  0.00  0.00     0.003 A 
ENDROOT
BRANCH   1   7
ATOM      7  C1' I4B d   1      -1.520  -0.570   2.947  0.00  0.00     0.060 C 
BRANCH   7   8
ATOM      8  C2' I4B d   1      -1.494   0.295   1.703  0.00  0.00    -0.013 C 
ATOM      9  C4' I4B d   1      -2.468  -0.206   0.670  0.00  0.00     0.013 C 
ATOM     10  C3' I4B d   1      -1.814   1.702   2.111  0.00  0.00     0.013 C 
ENDBRANCH   7   8
ENDBRANCH   1   7
TORSDOF 2
ENDMDL
