MODEL 1
REMARK minimizedAffinity 4.02095413
REMARK minimizedRMSD -1
REMARK  2 active torsions:
REMARK  status: ('A' for Active; 'I' for Inactive)
REMARK    1  A    between atoms: C2'_3  and  C1'_4 
REMARK    2  A    between atoms: C1'_4  and  C1_5 
ROOT
ATOM      1  C1  I4B d   1       0.186   0.246   0.851  0.00  0.00    -0.075 A 
ATOM      2  C2  I4B d   1      -0.405   0.043  -0.371  0.00  0.00     0.003 A 
ATOM      3  C3  I4B d   1      -1.797  -0.204  -0.457  0.00  0.00     0.002 A 
ATOM      4  C4  I4B d   1      -2.545  -0.290   0.700  0.00  0.00    -0.004 A 
ATOM      5  C5  I4B d   1      -1.948  -0.061   1.936  0.00  0.00     0.002 A 
ATOM      6  C6  I4B d   1      -0.576   0.221   2.012  0.00  0.00     0.003 A 
ENDROOT
BRANCH   1   7
ATOM      7  C1' I4B d   1       1.664   0.472   0.908  0.00  0.00     0.060 C 
BRANCH   7   8
ATOM      8  C2' I4B d   1       1.964   1.775   0.195  0.00  0.00    -0.013 C 
ATOM      9  C4' I4B d   1       1.867   2.947   1.135  0.00  0.00     0.013 C 
ATOM     10  C3' I4B d   1       3.337   1.670  -0.400  0.00  0.00     0.013 C 
ENDBRANCH   7   8
ENDBRANCH   1   7
TORSDOF 2
ENDMDL
