MODEL 1
REMARK minimizedAffinity -4.0769434
REMARK minimizedRMSD -1
REMARK  0 active torsions:
REMARK  status: ('A' for Active; 'I' for Inactive)
ROOT
ATOM      1  C1  DEN d   1      -1.438   0.664   2.133  0.00  0.00     0.130 A 
ATOM      2  C2  DEN d   1      -0.956   1.513   3.219  0.00  0.00    -0.031 A 
ATOM      3  C3  DEN d   1       0.470   1.805   2.972  0.00  0.00     0.027 A 
ATOM      4  C4  DEN d   1       1.970   1.033   1.021  0.00  0.00     0.027 A 
ATOM      5  C5  DEN d   1       2.010   0.289  -0.137  0.00  0.00    -0.003 A 
ATOM      6  C6  DEN d   1       0.923  -0.404  -0.598  0.00  0.00     0.001 A 
ATOM      7  C7  DEN d   1      -0.266  -0.331   0.079  0.00  0.00     0.017 A 
ATOM      8  C8  DEN d   1      -0.312   0.411   1.252  0.00  0.00    -0.094 A 
ATOM      9  C9  DEN d   1       0.795   1.115   1.695  0.00  0.00    -0.072 A 
ENDROOT
TORSDOF 0
ENDMDL
