MODEL 1
REMARK minimizedAffinity -5.5602212
REMARK minimizedRMSD -1
REMARK  0 active torsions:
REMARK  status: ('A' for Active; 'I' for Inactive)
ROOT
ATOM      1  C1  DEN d   1      -1.115   1.468   2.287  0.00  0.00     0.130 A 
ATOM      2  C2  DEN d   1       0.253   1.744   2.716  0.00  0.00    -0.031 A 
ATOM      3  C3  DEN d   1       1.162   0.905   1.909  0.00  0.00     0.027 A 
ATOM      4  C4  DEN d   1       0.586  -0.782   0.044  0.00  0.00     0.027 A 
ATOM      5  C5  DEN d   1      -0.441  -1.365  -0.663  0.00  0.00    -0.003 A 
ATOM      6  C6  DEN d   1      -1.757  -1.073  -0.416  0.00  0.00     0.001 A 
ATOM      7  C7  DEN d   1      -2.077  -0.139   0.534  0.00  0.00     0.017 A 
ATOM      8  C8  DEN d   1      -1.047   0.448   1.256  0.00  0.00    -0.094 A 
ATOM      9  C9  DEN d   1       0.277   0.148   0.983  0.00  0.00    -0.072 A 
ENDROOT
TORSDOF 0
ENDMDL
