MODEL 1
REMARK minimizedAffinity 3.66595411
REMARK minimizedRMSD -1
REMARK  0 active torsions:
REMARK  status: ('A' for Active; 'I' for Inactive)
ROOT
ATOM      1  C1  DEN d   1       2.689   0.817   4.850  0.00  0.00     0.130 A 
ATOM      2  C2  DEN d   1       1.302   0.485   4.535  0.00  0.00    -0.031 A 
ATOM      3  C3  DEN d   1       1.112  -0.959   4.777  0.00  0.00     0.027 A 
ATOM      4  C4  DEN d   1       2.819  -2.704   5.610  0.00  0.00     0.027 A 
ATOM      5  C5  DEN d   1       4.126  -2.899   5.999  0.00  0.00    -0.003 A 
ATOM      6  C6  DEN d   1       5.046  -1.885   6.000  0.00  0.00     0.001 A 
ATOM      7  C7  DEN d   1       4.662  -0.618   5.647  0.00  0.00     0.017 A 
ATOM      8  C8  DEN d   1       3.347  -0.415   5.246  0.00  0.00    -0.094 A 
ATOM      9  C9  DEN d   1       2.429  -1.451   5.264  0.00  0.00    -0.072 A 
ENDROOT
TORSDOF 0
ENDMDL
