MODEL 1
REMARK minimizedAffinity 3.06279612
REMARK minimizedRMSD -1
REMARK  0 active torsions:
REMARK  status: ('A' for Active; 'I' for Inactive)
ROOT
ATOM      1  C1  DEN d   1       1.316  -0.001  -0.356  0.00  0.00     0.130 A 
ATOM      2  C2  DEN d   1      -0.071   0.142   0.079  0.00  0.00    -0.031 A 
ATOM      3  C3  DEN d   1      -0.882   0.514  -1.098  0.00  0.00     0.027 A 
ATOM      4  C4  DEN d   1      -0.130   0.876  -3.538  0.00  0.00     0.027 A 
ATOM      5  C5  DEN d   1       0.952   0.879  -4.391  0.00  0.00    -0.003 A 
ATOM      6  C6  DEN d   1       2.226   0.624  -3.955  0.00  0.00     0.001 A 
ATOM      7  C7  DEN d   1       2.443   0.311  -2.639  0.00  0.00     0.017 A 
ATOM      8  C8  DEN d   1       1.358   0.313  -1.772  0.00  0.00    -0.094 A 
ATOM      9  C9  DEN d   1       0.077   0.561  -2.234  0.00  0.00    -0.072 A 
ENDROOT
TORSDOF 0
ENDMDL
