MODEL 1
REMARK minimizedAffinity -3.89885926
REMARK minimizedRMSD -1
REMARK  0 active torsions:
REMARK  status: ('A' for Active; 'I' for Inactive)
ROOT
ATOM      1  C1  DEN d   1      -1.045  -1.188  -4.140  0.00  0.00     0.130 A 
ATOM      2  C2  DEN d   1      -1.800  -0.781  -5.322  0.00  0.00    -0.031 A 
ATOM      3  C3  DEN d   1      -1.078   0.337  -5.962  0.00  0.00     0.027 A 
ATOM      4  C4  DEN d   1       1.127   1.467  -5.245  0.00  0.00     0.027 A 
ATOM      5  C5  DEN d   1       2.129   1.475  -4.300  0.00  0.00    -0.003 A 
ATOM      6  C6  DEN d   1       2.126   0.625  -3.226  0.00  0.00     0.001 A 
ATOM      7  C7  DEN d   1       1.123  -0.300  -3.094  0.00  0.00     0.017 A 
ATOM      8  C8  DEN d   1       0.105  -0.308  -4.039  0.00  0.00    -0.094 A 
ATOM      9  C9  DEN d   1       0.133   0.551  -5.125  0.00  0.00    -0.072 A 
ENDROOT
TORSDOF 0
ENDMDL
