MODEL 1
REMARK minimizedAffinity -1.20711303
REMARK minimizedRMSD -1
REMARK  1 active torsions:
REMARK  status: ('A' for Active; 'I' for Inactive)
REMARK    1  A    between atoms: C1_2  and  C2_3 
ROOT
ATOM      1  C2  UNL d   1       2.242   0.610   0.086  0.00  0.00    -0.077 A 
ATOM      2  C3  UNL d   1       2.444   1.852   0.704  0.00  0.00     0.002 A 
ATOM      3  C4  UNL d   1       3.209   2.837   0.077  0.00  0.00     0.002 A 
ATOM      4  C5  UNL d   1       3.774   2.592  -1.173  0.00  0.00    -0.004 A 
ATOM      5  C6  UNL d   1       3.581   1.359  -1.795  0.00  0.00     0.002 A 
ATOM      6  C7  UNL d   1       2.817   0.373  -1.169  0.00  0.00     0.002 A 
ENDROOT
BRANCH   1   7
ATOM      7  C1  UNL d   1       1.376  -0.436   0.739  0.00  0.00     0.055 C 
ATOM      8  C   UNL d   1      -0.054  -0.371   0.223  0.00  0.00     0.019 C 
ENDBRANCH   1   7
TORSDOF 1
ENDMDL
