MODEL 1
REMARK minimizedAffinity -3.02197218
REMARK minimizedRMSD -1
REMARK  1 active torsions:
REMARK  status: ('A' for Active; 'I' for Inactive)
REMARK    1  A    between atoms: C1_2  and  C2_3 
ROOT
ATOM      1  C2  UNL d   1      -0.753  -0.143   2.879  0.00  0.00    -0.077 A 
ATOM      2  C3  UNL d   1      -2.066   0.100   2.452  0.00  0.00     0.002 A 
ATOM      3  C4  UNL d   1      -2.398   0.004   1.099  0.00  0.00     0.002 A 
ATOM      4  C5  UNL d   1      -1.424  -0.339   0.164  0.00  0.00    -0.004 A 
ATOM      5  C6  UNL d   1      -0.115  -0.580   0.578  0.00  0.00     0.002 A 
ATOM      6  C7  UNL d   1       0.219  -0.484   1.929  0.00  0.00     0.002 A 
ENDROOT
BRANCH   1   7
ATOM      7  C1  UNL d   1      -0.403  -0.088   4.343  0.00  0.00     0.055 C 
ATOM      8  C   UNL d   1       0.336  -1.344   4.783  0.00  0.00     0.019 C 
ENDBRANCH   1   7
TORSDOF 1
ENDMDL
