MODEL 1
REMARK minimizedAffinity -6.33676195
REMARK minimizedRMSD -1
REMARK  2 active torsions:
REMARK  status: ('A' for Active; 'I' for Inactive)
REMARK    1  A    between atoms: C2'_3  and  C1'_4 
REMARK    2  A    between atoms: C1'_4  and  C1_5 
ROOT
ATOM      1  C1  I4B d   1      -0.281  -0.163   0.084  0.00  0.00    -0.075 A 
ATOM      2  C2  I4B d   1       0.849  -0.514   0.780  0.00  0.00     0.003 A 
ATOM      3  C3  I4B d   1       0.784  -0.741   2.176  0.00  0.00     0.002 A 
ATOM      4  C4  I4B d   1      -0.412  -0.558   2.840  0.00  0.00    -0.004 A 
ATOM      5  C5  I4B d   1      -1.561  -0.224   2.129  0.00  0.00     0.002 A 
ATOM      6  C6  I4B d   1      -1.499  -0.038   0.740  0.00  0.00     0.003 A 
ENDROOT
BRANCH   1   7
ATOM      7  C1' I4B d   1      -0.171   0.101  -1.384  0.00  0.00     0.060 C 
BRANCH   7   8
ATOM      8  C2' I4B d   1      -0.833   1.434  -1.670  0.00  0.00    -0.013 C 
ATOM      9  C4' I4B d   1       0.174   2.455  -2.130  0.00  0.00     0.013 C 
ATOM     10  C3' I4B d   1      -1.892   1.212  -2.708  0.00  0.00     0.013 C 
ENDBRANCH   7   8
ENDBRANCH   1   7
TORSDOF 2
ENDMDL
