MODEL 1
REMARK minimizedAffinity -2.86974406
REMARK minimizedRMSD -1
REMARK  2 active torsions:
REMARK  status: ('A' for Active; 'I' for Inactive)
REMARK    1  A    between atoms: C2'_3  and  C1'_4 
REMARK    2  A    between atoms: C1'_4  and  C1_5 
ROOT
ATOM      1  C1  I4B d   1      -0.321   0.073  -0.631  0.00  0.00    -0.075 A 
ATOM      2  C2  I4B d   1      -1.579   0.184  -0.093  0.00  0.00     0.003 A 
ATOM      3  C3  I4B d   1      -1.792  -0.089   1.281  0.00  0.00     0.002 A 
ATOM      4  C4  I4B d   1      -0.737  -0.514   2.061  0.00  0.00    -0.004 A 
ATOM      5  C5  I4B d   1       0.542  -0.604   1.518  0.00  0.00     0.002 A 
ATOM      6  C6  I4B d   1       0.754  -0.296   0.167  0.00  0.00     0.003 A 
ENDROOT
BRANCH   1   7
ATOM      7  C1' I4B d   1      -0.138   0.336  -2.092  0.00  0.00     0.060 C 
BRANCH   7   8
ATOM      8  C2' I4B d   1      -0.414   1.805  -2.341  0.00  0.00    -0.013 C 
ATOM      9  C4' I4B d   1       0.760   2.477  -3.003  0.00  0.00     0.013 C 
ATOM     10  C3' I4B d   1      -1.647   1.907  -3.189  0.00  0.00     0.013 C 
ENDBRANCH   7   8
ENDBRANCH   1   7
TORSDOF 2
ENDMDL
