MODEL 1
REMARK minimizedAffinity -0.0541181751
REMARK minimizedRMSD -1
REMARK  2 active torsions:
REMARK  status: ('A' for Active; 'I' for Inactive)
REMARK    1  A    between atoms: C2'_3  and  C1'_4 
REMARK    2  A    between atoms: C1'_4  and  C1_5 
ROOT
ATOM      1  C1  I4B d   1      -0.627   0.908  -2.016  0.00  0.00    -0.075 A 
ATOM      2  C2  I4B d   1      -1.767   1.670  -2.067  0.00  0.00     0.003 A 
ATOM      3  C3  I4B d   1      -1.770   2.904  -2.763  0.00  0.00     0.002 A 
ATOM      4  C4  I4B d   1      -0.605   3.357  -3.346  0.00  0.00    -0.004 A 
ATOM      5  C5  I4B d   1       0.544   2.572  -3.313  0.00  0.00     0.002 A 
ATOM      6  C6  I4B d   1       0.530   1.334  -2.654  0.00  0.00     0.003 A 
ENDROOT
BRANCH   1   7
ATOM      7  C1' I4B d   1      -0.650  -0.373  -1.244  0.00  0.00     0.060 C 
BRANCH   7   8
ATOM      8  C2' I4B d   1      -0.204  -0.073   0.173  0.00  0.00    -0.013 C 
ATOM      9  C4' I4B d   1      -1.245  -0.501   1.174  0.00  0.00     0.013 C 
ATOM     10  C3' I4B d   1       1.097  -0.780   0.408  0.00  0.00     0.013 C 
ENDBRANCH   7   8
ENDBRANCH   1   7
TORSDOF 2
ENDMDL
