MODEL 1
REMARK minimizedAffinity -5.05501795
REMARK minimizedRMSD -1
REMARK  2 active torsions:
REMARK  status: ('A' for Active; 'I' for Inactive)
REMARK    1  A    between atoms: C2'_3  and  C1'_4 
REMARK    2  A    between atoms: C1'_4  and  C1_5 
ROOT
ATOM      1  C1  I4B d   1      -0.403  -0.222   0.140  0.00  0.00    -0.075 A 
ATOM      2  C2  I4B d   1      -1.400   0.058   1.041  0.00  0.00     0.003 A 
ATOM      3  C3  I4B d   1      -1.173  -0.109   2.429  0.00  0.00     0.002 A 
ATOM      4  C4  I4B d   1       0.040  -0.603   2.865  0.00  0.00    -0.004 A 
ATOM      5  C5  I4B d   1       1.057  -0.863   1.951  0.00  0.00     0.002 A 
ATOM      6  C6  I4B d   1       0.838  -0.660   0.580  0.00  0.00     0.003 A 
ENDROOT
BRANCH   1   7
ATOM      7  C1' I4B d   1      -0.688  -0.065  -1.321  0.00  0.00     0.060 C 
BRANCH   7   8
ATOM      8  C2' I4B d   1      -1.242   1.327  -1.542  0.00  0.00    -0.013 C 
ATOM      9  C4' I4B d   1      -0.344   2.134  -2.442  0.00  0.00     0.013 C 
ATOM     10  C3' I4B d   1      -2.616   1.192  -2.128  0.00  0.00     0.013 C 
ENDBRANCH   7   8
ENDBRANCH   1   7
TORSDOF 2
ENDMDL
