MODEL 1
REMARK minimizedAffinity -3.48281455
REMARK minimizedRMSD -1
REMARK  0 active torsions:
REMARK  status: ('A' for Active; 'I' for Inactive)
ROOT
ATOM      1  C1  BNZ d   1       0.227  -0.145   0.531  0.00  0.00     0.000 A 
ATOM      2  C2  BNZ d   1      -0.723  -0.549   1.431  0.00  0.00     0.000 A 
ATOM      3  C3  BNZ d   1      -0.373  -0.921   2.699  0.00  0.00     0.000 A 
ATOM      4  C4  BNZ d   1       0.929  -0.926   3.053  0.00  0.00     0.000 A 
ATOM      5  C5  BNZ d   1       1.899  -0.530   2.154  0.00  0.00     0.000 A 
ATOM      6  C6  BNZ d   1       1.539  -0.119   0.891  0.00  0.00     0.000 A 
ENDROOT
TORSDOF 0
ENDMDL
