MODEL 1
REMARK minimizedAffinity -1.190063
REMARK minimizedRMSD -1
REMARK  0 active torsions:
REMARK  status: ('A' for Active; 'I' for Inactive)
ROOT
ATOM      1  C1  BNZ d   1       3.103  -0.925   0.176  0.00  0.00     0.000 A 
ATOM      2  C2  BNZ d   1       1.949  -0.917  -0.561  0.00  0.00     0.000 A 
ATOM      3  C3  BNZ d   1       0.737  -0.717   0.039  0.00  0.00     0.000 A 
ATOM      4  C4  BNZ d   1       0.676  -0.566   1.378  0.00  0.00     0.000 A 
ATOM      5  C5  BNZ d   1       1.830  -0.581   2.136  0.00  0.00     0.000 A 
ATOM      6  C6  BNZ d   1       3.052  -0.744   1.524  0.00  0.00     0.000 A 
ENDROOT
TORSDOF 0
ENDMDL
