MODEL 1
REMARK minimizedAffinity 2.17704916
REMARK minimizedRMSD -1
REMARK  0 active torsions:
REMARK  status: ('A' for Active; 'I' for Inactive)
ROOT
ATOM      1  C1  BNZ d   1       0.301   4.477  -2.453  0.00  0.00     0.000 A 
ATOM      2  C2  BNZ d   1       1.143   4.284  -3.516  0.00  0.00     0.000 A 
ATOM      3  C3  BNZ d   1       1.015   3.186  -4.320  0.00  0.00     0.000 A 
ATOM      4  C4  BNZ d   1       0.073   2.263  -4.037  0.00  0.00     0.000 A 
ATOM      5  C5  BNZ d   1      -0.777   2.439  -2.963  0.00  0.00     0.000 A 
ATOM      6  C6  BNZ d   1      -0.671   3.565  -2.179  0.00  0.00     0.000 A 
ENDROOT
TORSDOF 0
ENDMDL
