MODEL 1
REMARK minimizedAffinity -3.44090438
REMARK minimizedRMSD -1
REMARK  0 active torsions:
REMARK  status: ('A' for Active; 'I' for Inactive)
ROOT
ATOM      1  C1  BNZ d   1       2.220  -1.099  -0.866  0.00  0.00     0.000 A 
ATOM      2  C2  BNZ d   1       1.009  -0.711  -1.372  0.00  0.00     0.000 A 
ATOM      3  C3  BNZ d   1       0.205   0.152  -0.681  0.00  0.00     0.000 A 
ATOM      4  C4  BNZ d   1       0.596   0.594   0.532  0.00  0.00     0.000 A 
ATOM      5  C5  BNZ d   1       1.811   0.204   1.060  0.00  0.00     0.000 A 
ATOM      6  C6  BNZ d   1       2.634  -0.634   0.344  0.00  0.00     0.000 A 
ENDROOT
TORSDOF 0
ENDMDL
