MODEL 1
REMARK minimizedAffinity -4.788661
REMARK minimizedRMSD -1
REMARK  0 active torsions:
REMARK  status: ('A' for Active; 'I' for Inactive)
ROOT
ATOM      1  C1  BNZ d   1       1.647  -0.780   2.078  0.00  0.00     0.000 A 
ATOM      2  C2  BNZ d   1       1.102   0.122   1.204  0.00  0.00     0.000 A 
ATOM      3  C3  BNZ d   1      -0.247   0.344   1.178  0.00  0.00     0.000 A 
ATOM      4  C4  BNZ d   1      -1.051  -0.363   1.997  0.00  0.00     0.000 A 
ATOM      5  C5  BNZ d   1      -0.518  -1.282   2.878  0.00  0.00     0.000 A 
ATOM      6  C6  BNZ d   1       0.844  -1.475   2.929  0.00  0.00     0.000 A 
ENDROOT
TORSDOF 0
ENDMDL
