MODEL 1
REMARK minimizedAffinity -4.57013512
REMARK minimizedRMSD -1
REMARK  0 active torsions:
REMARK  status: ('A' for Active; 'I' for Inactive)
ROOT
ATOM      1  C1  BNZ d   1       1.613  -0.327   1.770  0.00  0.00     0.000 A 
ATOM      2  C2  BNZ d   1       0.816  -0.907   2.719  0.00  0.00     0.000 A 
ATOM      3  C3  BNZ d   1      -0.538  -0.983   2.545  0.00  0.00     0.000 A 
ATOM      4  C4  BNZ d   1      -1.096  -0.443   1.442  0.00  0.00     0.000 A 
ATOM      5  C5  BNZ d   1      -0.306   0.153   0.480  0.00  0.00     0.000 A 
ATOM      6  C6  BNZ d   1       1.060   0.193   0.640  0.00  0.00     0.000 A 
ENDROOT
TORSDOF 0
ENDMDL
