MODEL 1
REMARK minimizedAffinity -4.84814405
REMARK minimizedRMSD -1
REMARK  0 active torsions:
REMARK  status: ('A' for Active; 'I' for Inactive)
ROOT
ATOM      1  C1  BNZ d   1      -0.752  -0.353   1.902  0.00  0.00     0.000 A 
ATOM      2  C2  BNZ d   1       0.015  -0.862   2.916  0.00  0.00     0.000 A 
ATOM      3  C3  BNZ d   1       1.333  -1.162   2.714  0.00  0.00     0.000 A 
ATOM      4  C4  BNZ d   1       1.872  -0.990   1.490  0.00  0.00     0.000 A 
ATOM      5  C5  BNZ d   1       1.109  -0.487   0.455  0.00  0.00     0.000 A 
ATOM      6  C6  BNZ d   1      -0.207  -0.149   0.672  0.00  0.00     0.000 A 
ENDROOT
TORSDOF 0
ENDMDL
