MODEL 1
REMARK minimizedAffinity 0.0895981789
REMARK minimizedRMSD -1
REMARK  0 active torsions:
REMARK  status: ('A' for Active; 'I' for Inactive)
ROOT
ATOM      1  C1  BNZ d   1       1.609   3.819  -4.359  0.00  0.00     0.000 A 
ATOM      2  C2  BNZ d   1       1.381   4.605  -3.261  0.00  0.00     0.000 A 
ATOM      3  C3  BNZ d   1       0.294   4.391  -2.461  0.00  0.00     0.000 A 
ATOM      4  C4  BNZ d   1      -0.584   3.419  -2.782  0.00  0.00     0.000 A 
ATOM      5  C5  BNZ d   1      -0.373   2.624  -3.891  0.00  0.00     0.000 A 
ATOM      6  C6  BNZ d   1       0.743   2.817  -4.672  0.00  0.00     0.000 A 
ENDROOT
TORSDOF 0
ENDMDL
