MODEL 1
REMARK minimizedAffinity 0.720549166
REMARK minimizedRMSD -1
REMARK  1 active torsions:
REMARK  status: ('A' for Active; 'I' for Inactive)
REMARK    1  A    between atoms: C1_2  and  C2_3 
ROOT
ATOM      1  C2  UNL d   1      -3.107   3.457  -5.909  0.00  0.00    -0.077 A 
ATOM      2  C3  UNL d   1      -2.406   4.667  -5.815  0.00  0.00     0.002 A 
ATOM      3  C4  UNL d   1      -3.096   5.879  -5.747  0.00  0.00     0.002 A 
ATOM      4  C5  UNL d   1      -4.489   5.892  -5.767  0.00  0.00    -0.004 A 
ATOM      5  C6  UNL d   1      -5.195   4.693  -5.862  0.00  0.00     0.002 A 
ATOM      6  C7  UNL d   1      -4.507   3.481  -5.931  0.00  0.00     0.002 A 
ENDROOT
BRANCH   1   7
ATOM      7  C1  UNL d   1      -2.365   2.145  -5.933  0.00  0.00     0.055 C 
ATOM      8  C   UNL d   1      -0.860   2.361  -5.993  0.00  0.00     0.019 C 
ENDBRANCH   1   7
TORSDOF 1
ENDMDL
