MODEL 1
REMARK minimizedAffinity 5.80011034
REMARK minimizedRMSD -1
REMARK  1 active torsions:
REMARK  status: ('A' for Active; 'I' for Inactive)
REMARK    1  A    between atoms: C1_2  and  C2_3 
ROOT
ATOM      1  C2  UNL d   1      -0.557   1.646   0.990  0.00  0.00    -0.077 A 
ATOM      2  C3  UNL d   1      -1.653   0.782   1.113  0.00  0.00     0.002 A 
ATOM      3  C4  UNL d   1      -1.489  -0.595   0.951  0.00  0.00     0.002 A 
ATOM      4  C5  UNL d   1      -0.230  -1.120   0.668  0.00  0.00    -0.004 A 
ATOM      5  C6  UNL d   1       0.867  -0.268   0.541  0.00  0.00     0.002 A 
ATOM      6  C7  UNL d   1       0.704   1.108   0.702  0.00  0.00     0.002 A 
ENDROOT
BRANCH   1   7
ATOM      7  C1  UNL d   1      -0.723   3.127   1.213  0.00  0.00     0.055 C 
ATOM      8  C   UNL d   1      -1.579   3.409   2.439  0.00  0.00     0.019 C 
ENDBRANCH   1   7
TORSDOF 1
ENDMDL
