MODEL 1
REMARK minimizedAffinity -1.85375059
REMARK minimizedRMSD -1
REMARK  1 active torsions:
REMARK  status: ('A' for Active; 'I' for Inactive)
REMARK    1  A    between atoms: C1_2  and  C2_3 
ROOT
ATOM      1  C2  UNL d   1      -3.161   3.573  -5.963  0.00  0.00    -0.077 A 
ATOM      2  C3  UNL d   1      -4.563   3.536  -5.965  0.00  0.00     0.002 A 
ATOM      3  C4  UNL d   1      -5.301   4.721  -5.977  0.00  0.00     0.002 A 
ATOM      4  C5  UNL d   1      -4.647   5.951  -5.993  0.00  0.00    -0.004 A 
ATOM      5  C6  UNL d   1      -3.254   5.999  -5.990  0.00  0.00     0.002 A 
ATOM      6  C7  UNL d   1      -2.514   4.816  -5.976  0.00  0.00     0.002 A 
ENDROOT
BRANCH   1   7
ATOM      7  C1  UNL d   1      -2.363   2.296  -5.999  0.00  0.00     0.055 C 
ATOM      8  C   UNL d   1      -0.868   2.578  -5.998  0.00  0.00     0.019 C 
ENDBRANCH   1   7
TORSDOF 1
ENDMDL
