MODEL 1
REMARK minimizedAffinity 2.84068084
REMARK minimizedRMSD -1
REMARK  1 active torsions:
REMARK  status: ('A' for Active; 'I' for Inactive)
REMARK    1  A    between atoms: C1_2  and  C2_3 
ROOT
ATOM      1  C2  UNL d   1       2.954   1.363  -3.660  0.00  0.00    -0.077 A 
ATOM      2  C3  UNL d   1       2.677  -0.011  -3.608  0.00  0.00     0.002 A 
ATOM      3  C4  UNL d   1       2.053  -0.646  -4.683  0.00  0.00     0.002 A 
ATOM      4  C5  UNL d   1       1.704   0.082  -5.819  0.00  0.00    -0.004 A 
ATOM      5  C6  UNL d   1       1.973   1.449  -5.879  0.00  0.00     0.002 A 
ATOM      6  C7  UNL d   1       2.596   2.086  -4.805  0.00  0.00     0.002 A 
ENDROOT
BRANCH   1   7
ATOM      7  C1  UNL d   1       3.671   2.040  -2.522  0.00  0.00     0.055 C 
ATOM      8  C   UNL d   1       4.956   2.705  -2.995  0.00  0.00     0.019 C 
ENDBRANCH   1   7
TORSDOF 1
ENDMDL
