MODEL 1
REMARK minimizedAffinity 0.985527039
REMARK minimizedRMSD -1
REMARK  1 active torsions:
REMARK  status: ('A' for Active; 'I' for Inactive)
REMARK    1  A    between atoms: C1_2  and  C2_3 
ROOT
ATOM      1  C2  UNL d   1      -2.360   3.614  -6.000  0.00  0.00    -0.077 A 
ATOM      2  C3  UNL d   1      -0.981   3.361  -5.976  0.00  0.00     0.002 A 
ATOM      3  C4  UNL d   1      -0.069   4.418  -5.953  0.00  0.00     0.002 A 
ATOM      4  C5  UNL d   1      -0.526   5.734  -5.949  0.00  0.00    -0.004 A 
ATOM      5  C6  UNL d   1      -1.895   5.996  -5.974  0.00  0.00     0.002 A 
ATOM      6  C7  UNL d   1      -2.808   4.941  -5.999  0.00  0.00     0.002 A 
ENDROOT
BRANCH   1   7
ATOM      7  C1  UNL d   1      -3.346   2.475  -5.975  0.00  0.00     0.055 C 
ATOM      8  C   UNL d   1      -4.780   2.984  -5.999  0.00  0.00     0.019 C 
ENDBRANCH   1   7
TORSDOF 1
ENDMDL
