MODEL 1
REMARK minimizedAffinity 2.61699295
REMARK minimizedRMSD -1
REMARK  1 active torsions:
REMARK  status: ('A' for Active; 'I' for Inactive)
REMARK    1  A    between atoms: C1_2  and  C2_3 
ROOT
ATOM      1  C2  UNL d   1       1.178  -1.632  -1.640  0.00  0.00    -0.077 A 
ATOM      2  C3  UNL d   1       0.336  -2.567  -2.258  0.00  0.00     0.002 A 
ATOM      3  C4  UNL d   1      -0.811  -3.025  -1.605  0.00  0.00     0.002 A 
ATOM      4  C5  UNL d   1      -1.127  -2.551  -0.334  0.00  0.00    -0.004 A 
ATOM      5  C6  UNL d   1      -0.295  -1.622   0.290  0.00  0.00     0.002 A 
ATOM      6  C7  UNL d   1       0.852  -1.164  -0.361  0.00  0.00     0.002 A 
ENDROOT
BRANCH   1   7
ATOM      7  C1  UNL d   1       2.388  -1.100  -2.362  0.00  0.00     0.055 C 
ATOM      8  C   UNL d   1       2.609   0.375  -2.060  0.00  0.00     0.019 C 
ENDBRANCH   1   7
TORSDOF 1
ENDMDL
