MODEL 1
REMARK minimizedAffinity 5.85114861
REMARK minimizedRMSD -1
REMARK  1 active torsions:
REMARK  status: ('A' for Active; 'I' for Inactive)
REMARK    1  A    between atoms: C1_2  and  C2_3 
ROOT
ATOM      1  C2  UNL d   1       1.810   2.928   2.598  0.00  0.00    -0.077 A 
ATOM      2  C3  UNL d   1       1.665   3.470   3.883  0.00  0.00     0.002 A 
ATOM      3  C4  UNL d   1       0.395   3.737   4.398  0.00  0.00     0.002 A 
ATOM      4  C5  UNL d   1      -0.739   3.461   3.638  0.00  0.00    -0.004 A 
ATOM      5  C6  UNL d   1      -0.606   2.924   2.358  0.00  0.00     0.002 A 
ATOM      6  C7  UNL d   1       0.663   2.658   1.841  0.00  0.00     0.002 A 
ENDROOT
BRANCH   1   7
ATOM      7  C1  UNL d   1       3.176   2.595   2.059  0.00  0.00     0.055 C 
ATOM      8  C   UNL d   1       4.252   3.456   2.705  0.00  0.00     0.019 C 
ENDBRANCH   1   7
TORSDOF 1
ENDMDL
