MODEL 1
REMARK minimizedAffinity 0.750156522
REMARK minimizedRMSD -1
REMARK  1 active torsions:
REMARK  status: ('A' for Active; 'I' for Inactive)
REMARK    1  A    between atoms: C1_2  and  C2_3 
ROOT
ATOM      1  C2  UNL d   1      -2.482   4.183  -5.398  0.00  0.00    -0.077 A 
ATOM      2  C3  UNL d   1      -2.726   5.548  -5.601  0.00  0.00     0.002 A 
ATOM      3  C4  UNL d   1      -4.013   5.998  -5.903  0.00  0.00     0.002 A 
ATOM      4  C5  UNL d   1      -5.066   5.091  -6.000  0.00  0.00    -0.004 A 
ATOM      5  C6  UNL d   1      -4.833   3.730  -5.801  0.00  0.00     0.002 A 
ATOM      6  C7  UNL d   1      -3.547   3.279  -5.501  0.00  0.00     0.002 A 
ENDROOT
BRANCH   1   7
ATOM      7  C1  UNL d   1      -1.105   3.701  -5.023  0.00  0.00     0.055 C 
ATOM      8  C   UNL d   1      -0.858   3.838  -3.528  0.00  0.00     0.019 C 
ENDBRANCH   1   7
TORSDOF 1
ENDMDL
