MODEL 1
REMARK minimizedAffinity 4.31788921
REMARK minimizedRMSD -1
REMARK  1 active torsions:
REMARK  status: ('A' for Active; 'I' for Inactive)
REMARK    1  A    between atoms: C1_2  and  C2_3 
ROOT
ATOM      1  C2  UNL d   1       1.173   2.579   1.899  0.00  0.00    -0.077 A 
ATOM      2  C3  UNL d   1      -0.081   3.199   1.991  0.00  0.00     0.002 A 
ATOM      3  C4  UNL d   1      -1.173   2.695   1.281  0.00  0.00     0.002 A 
ATOM      4  C5  UNL d   1      -1.022   1.567   0.478  0.00  0.00    -0.004 A 
ATOM      5  C6  UNL d   1       0.221   0.944   0.378  0.00  0.00     0.002 A 
ATOM      6  C7  UNL d   1       1.313   1.447   1.086  0.00  0.00     0.002 A 
ENDROOT
BRANCH   1   7
ATOM      7  C1  UNL d   1       2.339   3.091   2.702  0.00  0.00     0.055 C 
ATOM      8  C   UNL d   1       3.655   2.867   1.972  0.00  0.00     0.019 C 
ENDBRANCH   1   7
TORSDOF 1
ENDMDL
