MODEL 1
REMARK minimizedAffinity -4.93813705
REMARK minimizedRMSD -1
REMARK  0 active torsions:
REMARK  status: ('A' for Active; 'I' for Inactive)
ROOT
ATOM      1  C   UNL d   1      -0.645   3.036  -1.122  0.00  0.00     0.020 A 
ATOM      2  C1  UNL d   1      -0.686   3.493   0.195  0.00  0.00     0.020 A 
ATOM      3  C2  UNL d   1      -0.380   2.624   1.245  0.00  0.00     0.034 A 
ATOM      4  C3  UNL d   1      -0.033   1.294   0.979  0.00  0.00     0.017 A 
ATOM      5  C4  UNL d   1       0.007   0.837  -0.343  0.00  0.00     0.017 A 
ATOM      6  C5  UNL d   1      -0.300   1.711  -1.390  0.00  0.00     0.034 A 
ATOM      7 Cl   UNL d   1       0.427  -0.790  -0.749  0.00  0.00    -0.070 Cl
ATOM      8 Cl1  UNL d   1       0.333   0.275   2.326  0.00  0.00    -0.070 Cl
ENDROOT
TORSDOF 0
ENDMDL
