MODEL 1
REMARK minimizedAffinity -1.43470037
REMARK minimizedRMSD -1
REMARK  0 active torsions:
REMARK  status: ('A' for Active; 'I' for Inactive)
ROOT
ATOM      1  C   UNL d   1       0.506  -0.532  -0.923  0.00  0.00     0.020 A 
ATOM      2  C1  UNL d   1      -0.843  -0.854  -1.067  0.00  0.00     0.020 A 
ATOM      3  C2  UNL d   1      -1.247  -2.191  -1.049  0.00  0.00     0.034 A 
ATOM      4  C3  UNL d   1      -0.302  -3.210  -0.888  0.00  0.00     0.017 A 
ATOM      5  C4  UNL d   1       1.052  -2.885  -0.743  0.00  0.00     0.017 A 
ATOM      6  C5  UNL d   1       1.451  -1.545  -0.762  0.00  0.00     0.034 A 
ATOM      7 Cl   UNL d   1       2.277  -4.088  -0.540  0.00  0.00    -0.070 Cl
ATOM      8 Cl1  UNL d   1      -0.872  -4.841  -0.875  0.00  0.00    -0.070 Cl
ENDROOT
TORSDOF 0
ENDMDL
