MODEL 1
REMARK minimizedAffinity -2.85640359
REMARK minimizedRMSD -1
REMARK  0 active torsions:
REMARK  status: ('A' for Active; 'I' for Inactive)
ROOT
ATOM      1  C   UNL d   1      -0.429  -0.628  -0.966  0.00  0.00     0.020 A 
ATOM      2  C1  UNL d   1       0.463  -1.694  -0.857  0.00  0.00     0.020 A 
ATOM      3  C2  UNL d   1       1.383  -1.730   0.193  0.00  0.00     0.034 A 
ATOM      4  C3  UNL d   1       1.412  -0.699   1.139  0.00  0.00     0.017 A 
ATOM      5  C4  UNL d   1       0.516   0.370   1.029  0.00  0.00     0.017 A 
ATOM      6  C5  UNL d   1      -0.403   0.401  -0.024  0.00  0.00     0.034 A 
ATOM      7 Cl   UNL d   1       0.491   1.679   2.158  0.00  0.00    -0.070 Cl
ATOM      8 Cl1  UNL d   1       2.576  -0.809   2.411  0.00  0.00    -0.070 Cl
ENDROOT
TORSDOF 0
ENDMDL
