MODEL 1
REMARK minimizedAffinity -4.02883244
REMARK minimizedRMSD -1
REMARK  0 active torsions:
REMARK  status: ('A' for Active; 'I' for Inactive)
ROOT
ATOM      1  C   UNL d   1      -0.873   1.992   2.069  0.00  0.00     0.020 A 
ATOM      2  C1  UNL d   1      -0.522   0.702   2.467  0.00  0.00     0.020 A 
ATOM      3  C2  UNL d   1      -0.134  -0.241   1.513  0.00  0.00     0.034 A 
ATOM      4  C3  UNL d   1      -0.097   0.104   0.157  0.00  0.00     0.017 A 
ATOM      5  C4  UNL d   1      -0.449   1.398  -0.241  0.00  0.00     0.017 A 
ATOM      6  C5  UNL d   1      -0.837   2.339   0.718  0.00  0.00     0.034 A 
ATOM      7 Cl   UNL d   1      -0.427   1.898  -1.896  0.00  0.00    -0.070 Cl
ATOM      8 Cl1  UNL d   1       0.393  -1.113  -0.968  0.00  0.00    -0.070 Cl
ENDROOT
TORSDOF 0
ENDMDL
