MODEL 1
REMARK minimizedAffinity -1.86487901
REMARK minimizedRMSD -1
REMARK  0 active torsions:
REMARK  status: ('A' for Active; 'I' for Inactive)
ROOT
ATOM      1  C   UNL d   1      -0.867  -0.748   1.798  0.00  0.00     0.020 A 
ATOM      2  C1  UNL d   1       0.150   0.192   1.633  0.00  0.00     0.020 A 
ATOM      3  C2  UNL d   1       0.916   0.193   0.465  0.00  0.00     0.034 A 
ATOM      4  C3  UNL d   1       0.666  -0.747  -0.542  0.00  0.00     0.017 A 
ATOM      5  C4  UNL d   1      -0.356  -1.689  -0.375  0.00  0.00     0.017 A 
ATOM      6  C5  UNL d   1      -1.119  -1.686   0.796  0.00  0.00     0.034 A 
ATOM      7 Cl   UNL d   1      -0.723  -2.879  -1.573  0.00  0.00    -0.070 Cl
ATOM      8 Cl1  UNL d   1       1.651  -0.687  -1.960  0.00  0.00    -0.070 Cl
ENDROOT
TORSDOF 0
ENDMDL
