MODEL 1
REMARK minimizedAffinity -3.92007995
REMARK minimizedRMSD -1
REMARK  0 active torsions:
REMARK  status: ('A' for Active; 'I' for Inactive)
ROOT
ATOM      1  C   UNL d   1      -1.272   2.562   0.131  0.00  0.00     0.020 A 
ATOM      2  C1  UNL d   1      -1.020   2.609   1.501  0.00  0.00     0.020 A 
ATOM      3  C2  UNL d   1      -0.308   1.578   2.116  0.00  0.00     0.034 A 
ATOM      4  C3  UNL d   1       0.154   0.494   1.361  0.00  0.00     0.017 A 
ATOM      5  C4  UNL d   1      -0.099   0.447  -0.014  0.00  0.00     0.017 A 
ATOM      6  C5  UNL d   1      -0.812   1.483  -0.625  0.00  0.00     0.034 A 
ATOM      7 Cl   UNL d   1       0.440  -0.857  -1.012  0.00  0.00    -0.070 Cl
ATOM      8 Cl1  UNL d   1       1.029  -0.746   2.188  0.00  0.00    -0.070 Cl
ENDROOT
TORSDOF 0
ENDMDL
