MODEL 1
REMARK minimizedAffinity 0.778790534
REMARK minimizedRMSD -1
REMARK  0 active torsions:
REMARK  status: ('A' for Active; 'I' for Inactive)
ROOT
ATOM      1  C   UNL d   1       0.208  -0.102   2.590  0.00  0.00     0.020 A 
ATOM      2  C1  UNL d   1      -0.162   1.191   2.222  0.00  0.00     0.020 A 
ATOM      3  C2  UNL d   1      -0.244   1.537   0.872  0.00  0.00     0.034 A 
ATOM      4  C3  UNL d   1       0.044   0.588  -0.116  0.00  0.00     0.017 A 
ATOM      5  C4  UNL d   1       0.415  -0.710   0.254  0.00  0.00     0.017 A 
ATOM      6  C5  UNL d   1       0.496  -1.051   1.607  0.00  0.00     0.034 A 
ATOM      7 Cl   UNL d   1       0.785  -1.935  -0.908  0.00  0.00    -0.070 Cl
ATOM      8 Cl1  UNL d   1      -0.078   1.084  -1.767  0.00  0.00    -0.070 Cl
ENDROOT
TORSDOF 0
ENDMDL
