MODEL 1
REMARK minimizedAffinity -5.10653353
REMARK minimizedRMSD -1
REMARK  0 active torsions:
REMARK  status: ('A' for Active; 'I' for Inactive)
ROOT
ATOM      1  C1  BNZ d   1       1.419  -0.055  -3.285  0.00  0.00     0.000 A 
ATOM      2  C2  BNZ d   1       0.327  -0.820  -2.976  0.00  0.00     0.000 A 
ATOM      3  C3  BNZ d   1      -0.869  -0.621  -3.608  0.00  0.00     0.000 A 
ATOM      4  C4  BNZ d   1      -0.982   0.369  -4.517  0.00  0.00     0.000 A 
ATOM      5  C5  BNZ d   1       0.108   1.155  -4.833  0.00  0.00     0.000 A 
ATOM      6  C6  BNZ d   1       1.320   0.926  -4.223  0.00  0.00     0.000 A 
ENDROOT
TORSDOF 0
ENDMDL
