MODEL 1
REMARK minimizedAffinity -3.54109573
REMARK minimizedRMSD -1
REMARK  0 active torsions:
REMARK  status: ('A' for Active; 'I' for Inactive)
ROOT
ATOM      1  C1  BNZ d   1      -0.496   0.225   0.917  0.00  0.00     0.000 A 
ATOM      2  C2  BNZ d   1      -0.858   0.316   2.234  0.00  0.00     0.000 A 
ATOM      3  C3  BNZ d   1       0.032   0.016   3.227  0.00  0.00     0.000 A 
ATOM      4  C4  BNZ d   1       1.268  -0.413   2.902  0.00  0.00     0.000 A 
ATOM      5  C5  BNZ d   1       1.646  -0.520   1.579  0.00  0.00     0.000 A 
ATOM      6  C6  BNZ d   1       0.760  -0.180   0.582  0.00  0.00     0.000 A 
ENDROOT
TORSDOF 0
ENDMDL
