MODEL 1
REMARK minimizedAffinity -4.01239395
REMARK minimizedRMSD -1
REMARK  0 active torsions:
REMARK  status: ('A' for Active; 'I' for Inactive)
ROOT
ATOM      1  C1  BNZ d   1       0.145   0.190  -4.328  0.00  0.00     0.000 A 
ATOM      2  C2  BNZ d   1       1.363   0.817  -4.304  0.00  0.00     0.000 A 
ATOM      3  C3  BNZ d   1       2.273   0.539  -3.323  0.00  0.00     0.000 A 
ATOM      4  C4  BNZ d   1       1.950  -0.332  -2.346  0.00  0.00     0.000 A 
ATOM      5  C5  BNZ d   1       0.723  -0.964  -2.350  0.00  0.00     0.000 A 
ATOM      6  C6  BNZ d   1      -0.176  -0.712  -3.361  0.00  0.00     0.000 A 
ENDROOT
TORSDOF 0
ENDMDL
