MODEL 1
REMARK minimizedAffinity -1.03022695
REMARK minimizedRMSD -1
REMARK  0 active torsions:
REMARK  status: ('A' for Active; 'I' for Inactive)
ROOT
ATOM      1  C1  BNZ d   1      -2.195  -0.321  -5.641  0.00  0.00     0.000 A 
ATOM      2  C2  BNZ d   1      -1.494   0.828  -5.389  0.00  0.00     0.000 A 
ATOM      3  C3  BNZ d   1      -0.343   0.798  -4.652  0.00  0.00     0.000 A 
ATOM      4  C4  BNZ d   1       0.083  -0.372  -4.135  0.00  0.00     0.000 A 
ATOM      5  C5  BNZ d   1      -0.618  -1.538  -4.372  0.00  0.00     0.000 A 
ATOM      6  C6  BNZ d   1      -1.755  -1.510  -5.147  0.00  0.00     0.000 A 
ENDROOT
TORSDOF 0
ENDMDL
