MODEL 1
REMARK minimizedAffinity -3.70978975
REMARK minimizedRMSD -1
REMARK  0 active torsions:
REMARK  status: ('A' for Active; 'I' for Inactive)
ROOT
ATOM      1  C1  BNZ d   1      -0.734   0.255   0.199  0.00  0.00     0.000 A 
ATOM      2  C2  BNZ d   1      -1.796   0.540   1.015  0.00  0.00     0.000 A 
ATOM      3  C3  BNZ d   1      -1.610   0.784   2.347  0.00  0.00     0.000 A 
ATOM      4  C4  BNZ d   1      -0.368   0.704   2.868  0.00  0.00     0.000 A 
ATOM      5  C5  BNZ d   1       0.712   0.409   2.060  0.00  0.00     0.000 A 
ATOM      6  C6  BNZ d   1       0.525   0.202   0.713  0.00  0.00     0.000 A 
ENDROOT
TORSDOF 0
ENDMDL
