MODEL 1
REMARK minimizedAffinity -4.45281267
REMARK minimizedRMSD -1
REMARK  0 active torsions:
REMARK  status: ('A' for Active; 'I' for Inactive)
ROOT
ATOM      1  C1  BNZ d   1      -1.367   0.320   0.752  0.00  0.00     0.000 A 
ATOM      2  C2  BNZ d   1      -0.146  -0.162   0.361  0.00  0.00     0.000 A 
ATOM      3  C3  BNZ d   1       0.980   0.117   1.083  0.00  0.00     0.000 A 
ATOM      4  C4  BNZ d   1       0.891   0.910   2.171  0.00  0.00     0.000 A 
ATOM      5  C5  BNZ d   1      -0.331   1.411   2.572  0.00  0.00     0.000 A 
ATOM      6  C6  BNZ d   1      -1.468   1.096   1.865  0.00  0.00     0.000 A 
ENDROOT
TORSDOF 0
ENDMDL
