MODEL 1
REMARK minimizedAffinity -3.95263529
REMARK minimizedRMSD -1
REMARK  0 active torsions:
REMARK  status: ('A' for Active; 'I' for Inactive)
ROOT
ATOM      1  C1  BNZ d   1      -1.491   0.258   2.488  0.00  0.00     0.000 A 
ATOM      2  C2  BNZ d   1      -1.286  -0.665   1.498  0.00  0.00     0.000 A 
ATOM      3  C3  BNZ d   1      -0.553  -0.349   0.388  0.00  0.00     0.000 A 
ATOM      4  C4  BNZ d   1      -0.061   0.899   0.252  0.00  0.00     0.000 A 
ATOM      5  C5  BNZ d   1      -0.266   1.843   1.238  0.00  0.00     0.000 A 
ATOM      6  C6  BNZ d   1      -0.972   1.510   2.371  0.00  0.00     0.000 A 
ENDROOT
TORSDOF 0
ENDMDL
