MODEL 1
REMARK minimizedAffinity -4.21266317
REMARK minimizedRMSD -1
REMARK  0 active torsions:
REMARK  status: ('A' for Active; 'I' for Inactive)
ROOT
ATOM      1  C1  BNZ d   1      -0.790   1.294   2.632  0.00  0.00     0.000 A 
ATOM      2  C2  BNZ d   1       0.332   1.802   2.033  0.00  0.00     0.000 A 
ATOM      3  C3  BNZ d   1       0.893   1.177   0.955  0.00  0.00     0.000 A 
ATOM      4  C4  BNZ d   1       0.357   0.025   0.503  0.00  0.00     0.000 A 
ATOM      5  C5  BNZ d   1      -0.768  -0.505   1.103  0.00  0.00     0.000 A 
ATOM      6  C6  BNZ d   1      -1.354   0.148   2.163  0.00  0.00     0.000 A 
ENDROOT
TORSDOF 0
ENDMDL
