MODEL 1
REMARK minimizedAffinity 0.162923008
REMARK minimizedRMSD -1
REMARK  1 active torsions:
REMARK  status: ('A' for Active; 'I' for Inactive)
REMARK    1  A    between atoms: C1_2  and  C2_3 
ROOT
ATOM      1  C2  UNL d   1      -2.741   1.889  -5.982  0.00  0.00    -0.076 A 
ATOM      2  C3  UNL d   1      -2.195   3.184  -5.979  0.00  0.00     0.004 A 
ATOM      3  C4  UNL d   1      -3.017   4.310  -5.988  0.00  0.00    -0.003 A 
ATOM      4  C5  UNL d   1      -4.399   4.159  -6.000  0.00  0.00     0.000 A 
ATOM      5  C6  UNL d   1      -4.958   2.881  -5.985  0.00  0.00     0.000 A 
ATOM      6  C7  UNL d   1      -4.144   1.736  -5.959  0.00  0.00    -0.073 A 
ATOM      7  C8  UNL d   1      -4.801   0.383  -5.951  0.00  0.00     0.078 C 
ENDROOT
BRANCH   1   8
ATOM      8  C1  UNL d   1      -1.800   0.706  -6.000  0.00  0.00     0.053 C 
ATOM      9  C   UNL d   1      -2.533  -0.623  -5.901  0.00  0.00     0.018 C 
ENDBRANCH   1   8
TORSDOF 1
ENDMDL
