MODEL 1
REMARK minimizedAffinity 9.91635418
REMARK minimizedRMSD -1
REMARK  1 active torsions:
REMARK  status: ('A' for Active; 'I' for Inactive)
REMARK    1  A    between atoms: C1_2  and  C2_3 
ROOT
ATOM      1  C2  UNL d   1      -3.692  -3.659  -4.995  0.00  0.00    -0.076 A 
ATOM      2  C3  UNL d   1      -3.736  -2.634  -4.034  0.00  0.00     0.004 A 
ATOM      3  C4  UNL d   1      -2.737  -2.513  -3.069  0.00  0.00    -0.003 A 
ATOM      4  C5  UNL d   1      -1.678  -3.413  -3.050  0.00  0.00     0.000 A 
ATOM      5  C6  UNL d   1      -1.609  -4.425  -4.007  0.00  0.00     0.000 A 
ATOM      6  C7  UNL d   1      -2.599  -4.552  -4.996  0.00  0.00    -0.073 A 
ATOM      7  C8  UNL d   1      -2.478  -5.666  -6.000  0.00  0.00     0.078 C 
ENDROOT
BRANCH   1   8
ATOM      8  C1  UNL d   1      -4.817  -3.758  -6.000  0.00  0.00     0.053 C 
ATOM      9  C   UNL d   1      -5.491  -5.121  -5.987  0.00  0.00     0.018 C 
ENDBRANCH   1   8
TORSDOF 1
ENDMDL
