MODEL 1
REMARK minimizedAffinity -0.493446141
REMARK minimizedRMSD -1
REMARK  1 active torsions:
REMARK  status: ('A' for Active; 'I' for Inactive)
REMARK    1  A    between atoms: C1_2  and  C2_3 
ROOT
ATOM      1  C2  UNL d   1      -3.594   2.713  -5.946  0.00  0.00    -0.076 A 
ATOM      2  C3  UNL d   1      -4.913   2.228  -5.973  0.00  0.00     0.004 A 
ATOM      3  C4  UNL d   1      -5.999   3.102  -5.999  0.00  0.00    -0.003 A 
ATOM      4  C5  UNL d   1      -5.783   4.476  -5.998  0.00  0.00     0.000 A 
ATOM      5  C6  UNL d   1      -4.481   4.975  -5.990  0.00  0.00     0.000 A 
ATOM      6  C7  UNL d   1      -3.375   4.107  -5.980  0.00  0.00    -0.073 A 
ATOM      7  C8  UNL d   1      -1.992   4.700  -5.965  0.00  0.00     0.078 C 
ENDROOT
BRANCH   1   8
ATOM      8  C1  UNL d   1      -2.457   1.718  -5.891  0.00  0.00     0.053 C 
ATOM      9  C   UNL d   1      -2.937   0.279  -6.000  0.00  0.00     0.018 C 
ENDBRANCH   1   8
TORSDOF 1
ENDMDL
