MODEL 1
REMARK minimizedAffinity 3.42796922
REMARK minimizedRMSD -1
REMARK  1 active torsions:
REMARK  status: ('A' for Active; 'I' for Inactive)
REMARK    1  A    between atoms: C1_2  and  C2_3 
ROOT
ATOM      1  C2  UNL d   1       2.508  -0.596  -1.372  0.00  0.00    -0.076 A 
ATOM      2  C3  UNL d   1       1.872   0.006  -0.273  0.00  0.00     0.004 A 
ATOM      3  C4  UNL d   1       0.507   0.285  -0.298  0.00  0.00    -0.003 A 
ATOM      4  C5  UNL d   1      -0.245  -0.035  -1.423  0.00  0.00     0.000 A 
ATOM      5  C6  UNL d   1       0.366  -0.650  -2.516  0.00  0.00     0.000 A 
ATOM      6  C7  UNL d   1       1.738  -0.952  -2.500  0.00  0.00    -0.073 A 
ATOM      7  C8  UNL d   1       2.347  -1.609  -3.709  0.00  0.00     0.078 C 
ENDROOT
BRANCH   1   8
ATOM      8  C1  UNL d   1       3.997  -0.849  -1.298  0.00  0.00     0.053 C 
ATOM      9  C   UNL d   1       4.353  -2.309  -1.537  0.00  0.00     0.018 C 
ENDBRANCH   1   8
TORSDOF 1
ENDMDL
