MODEL 1
REMARK minimizedAffinity -2.3829689
REMARK minimizedRMSD -1
REMARK  1 active torsions:
REMARK  status: ('A' for Active; 'I' for Inactive)
REMARK    1  A    between atoms: C1_2  and  C2_3 
ROOT
ATOM      1  C2  UNL d   1      -5.275   1.614  -5.281  0.00  0.00    -0.076 A 
ATOM      2  C3  UNL d   1      -5.999   0.409  -5.286  0.00  0.00     0.004 A 
ATOM      3  C4  UNL d   1      -5.390  -0.793  -5.642  0.00  0.00    -0.003 A 
ATOM      4  C5  UNL d   1      -4.046  -0.810  -5.999  0.00  0.00     0.000 A 
ATOM      5  C6  UNL d   1      -3.308   0.373  -5.983  0.00  0.00     0.000 A 
ATOM      6  C7  UNL d   1      -3.902   1.591  -5.610  0.00  0.00    -0.073 A 
ATOM      7  C8  UNL d   1      -3.060   2.837  -5.616  0.00  0.00     0.078 C 
ENDROOT
BRANCH   1   8
ATOM      8  C1  UNL d   1      -5.995   2.891  -4.911  0.00  0.00     0.053 C 
ATOM      9  C   UNL d   1      -5.900   3.949  -5.999  0.00  0.00     0.018 C 
ENDBRANCH   1   8
TORSDOF 1
ENDMDL
