MODEL 1
REMARK minimizedAffinity -1.89892769
REMARK minimizedRMSD -1
REMARK  1 active torsions:
REMARK  status: ('A' for Active; 'I' for Inactive)
REMARK    1  A    between atoms: C1_2  and  C2_3 
ROOT
ATOM      1  C2  UNL d   1      -2.849  -3.653  -5.960  0.00  0.00    -0.076 A 
ATOM      2  C3  UNL d   1      -3.972  -4.498  -5.983  0.00  0.00     0.004 A 
ATOM      3  C4  UNL d   1      -5.264  -3.974  -6.000  0.00  0.00    -0.003 A 
ATOM      4  C5  UNL d   1      -5.453  -2.597  -5.996  0.00  0.00     0.000 A 
ATOM      5  C6  UNL d   1      -4.350  -1.744  -5.991  0.00  0.00     0.000 A 
ATOM      6  C7  UNL d   1      -3.041  -2.256  -5.990  0.00  0.00    -0.073 A 
ATOM      7  C8  UNL d   1      -1.888  -1.290  -5.979  0.00  0.00     0.078 C 
ENDROOT
BRANCH   1   8
ATOM      8  C1  UNL d   1      -1.473  -4.279  -5.914  0.00  0.00     0.053 C 
ATOM      9  C   UNL d   1      -1.216  -5.027  -4.615  0.00  0.00     0.018 C 
ENDBRANCH   1   8
TORSDOF 1
ENDMDL
