MODEL 1
REMARK minimizedAffinity -2.8399024
REMARK minimizedRMSD -1
REMARK  1 active torsions:
REMARK  status: ('A' for Active; 'I' for Inactive)
REMARK    1  A    between atoms: C1_2  and  C2_3 
ROOT
ATOM      1  C2  UNL d   1      -4.443   0.644  -5.983  0.00  0.00    -0.076 A 
ATOM      2  C3  UNL d   1      -5.665   1.339  -5.999  0.00  0.00     0.004 A 
ATOM      3  C4  UNL d   1      -5.697   2.733  -5.997  0.00  0.00    -0.003 A 
ATOM      4  C5  UNL d   1      -4.508   3.453  -5.979  0.00  0.00     0.000 A 
ATOM      5  C6  UNL d   1      -3.287   2.780  -5.981  0.00  0.00     0.000 A 
ATOM      6  C7  UNL d   1      -3.236   1.375  -6.000  0.00  0.00    -0.073 A 
ATOM      7  C8  UNL d   1      -1.892   0.701  -5.995  0.00  0.00     0.078 C 
ENDROOT
BRANCH   1   8
ATOM      8  C1  UNL d   1      -4.471  -0.868  -5.959  0.00  0.00     0.053 C 
ATOM      9  C   UNL d   1      -5.885  -1.425  -5.999  0.00  0.00     0.018 C 
ENDBRANCH   1   8
TORSDOF 1
ENDMDL
