MODEL 1
REMARK minimizedAffinity 3.04428029
REMARK minimizedRMSD -1
REMARK  1 active torsions:
REMARK  status: ('A' for Active; 'I' for Inactive)
REMARK    1  A    between atoms: C1_2  and  C2_3 
ROOT
ATOM      1  C2  UNL d   1      -3.796   1.402   2.143  0.00  0.00    -0.076 A 
ATOM      2  C3  UNL d   1      -4.438   1.592   3.379  0.00  0.00     0.004 A 
ATOM      3  C4  UNL d   1      -3.918   2.469   4.330  0.00  0.00    -0.003 A 
ATOM      4  C5  UNL d   1      -2.749   3.171   4.059  0.00  0.00     0.000 A 
ATOM      5  C6  UNL d   1      -2.109   3.008   2.831  0.00  0.00     0.000 A 
ATOM      6  C7  UNL d   1      -2.628   2.140   1.855  0.00  0.00    -0.073 A 
ATOM      7  C8  UNL d   1      -1.893   1.999   0.550  0.00  0.00     0.078 C 
ENDROOT
BRANCH   1   8
ATOM      8  C1  UNL d   1      -4.391   0.417   1.161  0.00  0.00     0.053 C 
ATOM      9  C   UNL d   1      -5.472  -0.449   1.789  0.00  0.00     0.018 C 
ENDBRANCH   1   8
TORSDOF 1
ENDMDL
