MODEL 1
REMARK minimizedAffinity -3.30670476
REMARK minimizedRMSD -1
REMARK  1 active torsions:
REMARK  status: ('A' for Active; 'I' for Inactive)
REMARK    1  A    between atoms: C1_2  and  C2_3 
ROOT
ATOM      1  C2  UNL d   1      -4.447   1.585  -5.789  0.00  0.00    -0.076 A 
ATOM      2  C3  UNL d   1      -3.164   1.051  -5.579  0.00  0.00     0.004 A 
ATOM      3  C4  UNL d   1      -2.059   1.883  -5.408  0.00  0.00    -0.003 A 
ATOM      4  C5  UNL d   1      -2.220   3.264  -5.444  0.00  0.00     0.000 A 
ATOM      5  C6  UNL d   1      -3.488   3.812  -5.634  0.00  0.00     0.000 A 
ATOM      6  C7  UNL d   1      -4.615   2.986  -5.792  0.00  0.00    -0.073 A 
ATOM      7  C8  UNL d   1      -5.958   3.631  -6.000  0.00  0.00     0.078 C 
ENDROOT
BRANCH   1   8
ATOM      8  C1  UNL d   1      -5.603   0.633  -5.995  0.00  0.00     0.053 C 
ATOM      9  C   UNL d   1      -5.165  -0.823  -6.000  0.00  0.00     0.018 C 
ENDBRANCH   1   8
TORSDOF 1
ENDMDL
