MODEL 1
REMARK minimizedAffinity -2.93172836
REMARK minimizedRMSD -1
REMARK  1 active torsions:
REMARK  status: ('A' for Active; 'I' for Inactive)
REMARK    1  A    between atoms: C1_2  and  C2_3 
ROOT
ATOM      1  C2  UNL d   1      -3.831   1.184  -5.825  0.00  0.00    -0.076 A 
ATOM      2  C3  UNL d   1      -3.190  -0.064  -5.917  0.00  0.00     0.004 A 
ATOM      3  C4  UNL d   1      -3.926  -1.245  -5.997  0.00  0.00    -0.003 A 
ATOM      4  C5  UNL d   1      -5.315  -1.197  -5.987  0.00  0.00     0.000 A 
ATOM      5  C6  UNL d   1      -5.968   0.032  -5.914  0.00  0.00     0.000 A 
ATOM      6  C7  UNL d   1      -5.241   1.234  -5.849  0.00  0.00    -0.073 A 
ATOM      7  C8  UNL d   1      -5.997   2.531  -5.766  0.00  0.00     0.078 C 
ENDROOT
BRANCH   1   8
ATOM      8  C1  UNL d   1      -2.981   2.429  -5.714  0.00  0.00     0.053 C 
ATOM      9  C   UNL d   1      -3.773   3.701  -5.975  0.00  0.00     0.018 C 
ENDBRANCH   1   8
TORSDOF 1
ENDMDL
