MODEL 1
REMARK minimizedAffinity -2.72116303
REMARK minimizedRMSD -1
REMARK  1 active torsions:
REMARK  status: ('A' for Active; 'I' for Inactive)
REMARK    1  A    between atoms: C1_2  and  C2_3 
ROOT
ATOM      1  C2  UNL d   1      -3.037   0.646  -5.980  0.00  0.00    -0.076 A 
ATOM      2  C3  UNL d   1      -2.602  -0.690  -5.997  0.00  0.00     0.004 A 
ATOM      3  C4  UNL d   1      -3.516  -1.742  -5.999  0.00  0.00    -0.003 A 
ATOM      4  C5  UNL d   1      -4.880  -1.475  -5.984  0.00  0.00     0.000 A 
ATOM      5  C6  UNL d   1      -5.330  -0.155  -5.985  0.00  0.00     0.000 A 
ATOM      6  C7  UNL d   1      -4.422   0.917  -6.000  0.00  0.00    -0.073 A 
ATOM      7  C8  UNL d   1      -4.962   2.321  -5.994  0.00  0.00     0.078 C 
ENDROOT
BRANCH   1   8
ATOM      8  C1  UNL d   1      -1.999   1.745  -5.952  0.00  0.00     0.053 C 
ATOM      9  C   UNL d   1      -1.872   2.391  -4.581  0.00  0.00     0.018 C 
ENDBRANCH   1   8
TORSDOF 1
ENDMDL
