MODEL 1
REMARK minimizedAffinity -1.45679665
REMARK minimizedRMSD -1
REMARK  1 active torsions:
REMARK  status: ('A' for Active; 'I' for Inactive)
REMARK    1  A    between atoms: C1_2  and  C2_3 
ROOT
ATOM      1  C2  UNL d   1      -4.032   1.149  -5.859  0.00  0.00    -0.076 A 
ATOM      2  C3  UNL d   1      -5.343   1.641  -5.734  0.00  0.00     0.004 A 
ATOM      3  C4  UNL d   1      -5.586   3.004  -5.578  0.00  0.00    -0.003 A 
ATOM      4  C5  UNL d   1      -4.522   3.899  -5.544  0.00  0.00     0.000 A 
ATOM      5  C6  UNL d   1      -3.216   3.431  -5.684  0.00  0.00     0.000 A 
ATOM      6  C7  UNL d   1      -2.954   2.061  -5.859  0.00  0.00    -0.073 A 
ATOM      7  C8  UNL d   1      -1.526   1.611  -5.999  0.00  0.00     0.078 C 
ENDROOT
BRANCH   1   8
ATOM      8  C1  UNL d   1      -3.828  -0.342  -5.999  0.00  0.00     0.053 C 
ATOM      9  C   UNL d   1      -5.134  -1.118  -5.930  0.00  0.00     0.018 C 
ENDBRANCH   1   8
TORSDOF 1
ENDMDL
