MODEL 1
REMARK minimizedAffinity 1.61517835
REMARK minimizedRMSD -1
REMARK  0 active torsions:
REMARK  status: ('A' for Active; 'I' for Inactive)
ROOT
ATOM      1  O1  BZF d   1       3.079  -0.818   5.974  0.00  0.00    -0.204 OA
ATOM      2  C2  BZF d   1       1.800  -1.341   5.998  0.00  0.00     0.174 A 
ATOM      3  C3  BZF d   1       1.835  -2.689   5.958  0.00  0.00    -0.012 A 
ATOM      4  C3A BZF d   1       3.223  -3.032   5.997  0.00  0.00    -0.107 A 
ATOM      5  C4  BZF d   1       3.898  -4.219   6.000  0.00  0.00     0.055 A 
ATOM      6  C5  BZF d   1       5.256  -4.207   5.970  0.00  0.00    -0.016 A 
ATOM      7  C6  BZF d   1       5.971  -3.028   5.932  0.00  0.00     0.022 A 
ATOM      8  C7  BZF d   1       5.347  -1.825   5.934  0.00  0.00     0.029 A 
ATOM      9  C7A BZF d   1       3.975  -1.834   5.997  0.00  0.00     0.058 A 
ENDROOT
TORSDOF 0
ENDMDL
