MODEL 1
REMARK minimizedAffinity 2.57671094
REMARK minimizedRMSD -1
REMARK  0 active torsions:
REMARK  status: ('A' for Active; 'I' for Inactive)
ROOT
ATOM      1  O1  BZF d   1       1.991   1.255   0.336  0.00  0.00    -0.204 OA
ATOM      2  C2  BZF d   1       1.243   0.123   0.594  0.00  0.00     0.174 A 
ATOM      3  C3  BZF d   1      -0.074   0.378   0.456  0.00  0.00    -0.012 A 
ATOM      4  C3A BZF d   1      -0.149   1.732  -0.001  0.00  0.00    -0.107 A 
ATOM      5  C4  BZF d   1      -1.187   2.555  -0.333  0.00  0.00     0.055 A 
ATOM      6  C5  BZF d   1      -0.926   3.845  -0.671  0.00  0.00    -0.016 A 
ATOM      7  C6  BZF d   1       0.360   4.346  -0.682  0.00  0.00     0.022 A 
ATOM      8  C7  BZF d   1       1.422   3.567  -0.364  0.00  0.00     0.029 A 
ATOM      9  C7A BZF d   1       1.164   2.254  -0.055  0.00  0.00     0.058 A 
ENDROOT
TORSDOF 0
ENDMDL
