MODEL 1
REMARK minimizedAffinity 12.690033
REMARK minimizedRMSD -1
REMARK  0 active torsions:
REMARK  status: ('A' for Active; 'I' for Inactive)
ROOT
ATOM      1  O1  BZF d   1       1.654   3.225   0.166  0.00  0.00    -0.204 OA
ATOM      2  C2  BZF d   1       0.872   2.212   0.686  0.00  0.00     0.174 A 
ATOM      3  C3  BZF d   1      -0.434   2.441   0.441  0.00  0.00    -0.012 A 
ATOM      4  C3A BZF d   1      -0.464   3.628  -0.357  0.00  0.00    -0.107 A 
ATOM      5  C4  BZF d   1      -1.473   4.350  -0.929  0.00  0.00     0.055 A 
ATOM      6  C5  BZF d   1      -1.172   5.501  -1.585  0.00  0.00    -0.016 A 
ATOM      7  C6  BZF d   1       0.124   5.963  -1.683  0.00  0.00     0.022 A 
ATOM      8  C7  BZF d   1       1.159   5.279  -1.137  0.00  0.00     0.029 A 
ATOM      9  C7A BZF d   1       0.861   4.098  -0.502  0.00  0.00     0.058 A 
ENDROOT
TORSDOF 0
ENDMDL
