MODEL 1
REMARK minimizedAffinity 11.8966904
REMARK minimizedRMSD -1
REMARK  0 active torsions:
REMARK  status: ('A' for Active; 'I' for Inactive)
ROOT
ATOM      1  O1  BZF d   1      -1.146   0.833  -3.519  0.00  0.00    -0.204 OA
ATOM      2  C2  BZF d   1      -0.674  -0.383  -3.975  0.00  0.00     0.174 A 
ATOM      3  C3  BZF d   1      -1.586  -1.356  -3.772  0.00  0.00    -0.012 A 
ATOM      4  C3A BZF d   1      -2.733  -0.691  -3.235  0.00  0.00    -0.107 A 
ATOM      5  C4  BZF d   1      -3.969  -1.120  -2.844  0.00  0.00     0.055 A 
ATOM      6  C5  BZF d   1      -4.834  -0.228  -2.294  0.00  0.00    -0.016 A 
ATOM      7  C6  BZF d   1      -4.496   1.097  -2.117  0.00  0.00     0.022 A 
ATOM      8  C7  BZF d   1      -3.283   1.571  -2.495  0.00  0.00     0.029 A 
ATOM      9  C7A BZF d   1      -2.419   0.679  -3.081  0.00  0.00     0.058 A 
ENDROOT
TORSDOF 0
ENDMDL
