MODEL 1
REMARK minimizedAffinity 16.2141819
REMARK minimizedRMSD -1
REMARK  0 active torsions:
REMARK  status: ('A' for Active; 'I' for Inactive)
ROOT
ATOM      1  O1  BZF d   1      -1.156   5.470  -2.030  0.00  0.00    -0.204 OA
ATOM      2  C2  BZF d   1       0.037   5.906  -2.573  0.00  0.00     0.174 A 
ATOM      3  C3  BZF d   1       1.072   5.185  -2.094  0.00  0.00    -0.012 A 
ATOM      4  C3A BZF d   1       0.479   4.179  -1.267  0.00  0.00    -0.107 A 
ATOM      5  C4  BZF d   1       0.989   3.151  -0.527  0.00  0.00     0.055 A 
ATOM      6  C5  BZF d   1       0.146   2.397   0.226  0.00  0.00    -0.016 A 
ATOM      7  C6  BZF d   1      -1.210   2.646   0.267  0.00  0.00     0.022 A 
ATOM      8  C7  BZF d   1      -1.764   3.652  -0.454  0.00  0.00     0.029 A 
ATOM      9  C7A BZF d   1      -0.919   4.395  -1.241  0.00  0.00     0.058 A 
ENDROOT
TORSDOF 0
ENDMDL
