MODEL 1
REMARK minimizedAffinity 1.2832756
REMARK minimizedRMSD -1
REMARK  0 active torsions:
REMARK  status: ('A' for Active; 'I' for Inactive)
ROOT
ATOM      1  O1  BZF d   1       4.954  -3.827  -0.498  0.00  0.00    -0.204 OA
ATOM      2  C2  BZF d   1       5.943  -3.082  -1.110  0.00  0.00     0.174 A 
ATOM      3  C3  BZF d   1       5.600  -1.778  -1.155  0.00  0.00    -0.012 A 
ATOM      4  C3A BZF d   1       4.359  -1.691  -0.449  0.00  0.00    -0.107 A 
ATOM      5  C4  BZF d   1       3.525  -0.654  -0.141  0.00  0.00     0.055 A 
ATOM      6  C5  BZF d   1       2.353  -0.915   0.496  0.00  0.00    -0.016 A 
ATOM      7  C6  BZF d   1       1.982  -2.200   0.835  0.00  0.00     0.022 A 
ATOM      8  C7  BZF d   1       2.779  -3.260   0.554  0.00  0.00     0.029 A 
ATOM      9  C7A BZF d   1       3.978  -2.996  -0.060  0.00  0.00     0.058 A 
ENDROOT
TORSDOF 0
ENDMDL
