MODEL 1
REMARK minimizedAffinity 1.44132912
REMARK minimizedRMSD -1
REMARK  0 active torsions:
REMARK  status: ('A' for Active; 'I' for Inactive)
ROOT
ATOM      1  O1  BZF d   1      -5.967   3.885  -6.000  0.00  0.00    -0.204 OA
ATOM      2  C2  BZF d   1      -5.719   5.207  -5.688  0.00  0.00     0.174 A 
ATOM      3  C3  BZF d   1      -4.817   5.303  -4.690  0.00  0.00    -0.012 A 
ATOM      4  C3A BZF d   1      -4.412   3.957  -4.420  0.00  0.00    -0.107 A 
ATOM      5  C4  BZF d   1      -3.524   3.403  -3.543  0.00  0.00     0.055 A 
ATOM      6  C5  BZF d   1      -3.415   2.049  -3.481  0.00  0.00    -0.016 A 
ATOM      7  C6  BZF d   1      -4.181   1.222  -4.275  0.00  0.00     0.022 A 
ATOM      8  C7  BZF d   1      -5.072   1.726  -5.164  0.00  0.00     0.029 A 
ATOM      9  C7A BZF d   1      -5.160   3.094  -5.253  0.00  0.00     0.058 A 
ENDROOT
TORSDOF 0
ENDMDL
