MODEL 1
REMARK minimizedAffinity -5.07942724
REMARK minimizedRMSD -1
REMARK  1 active torsions:
REMARK  status: ('A' for Active; 'I' for Inactive)
REMARK    1  A    between atoms: N_2  and  C1_3 
ROOT
ATOM      1  C1  UNL d   1      -0.004  -2.471  -0.011  0.00  0.00     0.143 A 
ATOM      2  C2  UNL d   1       0.749  -2.261  -1.172  0.00  0.00    -0.057 A 
ATOM      3  C3  UNL d   1       1.226  -0.989  -1.508  0.00  0.00     0.033 A 
ATOM      4  C4  UNL d   1       0.934   0.106  -0.701  0.00  0.00    -0.042 A 
ATOM      5  C5  UNL d   1       0.166  -0.074   0.444  0.00  0.00     0.033 A 
ATOM      6  C6  UNL d   1      -0.302  -1.348   0.778  0.00  0.00    -0.057 A 
ENDROOT
BRANCH   1   7
ATOM      7  N   UNL d   1      -0.591  -3.693   0.326  0.00  0.00    -0.732 N 
ATOM      8  C   UNL d   1      -1.949  -3.994  -0.073  0.00  0.00     0.284 C 
ATOM      9  H3  UNL d   1       0.055  -4.474   0.227  0.00  0.00     0.395 HD
ENDBRANCH   1   7
TORSDOF 1
ENDMDL
