MODEL 1
REMARK minimizedAffinity -4.34872627
REMARK minimizedRMSD -1
REMARK  1 active torsions:
REMARK  status: ('A' for Active; 'I' for Inactive)
REMARK    1  A    between atoms: N_2  and  C1_3 
ROOT
ATOM      1  C1  UNL d   1      -0.252  -0.687  -0.485  0.00  0.00     0.143 A 
ATOM      2  C2  UNL d   1      -0.258  -1.042   0.868  0.00  0.00    -0.057 A 
ATOM      3  C3  UNL d   1      -0.246  -2.385   1.267  0.00  0.00     0.033 A 
ATOM      4  C4  UNL d   1      -0.256  -3.399   0.315  0.00  0.00    -0.042 A 
ATOM      5  C5  UNL d   1      -0.275  -3.070  -1.035  0.00  0.00     0.033 A 
ATOM      6  C6  UNL d   1      -0.281  -1.728  -1.427  0.00  0.00    -0.057 A 
ENDROOT
BRANCH   1   7
ATOM      7  N   UNL d   1      -0.364   0.627  -0.945  0.00  0.00    -0.732 N 
ATOM      8  C   UNL d   1       0.026   1.738  -0.103  0.00  0.00     0.284 C 
ATOM      9  H3  UNL d   1      -0.082   0.723  -1.918  0.00  0.00     0.395 HD
ENDBRANCH   1   7
TORSDOF 1
ENDMDL
