MODEL 1
REMARK minimizedAffinity -4.62093401
REMARK minimizedRMSD -1
REMARK  1 active torsions:
REMARK  status: ('A' for Active; 'I' for Inactive)
REMARK    1  A    between atoms: N_2  and  C1_3 
ROOT
ATOM      1  C1  UNL d   1      -0.443  -3.573  -1.796  0.00  0.00     0.143 A 
ATOM      2  C2  UNL d   1       0.523  -2.604  -2.089  0.00  0.00    -0.057 A 
ATOM      3  C3  UNL d   1       0.945  -1.685  -1.122  0.00  0.00     0.033 A 
ATOM      4  C4  UNL d   1       0.387  -1.700   0.152  0.00  0.00    -0.042 A 
ATOM      5  C5  UNL d   1      -0.593  -2.638   0.458  0.00  0.00     0.033 A 
ATOM      6  C6  UNL d   1      -1.006  -3.558  -0.510  0.00  0.00    -0.057 A 
ENDROOT
BRANCH   1   7
ATOM      7  N   UNL d   1      -0.976  -4.451  -2.743  0.00  0.00    -0.732 N 
ATOM      8  C   UNL d   1      -1.807  -3.958  -3.821  0.00  0.00     0.284 C 
ATOM      9  H3  UNL d   1      -0.312  -5.169  -3.025  0.00  0.00     0.395 HD
ENDBRANCH   1   7
TORSDOF 1
ENDMDL
