MODEL 1
REMARK minimizedAffinity -1.29120922
REMARK minimizedRMSD -1
REMARK  1 active torsions:
REMARK  status: ('A' for Active; 'I' for Inactive)
REMARK    1  A    between atoms: N_2  and  C1_3 
ROOT
ATOM      1  C1  UNL d   1       0.027  -0.361  -1.300  0.00  0.00     0.143 A 
ATOM      2  C2  UNL d   1      -0.233   0.746  -0.486  0.00  0.00    -0.057 A 
ATOM      3  C3  UNL d   1      -0.741   0.592   0.810  0.00  0.00     0.033 A 
ATOM      4  C4  UNL d   1      -1.025  -0.677   1.305  0.00  0.00    -0.042 A 
ATOM      5  C5  UNL d   1      -0.798  -1.790   0.504  0.00  0.00     0.033 A 
ATOM      6  C6  UNL d   1      -0.284  -1.630  -0.786  0.00  0.00    -0.057 A 
ENDROOT
BRANCH   1   7
ATOM      7  N   UNL d   1       0.439  -0.268  -2.632  0.00  0.00    -0.732 N 
ATOM      8  C   UNL d   1       0.847  -1.449  -3.362  0.00  0.00     0.284 C 
ATOM      9  H3  UNL d   1      -0.134   0.377  -3.171  0.00  0.00     0.395 HD
ENDBRANCH   1   7
TORSDOF 1
ENDMDL
