MODEL 1
REMARK minimizedAffinity -5.5199542
REMARK minimizedRMSD -1
REMARK  1 active torsions:
REMARK  status: ('A' for Active; 'I' for Inactive)
REMARK    1  A    between atoms: N_2  and  C1_3 
ROOT
ATOM      1  C1  UNL d   1      -0.043  -1.323   0.236  0.00  0.00     0.143 A 
ATOM      2  C2  UNL d   1      -0.636  -2.498   0.709  0.00  0.00    -0.057 A 
ATOM      3  C3  UNL d   1      -0.495  -3.710   0.022  0.00  0.00     0.033 A 
ATOM      4  C4  UNL d   1       0.219  -3.762  -1.170  0.00  0.00    -0.042 A 
ATOM      5  C5  UNL d   1       0.796  -2.600  -1.673  0.00  0.00     0.033 A 
ATOM      6  C6  UNL d   1       0.657  -1.395  -0.979  0.00  0.00    -0.057 A 
ENDROOT
BRANCH   1   7
ATOM      7  N   UNL d   1      -0.229  -0.068   0.821  0.00  0.00    -0.732 N 
ATOM      8  C   UNL d   1       0.102   1.140   0.096  0.00  0.00     0.284 C 
ATOM      9  H3  UNL d   1      -1.095  -0.011   1.351  0.00  0.00     0.395 HD
ENDBRANCH   1   7
TORSDOF 1
ENDMDL
