MODEL 1
REMARK minimizedAffinity -5.11214399
REMARK minimizedRMSD -1
REMARK  1 active torsions:
REMARK  status: ('A' for Active; 'I' for Inactive)
REMARK    1  A    between atoms: N_2  and  C1_3 
ROOT
ATOM      1  C1  UNL d   1      -0.174  -1.469  -0.258  0.00  0.00     0.143 A 
ATOM      2  C2  UNL d   1      -0.509  -2.490   0.638  0.00  0.00    -0.057 A 
ATOM      3  C3  UNL d   1      -0.281  -3.835   0.324  0.00  0.00     0.033 A 
ATOM      4  C4  UNL d   1       0.260  -4.185  -0.909  0.00  0.00    -0.042 A 
ATOM      5  C5  UNL d   1       0.577  -3.189  -1.825  0.00  0.00     0.033 A 
ATOM      6  C6  UNL d   1       0.354  -1.847  -1.502  0.00  0.00    -0.057 A 
ENDROOT
BRANCH   1   7
ATOM      7  N   UNL d   1      -0.467  -0.119  -0.044  0.00  0.00    -0.732 N 
ATOM      8  C   UNL d   1      -1.440   0.275   0.952  0.00  0.00     0.284 C 
ATOM      9  H3  UNL d   1       0.365   0.467  -0.067  0.00  0.00     0.395 HD
ENDBRANCH   1   7
TORSDOF 1
ENDMDL
