MODEL 1
REMARK minimizedAffinity -5.71922398
REMARK minimizedRMSD -1
REMARK  1 active torsions:
REMARK  status: ('A' for Active; 'I' for Inactive)
REMARK    1  A    between atoms: N_2  and  C1_3 
ROOT
ATOM      1  C1  UNL d   1       0.355  -1.229  -0.298  0.00  0.00     0.143 A 
ATOM      2  C2  UNL d   1       0.398  -1.718  -1.608  0.00  0.00    -0.057 A 
ATOM      3  C3  UNL d   1       0.380  -3.093  -1.871  0.00  0.00     0.033 A 
ATOM      4  C4  UNL d   1       0.348  -4.007  -0.823  0.00  0.00    -0.042 A 
ATOM      5  C5  UNL d   1       0.329  -3.544   0.488  0.00  0.00     0.033 A 
ATOM      6  C6  UNL d   1       0.341  -2.170   0.744  0.00  0.00    -0.057 A 
ENDROOT
BRANCH   1   7
ATOM      7  N   UNL d   1       0.470   0.124   0.032  0.00  0.00    -0.732 N 
ATOM      8  C   UNL d   1       0.081   1.148  -0.914  0.00  0.00     0.284 C 
ATOM      9  H3  UNL d   1       0.189   0.315   0.991  0.00  0.00     0.395 HD
ENDBRANCH   1   7
TORSDOF 1
ENDMDL
