MODEL 1
REMARK minimizedAffinity -4.87621784
REMARK minimizedRMSD -1
REMARK  1 active torsions:
REMARK  status: ('A' for Active; 'I' for Inactive)
REMARK    1  A    between atoms: N_2  and  C1_3 
ROOT
ATOM      1  C1  UNL d   1      -0.240  -0.555   0.210  0.00  0.00     0.143 A 
ATOM      2  C2  UNL d   1       0.981  -0.495  -0.469  0.00  0.00    -0.057 A 
ATOM      3  C3  UNL d   1       1.612  -1.656  -0.933  0.00  0.00     0.033 A 
ATOM      4  C4  UNL d   1       1.044  -2.904  -0.700  0.00  0.00    -0.042 A 
ATOM      5  C5  UNL d   1      -0.157  -2.990  -0.005  0.00  0.00     0.033 A 
ATOM      6  C6  UNL d   1      -0.785  -1.827   0.451  0.00  0.00    -0.057 A 
ENDROOT
BRANCH   1   7
ATOM      7  N   UNL d   1      -0.868   0.554   0.782  0.00  0.00    -0.732 N 
ATOM      8  C   UNL d   1      -1.824   0.388   1.856  0.00  0.00     0.284 C 
ATOM      9  H3  UNL d   1      -0.231   1.337   0.910  0.00  0.00     0.395 HD
ENDBRANCH   1   7
TORSDOF 1
ENDMDL
