MODEL 1
REMARK minimizedAffinity -3.95819139
REMARK minimizedRMSD -1
REMARK  1 active torsions:
REMARK  status: ('A' for Active; 'I' for Inactive)
REMARK    1  A    between atoms: N_2  and  C1_3 
ROOT
ATOM      1  C1  UNL d   1       1.069   2.373  -0.148  0.00  0.00     0.143 A 
ATOM      2  C2  UNL d   1       0.099   1.478  -0.614  0.00  0.00    -0.057 A 
ATOM      3  C3  UNL d   1       0.431   0.444  -1.498  0.00  0.00     0.033 A 
ATOM      4  C4  UNL d   1       1.737   0.304  -1.955  0.00  0.00    -0.042 A 
ATOM      5  C5  UNL d   1       2.712   1.197  -1.525  0.00  0.00     0.033 A 
ATOM      6  C6  UNL d   1       2.376   2.224  -0.637  0.00  0.00    -0.057 A 
ENDROOT
BRANCH   1   7
ATOM      7  N   UNL d   1       0.783   3.481   0.654  0.00  0.00    -0.732 N 
ATOM      8  C   UNL d   1       1.571   3.758   1.836  0.00  0.00     0.284 C 
ATOM      9  H3  UNL d   1       0.550   4.306   0.107  0.00  0.00     0.395 HD
ENDBRANCH   1   7
TORSDOF 1
ENDMDL
