MODEL 1
REMARK minimizedAffinity -4.98976183
REMARK minimizedRMSD -1
REMARK  1 active torsions:
REMARK  status: ('A' for Active; 'I' for Inactive)
REMARK    1  A    between atoms: N_2  and  C1_3 
ROOT
ATOM      1  C1  UNL d   1      -0.001   0.251   0.131  0.00  0.00     0.143 A 
ATOM      2  C2  UNL d   1      -1.029  -0.369   0.850  0.00  0.00    -0.057 A 
ATOM      3  C3  UNL d   1      -1.125  -1.764   0.923  0.00  0.00     0.033 A 
ATOM      4  C4  UNL d   1      -0.208  -2.566   0.252  0.00  0.00    -0.042 A 
ATOM      5  C5  UNL d   1       0.807  -1.971  -0.490  0.00  0.00     0.033 A 
ATOM      6  C6  UNL d   1       0.901  -0.578  -0.553  0.00  0.00    -0.057 A 
ENDROOT
BRANCH   1   7
ATOM      7  N   UNL d   1       0.090   1.632  -0.061  0.00  0.00    -0.732 N 
ATOM      8  C   UNL d   1       1.279   2.354   0.338  0.00  0.00     0.284 C 
ATOM      9  H3  UNL d   1      -0.294   1.926  -0.956  0.00  0.00     0.395 HD
ENDBRANCH   1   7
TORSDOF 1
ENDMDL
