MODEL 1
REMARK minimizedAffinity -3.25923419
REMARK minimizedRMSD -1
REMARK  1 active torsions:
REMARK  status: ('A' for Active; 'I' for Inactive)
REMARK    1  A    between atoms: N_2  and  C1_3 
ROOT
ATOM      1  C1  UNL d   1       0.331  -1.598  -0.388  0.00  0.00     0.143 A 
ATOM      2  C2  UNL d   1      -0.143  -2.802   0.144  0.00  0.00    -0.057 A 
ATOM      3  C3  UNL d   1      -0.000  -4.009  -0.551  0.00  0.00     0.033 A 
ATOM      4  C4  UNL d   1       0.595  -4.029  -1.808  0.00  0.00    -0.042 A 
ATOM      5  C5  UNL d   1       1.051  -2.840  -2.367  0.00  0.00     0.033 A 
ATOM      6  C6  UNL d   1       0.912  -1.639  -1.666  0.00  0.00    -0.057 A 
ENDROOT
BRANCH   1   7
ATOM      7  N   UNL d   1       0.132  -0.351   0.210  0.00  0.00    -0.732 N 
ATOM      8  C   UNL d   1      -0.992  -0.129   1.094  0.00  0.00     0.284 C 
ATOM      9  H3  UNL d   1       1.001   0.071   0.528  0.00  0.00     0.395 HD
ENDBRANCH   1   7
TORSDOF 1
ENDMDL
