MODEL 1
REMARK minimizedAffinity -4.18065548
REMARK minimizedRMSD -1
REMARK  0 active torsions:
REMARK  status: ('A' for Active; 'I' for Inactive)
ROOT
ATOM      1  C1  BNZ d   1      -1.079   1.617  -0.265  0.00  0.00     0.000 A 
ATOM      2  C2  BNZ d   1      -0.745   0.669   0.665  0.00  0.00     0.000 A 
ATOM      3  C3  BNZ d   1       0.065  -0.381   0.335  0.00  0.00     0.000 A 
ATOM      4  C4  BNZ d   1       0.508  -0.503  -0.933  0.00  0.00     0.000 A 
ATOM      5  C5  BNZ d   1       0.173   0.439  -1.884  0.00  0.00     0.000 A 
ATOM      6  C6  BNZ d   1      -0.611   1.516  -1.539  0.00  0.00     0.000 A 
ENDROOT
TORSDOF 0
ENDMDL
