MODEL 1
REMARK minimizedAffinity -4.59551859
REMARK minimizedRMSD -1
REMARK  0 active torsions:
REMARK  status: ('A' for Active; 'I' for Inactive)
ROOT
ATOM      1  C1  BNZ d   1      -1.949  -1.834  -0.330  0.00  0.00     0.000 A 
ATOM      2  C2  BNZ d   1      -1.827  -2.973  -1.081  0.00  0.00     0.000 A 
ATOM      3  C3  BNZ d   1      -0.604  -3.383  -1.535  0.00  0.00     0.000 A 
ATOM      4  C4  BNZ d   1       0.486  -2.635  -1.272  0.00  0.00     0.000 A 
ATOM      5  C5  BNZ d   1       0.377  -1.479  -0.524  0.00  0.00     0.000 A 
ATOM      6  C6  BNZ d   1      -0.849  -1.090  -0.035  0.00  0.00     0.000 A 
ENDROOT
TORSDOF 0
ENDMDL
