MODEL 1
REMARK minimizedAffinity 3.73664927
REMARK minimizedRMSD -1
REMARK  0 active torsions:
REMARK  status: ('A' for Active; 'I' for Inactive)
ROOT
ATOM      1  C1  BNZ d   1      -0.429  -1.150  -2.243  0.00  0.00     0.000 A 
ATOM      2  C2  BNZ d   1       0.217   0.058  -2.223  0.00  0.00     0.000 A 
ATOM      3  C3  BNZ d   1      -0.381   1.163  -1.686  0.00  0.00     0.000 A 
ATOM      4  C4  BNZ d   1      -1.638   1.069  -1.206  0.00  0.00     0.000 A 
ATOM      5  C5  BNZ d   1      -2.306  -0.139  -1.227  0.00  0.00     0.000 A 
ATOM      6  C6  BNZ d   1      -1.686  -1.258  -1.733  0.00  0.00     0.000 A 
ENDROOT
TORSDOF 0
ENDMDL
