MODEL 1
REMARK minimizedAffinity -4.01664734
REMARK minimizedRMSD -1
REMARK  0 active torsions:
REMARK  status: ('A' for Active; 'I' for Inactive)
ROOT
ATOM      1  C1  BNZ d   1       0.735   0.404   1.694  0.00  0.00     0.000 A 
ATOM      2  C2  BNZ d   1       0.058   1.444   2.274  0.00  0.00     0.000 A 
ATOM      3  C3  BNZ d   1      -0.921   2.110   1.590  0.00  0.00     0.000 A 
ATOM      4  C4  BNZ d   1      -1.193   1.762   0.316  0.00  0.00     0.000 A 
ATOM      5  C5  BNZ d   1      -0.513   0.723  -0.286  0.00  0.00     0.000 A 
ATOM      6  C6  BNZ d   1       0.445   0.029   0.418  0.00  0.00     0.000 A 
ENDROOT
TORSDOF 0
ENDMDL
