MODEL 1
REMARK minimizedAffinity -4.58041906
REMARK minimizedRMSD -1
REMARK  0 active torsions:
REMARK  status: ('A' for Active; 'I' for Inactive)
ROOT
ATOM      1  C1  BNZ d   1      -0.458   0.067  -0.300  0.00  0.00     0.000 A 
ATOM      2  C2  BNZ d   1      -1.171   1.106   0.236  0.00  0.00     0.000 A 
ATOM      3  C3  BNZ d   1      -0.827   1.642   1.445  0.00  0.00     0.000 A 
ATOM      4  C4  BNZ d   1       0.204   1.113   2.135  0.00  0.00     0.000 A 
ATOM      5  C5  BNZ d   1       0.927   0.058   1.613  0.00  0.00     0.000 A 
ATOM      6  C6  BNZ d   1       0.601  -0.453   0.378  0.00  0.00     0.000 A 
ENDROOT
TORSDOF 0
ENDMDL
