MODEL 1
REMARK minimizedAffinity -4.46747684
REMARK minimizedRMSD -1
REMARK  0 active torsions:
REMARK  status: ('A' for Active; 'I' for Inactive)
ROOT
ATOM      1  C1  BNZ d   1       0.040   0.101   1.368  0.00  0.00     0.000 A 
ATOM      2  C2  BNZ d   1      -0.428   1.203   2.033  0.00  0.00     0.000 A 
ATOM      3  C3  BNZ d   1      -0.878   2.296   1.346  0.00  0.00     0.000 A 
ATOM      4  C4  BNZ d   1      -0.823   2.301  -0.001  0.00  0.00     0.000 A 
ATOM      5  C5  BNZ d   1      -0.345   1.201  -0.686  0.00  0.00     0.000 A 
ATOM      6  C6  BNZ d   1       0.071   0.088   0.008  0.00  0.00     0.000 A 
ENDROOT
TORSDOF 0
ENDMDL
