MODEL 1
REMARK minimizedAffinity -4.5153656
REMARK minimizedRMSD -1
REMARK  0 active torsions:
REMARK  status: ('A' for Active; 'I' for Inactive)
ROOT
ATOM      1  C1  BNZ d   1       0.357   0.104   1.858  0.00  0.00     0.000 A 
ATOM      2  C2  BNZ d   1       0.495  -0.315   0.562  0.00  0.00     0.000 A 
ATOM      3  C3  BNZ d   1      -0.149   0.333  -0.455  0.00  0.00     0.000 A 
ATOM      4  C4  BNZ d   1      -0.960   1.372  -0.171  0.00  0.00     0.000 A 
ATOM      5  C5  BNZ d   1      -1.117   1.800   1.132  0.00  0.00     0.000 A 
ATOM      6  C6  BNZ d   1      -0.437   1.170   2.149  0.00  0.00     0.000 A 
ENDROOT
TORSDOF 0
ENDMDL
