MODEL 1
REMARK minimizedAffinity -0.0238301177
REMARK minimizedRMSD -1
REMARK  0 active torsions:
REMARK  status: ('A' for Active; 'I' for Inactive)
ROOT
ATOM      1  C   UNL d   1       4.366   4.305  -5.738  0.00  0.00     0.023 A 
ATOM      2  C1  UNL d   1       3.677   5.326  -5.083  0.00  0.00     0.003 A 
ATOM      3  C2  UNL d   1       4.145   5.813  -3.861  0.00  0.00     0.048 A 
ATOM      4  C3  UNL d   1       5.302   5.275  -3.299  0.00  0.00     0.023 A 
ATOM      5  C4  UNL d   1       5.995   4.253  -3.951  0.00  0.00     0.048 A 
ATOM      6  C5  UNL d   1       5.523   3.769  -5.173  0.00  0.00     0.003 A 
ATOM      7  I   UNL d   1       6.000   5.998  -1.480  0.00  0.00    -0.146 I 
ENDROOT
TORSDOF 0
ENDMDL
