MODEL 1
REMARK minimizedAffinity 17.2280426
REMARK minimizedRMSD -1
REMARK  0 active torsions:
REMARK  status: ('A' for Active; 'I' for Inactive)
ROOT
ATOM      1  C   UNL d   1       3.324  -1.507   3.084  0.00  0.00     0.023 A 
ATOM      2  C1  UNL d   1       2.934  -1.769   4.398  0.00  0.00     0.003 A 
ATOM      3  C2  UNL d   1       3.698  -2.621   5.197  0.00  0.00     0.048 A 
ATOM      4  C3  UNL d   1       4.851  -3.208   4.676  0.00  0.00     0.023 A 
ATOM      5  C4  UNL d   1       5.245  -2.949   3.363  0.00  0.00     0.048 A 
ATOM      6  C5  UNL d   1       4.478  -2.096   2.567  0.00  0.00     0.003 A 
ATOM      7  I   UNL d   1       5.990  -4.478   5.864  0.00  0.00    -0.146 I 
ENDROOT
TORSDOF 0
ENDMDL
