MODEL 1
REMARK minimizedAffinity 20.6517677
REMARK minimizedRMSD -1
REMARK  0 active torsions:
REMARK  status: ('A' for Active; 'I' for Inactive)
ROOT
ATOM      1  C   UNL d   1      -5.586  -5.748  -5.787  0.00  0.00     0.023 A 
ATOM      2  C1  UNL d   1      -4.231  -6.000  -5.999  0.00  0.00     0.003 A 
ATOM      3  C2  UNL d   1      -3.266  -5.180  -5.410  0.00  0.00     0.048 A 
ATOM      4  C3  UNL d   1      -3.664  -4.111  -4.609  0.00  0.00     0.023 A 
ATOM      5  C4  UNL d   1      -5.019  -3.855  -4.393  0.00  0.00     0.048 A 
ATOM      6  C5  UNL d   1      -5.980  -4.677  -4.985  0.00  0.00     0.003 A 
ATOM      7  I   UNL d   1      -2.230  -2.889  -3.730  0.00  0.00    -0.146 I 
ENDROOT
TORSDOF 0
ENDMDL
