MODEL 1
REMARK minimizedAffinity 6.50929117
REMARK minimizedRMSD -1
REMARK  0 active torsions:
REMARK  status: ('A' for Active; 'I' for Inactive)
ROOT
ATOM      1  C   UNL d   1       5.561   4.845  -1.322  0.00  0.00     0.023 A 
ATOM      2  C1  UNL d   1       4.700   5.879  -1.690  0.00  0.00     0.003 A 
ATOM      3  C2  UNL d   1       4.277   5.999  -3.016  0.00  0.00     0.048 A 
ATOM      4  C3  UNL d   1       4.719   5.080  -3.968  0.00  0.00     0.023 A 
ATOM      5  C4  UNL d   1       5.579   4.043  -3.603  0.00  0.00     0.048 A 
ATOM      6  C5  UNL d   1       6.000   3.928  -2.277  0.00  0.00     0.003 A 
ATOM      7  I   UNL d   1       4.091   5.256  -5.941  0.00  0.00    -0.146 I 
ENDROOT
TORSDOF 0
ENDMDL
