MODEL 1
REMARK minimizedAffinity 10.5602274
REMARK minimizedRMSD -1
REMARK  0 active torsions:
REMARK  status: ('A' for Active; 'I' for Inactive)
ROOT
ATOM      1  C   UNL d   1      -1.009  -1.929  -1.316  0.00  0.00     0.023 A 
ATOM      2  C1  UNL d   1       0.061  -2.571  -0.693  0.00  0.00     0.003 A 
ATOM      3  C2  UNL d   1       1.277  -2.716  -1.365  0.00  0.00     0.048 A 
ATOM      4  C3  UNL d   1       1.415  -2.216  -2.659  0.00  0.00     0.023 A 
ATOM      5  C4  UNL d   1       0.348  -1.572  -3.286  0.00  0.00     0.048 A 
ATOM      6  C5  UNL d   1      -0.866  -1.430  -2.611  0.00  0.00     0.003 A 
ATOM      7  I   UNL d   1       3.224  -2.431  -3.661  0.00  0.00    -0.146 I 
ENDROOT
TORSDOF 0
ENDMDL
