MODEL 1
REMARK minimizedAffinity 3.05364585
REMARK minimizedRMSD -1
REMARK  0 active torsions:
REMARK  status: ('A' for Active; 'I' for Inactive)
ROOT
ATOM      1  C   UNL d   1       0.610  -2.336  -2.766  0.00  0.00     0.023 A 
ATOM      2  C1  UNL d   1       0.709  -2.558  -1.392  0.00  0.00     0.003 A 
ATOM      3  C2  UNL d   1      -0.431  -2.488  -0.589  0.00  0.00     0.048 A 
ATOM      4  C3  UNL d   1      -1.667  -2.197  -1.166  0.00  0.00     0.023 A 
ATOM      5  C4  UNL d   1      -1.770  -1.975  -2.540  0.00  0.00     0.048 A 
ATOM      6  C5  UNL d   1      -0.628  -2.044  -3.339  0.00  0.00     0.003 A 
ATOM      7  I   UNL d   1      -3.365  -2.093   0.028  0.00  0.00    -0.146 I 
ENDROOT
TORSDOF 0
ENDMDL
