MODEL 1
REMARK minimizedAffinity 6.22301006
REMARK minimizedRMSD -1
REMARK  0 active torsions:
REMARK  status: ('A' for Active; 'I' for Inactive)
ROOT
ATOM      1  C   UNL d   1      -0.103  -1.803   0.016  0.00  0.00     0.023 A 
ATOM      2  C1  UNL d   1       0.427  -2.735  -0.876  0.00  0.00     0.003 A 
ATOM      3  C2  UNL d   1      -0.242  -3.022  -2.067  0.00  0.00     0.048 A 
ATOM      4  C3  UNL d   1      -1.442  -2.374  -2.360  0.00  0.00     0.023 A 
ATOM      5  C4  UNL d   1      -1.976  -1.441  -1.471  0.00  0.00     0.048 A 
ATOM      6  C5  UNL d   1      -1.303  -1.157  -0.281  0.00  0.00     0.003 A 
ATOM      7  I   UNL d   1      -2.440  -2.801  -4.132  0.00  0.00    -0.146 I 
ENDROOT
TORSDOF 0
ENDMDL
