MODEL 1
REMARK minimizedAffinity 9.49709702
REMARK minimizedRMSD -1
REMARK  0 active torsions:
REMARK  status: ('A' for Active; 'I' for Inactive)
ROOT
ATOM      1  C   UNL d   1       0.566   4.681   1.437  0.00  0.00     0.023 A 
ATOM      2  C1  UNL d   1       1.498   3.846   0.821  0.00  0.00     0.003 A 
ATOM      3  C2  UNL d   1       1.757   3.974  -0.546  0.00  0.00     0.048 A 
ATOM      4  C3  UNL d   1       1.082   4.941  -1.289  0.00  0.00     0.023 A 
ATOM      5  C4  UNL d   1       0.149   5.780  -0.677  0.00  0.00     0.048 A 
ATOM      6  C5  UNL d   1      -0.108   5.647   0.689  0.00  0.00     0.003 A 
ATOM      7  I   UNL d   1       1.466   5.135  -3.323  0.00  0.00    -0.146 I 
ENDROOT
TORSDOF 0
ENDMDL
