MODEL 1
REMARK minimizedAffinity 12.765811
REMARK minimizedRMSD -1
REMARK  0 active torsions:
REMARK  status: ('A' for Active; 'I' for Inactive)
ROOT
ATOM      1  C   UNL d   1      -1.138  -2.124  -0.452  0.00  0.00     0.023 A 
ATOM      2  C1  UNL d   1      -1.140  -1.337  -1.603  0.00  0.00     0.003 A 
ATOM      3  C2  UNL d   1      -0.270  -1.634  -2.654  0.00  0.00     0.048 A 
ATOM      4  C3  UNL d   1       0.598  -2.720  -2.548  0.00  0.00     0.023 A 
ATOM      5  C4  UNL d   1       0.602  -3.511  -1.398  0.00  0.00     0.048 A 
ATOM      6  C5  UNL d   1      -0.269  -3.210  -0.349  0.00  0.00     0.003 A 
ATOM      7  I   UNL d   1       1.893  -3.165  -4.112  0.00  0.00    -0.146 I 
ENDROOT
TORSDOF 0
ENDMDL
