MODEL 1
REMARK minimizedAffinity 11.1165218
REMARK minimizedRMSD -1
REMARK  0 active torsions:
REMARK  status: ('A' for Active; 'I' for Inactive)
ROOT
ATOM      1  C   UNL d   1      -1.010  -1.807  -0.555  0.00  0.00     0.023 A 
ATOM      2  C1  UNL d   1      -0.003  -2.740  -0.301  0.00  0.00     0.003 A 
ATOM      3  C2  UNL d   1       0.847  -3.148  -1.331  0.00  0.00     0.048 A 
ATOM      4  C3  UNL d   1       0.687  -2.619  -2.611  0.00  0.00     0.023 A 
ATOM      5  C4  UNL d   1      -0.318  -1.685  -2.869  0.00  0.00     0.048 A 
ATOM      6  C5  UNL d   1      -1.167  -1.281  -1.837  0.00  0.00     0.003 A 
ATOM      7  I   UNL d   1       1.952  -3.225  -4.145  0.00  0.00    -0.146 I 
ENDROOT
TORSDOF 0
ENDMDL
