MODEL 1
REMARK minimizedAffinity 12.0244503
REMARK minimizedRMSD -1
REMARK  0 active torsions:
REMARK  status: ('A' for Active; 'I' for Inactive)
ROOT
ATOM      1  C   UNL d   1       0.056  -2.139  -0.673  0.00  0.00     0.023 A 
ATOM      2  C1  UNL d   1      -0.965  -1.369  -1.229  0.00  0.00     0.003 A 
ATOM      3  C2  UNL d   1      -1.685  -1.849  -2.325  0.00  0.00     0.048 A 
ATOM      4  C3  UNL d   1      -1.380  -3.101  -2.859  0.00  0.00     0.023 A 
ATOM      5  C4  UNL d   1      -0.359  -3.875  -2.304  0.00  0.00     0.048 A 
ATOM      6  C5  UNL d   1       0.359  -3.391  -1.209  0.00  0.00     0.003 A 
ATOM      7  I   UNL d   1      -2.451  -3.818  -4.489  0.00  0.00    -0.146 I 
ENDROOT
TORSDOF 0
ENDMDL
