MODEL 1
REMARK minimizedAffinity 13.9396181
REMARK minimizedRMSD -1
REMARK  0 active torsions:
REMARK  status: ('A' for Active; 'I' for Inactive)
ROOT
ATOM      1  C   UNL d   1       3.008  -2.591  -4.121  0.00  0.00     0.023 A 
ATOM      2  C1  UNL d   1       2.630  -1.480  -4.874  0.00  0.00     0.003 A 
ATOM      3  C2  UNL d   1       3.487  -0.383  -4.981  0.00  0.00     0.048 A 
ATOM      4  C3  UNL d   1       4.722  -0.405  -4.332  0.00  0.00     0.023 A 
ATOM      5  C4  UNL d   1       5.104  -1.515  -3.578  0.00  0.00     0.048 A 
ATOM      6  C5  UNL d   1       4.243  -2.609  -3.474  0.00  0.00     0.003 A 
ATOM      7  I   UNL d   1       6.000   1.227  -4.489  0.00  0.00    -0.146 I 
ENDROOT
TORSDOF 0
ENDMDL
