MODEL 1
REMARK minimizedAffinity 16.7443829
REMARK minimizedRMSD -1
REMARK  0 active torsions:
REMARK  status: ('A' for Active; 'I' for Inactive)
ROOT
ATOM      1  C   UNL d   1       0.222   4.568   0.144  0.00  0.00     0.023 A 
ATOM      2  C1  UNL d   1       1.234   3.819   0.746  0.00  0.00     0.003 A 
ATOM      3  C2  UNL d   1       2.563   3.999   0.355  0.00  0.00     0.048 A 
ATOM      4  C3  UNL d   1       2.873   4.928  -0.636  0.00  0.00     0.023 A 
ATOM      5  C4  UNL d   1       1.864   5.680  -1.241  0.00  0.00     0.048 A 
ATOM      6  C5  UNL d   1       0.537   5.497  -0.848  0.00  0.00     0.003 A 
ATOM      7  I   UNL d   1       4.850   5.197  -1.219  0.00  0.00    -0.146 I 
ENDROOT
TORSDOF 0
ENDMDL
