MODEL 1
REMARK minimizedAffinity 8.28445625
REMARK minimizedRMSD -1
REMARK  0 active torsions:
REMARK  status: ('A' for Active; 'I' for Inactive)
ROOT
ATOM      1  C   UNL d   1      -0.377  -3.004  -0.620  0.00  0.00     0.023 A 
ATOM      2  C1  UNL d   1      -0.591  -2.118  -1.676  0.00  0.00     0.003 A 
ATOM      3  C2  UNL d   1      -0.382  -2.535  -2.992  0.00  0.00     0.048 A 
ATOM      4  C3  UNL d   1       0.040  -3.840  -3.245  0.00  0.00     0.023 A 
ATOM      5  C4  UNL d   1       0.254  -4.730  -2.192  0.00  0.00     0.048 A 
ATOM      6  C5  UNL d   1       0.045  -4.308  -0.877  0.00  0.00     0.003 A 
ATOM      7  I   UNL d   1       0.351  -4.463  -5.203  0.00  0.00    -0.146 I 
ENDROOT
TORSDOF 0
ENDMDL
