MODEL 1
REMARK minimizedAffinity 2.40653038
REMARK minimizedRMSD -1
REMARK  0 active torsions:
REMARK  status: ('A' for Active; 'I' for Inactive)
ROOT
ATOM      1  C   UNL d   1      -1.499  -2.582  -4.270  0.00  0.00     0.023 A 
ATOM      2  C1  UNL d   1      -1.038  -2.077  -3.055  0.00  0.00     0.003 A 
ATOM      3  C2  UNL d   1       0.333  -2.019  -2.796  0.00  0.00     0.048 A 
ATOM      4  C3  UNL d   1       1.237  -2.467  -3.759  0.00  0.00     0.023 A 
ATOM      5  C4  UNL d   1       0.781  -2.973  -4.977  0.00  0.00     0.048 A 
ATOM      6  C5  UNL d   1      -0.591  -3.029  -5.230  0.00  0.00     0.003 A 
ATOM      7  I   UNL d   1       3.279  -2.381  -3.376  0.00  0.00    -0.146 I 
ENDROOT
TORSDOF 0
ENDMDL
