MODEL 1
REMARK minimizedAffinity 10.3444128
REMARK minimizedRMSD -1
REMARK  0 active torsions:
REMARK  status: ('A' for Active; 'I' for Inactive)
ROOT
ATOM      1  C   UNL d   1      -1.512  -1.898  -1.478  0.00  0.00     0.023 A 
ATOM      2  C1  UNL d   1      -1.634  -2.144  -2.845  0.00  0.00     0.003 A 
ATOM      3  C2  UNL d   1      -0.577  -2.726  -3.548  0.00  0.00     0.048 A 
ATOM      4  C3  UNL d   1       0.599  -3.060  -2.878  0.00  0.00     0.023 A 
ATOM      5  C4  UNL d   1       0.726  -2.816  -1.509  0.00  0.00     0.048 A 
ATOM      6  C5  UNL d   1      -0.333  -2.234  -0.810  0.00  0.00     0.003 A 
ATOM      7  I   UNL d   1       2.174  -3.925  -3.922  0.00  0.00    -0.146 I 
ENDROOT
TORSDOF 0
ENDMDL
