MODEL 1
REMARK minimizedAffinity 12.2036972
REMARK minimizedRMSD -1
REMARK  0 active torsions:
REMARK  status: ('A' for Active; 'I' for Inactive)
ROOT
ATOM      1  C   UNL d   1      -0.593  -2.624  -0.115  0.00  0.00     0.077 C 
ATOM      2  C1  UNL d   1       0.329  -2.053   0.921  0.00  0.00    -0.074 A 
ATOM      3  C2  UNL d   1       0.546  -2.714   2.134  0.00  0.00    -0.005 A 
ATOM      4  C3  UNL d   1       1.414  -2.175   3.083  0.00  0.00     0.006 A 
ATOM      5  C4  UNL d   1       2.073  -0.971   2.830  0.00  0.00    -0.005 A 
ATOM      6  C5  UNL d   1       1.869  -0.296   1.622  0.00  0.00    -0.074 A 
ATOM      7  C6  UNL d   1       2.577   0.993   1.330  0.00  0.00     0.077 C 
ATOM      8  C7  UNL d   1       1.001  -0.848   0.670  0.00  0.00    -0.001 A 
ENDROOT
TORSDOF 0
ENDMDL
