MODEL 1
REMARK minimizedAffinity 4.08289528
REMARK minimizedRMSD -1
REMARK  0 active torsions:
REMARK  status: ('A' for Active; 'I' for Inactive)
ROOT
ATOM      1  C   UNL d   1      -0.794  -2.500   0.076  0.00  0.00     0.077 C 
ATOM      2  C1  UNL d   1       0.274  -2.032   1.020  0.00  0.00    -0.074 A 
ATOM      3  C2  UNL d   1       0.513  -2.701   2.224  0.00  0.00    -0.005 A 
ATOM      4  C3  UNL d   1       1.515  -2.259   3.087  0.00  0.00     0.006 A 
ATOM      5  C4  UNL d   1       2.288  -1.146   2.755  0.00  0.00    -0.005 A 
ATOM      6  C5  UNL d   1       2.065  -0.465   1.554  0.00  0.00    -0.074 A 
ATOM      7  C6  UNL d   1       2.893   0.728   1.177  0.00  0.00     0.077 C 
ATOM      8  C7  UNL d   1       1.060  -0.919   0.689  0.00  0.00    -0.001 A 
ENDROOT
TORSDOF 0
ENDMDL
