MODEL 1
REMARK minimizedAffinity 7.56396341
REMARK minimizedRMSD -1
REMARK  0 active torsions:
REMARK  status: ('A' for Active; 'I' for Inactive)
ROOT
ATOM      1  C   UNL d   1       2.269   1.024   1.185  0.00  0.00     0.077 C 
ATOM      2  C1  UNL d   1       1.714  -0.330   1.518  0.00  0.00    -0.074 A 
ATOM      3  C2  UNL d   1       2.064  -0.977   2.707  0.00  0.00    -0.005 A 
ATOM      4  C3  UNL d   1       1.533  -2.232   3.007  0.00  0.00     0.006 A 
ATOM      5  C4  UNL d   1       0.648  -2.850   2.123  0.00  0.00    -0.005 A 
ATOM      6  C5  UNL d   1       0.286  -2.217   0.929  0.00  0.00    -0.074 A 
ATOM      7  C6  UNL d   1      -0.671  -2.863  -0.028  0.00  0.00     0.077 C 
ATOM      8  C7  UNL d   1       0.819  -0.954   0.638  0.00  0.00    -0.001 A 
ENDROOT
TORSDOF 0
ENDMDL
