MODEL 1
REMARK minimizedAffinity 3.86462021
REMARK minimizedRMSD -1
REMARK  0 active torsions:
REMARK  status: ('A' for Active; 'I' for Inactive)
ROOT
ATOM      1  C   UNL d   1       1.617  -1.033   2.146  0.00  0.00     0.077 C 
ATOM      2  C1  UNL d   1       2.285  -2.055   3.018  0.00  0.00    -0.074 A 
ATOM      3  C2  UNL d   1       1.564  -3.133   3.542  0.00  0.00    -0.005 A 
ATOM      4  C3  UNL d   1       2.201  -4.081   4.343  0.00  0.00     0.006 A 
ATOM      5  C4  UNL d   1       3.562  -3.961   4.627  0.00  0.00    -0.005 A 
ATOM      6  C5  UNL d   1       4.299  -2.891   4.110  0.00  0.00    -0.074 A 
ATOM      7  C6  UNL d   1       5.764  -2.752   4.397  0.00  0.00     0.077 C 
ATOM      8  C7  UNL d   1       3.653  -1.946   3.301  0.00  0.00    -0.001 A 
ENDROOT
TORSDOF 0
ENDMDL
