MODEL 1
REMARK minimizedAffinity 9.49914742
REMARK minimizedRMSD -1
REMARK  0 active torsions:
REMARK  status: ('A' for Active; 'I' for Inactive)
ROOT
ATOM      1  C   UNL d   1       6.000  -3.173   3.874  0.00  0.00     0.077 C 
ATOM      2  C1  UNL d   1       4.503  -3.246   3.800  0.00  0.00    -0.074 A 
ATOM      3  C2  UNL d   1       3.806  -4.305   4.391  0.00  0.00    -0.005 A 
ATOM      4  C3  UNL d   1       2.413  -4.354   4.322  0.00  0.00     0.006 A 
ATOM      5  C4  UNL d   1       1.706  -3.347   3.664  0.00  0.00    -0.005 A 
ATOM      6  C5  UNL d   1       2.387  -2.281   3.068  0.00  0.00    -0.074 A 
ATOM      7  C6  UNL d   1       1.641  -1.185   2.366  0.00  0.00     0.077 C 
ATOM      8  C7  UNL d   1       3.785  -2.234   3.148  0.00  0.00    -0.001 A 
ENDROOT
TORSDOF 0
ENDMDL
