MODEL 1
REMARK minimizedAffinity 0.611530721
REMARK minimizedRMSD -1
REMARK  0 active torsions:
REMARK  status: ('A' for Active; 'I' for Inactive)
ROOT
ATOM      1  C   UNL d   1       0.121  -1.356   0.341  0.00  0.00     0.077 C 
ATOM      2  C1  UNL d   1       1.137  -0.532   1.075  0.00  0.00    -0.074 A 
ATOM      3  C2  UNL d   1       1.825   0.502   0.431  0.00  0.00    -0.005 A 
ATOM      4  C3  UNL d   1       2.760   1.266   1.129  0.00  0.00     0.006 A 
ATOM      5  C4  UNL d   1       3.017   1.005   2.475  0.00  0.00    -0.005 A 
ATOM      6  C5  UNL d   1       2.338  -0.024   3.136  0.00  0.00    -0.074 A 
ATOM      7  C6  UNL d   1       2.594  -0.311   4.586  0.00  0.00     0.077 C 
ATOM      8  C7  UNL d   1       1.395  -0.783   2.430  0.00  0.00    -0.001 A 
ENDROOT
TORSDOF 0
ENDMDL
