MODEL 1
REMARK minimizedAffinity 5.69938183
REMARK minimizedRMSD -1
REMARK  0 active torsions:
REMARK  status: ('A' for Active; 'I' for Inactive)
ROOT
ATOM      1  C   UNL d   1       4.872   0.880  -6.000  0.00  0.00     0.077 C 
ATOM      2  C1  UNL d   1       4.391  -0.328  -5.253  0.00  0.00    -0.074 A 
ATOM      3  C2  UNL d   1       4.104  -0.261  -3.886  0.00  0.00    -0.005 A 
ATOM      4  C3  UNL d   1       3.648  -1.390  -3.206  0.00  0.00     0.006 A 
ATOM      5  C4  UNL d   1       3.476  -2.597  -3.886  0.00  0.00    -0.005 A 
ATOM      6  C5  UNL d   1       3.757  -2.683  -5.253  0.00  0.00    -0.074 A 
ATOM      7  C6  UNL d   1       3.568  -3.970  -6.000  0.00  0.00     0.077 C 
ATOM      8  C7  UNL d   1       4.208  -1.542  -5.930  0.00  0.00    -0.001 A 
ENDROOT
TORSDOF 0
ENDMDL
