MODEL 1
REMARK minimizedAffinity 0.878702998
REMARK minimizedRMSD -1
REMARK  0 active torsions:
REMARK  status: ('A' for Active; 'I' for Inactive)
ROOT
ATOM      1  C   UNL d   1      -1.186  -1.834   0.336  0.00  0.00     0.077 C 
ATOM      2  C1  UNL d   1      -0.579  -0.462   0.337  0.00  0.00    -0.074 A 
ATOM      3  C2  UNL d   1      -1.301   0.644  -0.123  0.00  0.00    -0.005 A 
ATOM      4  C3  UNL d   1      -0.727   1.915  -0.106  0.00  0.00     0.006 A 
ATOM      5  C4  UNL d   1       0.573   2.092   0.369  0.00  0.00    -0.005 A 
ATOM      6  C5  UNL d   1       1.310   0.998   0.834  0.00  0.00    -0.074 A 
ATOM      7  C6  UNL d   1       2.705   1.173   1.357  0.00  0.00     0.077 C 
ATOM      8  C7  UNL d   1       0.723  -0.275   0.821  0.00  0.00    -0.001 A 
ENDROOT
TORSDOF 0
ENDMDL
