MODEL 1
REMARK minimizedAffinity -2.14811349
REMARK minimizedRMSD -1
REMARK  0 active torsions:
REMARK  status: ('A' for Active; 'I' for Inactive)
ROOT
ATOM      1  C   UNL d   1      -2.337  -1.070  -0.710  0.00  0.00     0.077 C 
ATOM      2  C1  UNL d   1      -1.211  -1.915  -0.193  0.00  0.00    -0.074 A 
ATOM      3  C2  UNL d   1      -0.756  -3.024  -0.913  0.00  0.00    -0.005 A 
ATOM      4  C3  UNL d   1       0.298  -3.795  -0.425  0.00  0.00     0.006 A 
ATOM      5  C4  UNL d   1       0.909  -3.465   0.786  0.00  0.00    -0.005 A 
ATOM      6  C5  UNL d   1       0.468  -2.358   1.519  0.00  0.00    -0.074 A 
ATOM      7  C6  UNL d   1       1.119  -1.984   2.817  0.00  0.00     0.077 C 
ATOM      8  C7  UNL d   1      -0.588  -1.585   1.018  0.00  0.00    -0.001 A 
ENDROOT
TORSDOF 0
ENDMDL
