MODEL 1
REMARK minimizedAffinity -3.63533425
REMARK minimizedRMSD -1
REMARK  0 active torsions:
REMARK  status: ('A' for Active; 'I' for Inactive)
ROOT
ATOM      1  N1  IND d   1      -0.998  -0.307  -2.309  0.00  0.00    -0.196 N 
ATOM      2  C2  IND d   1      -0.847   0.747  -1.452  0.00  0.00     0.054 A 
ATOM      3  C3  IND d   1       0.462   0.949  -1.180  0.00  0.00    -0.031 A 
ATOM      4  C4  IND d   1       2.532  -0.265  -2.113  0.00  0.00     0.051 A 
ATOM      5  C5  IND d   1       2.898  -1.321  -2.901  0.00  0.00    -0.031 A 
ATOM      6  C6  IND d   1       1.965  -2.106  -3.547  0.00  0.00     0.015 A 
ATOM      7  C7  IND d   1       0.626  -1.857  -3.438  0.00  0.00    -0.016 A 
ATOM      8  C8  IND d   1       0.251  -0.791  -2.633  0.00  0.00    -0.047 A 
ATOM      9  C9  IND d   1       1.191  -0.017  -1.941  0.00  0.00    -0.096 A 
ATOM     10  HN1 IND d   1      -1.747  -0.615  -2.598  0.00  0.00     0.298 HD
ENDROOT
TORSDOF 0
ENDMDL
