MODEL 1
REMARK minimizedAffinity -2.9963057
REMARK minimizedRMSD -1
REMARK  0 active torsions:
REMARK  status: ('A' for Active; 'I' for Inactive)
ROOT
ATOM      1  N1  IND d   1      -0.972  -0.171  -2.410  0.00  0.00    -0.196 N 
ATOM      2  C2  IND d   1      -0.738   0.806  -1.483  0.00  0.00     0.054 A 
ATOM      3  C3  IND d   1       0.583   1.087  -1.418  0.00  0.00    -0.031 A 
ATOM      4  C4  IND d   1       2.527   0.138  -2.814  0.00  0.00     0.051 A 
ATOM      5  C5  IND d   1       2.813  -0.806  -3.761  0.00  0.00    -0.031 A 
ATOM      6  C6  IND d   1       1.832  -1.600  -4.319  0.00  0.00     0.015 A 
ATOM      7  C7  IND d   1       0.521  -1.472  -3.957  0.00  0.00    -0.016 A 
ATOM      8  C8  IND d   1       0.227  -0.520  -2.991  0.00  0.00    -0.047 A 
ATOM      9  C9  IND d   1       1.224   0.260  -2.391  0.00  0.00    -0.096 A 
ATOM     10  HN1 IND d   1      -1.739  -0.510  -2.598  0.00  0.00     0.298 HD
ENDROOT
TORSDOF 0
ENDMDL
