MODEL 1
REMARK minimizedAffinity -4.48112583
REMARK minimizedRMSD -1
REMARK  0 active torsions:
REMARK  status: ('A' for Active; 'I' for Inactive)
ROOT
ATOM      1  N1  IND d   1      -0.933   0.393  -0.594  0.00  0.00    -0.196 N 
ATOM      2  C2  IND d   1       0.388   0.043  -0.586  0.00  0.00     0.054 A 
ATOM      3  C3  IND d   1       0.777  -0.296   0.663  0.00  0.00    -0.031 A 
ATOM      4  C4  IND d   1      -0.612  -0.445   2.826  0.00  0.00     0.051 A 
ATOM      5  C5  IND d   1      -1.857  -0.187   3.326  0.00  0.00    -0.031 A 
ATOM      6  C6  IND d   1      -2.880   0.285   2.528  0.00  0.00     0.015 A 
ATOM      7  C7  IND d   1      -2.697   0.506   1.192  0.00  0.00    -0.016 A 
ATOM      8  C8  IND d   1      -1.432   0.252   0.683  0.00  0.00    -0.047 A 
ATOM      9  C9  IND d   1      -0.378  -0.186   1.495  0.00  0.00    -0.096 A 
ATOM     10  HN1 IND d   1      -1.378   0.658  -1.281  0.00  0.00     0.298 HD
ENDROOT
TORSDOF 0
ENDMDL
