MODEL 1
REMARK minimizedAffinity -3.11544061
REMARK minimizedRMSD -1
REMARK  0 active torsions:
REMARK  status: ('A' for Active; 'I' for Inactive)
ROOT
ATOM      1  N1  IND d   1       1.255   0.945   0.027  0.00  0.00    -0.196 N 
ATOM      2  C2  IND d   1       0.709   0.556  -1.164  0.00  0.00     0.054 A 
ATOM      3  C3  IND d   1      -0.367  -0.236  -0.953  0.00  0.00    -0.031 A 
ATOM      4  C4  IND d   1      -1.468  -0.941   1.264  0.00  0.00     0.051 A 
ATOM      5  C5  IND d   1      -1.307  -0.865   2.619  0.00  0.00    -0.031 A 
ATOM      6  C6  IND d   1      -0.264  -0.165   3.191  0.00  0.00     0.015 A 
ATOM      7  C7  IND d   1       0.654   0.497   2.426  0.00  0.00    -0.016 A 
ATOM      8  C8  IND d   1       0.498   0.416   1.049  0.00  0.00    -0.047 A 
ATOM      9  C9  IND d   1      -0.534  -0.328   0.463  0.00  0.00    -0.096 A 
ATOM     10  HN1 IND d   1       1.954   1.436   0.122  0.00  0.00     0.298 HD
ENDROOT
TORSDOF 0
ENDMDL
