MODEL 1
REMARK minimizedAffinity -4.43386126
REMARK minimizedRMSD -1
REMARK  0 active torsions:
REMARK  status: ('A' for Active; 'I' for Inactive)
ROOT
ATOM      1  N1  IND d   1      -2.050   0.721  -0.482  0.00  0.00    -0.196 N 
ATOM      2  C2  IND d   1      -1.221   1.251  -1.430  0.00  0.00     0.054 A 
ATOM      3  C3  IND d   1       0.062   1.221  -1.003  0.00  0.00    -0.031 A 
ATOM      4  C4  IND d   1       1.039   0.254   1.173  0.00  0.00     0.051 A 
ATOM      5  C5  IND d   1       0.670  -0.303   2.366  0.00  0.00    -0.031 A 
ATOM      6  C6  IND d   1      -0.651  -0.554   2.675  0.00  0.00     0.015 A 
ATOM      7  C7  IND d   1      -1.656  -0.268   1.795  0.00  0.00    -0.016 A 
ATOM      8  C8  IND d   1      -1.286   0.304   0.586  0.00  0.00    -0.047 A 
ATOM      9  C9  IND d   1       0.050   0.601   0.284  0.00  0.00    -0.096 A 
ATOM     10  HN1 IND d   1      -2.906   0.659  -0.541  0.00  0.00     0.298 HD
ENDROOT
TORSDOF 0
ENDMDL
