MODEL 1
REMARK minimizedAffinity -3.85863209
REMARK minimizedRMSD -1
REMARK  0 active torsions:
REMARK  status: ('A' for Active; 'I' for Inactive)
ROOT
ATOM      1  N1  IND d   1      -0.760   0.308  -0.936  0.00  0.00    -0.196 N 
ATOM      2  C2  IND d   1       0.591   0.120  -1.022  0.00  0.00     0.054 A 
ATOM      3  C3  IND d   1       1.124  -0.033   0.211  0.00  0.00    -0.031 A 
ATOM      4  C4  IND d   1      -0.049  -0.111   2.501  0.00  0.00     0.051 A 
ATOM      5  C5  IND d   1      -1.271   0.050   3.092  0.00  0.00    -0.031 A 
ATOM      6  C6  IND d   1      -2.408   0.308   2.355  0.00  0.00     0.015 A 
ATOM      7  C7  IND d   1      -2.368   0.403   0.992  0.00  0.00    -0.016 A 
ATOM      8  C8  IND d   1      -1.128   0.247   0.390  0.00  0.00    -0.047 A 
ATOM      9  C9  IND d   1       0.038   0.028   1.136  0.00  0.00    -0.096 A 
ATOM     10  HN1 IND d   1      -1.291   0.442  -1.599  0.00  0.00     0.298 HD
ENDROOT
TORSDOF 0
ENDMDL
