MODEL 1
REMARK minimizedAffinity -3.32822895
REMARK minimizedRMSD -1
REMARK  0 active torsions:
REMARK  status: ('A' for Active; 'I' for Inactive)
ROOT
ATOM      1  N1  IND d   1      -0.751   0.394  -0.821  0.00  0.00    -0.196 N 
ATOM      2  C2  IND d   1       0.364   1.138  -1.090  0.00  0.00     0.054 A 
ATOM      3  C3  IND d   1       1.111   1.286   0.027  0.00  0.00    -0.031 A 
ATOM      4  C4  IND d   1       0.749   0.307   2.380  0.00  0.00     0.051 A 
ATOM      5  C5  IND d   1      -0.148  -0.409   3.122  0.00  0.00    -0.031 A 
ATOM      6  C6  IND d   1      -1.314  -0.906   2.577  0.00  0.00     0.015 A 
ATOM      7  C7  IND d   1      -1.622  -0.715   1.259  0.00  0.00    -0.016 A 
ATOM      8  C8  IND d   1      -0.717   0.018   0.504  0.00  0.00    -0.047 A 
ATOM      9  C9  IND d   1       0.447   0.561   1.063  0.00  0.00    -0.096 A 
ATOM     10  HN1 IND d   1      -1.369   0.194  -1.384  0.00  0.00     0.298 HD
ENDROOT
TORSDOF 0
ENDMDL
