MODEL 1
REMARK minimizedAffinity -4.01029921
REMARK minimizedRMSD -1
REMARK  0 active torsions:
REMARK  status: ('A' for Active; 'I' for Inactive)
ROOT
ATOM      1  N1  IND d   1      -0.802  -0.916  -0.677  0.00  0.00    -0.196 N 
ATOM      2  C2  IND d   1       0.035  -0.246  -1.525  0.00  0.00     0.054 A 
ATOM      3  C3  IND d   1       0.831   0.597  -0.830  0.00  0.00    -0.031 A 
ATOM      4  C4  IND d   1       1.002   0.964   1.712  0.00  0.00     0.051 A 
ATOM      5  C5  IND d   1       0.416   0.607   2.894  0.00  0.00    -0.031 A 
ATOM      6  C6  IND d   1      -0.625  -0.297   2.947  0.00  0.00     0.015 A 
ATOM      7  C7  IND d   1      -1.114  -0.888   1.817  0.00  0.00    -0.016 A 
ATOM      8  C8  IND d   1      -0.526  -0.522   0.614  0.00  0.00    -0.047 A 
ATOM      9  C9  IND d   1       0.503   0.427   0.549  0.00  0.00    -0.096 A 
ATOM     10  HN1 IND d   1      -1.401  -1.487  -0.910  0.00  0.00     0.298 HD
ENDROOT
TORSDOF 0
ENDMDL
