MODEL 1
REMARK minimizedAffinity -4.81717205
REMARK minimizedRMSD -1
REMARK  0 active torsions:
REMARK  status: ('A' for Active; 'I' for Inactive)
ROOT
ATOM      1  N1  IND d   1      -0.926   0.232  -0.852  0.00  0.00    -0.196 N 
ATOM      2  C2  IND d   1       0.414   0.484  -0.942  0.00  0.00     0.054 A 
ATOM      3  C3  IND d   1       0.993   0.391   0.277  0.00  0.00    -0.031 A 
ATOM      4  C4  IND d   1      -0.051  -0.261   2.538  0.00  0.00     0.051 A 
ATOM      5  C5  IND d   1      -1.250  -0.545   3.129  0.00  0.00    -0.031 A 
ATOM      6  C6  IND d   1      -2.426  -0.588   2.408  0.00  0.00     0.015 A 
ATOM      7  C7  IND d   1      -2.445  -0.359   1.061  0.00  0.00    -0.016 A 
ATOM      8  C8  IND d   1      -1.230  -0.063   0.459  0.00  0.00    -0.047 A 
ATOM      9  C9  IND d   1      -0.040   0.024   1.193  0.00  0.00    -0.096 A 
ATOM     10  HN1 IND d   1      -1.486   0.254  -1.504  0.00  0.00     0.298 HD
ENDROOT
TORSDOF 0
ENDMDL
