MODEL 1
REMARK minimizedAffinity -3.92333889
REMARK minimizedRMSD -1
REMARK  0 active torsions:
REMARK  status: ('A' for Active; 'I' for Inactive)
ROOT
ATOM      1  N1  IND d   1       2.380  -1.843  -3.686  0.00  0.00    -0.196 N 
ATOM      2  C2  IND d   1       3.427  -0.987  -3.485  0.00  0.00     0.054 A 
ATOM      3  C3  IND d   1       3.027   0.083  -2.762  0.00  0.00    -0.031 A 
ATOM      4  C4  IND d   1       0.728   0.584  -1.717  0.00  0.00     0.051 A 
ATOM      5  C5  IND d   1      -0.554   0.114  -1.658  0.00  0.00    -0.031 A 
ATOM      6  C6  IND d   1      -0.930  -1.058  -2.282  0.00  0.00     0.015 A 
ATOM      7  C7  IND d   1      -0.032  -1.812  -2.982  0.00  0.00    -0.016 A 
ATOM      8  C8  IND d   1       1.269  -1.334  -3.050  0.00  0.00    -0.047 A 
ATOM      9  C9  IND d   1       1.647  -0.124  -2.455  0.00  0.00    -0.096 A 
ATOM     10  HN1 IND d   1       2.411  -2.577  -4.134  0.00  0.00     0.298 HD
ENDROOT
TORSDOF 0
ENDMDL
