MODEL 1
REMARK minimizedAffinity -3.40320063
REMARK minimizedRMSD -1
REMARK  0 active torsions:
REMARK  status: ('A' for Active; 'I' for Inactive)
ROOT
ATOM      1  N1  IND d   1      -0.644   0.780  -0.746  0.00  0.00    -0.196 N 
ATOM      2  C2  IND d   1       0.020   0.012  -1.661  0.00  0.00     0.054 A 
ATOM      3  C3  IND d   1       0.751  -0.939  -1.036  0.00  0.00    -0.031 A 
ATOM      4  C4  IND d   1       0.924  -1.480   1.475  0.00  0.00     0.051 A 
ATOM      5  C5  IND d   1       0.528  -1.031   2.704  0.00  0.00    -0.031 A 
ATOM      6  C6  IND d   1      -0.297   0.065   2.848  0.00  0.00     0.015 A 
ATOM      7  C7  IND d   1      -0.769   0.749   1.763  0.00  0.00    -0.016 A 
ATOM      8  C8  IND d   1      -0.364   0.300   0.515  0.00  0.00    -0.047 A 
ATOM      9  C9  IND d   1       0.508  -0.785   0.364  0.00  0.00    -0.096 A 
ATOM     10  HN1 IND d   1      -1.151   1.450  -0.927  0.00  0.00     0.298 HD
ENDROOT
TORSDOF 0
ENDMDL
