MODEL 1
REMARK minimizedAffinity -1.25308788
REMARK minimizedRMSD -1
REMARK  0 active torsions:
REMARK  status: ('A' for Active; 'I' for Inactive)
ROOT
ATOM      1  N1  IND d   1      -3.033   0.916  -0.348  0.00  0.00    -0.196 N 
ATOM      2  C2  IND d   1      -4.104   0.119  -0.055  0.00  0.00     0.054 A 
ATOM      3  C3  IND d   1      -3.696  -0.999   0.586  0.00  0.00    -0.031 A 
ATOM      4  C4  IND d   1      -1.332  -1.678   1.347  0.00  0.00     0.051 A 
ATOM      5  C5  IND d   1      -0.024  -1.290   1.274  0.00  0.00    -0.031 A 
ATOM      6  C6  IND d   1       0.356  -0.121   0.646  0.00  0.00     0.015 A 
ATOM      7  C7  IND d   1      -0.564   0.712   0.075  0.00  0.00    -0.016 A 
ATOM      8  C8  IND d   1      -1.893   0.317   0.141  0.00  0.00    -0.047 A 
ATOM      9  C9  IND d   1      -2.280  -0.888   0.740  0.00  0.00    -0.096 A 
ATOM     10  HN1 IND d   1      -3.065   1.666  -0.768  0.00  0.00     0.298 HD
ENDROOT
TORSDOF 0
ENDMDL
