MODEL 1
REMARK minimizedAffinity -4.06091785
REMARK minimizedRMSD -1
REMARK  0 active torsions:
REMARK  status: ('A' for Active; 'I' for Inactive)
ROOT
ATOM      1  N1  IND d   1       4.491  -1.016  -3.694  0.00  0.00    -0.196 N 
ATOM      2  C2  IND d   1       4.886   0.287  -3.580  0.00  0.00     0.054 A 
ATOM      3  C3  IND d   1       3.820   1.082  -3.335  0.00  0.00    -0.031 A 
ATOM      4  C4  IND d   1       1.351   0.443  -2.982  0.00  0.00     0.051 A 
ATOM      5  C5  IND d   1       0.497  -0.623  -3.026  0.00  0.00    -0.031 A 
ATOM      6  C6  IND d   1       0.940  -1.901  -3.299  0.00  0.00     0.015 A 
ATOM      7  C7  IND d   1       2.262  -2.163  -3.526  0.00  0.00    -0.016 A 
ATOM      8  C8  IND d   1       3.130  -1.082  -3.489  0.00  0.00    -0.047 A 
ATOM      9  C9  IND d   1       2.680   0.224  -3.255  0.00  0.00    -0.096 A 
ATOM     10  HN1 IND d   1       5.006  -1.683  -3.865  0.00  0.00     0.298 HD
ENDROOT
TORSDOF 0
ENDMDL
