MODEL 1
REMARK minimizedAffinity -5.32799673
REMARK minimizedRMSD -1
REMARK  0 active torsions:
REMARK  status: ('A' for Active; 'I' for Inactive)
ROOT
ATOM      1  N1  IND d   1       0.827  -0.080   1.782  0.00  0.00    -0.196 N 
ATOM      2  C2  IND d   1       0.085  -0.507   2.847  0.00  0.00     0.054 A 
ATOM      3  C3  IND d   1      -1.233  -0.469   2.548  0.00  0.00    -0.031 A 
ATOM      4  C4  IND d   1      -2.390   0.163   0.337  0.00  0.00     0.051 A 
ATOM      5  C5  IND d   1      -2.132   0.654  -0.912  0.00  0.00    -0.031 A 
ATOM      6  C6  IND d   1      -0.847   0.928  -1.337  0.00  0.00     0.015 A 
ATOM      7  C7  IND d   1       0.232   0.710  -0.528  0.00  0.00    -0.016 A 
ATOM      8  C8  IND d   1      -0.027   0.218   0.743  0.00  0.00    -0.047 A 
ATOM      9  C9  IND d   1      -1.332  -0.022   1.194  0.00  0.00    -0.096 A 
ATOM     10  HN1 IND d   1       1.684  -0.010   1.763  0.00  0.00     0.298 HD
ENDROOT
TORSDOF 0
ENDMDL
