MODEL 1
REMARK minimizedAffinity -3.63098335
REMARK minimizedRMSD -1
REMARK  0 active torsions:
REMARK  status: ('A' for Active; 'I' for Inactive)
ROOT
ATOM      1  N1  IND d   1       4.324  -0.905  -3.875  0.00  0.00    -0.196 N 
ATOM      2  C2  IND d   1       4.753   0.391  -3.946  0.00  0.00     0.054 A 
ATOM      3  C3  IND d   1       3.813   1.225  -3.450  0.00  0.00    -0.031 A 
ATOM      4  C4  IND d   1       1.539   0.674  -2.376  0.00  0.00     0.051 A 
ATOM      5  C5  IND d   1       0.693  -0.368  -2.120  0.00  0.00    -0.031 A 
ATOM      6  C6  IND d   1       1.022  -1.669  -2.440  0.00  0.00     0.015 A 
ATOM      7  C7  IND d   1       2.219  -1.980  -3.020  0.00  0.00    -0.016 A 
ATOM      8  C8  IND d   1       3.078  -0.923  -3.288  0.00  0.00    -0.047 A 
ATOM      9  C9  IND d   1       2.732   0.405  -3.004  0.00  0.00    -0.096 A 
ATOM     10  HN1 IND d   1       4.759  -1.594  -4.150  0.00  0.00     0.298 HD
ENDROOT
TORSDOF 0
ENDMDL
