MODEL 1
REMARK minimizedAffinity -0.187402889
REMARK minimizedRMSD -1
REMARK  0 active torsions:
REMARK  status: ('A' for Active; 'I' for Inactive)
ROOT
ATOM      1  N1  IND d   1       0.929   1.219   0.175  0.00  0.00    -0.196 N 
ATOM      2  C2  IND d   1       0.721   0.569  -1.010  0.00  0.00     0.054 A 
ATOM      3  C3  IND d   1      -0.074  -0.508  -0.822  0.00  0.00    -0.031 A 
ATOM      4  C4  IND d   1      -1.229  -1.334   1.325  0.00  0.00     0.051 A 
ATOM      5  C5  IND d   1      -1.310  -1.089   2.667  0.00  0.00    -0.031 A 
ATOM      6  C6  IND d   1      -0.638  -0.039   3.259  0.00  0.00     0.015 A 
ATOM      7  C7  IND d   1       0.135   0.815   2.525  0.00  0.00    -0.016 A 
ATOM      8  C8  IND d   1       0.226   0.565   1.163  0.00  0.00    -0.047 A 
ATOM      9  C9  IND d   1      -0.420  -0.524   0.564  0.00  0.00    -0.096 A 
ATOM     10  HN1 IND d   1       1.417   1.918   0.284  0.00  0.00     0.298 HD
ENDROOT
TORSDOF 0
ENDMDL
