MODEL 1
REMARK minimizedAffinity 0.0844362155
REMARK minimizedRMSD -1
REMARK  0 active torsions:
REMARK  status: ('A' for Active; 'I' for Inactive)
ROOT
ATOM      1  C   UNL d   1       4.064   5.980   5.999  0.00  0.00     0.078 C 
ATOM      2  C1  UNL d   1       2.983   5.486   5.086  0.00  0.00    -0.077 A 
ATOM      3  C2  UNL d   1       1.682   5.999   5.164  0.00  0.00    -0.001 A 
ATOM      4  C3  UNL d   1       0.683   5.523   4.313  0.00  0.00     0.003 A 
ATOM      5  C4  UNL d   1       0.974   4.531   3.379  0.00  0.00    -0.005 A 
ATOM      6  C5  UNL d   1       2.265   4.012   3.296  0.00  0.00     0.003 A 
ATOM      7  C6  UNL d   1       3.265   4.487   4.145  0.00  0.00    -0.001 A 
ENDROOT
TORSDOF 0
ENDMDL
