MODEL 1
REMARK minimizedAffinity 4.60533047
REMARK minimizedRMSD -1
REMARK  0 active torsions:
REMARK  status: ('A' for Active; 'I' for Inactive)
ROOT
ATOM      1  C   UNL d   1      -2.911   0.766   2.882  0.00  0.00     0.078 C 
ATOM      2  C1  UNL d   1      -1.667  -0.059   2.740  0.00  0.00    -0.077 A 
ATOM      3  C2  UNL d   1      -1.595  -1.099   1.804  0.00  0.00    -0.001 A 
ATOM      4  C3  UNL d   1      -0.434  -1.865   1.690  0.00  0.00     0.003 A 
ATOM      5  C4  UNL d   1       0.663  -1.601   2.508  0.00  0.00    -0.005 A 
ATOM      6  C5  UNL d   1       0.599  -0.570   3.443  0.00  0.00     0.003 A 
ATOM      7  C6  UNL d   1      -0.561   0.197   3.559  0.00  0.00    -0.001 A 
ENDROOT
TORSDOF 0
ENDMDL
