MODEL 1
REMARK minimizedAffinity 2.15097785
REMARK minimizedRMSD -1
REMARK  0 active torsions:
REMARK  status: ('A' for Active; 'I' for Inactive)
ROOT
ATOM      1  C   UNL d   1       3.419  -2.331   4.110  0.00  0.00     0.078 C 
ATOM      2  C1  UNL d   1       4.102  -3.570   4.609  0.00  0.00    -0.077 A 
ATOM      3  C2  UNL d   1       3.689  -4.840   4.189  0.00  0.00    -0.001 A 
ATOM      4  C3  UNL d   1       4.327  -5.985   4.669  0.00  0.00     0.003 A 
ATOM      5  C4  UNL d   1       5.381  -5.871   5.573  0.00  0.00    -0.005 A 
ATOM      6  C5  UNL d   1       5.798  -4.611   5.999  0.00  0.00     0.003 A 
ATOM      7  C6  UNL d   1       5.161  -3.465   5.520  0.00  0.00    -0.001 A 
ENDROOT
TORSDOF 0
ENDMDL
