MODEL 1
REMARK minimizedAffinity -4.2093339
REMARK minimizedRMSD -1
REMARK  0 active torsions:
REMARK  status: ('A' for Active; 'I' for Inactive)
ROOT
ATOM      1  C   UNL d   1      -2.994   1.830  -5.043  0.00  0.00     0.078 C 
ATOM      2  C1  UNL d   1      -2.685   0.638  -4.186  0.00  0.00    -0.077 A 
ATOM      3  C2  UNL d   1      -1.866   0.755  -3.057  0.00  0.00    -0.001 A 
ATOM      4  C3  UNL d   1      -1.579  -0.365  -2.275  0.00  0.00     0.003 A 
ATOM      5  C4  UNL d   1      -2.107  -1.609  -2.613  0.00  0.00    -0.005 A 
ATOM      6  C5  UNL d   1      -2.922  -1.735  -3.736  0.00  0.00     0.003 A 
ATOM      7  C6  UNL d   1      -3.210  -0.617  -4.520  0.00  0.00    -0.001 A 
ENDROOT
TORSDOF 0
ENDMDL
