MODEL 1
REMARK minimizedAffinity 3.85505342
REMARK minimizedRMSD -1
REMARK  0 active torsions:
REMARK  status: ('A' for Active; 'I' for Inactive)
ROOT
ATOM      1  C   UNL d   1       2.384  -1.464   0.028  0.00  0.00     0.078 C 
ATOM      2  C1  UNL d   1       1.916  -0.174  -0.578  0.00  0.00    -0.077 A 
ATOM      3  C2  UNL d   1       0.855  -0.149  -1.490  0.00  0.00    -0.001 A 
ATOM      4  C3  UNL d   1       0.437   1.058  -2.054  0.00  0.00     0.003 A 
ATOM      5  C4  UNL d   1       1.076   2.248  -1.712  0.00  0.00    -0.005 A 
ATOM      6  C5  UNL d   1       2.134   2.233  -0.806  0.00  0.00     0.003 A 
ATOM      7  C6  UNL d   1       2.554   1.027  -0.242  0.00  0.00    -0.001 A 
ENDROOT
TORSDOF 0
ENDMDL
