MODEL 1
REMARK minimizedAffinity 7.08300304
REMARK minimizedRMSD -1
REMARK  0 active torsions:
REMARK  status: ('A' for Active; 'I' for Inactive)
ROOT
ATOM      1  C   UNL d   1       1.024   0.427   2.976  0.00  0.00     0.078 C 
ATOM      2  C1  UNL d   1       0.528  -0.968   2.742  0.00  0.00    -0.077 A 
ATOM      3  C2  UNL d   1      -0.777  -1.338   3.089  0.00  0.00    -0.001 A 
ATOM      4  C3  UNL d   1      -1.221  -2.644   2.874  0.00  0.00     0.003 A 
ATOM      5  C4  UNL d   1      -0.367  -3.591   2.313  0.00  0.00    -0.005 A 
ATOM      6  C5  UNL d   1       0.935  -3.232   1.966  0.00  0.00     0.003 A 
ATOM      7  C6  UNL d   1       1.381  -1.927   2.180  0.00  0.00    -0.001 A 
ENDROOT
TORSDOF 0
ENDMDL
