MODEL 1
REMARK minimizedAffinity 2.24172854
REMARK minimizedRMSD -1
REMARK  0 active torsions:
REMARK  status: ('A' for Active; 'I' for Inactive)
ROOT
ATOM      1  C   UNL d   1      -3.191   1.117   2.733  0.00  0.00     0.078 C 
ATOM      2  C1  UNL d   1      -1.970   0.275   2.508  0.00  0.00    -0.077 A 
ATOM      3  C2  UNL d   1      -2.068  -0.999   1.937  0.00  0.00    -0.001 A 
ATOM      4  C3  UNL d   1      -0.924  -1.775   1.743  0.00  0.00     0.003 A 
ATOM      5  C4  UNL d   1       0.325  -1.286   2.117  0.00  0.00    -0.005 A 
ATOM      6  C5  UNL d   1       0.432  -0.020   2.688  0.00  0.00     0.003 A 
ATOM      7  C6  UNL d   1      -0.710   0.758   2.884  0.00  0.00    -0.001 A 
ENDROOT
TORSDOF 0
ENDMDL
