MODEL 1
REMARK minimizedAffinity 1.58406591
REMARK minimizedRMSD -1
REMARK  0 active torsions:
REMARK  status: ('A' for Active; 'I' for Inactive)
ROOT
ATOM      1  C   UNL d   1      -1.670  -1.318  -0.016  0.00  0.00     0.078 C 
ATOM      2  C1  UNL d   1      -0.794  -1.456   1.193  0.00  0.00    -0.077 A 
ATOM      3  C2  UNL d   1       0.181  -0.496   1.491  0.00  0.00    -0.001 A 
ATOM      4  C3  UNL d   1       0.995  -0.643   2.615  0.00  0.00     0.003 A 
ATOM      5  C4  UNL d   1       0.844  -1.749   3.449  0.00  0.00    -0.005 A 
ATOM      6  C5  UNL d   1      -0.122  -2.711   3.159  0.00  0.00     0.003 A 
ATOM      7  C6  UNL d   1      -0.937  -2.566   2.036  0.00  0.00    -0.001 A 
ENDROOT
TORSDOF 0
ENDMDL
