MODEL 1
REMARK minimizedAffinity 5.77069712
REMARK minimizedRMSD -1
REMARK  0 active torsions:
REMARK  status: ('A' for Active; 'I' for Inactive)
ROOT
ATOM      1  C   UNL d   1       0.209  -0.882   3.283  0.00  0.00     0.078 C 
ATOM      2  C1  UNL d   1       1.054  -1.303   2.118  0.00  0.00    -0.077 A 
ATOM      3  C2  UNL d   1       1.815  -2.478   2.166  0.00  0.00    -0.001 A 
ATOM      4  C3  UNL d   1       2.604  -2.853   1.078  0.00  0.00     0.003 A 
ATOM      5  C4  UNL d   1       2.642  -2.058  -0.066  0.00  0.00    -0.005 A 
ATOM      6  C5  UNL d   1       1.890  -0.886  -0.122  0.00  0.00     0.003 A 
ATOM      7  C6  UNL d   1       1.099  -0.510   0.965  0.00  0.00    -0.001 A 
ENDROOT
TORSDOF 0
ENDMDL
