MODEL 1
REMARK minimizedAffinity 0.757520437
REMARK minimizedRMSD -1
REMARK  0 active torsions:
REMARK  status: ('A' for Active; 'I' for Inactive)
ROOT
ATOM      1  C   UNL d   1       2.632   2.680   0.154  0.00  0.00     0.078 C 
ATOM      2  C1  UNL d   1       2.160   1.433  -0.532  0.00  0.00    -0.077 A 
ATOM      3  C2  UNL d   1       1.410   1.499  -1.713  0.00  0.00    -0.001 A 
ATOM      4  C3  UNL d   1       0.969   0.331  -2.336  0.00  0.00     0.003 A 
ATOM      5  C4  UNL d   1       1.272  -0.913  -1.785  0.00  0.00    -0.005 A 
ATOM      6  C5  UNL d   1       2.016  -0.989  -0.609  0.00  0.00     0.003 A 
ATOM      7  C6  UNL d   1       2.458   0.179   0.015  0.00  0.00    -0.001 A 
ENDROOT
TORSDOF 0
ENDMDL
