MODEL 1
REMARK minimizedAffinity -1.56882727
REMARK minimizedRMSD -1
REMARK  0 active torsions:
REMARK  status: ('A' for Active; 'I' for Inactive)
ROOT
ATOM      1  N1  IND d   1       4.726   2.271  -5.997  0.00  0.00    -0.196 N 
ATOM      2  C2  IND d   1       3.762   1.302  -5.999  0.00  0.00     0.054 A 
ATOM      3  C3  IND d   1       2.532   1.862  -5.963  0.00  0.00    -0.031 A 
ATOM      4  C4  IND d   1       1.865   4.348  -5.999  0.00  0.00     0.051 A 
ATOM      5  C5  IND d   1       2.396   5.607  -5.961  0.00  0.00    -0.031 A 
ATOM      6  C6  IND d   1       3.759   5.822  -5.934  0.00  0.00     0.015 A 
ATOM      7  C7  IND d   1       4.645   4.783  -5.957  0.00  0.00    -0.016 A 
ATOM      8  C8  IND d   1       4.109   3.503  -5.989  0.00  0.00    -0.047 A 
ATOM      9  C9  IND d   1       2.727   3.277  -5.973  0.00  0.00    -0.096 A 
ATOM     10  HN1 IND d   1       5.575   2.135  -5.999  0.00  0.00     0.298 HD
ENDROOT
TORSDOF 0
ENDMDL
