MODEL 1
REMARK minimizedAffinity 2.07978582
REMARK minimizedRMSD -1
REMARK  0 active torsions:
REMARK  status: ('A' for Active; 'I' for Inactive)
ROOT
ATOM      1  N1  IND d   1       3.217   5.930   2.019  0.00  0.00    -0.196 N 
ATOM      2  C2  IND d   1       4.569   5.946   2.218  0.00  0.00     0.054 A 
ATOM      3  C3  IND d   1       4.849   5.999   3.540  0.00  0.00    -0.031 A 
ATOM      4  C4  IND d   1       3.246   5.968   5.554  0.00  0.00     0.051 A 
ATOM      5  C5  IND d   1       1.917   5.995   5.874  0.00  0.00    -0.031 A 
ATOM      6  C6  IND d   1       0.934   6.000   4.905  0.00  0.00     0.015 A 
ATOM      7  C7  IND d   1       1.244   5.966   3.575  0.00  0.00    -0.016 A 
ATOM      8  C8  IND d   1       2.592   5.945   3.247  0.00  0.00    -0.047 A 
ATOM      9  C9  IND d   1       3.595   5.983   4.224  0.00  0.00    -0.096 A 
ATOM     10  HN1 IND d   1       2.823   5.914   1.255  0.00  0.00     0.298 HD
ENDROOT
TORSDOF 0
ENDMDL
