MODEL 1
REMARK minimizedAffinity 9.33014107
REMARK minimizedRMSD -1
REMARK  0 active torsions:
REMARK  status: ('A' for Active; 'I' for Inactive)
ROOT
ATOM      1  N1  IND d   1       0.611  -0.634  -1.010  0.00  0.00    -0.196 N 
ATOM      2  C2  IND d   1       1.834  -0.902  -0.460  0.00  0.00     0.054 A 
ATOM      3  C3  IND d   1       1.750  -0.911   0.889  0.00  0.00    -0.031 A 
ATOM      4  C4  IND d   1      -0.311  -0.612   2.402  0.00  0.00     0.051 A 
ATOM      5  C5  IND d   1      -1.643  -0.308   2.361  0.00  0.00    -0.031 A 
ATOM      6  C6  IND d   1      -2.305  -0.096   1.169  0.00  0.00     0.015 A 
ATOM      7  C7  IND d   1      -1.660  -0.191  -0.031  0.00  0.00    -0.016 A 
ATOM      8  C8  IND d   1      -0.306  -0.492   0.007  0.00  0.00    -0.047 A 
ATOM      9  C9  IND d   1       0.381  -0.667   1.216  0.00  0.00    -0.096 A 
ATOM     10  HN1 IND d   1       0.444  -0.565  -1.851  0.00  0.00     0.298 HD
ENDROOT
TORSDOF 0
ENDMDL
