MODEL 1
REMARK minimizedAffinity 14.2691908
REMARK minimizedRMSD -1
REMARK  0 active torsions:
REMARK  status: ('A' for Active; 'I' for Inactive)
ROOT
ATOM      1  N1  IND d   1       0.412  -1.711   0.807  0.00  0.00    -0.196 N 
ATOM      2  C2  IND d   1       1.506  -0.972   0.451  0.00  0.00     0.054 A 
ATOM      3  C3  IND d   1       1.174   0.333   0.333  0.00  0.00    -0.031 A 
ATOM      4  C4  IND d   1      -1.081   1.493   0.775  0.00  0.00     0.051 A 
ATOM      5  C5  IND d   1      -2.386   1.229   1.084  0.00  0.00    -0.031 A 
ATOM      6  C6  IND d   1      -2.833  -0.054   1.325  0.00  0.00     0.015 A 
ATOM      7  C7  IND d   1      -1.986  -1.124   1.275  0.00  0.00    -0.016 A 
ATOM      8  C8  IND d   1      -0.662  -0.861   0.954  0.00  0.00    -0.047 A 
ATOM      9  C9  IND d   1      -0.211   0.434   0.668  0.00  0.00    -0.096 A 
ATOM     10  HN1 IND d   1       0.397  -2.563   0.919  0.00  0.00     0.298 HD
ENDROOT
TORSDOF 0
ENDMDL
