MODEL 1
REMARK minimizedAffinity 0.179335386
REMARK minimizedRMSD -1
REMARK  0 active torsions:
REMARK  status: ('A' for Active; 'I' for Inactive)
ROOT
ATOM      1  N1  IND d   1      -0.003  -0.853   0.594  0.00  0.00    -0.196 N 
ATOM      2  C2  IND d   1      -0.731   0.201   1.073  0.00  0.00     0.054 A 
ATOM      3  C3  IND d   1      -0.093   1.366   0.820  0.00  0.00    -0.031 A 
ATOM      4  C4  IND d   1       2.103   1.785  -0.456  0.00  0.00     0.051 A 
ATOM      5  C5  IND d   1       3.146   1.131  -1.049  0.00  0.00    -0.031 A 
ATOM      6  C6  IND d   1       3.192  -0.246  -1.128  0.00  0.00     0.015 A 
ATOM      7  C7  IND d   1       2.187  -1.023  -0.626  0.00  0.00    -0.016 A 
ATOM      8  C8  IND d   1       1.130  -0.362  -0.017  0.00  0.00    -0.047 A 
ATOM      9  C9  IND d   1       1.098   1.033   0.105  0.00  0.00    -0.096 A 
ATOM     10  HN1 IND d   1      -0.217  -1.683   0.663  0.00  0.00     0.298 HD
ENDROOT
TORSDOF 0
ENDMDL
