MODEL 1
REMARK minimizedAffinity -1.50907528
REMARK minimizedRMSD -1
REMARK  0 active torsions:
REMARK  status: ('A' for Active; 'I' for Inactive)
ROOT
ATOM      1  N1  IND d   1       0.459   0.381  -2.300  0.00  0.00    -0.196 N 
ATOM      2  C2  IND d   1      -0.214  -0.727  -1.866  0.00  0.00     0.054 A 
ATOM      3  C3  IND d   1      -1.549  -0.534  -1.965  0.00  0.00    -0.031 A 
ATOM      4  C4  IND d   1      -2.845   1.482  -2.904  0.00  0.00     0.051 A 
ATOM      5  C5  IND d   1      -2.666   2.748  -3.385  0.00  0.00    -0.031 A 
ATOM      6  C6  IND d   1      -1.410   3.301  -3.535  0.00  0.00     0.015 A 
ATOM      7  C7  IND d   1      -0.281   2.600  -3.218  0.00  0.00    -0.016 A 
ATOM      8  C8  IND d   1      -0.460   1.316  -2.722  0.00  0.00    -0.047 A 
ATOM      9  C9  IND d   1      -1.734   0.765  -2.529  0.00  0.00    -0.096 A 
ATOM     10  HN1 IND d   1       1.314   0.477  -2.307  0.00  0.00     0.298 HD
ENDROOT
TORSDOF 0
ENDMDL
