MODEL 1
REMARK minimizedAffinity 4.5338974
REMARK minimizedRMSD -1
REMARK  0 active torsions:
REMARK  status: ('A' for Active; 'I' for Inactive)
ROOT
ATOM      1  N1  IND d   1       4.885   5.994   3.416  0.00  0.00    -0.196 N 
ATOM      2  C2  IND d   1       4.558   5.966   2.089  0.00  0.00     0.054 A 
ATOM      3  C3  IND d   1       3.215   5.923   1.936  0.00  0.00    -0.031 A 
ATOM      4  C4  IND d   1       1.363   5.992   3.723  0.00  0.00     0.051 A 
ATOM      5  C5  IND d   1       1.170   5.982   5.076  0.00  0.00    -0.031 A 
ATOM      6  C6  IND d   1       2.227   5.978   5.963  0.00  0.00     0.015 A 
ATOM      7  C7  IND d   1       3.522   5.995   5.528  0.00  0.00    -0.016 A 
ATOM      8  C8  IND d   1       3.721   5.999   4.154  0.00  0.00    -0.047 A 
ATOM      9  C9  IND d   1       2.653   5.960   3.249  0.00  0.00    -0.096 A 
ATOM     10  HN1 IND d   1       5.683   6.006   3.736  0.00  0.00     0.298 HD
ENDROOT
TORSDOF 0
ENDMDL
