MODEL 1
REMARK minimizedAffinity 6.72023535
REMARK minimizedRMSD -1
REMARK  0 active torsions:
REMARK  status: ('A' for Active; 'I' for Inactive)
ROOT
ATOM      1  N1  IND d   1      -2.858  -0.785   0.142  0.00  0.00    -0.196 N 
ATOM      2  C2  IND d   1      -3.099  -0.698   1.485  0.00  0.00     0.054 A 
ATOM      3  C3  IND d   1      -1.935  -0.618   2.168  0.00  0.00    -0.031 A 
ATOM      4  C4  IND d   1       0.479  -0.511   1.278  0.00  0.00     0.051 A 
ATOM      5  C5  IND d   1       1.206  -0.595   0.124  0.00  0.00    -0.031 A 
ATOM      6  C6  IND d   1       0.604  -0.747  -1.108  0.00  0.00     0.015 A 
ATOM      7  C7  IND d   1      -0.755  -0.809  -1.233  0.00  0.00    -0.016 A 
ATOM      8  C8  IND d   1      -1.497  -0.732  -0.063  0.00  0.00    -0.047 A 
ATOM      9  C9  IND d   1      -0.889  -0.621   1.194  0.00  0.00    -0.096 A 
ATOM     10  HN1 IND d   1      -3.456  -0.862  -0.471  0.00  0.00     0.298 HD
ENDROOT
TORSDOF 0
ENDMDL
