MODEL 1
REMARK minimizedAffinity 8.98222351
REMARK minimizedRMSD -1
REMARK  0 active torsions:
REMARK  status: ('A' for Active; 'I' for Inactive)
ROOT
ATOM      1  N1  IND d   1       1.695  -0.901  -0.667  0.00  0.00    -0.196 N 
ATOM      2  C2  IND d   1       2.597   0.020  -1.123  0.00  0.00     0.054 A 
ATOM      3  C3  IND d   1       2.202   1.270  -0.790  0.00  0.00    -0.031 A 
ATOM      4  C4  IND d   1       0.164   2.028   0.589  0.00  0.00     0.051 A 
ATOM      5  C5  IND d   1      -0.967   1.552   1.190  0.00  0.00    -0.031 A 
ATOM      6  C6  IND d   1      -1.273   0.207   1.206  0.00  0.00     0.015 A 
ATOM      7  C7  IND d   1      -0.450  -0.718   0.628  0.00  0.00    -0.016 A 
ATOM      8  C8  IND d   1       0.696  -0.238   0.010  0.00  0.00    -0.047 A 
ATOM      9  C9  IND d   1       0.990   1.131  -0.046  0.00  0.00    -0.096 A 
ATOM     10  HN1 IND d   1       1.745  -1.751  -0.784  0.00  0.00     0.298 HD
ENDROOT
TORSDOF 0
ENDMDL
