MODEL 1
REMARK minimizedAffinity 6.28239965
REMARK minimizedRMSD -1
REMARK  0 active torsions:
REMARK  status: ('A' for Active; 'I' for Inactive)
ROOT
ATOM      1  N1  IND d   1       4.701   5.973   3.213  0.00  0.00    -0.196 N 
ATOM      2  C2  IND d   1       4.292   5.938   1.909  0.00  0.00     0.054 A 
ATOM      3  C3  IND d   1       2.943   5.902   1.840  0.00  0.00    -0.031 A 
ATOM      4  C4  IND d   1       1.205   5.997   3.737  0.00  0.00     0.051 A 
ATOM      5  C5  IND d   1       1.097   5.998   5.100  0.00  0.00    -0.031 A 
ATOM      6  C6  IND d   1       2.207   5.994   5.920  0.00  0.00     0.015 A 
ATOM      7  C7  IND d   1       3.472   6.000   5.405  0.00  0.00    -0.016 A 
ATOM      8  C8  IND d   1       3.586   5.991   4.022  0.00  0.00    -0.047 A 
ATOM      9  C9  IND d   1       2.463   5.953   3.185  0.00  0.00    -0.096 A 
ATOM     10  HN1 IND d   1       5.518   5.983   3.483  0.00  0.00     0.298 HD
ENDROOT
TORSDOF 0
ENDMDL
