MODEL 1
REMARK minimizedAffinity -2.7904439
REMARK minimizedRMSD -1
REMARK  3 active torsions:
REMARK  status: ('A' for Active; 'I' for Inactive)
REMARK    1  A    between atoms: C3'_2  and  C2'_3 
REMARK    2  A    between atoms: C2'_3  and  C1'_4 
REMARK    3  A    between atoms: C1'_4  and  C1_5 
ROOT
ATOM      1  C1  N4B d   1       0.619   1.372   0.005  0.00  0.00    -0.075 A 
ATOM      2  C2  N4B d   1       0.097   0.299  -0.751  0.00  0.00     0.002 A 
ATOM      3  C3  N4B d   1       0.692  -0.937  -0.691  0.00  0.00     0.002 A 
ATOM      4  C4  N4B d   1       1.816  -1.119   0.100  0.00  0.00    -0.004 A 
ATOM      5  C5  N4B d   1       2.299  -0.085   0.847  0.00  0.00     0.002 A 
ATOM      6  C6  N4B d   1       1.709   1.162   0.800  0.00  0.00     0.002 A 
ENDROOT
BRANCH   1   7
ATOM      7  C1' N4B d   1       0.055   2.762  -0.094  0.00  0.00     0.057 C 
BRANCH   7   8
ATOM      8  C2' N4B d   1       0.414   3.353  -1.455  0.00  0.00     0.009 C 
BRANCH   8   9
ATOM      9  C3' N4B d   1      -0.809   3.885  -2.183  0.00  0.00     0.004 C 
ATOM     10  C4' N4B d   1      -1.074   3.167  -3.473  0.00  0.00     0.003 C 
ENDBRANCH   8   9
ENDBRANCH   7   8
ENDBRANCH   1   7
TORSDOF 3
ENDMDL
