MODEL 1
REMARK minimizedAffinity -0.163038746
REMARK minimizedRMSD -1
REMARK  3 active torsions:
REMARK  status: ('A' for Active; 'I' for Inactive)
REMARK    1  A    between atoms: C3'_2  and  C2'_3 
REMARK    2  A    between atoms: C2'_3  and  C1'_4 
REMARK    3  A    between atoms: C1'_4  and  C1_5 
ROOT
ATOM      1  C1  N4B d   1      -0.372   0.439  -0.270  0.00  0.00    -0.075 A 
ATOM      2  C2  N4B d   1       0.946  -0.035  -0.447  0.00  0.00     0.002 A 
ATOM      3  C3  N4B d   1       1.537  -0.802   0.528  0.00  0.00     0.002 A 
ATOM      4  C4  N4B d   1       0.839  -1.089   1.691  0.00  0.00    -0.004 A 
ATOM      5  C5  N4B d   1      -0.443  -0.648   1.843  0.00  0.00     0.002 A 
ATOM      6  C6  N4B d   1      -1.051   0.119   0.870  0.00  0.00     0.002 A 
ENDROOT
BRANCH   1   7
ATOM      7  C1' N4B d   1      -1.029   1.352  -1.269  0.00  0.00     0.057 C 
BRANCH   7   8
ATOM      8  C2' N4B d   1       0.043   2.186  -1.965  0.00  0.00     0.009 C 
BRANCH   8   9
ATOM      9  C3' N4B d   1      -0.543   3.070  -3.053  0.00  0.00     0.004 C 
ATOM     10  C4' N4B d   1      -2.027   3.246  -2.922  0.00  0.00     0.003 C 
ENDBRANCH   8   9
ENDBRANCH   7   8
ENDBRANCH   1   7
TORSDOF 3
ENDMDL
