MODEL 1
REMARK minimizedAffinity -1.93902314
REMARK minimizedRMSD -1
REMARK  3 active torsions:
REMARK  status: ('A' for Active; 'I' for Inactive)
REMARK    1  A    between atoms: C3'_2  and  C2'_3 
REMARK    2  A    between atoms: C2'_3  and  C1'_4 
REMARK    3  A    between atoms: C1'_4  and  C1_5 
ROOT
ATOM      1  C1  N4B d   1       0.583   0.521  -0.305  0.00  0.00    -0.075 A 
ATOM      2  C2  N4B d   1       1.889   0.019  -0.113  0.00  0.00     0.002 A 
ATOM      3  C3  N4B d   1       2.299  -0.364   1.140  0.00  0.00     0.002 A 
ATOM      4  C4  N4B d   1       1.432  -0.238   2.215  0.00  0.00    -0.004 A 
ATOM      5  C5  N4B d   1       0.163   0.224   2.016  0.00  0.00     0.002 A 
ATOM      6  C6  N4B d   1      -0.264   0.609   0.761  0.00  0.00     0.002 A 
ENDROOT
BRANCH   1   7
ATOM      7  C1' N4B d   1       0.117   1.032  -1.641  0.00  0.00     0.057 C 
BRANCH   7   8
ATOM      8  C2' N4B d   1      -0.293   2.496  -1.502  0.00  0.00     0.009 C 
BRANCH   8   9
ATOM      9  C3' N4B d   1       0.635   3.421  -2.270  0.00  0.00     0.004 C 
ATOM     10  C4' N4B d   1       0.446   3.331  -3.755  0.00  0.00     0.003 C 
ENDBRANCH   8   9
ENDBRANCH   7   8
ENDBRANCH   1   7
TORSDOF 3
ENDMDL
