MODEL 1
REMARK minimizedAffinity -6.12625122
REMARK minimizedRMSD -1
REMARK  3 active torsions:
REMARK  status: ('A' for Active; 'I' for Inactive)
REMARK    1  A    between atoms: C3'_2  and  C2'_3 
REMARK    2  A    between atoms: C2'_3  and  C1'_4 
REMARK    3  A    between atoms: C1'_4  and  C1_5 
ROOT
ATOM      1  C1  N4B d   1      -1.288  -0.553   1.352  0.00  0.00    -0.075 A 
ATOM      2  C2  N4B d   1      -0.641   0.006   0.229  0.00  0.00     0.002 A 
ATOM      3  C3  N4B d   1       0.688   0.346   0.301  0.00  0.00     0.002 A 
ATOM      4  C4  N4B d   1       1.381   0.154   1.486  0.00  0.00    -0.004 A 
ATOM      5  C5  N4B d   1       0.755  -0.410   2.559  0.00  0.00     0.002 A 
ATOM      6  C6  N4B d   1      -0.579  -0.760   2.499  0.00  0.00     0.002 A 
ENDROOT
BRANCH   1   7
ATOM      7  C1' N4B d   1      -2.761  -0.862   1.348  0.00  0.00     0.057 C 
BRANCH   7   8
ATOM      8  C2' N4B d   1      -3.184  -1.267  -0.060  0.00  0.00     0.009 C 
BRANCH   8   9
ATOM      9  C3' N4B d   1      -4.208  -2.389  -0.045  0.00  0.00     0.004 C 
ATOM     10  C4' N4B d   1      -5.483  -2.002   0.643  0.00  0.00     0.003 C 
ENDBRANCH   8   9
ENDBRANCH   7   8
ENDBRANCH   1   7
TORSDOF 3
ENDMDL
