MODEL 1
REMARK minimizedAffinity -2.31954098
REMARK minimizedRMSD -1
REMARK  3 active torsions:
REMARK  status: ('A' for Active; 'I' for Inactive)
REMARK    1  A    between atoms: C3'_2  and  C2'_3 
REMARK    2  A    between atoms: C2'_3  and  C1'_4 
REMARK    3  A    between atoms: C1'_4  and  C1_5 
ROOT
ATOM      1  C1  N4B d   1      -1.296  -0.367   0.515  0.00  0.00    -0.075 A 
ATOM      2  C2  N4B d   1      -0.492  -0.379   1.676  0.00  0.00     0.002 A 
ATOM      3  C3  N4B d   1       0.841  -0.063   1.592  0.00  0.00     0.002 A 
ATOM      4  C4  N4B d   1       1.396   0.248   0.359  0.00  0.00    -0.004 A 
ATOM      5  C5  N4B d   1       0.607   0.282  -0.754  0.00  0.00     0.002 A 
ATOM      6  C6  N4B d   1      -0.736  -0.030  -0.683  0.00  0.00     0.002 A 
ENDROOT
BRANCH   1   7
ATOM      7  C1' N4B d   1      -2.739  -0.789   0.543  0.00  0.00     0.057 C 
BRANCH   7   8
ATOM      8  C2' N4B d   1      -3.133  -1.322  -0.831  0.00  0.00     0.009 C 
BRANCH   8   9
ATOM      9  C3' N4B d   1      -4.375  -2.194  -0.768  0.00  0.00     0.004 C 
ATOM     10  C4' N4B d   1      -5.106  -2.071   0.536  0.00  0.00     0.003 C 
ENDBRANCH   8   9
ENDBRANCH   7   8
ENDBRANCH   1   7
TORSDOF 3
ENDMDL
