MODEL 1
REMARK minimizedAffinity -4.50813866
REMARK minimizedRMSD -1
REMARK  3 active torsions:
REMARK  status: ('A' for Active; 'I' for Inactive)
REMARK    1  A    between atoms: C3'_2  and  C2'_3 
REMARK    2  A    between atoms: C2'_3  and  C1'_4 
REMARK    3  A    between atoms: C1'_4  and  C1_5 
ROOT
ATOM      1  C1  N4B d   1       0.200   0.087  -0.046  0.00  0.00    -0.075 A 
ATOM      2  C2  N4B d   1       0.951   0.139   1.149  0.00  0.00     0.002 A 
ATOM      3  C3  N4B d   1       2.178  -0.474   1.215  0.00  0.00     0.002 A 
ATOM      4  C4  N4B d   1       2.664  -1.158   0.110  0.00  0.00    -0.004 A 
ATOM      5  C5  N4B d   1       1.943  -1.181  -1.048  0.00  0.00     0.002 A 
ATOM      6  C6  N4B d   1       0.710  -0.566  -1.130  0.00  0.00     0.002 A 
ENDROOT
BRANCH   1   7
ATOM      7  C1' N4B d   1      -1.185   0.668  -0.139  0.00  0.00     0.057 C 
BRANCH   7   8
ATOM      8  C2' N4B d   1      -2.200  -0.385   0.293  0.00  0.00     0.009 C 
BRANCH   8   9
ATOM      9  C3' N4B d   1      -2.949  -0.971  -0.892  0.00  0.00     0.004 C 
ATOM     10  C4' N4B d   1      -4.011  -1.948  -0.482  0.00  0.00     0.003 C 
ENDBRANCH   8   9
ENDBRANCH   7   8
ENDBRANCH   1   7
TORSDOF 3
ENDMDL
