MODEL 1
REMARK minimizedAffinity -4.14667988
REMARK minimizedRMSD -1
REMARK  3 active torsions:
REMARK  status: ('A' for Active; 'I' for Inactive)
REMARK    1  A    between atoms: C3'_2  and  C2'_3 
REMARK    2  A    between atoms: C2'_3  and  C1'_4 
REMARK    3  A    between atoms: C1'_4  and  C1_5 
ROOT
ATOM      1  C1  N4B d   1      -0.108   1.044  -2.304  0.00  0.00    -0.075 A 
ATOM      2  C2  N4B d   1      -1.215   1.915  -2.201  0.00  0.00     0.002 A 
ATOM      3  C3  N4B d   1      -1.108   3.214  -2.636  0.00  0.00     0.002 A 
ATOM      4  C4  N4B d   1       0.094   3.666  -3.157  0.00  0.00    -0.004 A 
ATOM      5  C5  N4B d   1       1.151   2.811  -3.276  0.00  0.00     0.002 A 
ATOM      6  C6  N4B d   1       1.057   1.502  -2.847  0.00  0.00     0.002 A 
ENDROOT
BRANCH   1   7
ATOM      7  C1' N4B d   1      -0.150  -0.359  -1.763  0.00  0.00     0.057 C 
BRANCH   7   8
ATOM      8  C2' N4B d   1       1.115  -0.621  -0.950  0.00  0.00     0.009 C 
BRANCH   8   9
ATOM      9  C3' N4B d   1       0.916  -0.317   0.524  0.00  0.00     0.004 C 
ATOM     10  C4' N4B d   1       2.195   0.040   1.222  0.00  0.00     0.003 C 
ENDBRANCH   8   9
ENDBRANCH   7   8
ENDBRANCH   1   7
TORSDOF 3
ENDMDL
