MODEL 1
REMARK minimizedAffinity -2.97642493
REMARK minimizedRMSD -1
REMARK  3 active torsions:
REMARK  status: ('A' for Active; 'I' for Inactive)
REMARK    1  A    between atoms: C3'_2  and  C2'_3 
REMARK    2  A    between atoms: C2'_3  and  C1'_4 
REMARK    3  A    between atoms: C1'_4  and  C1_5 
ROOT
ATOM      1  C1  N4B d   1       0.031   0.481  -0.200  0.00  0.00    -0.075 A 
ATOM      2  C2  N4B d   1      -0.832  -0.008   0.805  0.00  0.00     0.002 A 
ATOM      3  C3  N4B d   1      -0.315  -0.666   1.894  0.00  0.00     0.002 A 
ATOM      4  C4  N4B d   1       1.055  -0.861   1.990  0.00  0.00    -0.004 A 
ATOM      5  C5  N4B d   1       1.884  -0.363   1.028  0.00  0.00     0.002 A 
ATOM      6  C6  N4B d   1       1.378   0.303  -0.070  0.00  0.00     0.002 A 
ENDROOT
BRANCH   1   7
ATOM      7  C1' N4B d   1      -0.495   1.131  -1.451  0.00  0.00     0.057 C 
BRANCH   7   8
ATOM      8  C2' N4B d   1       0.646   1.862  -2.153  0.00  0.00     0.009 C 
BRANCH   8   9
ATOM      9  C3' N4B d   1       0.149   3.046  -2.963  0.00  0.00     0.004 C 
ATOM     10  C4' N4B d   1      -1.065   3.692  -2.363  0.00  0.00     0.003 C 
ENDBRANCH   8   9
ENDBRANCH   7   8
ENDBRANCH   1   7
TORSDOF 3
ENDMDL
