MODEL 1
REMARK minimizedAffinity 7.28740978
REMARK minimizedRMSD -1
REMARK  2 active torsions:
REMARK  status: ('A' for Active; 'I' for Inactive)
REMARK    1  A    between atoms: C2'_3  and  C1'_4 
REMARK    2  A    between atoms: C1'_4  and  C1_5 
ROOT
ATOM      1  C1  I4B d   1      -3.326  -0.396   5.828  0.00  0.00    -0.075 A 
ATOM      2  C2  I4B d   1      -3.015   0.941   5.852  0.00  0.00     0.003 A 
ATOM      3  C3  I4B d   1      -4.042   1.909   5.965  0.00  0.00     0.002 A 
ATOM      4  C4  I4B d   1      -5.360   1.502   6.000  0.00  0.00    -0.004 A 
ATOM      5  C5  I4B d   1      -5.672   0.146   5.999  0.00  0.00     0.002 A 
ATOM      6  C6  I4B d   1      -4.648  -0.810   5.925  0.00  0.00     0.003 A 
ENDROOT
BRANCH   1   7
ATOM      7  C1' I4B d   1      -2.219  -1.391   5.675  0.00  0.00     0.060 C 
BRANCH   7   8
ATOM      8  C2' I4B d   1      -2.727  -2.524   4.808  0.00  0.00    -0.013 C 
ATOM      9  C4' I4B d   1      -2.825  -2.105   3.365  0.00  0.00     0.013 C 
ATOM     10  C3' I4B d   1      -1.794  -3.687   4.972  0.00  0.00     0.013 C 
ENDBRANCH   7   8
ENDBRANCH   1   7
TORSDOF 2
ENDMDL
