MODEL 1
REMARK minimizedAffinity 5.85125971
REMARK minimizedRMSD -1
REMARK  2 active torsions:
REMARK  status: ('A' for Active; 'I' for Inactive)
REMARK    1  A    between atoms: C2'_3  and  C1'_4 
REMARK    2  A    between atoms: C1'_4  and  C1_5 
ROOT
ATOM      1  C1  I4B d   1       2.822   1.682  -0.756  0.00  0.00    -0.075 A 
ATOM      2  C2  I4B d   1       2.981   1.957   0.580  0.00  0.00     0.003 A 
ATOM      3  C3  I4B d   1       3.716   3.096   0.990  0.00  0.00     0.002 A 
ATOM      4  C4  I4B d   1       4.314   3.897   0.039  0.00  0.00    -0.004 A 
ATOM      5  C5  I4B d   1       4.132   3.629  -1.315  0.00  0.00     0.002 A 
ATOM      6  C6  I4B d   1       3.371   2.522  -1.715  0.00  0.00     0.003 A 
ENDROOT
BRANCH   1   7
ATOM      7  C1' I4B d   1       2.067   0.453  -1.153  0.00  0.00     0.060 C 
BRANCH   7   8
ATOM      8  C2' I4B d   1       2.342   0.190  -2.620  0.00  0.00    -0.013 C 
ATOM      9  C4' I4B d   1       3.666  -0.504  -2.810  0.00  0.00     0.013 C 
ATOM     10  C3' I4B d   1       1.215  -0.637  -3.161  0.00  0.00     0.013 C 
ENDBRANCH   7   8
ENDBRANCH   1   7
TORSDOF 2
ENDMDL
