MODEL 1
REMARK minimizedAffinity 9.57152367
REMARK minimizedRMSD -1
REMARK  2 active torsions:
REMARK  status: ('A' for Active; 'I' for Inactive)
REMARK    1  A    between atoms: C2'_3  and  C1'_4 
REMARK    2  A    between atoms: C1'_4  and  C1_5 
ROOT
ATOM      1  C1  I4B d   1       3.931  -0.230  -2.953  0.00  0.00    -0.075 A 
ATOM      2  C2  I4B d   1       3.918   1.113  -3.240  0.00  0.00     0.003 A 
ATOM      3  C3  I4B d   1       4.953   1.685  -4.019  0.00  0.00     0.002 A 
ATOM      4  C4  I4B d   1       6.000   0.894  -4.444  0.00  0.00    -0.004 A 
ATOM      5  C5  I4B d   1       5.999  -0.471  -4.172  0.00  0.00     0.002 A 
ATOM      6  C6  I4B d   1       4.952  -1.039  -3.432  0.00  0.00     0.003 A 
ENDROOT
BRANCH   1   7
ATOM      7  C1' I4B d   1       2.839  -0.795  -2.100  0.00  0.00     0.060 C 
BRANCH   7   8
ATOM      8  C2' I4B d   1       1.646   0.135  -2.192  0.00  0.00    -0.013 C 
ATOM      9  C4' I4B d   1       0.353  -0.637  -2.201  0.00  0.00     0.013 C 
ATOM     10  C3' I4B d   1       1.705   1.080  -1.029  0.00  0.00     0.013 C 
ENDBRANCH   7   8
ENDBRANCH   1   7
TORSDOF 2
ENDMDL
