MODEL 1
REMARK minimizedAffinity 18.7820148
REMARK minimizedRMSD -1
REMARK  2 active torsions:
REMARK  status: ('A' for Active; 'I' for Inactive)
REMARK    1  A    between atoms: C2'_3  and  C1'_4 
REMARK    2  A    between atoms: C1'_4  and  C1_5 
ROOT
ATOM      1  C1  I4B d   1      -1.339  -2.203  -0.759  0.00  0.00    -0.075 A 
ATOM      2  C2  I4B d   1      -0.991  -3.283   0.013  0.00  0.00     0.003 A 
ATOM      3  C3  I4B d   1      -0.480  -4.457  -0.593  0.00  0.00     0.002 A 
ATOM      4  C4  I4B d   1      -0.382  -4.525  -1.968  0.00  0.00    -0.004 A 
ATOM      5  C5  I4B d   1      -0.714  -3.421  -2.747  0.00  0.00     0.002 A 
ATOM      6  C6  I4B d   1      -1.184  -2.248  -2.139  0.00  0.00     0.003 A 
ENDROOT
BRANCH   1   7
ATOM      7  C1' I4B d   1      -1.907  -0.992  -0.090  0.00  0.00     0.060 C 
BRANCH   7   8
ATOM      8  C2' I4B d   1      -3.416  -1.125  -0.086  0.00  0.00    -0.013 C 
ATOM      9  C4' I4B d   1      -3.908  -1.720   1.207  0.00  0.00     0.013 C 
ATOM     10  C3' I4B d   1      -4.002   0.237  -0.312  0.00  0.00     0.013 C 
ENDBRANCH   7   8
ENDBRANCH   1   7
TORSDOF 2
ENDMDL
