MODEL 1
REMARK minimizedAffinity 8.94491673
REMARK minimizedRMSD -1
REMARK  2 active torsions:
REMARK  status: ('A' for Active; 'I' for Inactive)
REMARK    1  A    between atoms: C2'_3  and  C1'_4 
REMARK    2  A    between atoms: C1'_4  and  C1_5 
ROOT
ATOM      1  C1  I4B d   1      -3.239  -0.380   5.432  0.00  0.00    -0.075 A 
ATOM      2  C2  I4B d   1      -3.049   0.972   5.578  0.00  0.00     0.003 A 
ATOM      3  C3  I4B d   1      -4.141   1.816   5.892  0.00  0.00     0.002 A 
ATOM      4  C4  I4B d   1      -5.407   1.278   6.000  0.00  0.00    -0.004 A 
ATOM      5  C5  I4B d   1      -5.595  -0.096   5.874  0.00  0.00     0.002 A 
ATOM      6  C6  I4B d   1      -4.503  -0.932   5.601  0.00  0.00     0.003 A 
ENDROOT
BRANCH   1   7
ATOM      7  C1' I4B d   1      -2.069  -1.238   5.068  0.00  0.00     0.060 C 
BRANCH   7   8
ATOM      8  C2' I4B d   1      -2.496  -2.157   3.942  0.00  0.00    -0.013 C 
ATOM      9  C4' I4B d   1      -2.191  -1.550   2.598  0.00  0.00     0.013 C 
ATOM     10  C3' I4B d   1      -1.787  -3.466   4.119  0.00  0.00     0.013 C 
ENDBRANCH   7   8
ENDBRANCH   1   7
TORSDOF 2
ENDMDL
