MODEL 1
REMARK minimizedAffinity 4.76693821
REMARK minimizedRMSD -1
REMARK  2 active torsions:
REMARK  status: ('A' for Active; 'I' for Inactive)
REMARK    1  A    between atoms: C2'_3  and  C1'_4 
REMARK    2  A    between atoms: C1'_4  and  C1_5 
ROOT
ATOM      1  C1  I4B d   1      -4.894   5.394  -0.713  0.00  0.00    -0.075 A 
ATOM      2  C2  I4B d   1      -5.848   5.716  -1.646  0.00  0.00     0.003 A 
ATOM      3  C3  I4B d   1      -5.472   6.000  -2.981  0.00  0.00     0.002 A 
ATOM      4  C4  I4B d   1      -4.136   5.999  -3.326  0.00  0.00    -0.004 A 
ATOM      5  C5  I4B d   1      -3.172   5.650  -2.385  0.00  0.00     0.002 A 
ATOM      6  C6  I4B d   1      -3.554   5.333  -1.073  0.00  0.00     0.003 A 
ENDROOT
BRANCH   1   7
ATOM      7  C1' I4B d   1      -5.322   5.132   0.696  0.00  0.00     0.060 C 
BRANCH   7   8
ATOM      8  C2' I4B d   1      -5.320   3.633   0.913  0.00  0.00    -0.013 C 
ATOM      9  C4' I4B d   1      -5.983   2.914  -0.232  0.00  0.00     0.013 C 
ATOM     10  C3' I4B d   1      -3.897   3.191   1.078  0.00  0.00     0.013 C 
ENDBRANCH   7   8
ENDBRANCH   1   7
TORSDOF 2
ENDMDL
