MODEL 1
REMARK minimizedAffinity 5.98045397
REMARK minimizedRMSD -1
REMARK  2 active torsions:
REMARK  status: ('A' for Active; 'I' for Inactive)
REMARK    1  A    between atoms: C2'_3  and  C1'_4 
REMARK    2  A    between atoms: C1'_4  and  C1_5 
ROOT
ATOM      1  C1  I4B d   1      -1.843  -2.740   2.214  0.00  0.00    -0.075 A 
ATOM      2  C2  I4B d   1      -1.747  -1.766   1.252  0.00  0.00     0.003 A 
ATOM      3  C3  I4B d   1      -0.967  -1.986   0.091  0.00  0.00     0.002 A 
ATOM      4  C4  I4B d   1      -0.265  -3.167  -0.043  0.00  0.00    -0.004 A 
ATOM      5  C5  I4B d   1      -0.382  -4.162   0.923  0.00  0.00     0.002 A 
ATOM      6  C6  I4B d   1      -1.186  -3.953   2.053  0.00  0.00     0.003 A 
ENDROOT
BRANCH   1   7
ATOM      7  C1' I4B d   1      -2.649  -2.462   3.444  0.00  0.00     0.060 C 
BRANCH   7   8
ATOM      8  C2' I4B d   1      -1.846  -1.527   4.326  0.00  0.00    -0.013 C 
ATOM      9  C4' I4B d   1      -2.730  -0.492   4.971  0.00  0.00     0.013 C 
ATOM     10  C3' I4B d   1      -1.141  -2.356   5.358  0.00  0.00     0.013 C 
ENDBRANCH   7   8
ENDBRANCH   1   7
TORSDOF 2
ENDMDL
