MODEL 1
REMARK minimizedAffinity 15.3204279
REMARK minimizedRMSD -1
REMARK  2 active torsions:
REMARK  status: ('A' for Active; 'I' for Inactive)
REMARK    1  A    between atoms: C2'_3  and  C1'_4 
REMARK    2  A    between atoms: C1'_4  and  C1_5 
ROOT
ATOM      1  C1  I4B d   1      -1.807  -3.213   2.827  0.00  0.00    -0.075 A 
ATOM      2  C2  I4B d   1      -1.937  -2.226   1.881  0.00  0.00     0.003 A 
ATOM      3  C3  I4B d   1      -1.474  -2.440   0.561  0.00  0.00     0.002 A 
ATOM      4  C4  I4B d   1      -0.846  -3.627   0.244  0.00  0.00    -0.004 A 
ATOM      5  C5  I4B d   1      -0.736  -4.635   1.198  0.00  0.00     0.002 A 
ATOM      6  C6  I4B d   1      -1.231  -4.432   2.494  0.00  0.00     0.003 A 
ENDROOT
BRANCH   1   7
ATOM      7  C1' I4B d   1      -2.278  -2.942   4.221  0.00  0.00     0.060 C 
BRANCH   7   8
ATOM      8  C2' I4B d   1      -1.532  -1.728   4.737  0.00  0.00    -0.013 C 
ATOM      9  C4' I4B d   1      -2.470  -0.749   5.393  0.00  0.00     0.013 C 
ATOM     10  C3' I4B d   1      -0.486  -2.204   5.701  0.00  0.00     0.013 C 
ENDBRANCH   7   8
ENDBRANCH   1   7
TORSDOF 2
ENDMDL
