MODEL 1
REMARK minimizedAffinity 15.3297338
REMARK minimizedRMSD -1
REMARK  2 active torsions:
REMARK  status: ('A' for Active; 'I' for Inactive)
REMARK    1  A    between atoms: C2'_3  and  C1'_4 
REMARK    2  A    between atoms: C1'_4  and  C1_5 
ROOT
ATOM      1  C1  I4B d   1      -3.640  -0.931   5.048  0.00  0.00    -0.075 A 
ATOM      2  C2  I4B d   1      -2.670  -0.710   5.994  0.00  0.00     0.003 A 
ATOM      3  C3  I4B d   1      -1.440  -1.408   5.928  0.00  0.00     0.002 A 
ATOM      4  C4  I4B d   1      -1.243  -2.347   4.937  0.00  0.00    -0.004 A 
ATOM      5  C5  I4B d   1      -2.218  -2.553   3.966  0.00  0.00     0.002 A 
ATOM      6  C6  I4B d   1      -3.420  -1.832   4.014  0.00  0.00     0.003 A 
ENDROOT
BRANCH   1   7
ATOM      7  C1' I4B d   1      -4.941  -0.202   5.167  0.00  0.00     0.060 C 
BRANCH   7   8
ATOM      8  C2' I4B d   1      -4.704   1.043   5.998  0.00  0.00    -0.013 C 
ATOM      9  C4' I4B d   1      -3.406   1.708   5.627  0.00  0.00     0.013 C 
ATOM     10  C3' I4B d   1      -5.866   1.968   5.788  0.00  0.00     0.013 C 
ENDBRANCH   7   8
ENDBRANCH   1   7
TORSDOF 2
ENDMDL
