MODEL 1
REMARK minimizedAffinity 15.1071997
REMARK minimizedRMSD -1
REMARK  2 active torsions:
REMARK  status: ('A' for Active; 'I' for Inactive)
REMARK    1  A    between atoms: C2'_3  and  C1'_4 
REMARK    2  A    between atoms: C1'_4  and  C1_5 
ROOT
ATOM      1  C1  I4B d   1      -1.589  -1.730  -1.253  0.00  0.00    -0.075 A 
ATOM      2  C2  I4B d   1      -2.488  -1.565  -0.230  0.00  0.00     0.003 A 
ATOM      3  C3  I4B d   1      -3.637  -0.757  -0.413  0.00  0.00     0.002 A 
ATOM      4  C4  I4B d   1      -3.820  -0.098  -1.612  0.00  0.00    -0.004 A 
ATOM      5  C5  I4B d   1      -2.919  -0.285  -2.656  0.00  0.00     0.002 A 
ATOM      6  C6  I4B d   1      -1.803  -1.116  -2.481  0.00  0.00     0.003 A 
ENDROOT
BRANCH   1   7
ATOM      7  C1' I4B d   1      -0.370  -2.563  -1.014  0.00  0.00     0.060 C 
BRANCH   7   8
ATOM      8  C2' I4B d   1      -0.753  -3.694  -0.081  0.00  0.00    -0.013 C 
ATOM      9  C4' I4B d   1      -0.424  -5.034  -0.685  0.00  0.00     0.013 C 
ATOM     10  C3' I4B d   1      -0.025  -3.491   1.214  0.00  0.00     0.013 C 
ENDBRANCH   7   8
ENDBRANCH   1   7
TORSDOF 2
ENDMDL
