MODEL 1
REMARK minimizedAffinity 13.2798548
REMARK minimizedRMSD -1
REMARK  2 active torsions:
REMARK  status: ('A' for Active; 'I' for Inactive)
REMARK    1  A    between atoms: C2'_3  and  C1'_4 
REMARK    2  A    between atoms: C1'_4  and  C1_5 
ROOT
ATOM      1  C1  I4B d   1      -2.333  -2.519   0.883  0.00  0.00    -0.075 A 
ATOM      2  C2  I4B d   1      -1.155  -3.086   0.466  0.00  0.00     0.003 A 
ATOM      3  C3  I4B d   1      -0.439  -2.524  -0.618  0.00  0.00     0.002 A 
ATOM      4  C4  I4B d   1      -0.959  -1.433  -1.284  0.00  0.00    -0.004 A 
ATOM      5  C5  I4B d   1      -2.142  -0.846  -0.845  0.00  0.00     0.002 A 
ATOM      6  C6  I4B d   1      -2.828  -1.384   0.253  0.00  0.00     0.003 A 
ENDROOT
BRANCH   1   7
ATOM      7  C1' I4B d   1      -3.081  -3.158   2.011  0.00  0.00     0.060 C 
BRANCH   7   8
ATOM      8  C2' I4B d   1      -2.194  -3.122   3.239  0.00  0.00    -0.013 C 
ATOM      9  C4' I4B d   1      -2.586  -1.999   4.162  0.00  0.00     0.013 C 
ATOM     10  C3' I4B d   1      -2.302  -4.451   3.926  0.00  0.00     0.013 C 
ENDBRANCH   7   8
ENDBRANCH   1   7
TORSDOF 2
ENDMDL
