MODEL 1
REMARK minimizedAffinity 14.0524988
REMARK minimizedRMSD -1
REMARK  2 active torsions:
REMARK  status: ('A' for Active; 'I' for Inactive)
REMARK    1  A    between atoms: C2'_3  and  C1'_4 
REMARK    2  A    between atoms: C1'_4  and  C1_5 
ROOT
ATOM      1  C1  I4B d   1      -0.123  -2.899  -1.327  0.00  0.00    -0.075 A 
ATOM      2  C2  I4B d   1      -0.152  -3.062   0.035  0.00  0.00     0.003 A 
ATOM      3  C3  I4B d   1      -0.067  -4.358   0.600  0.00  0.00     0.002 A 
ATOM      4  C4  I4B d   1      -0.004  -5.459  -0.231  0.00  0.00    -0.004 A 
ATOM      5  C5  I4B d   1       0.049  -5.289  -1.611  0.00  0.00     0.002 A 
ATOM      6  C6  I4B d   1       0.002  -4.001  -2.163  0.00  0.00     0.003 A 
ENDROOT
BRANCH   1   7
ATOM      7  C1' I4B d   1      -0.248  -1.519  -1.890  0.00  0.00     0.060 C 
BRANCH   7   8
ATOM      8  C2' I4B d   1       0.988  -1.239  -2.720  0.00  0.00    -0.013 C 
ATOM      9  C4' I4B d   1       0.658  -1.184  -4.189  0.00  0.00     0.013 C 
ATOM     10  C3' I4B d   1       1.579   0.056  -2.249  0.00  0.00     0.013 C 
ENDBRANCH   7   8
ENDBRANCH   1   7
TORSDOF 2
ENDMDL
