MODEL 1
REMARK minimizedAffinity 6.95592165
REMARK minimizedRMSD -1
REMARK  0 active torsions:
REMARK  status: ('A' for Active; 'I' for Inactive)
ROOT
ATOM      1  C   UNL d   1      -1.639  -3.457  -0.358  0.00  0.00     0.023 A 
ATOM      2  C1  UNL d   1      -1.421  -2.100  -0.119  0.00  0.00     0.003 A 
ATOM      3  C2  UNL d   1      -0.297  -1.467  -0.653  0.00  0.00     0.048 A 
ATOM      4  C3  UNL d   1       0.604  -2.196  -1.427  0.00  0.00     0.023 A 
ATOM      5  C4  UNL d   1       0.390  -3.554  -1.670  0.00  0.00     0.048 A 
ATOM      6  C5  UNL d   1      -0.734  -4.183  -1.133  0.00  0.00     0.003 A 
ATOM      7  I   UNL d   1       2.278  -1.256  -2.224  0.00  0.00    -0.146 I 
ENDROOT
TORSDOF 0
ENDMDL
