MODEL 1
REMARK minimizedAffinity 2.90049338
REMARK minimizedRMSD -1
REMARK  0 active torsions:
REMARK  status: ('A' for Active; 'I' for Inactive)
ROOT
ATOM      1  C   UNL d   1       5.812   5.999  -4.727  0.00  0.00     0.023 A 
ATOM      2  C1  UNL d   1       4.523   5.960  -5.259  0.00  0.00     0.003 A 
ATOM      3  C2  UNL d   1       3.417   5.916  -4.408  0.00  0.00     0.048 A 
ATOM      4  C3  UNL d   1       3.607   5.913  -3.027  0.00  0.00     0.023 A 
ATOM      5  C4  UNL d   1       4.895   5.953  -2.490  0.00  0.00     0.048 A 
ATOM      6  C5  UNL d   1       5.998   5.996  -3.345  0.00  0.00     0.003 A 
ATOM      7  I   UNL d   1       1.961   5.848  -1.758  0.00  0.00    -0.146 I 
ENDROOT
TORSDOF 0
ENDMDL
