MODEL 1
REMARK minimizedAffinity 2.6951611
REMARK minimizedRMSD -1
REMARK  0 active torsions:
REMARK  status: ('A' for Active; 'I' for Inactive)
ROOT
ATOM      1  C   UNL d   1      -3.979   3.001  -3.586  0.00  0.00     0.023 A 
ATOM      2  C1  UNL d   1      -4.500   2.999  -4.879  0.00  0.00     0.003 A 
ATOM      3  C2  UNL d   1      -4.643   1.796  -5.574  0.00  0.00     0.048 A 
ATOM      4  C3  UNL d   1      -4.265   0.599  -4.968  0.00  0.00     0.023 A 
ATOM      5  C4  UNL d   1      -3.744   0.596  -3.673  0.00  0.00     0.048 A 
ATOM      6  C5  UNL d   1      -3.601   1.801  -2.983  0.00  0.00     0.003 A 
ATOM      7  I   UNL d   1      -4.478  -1.193  -6.000  0.00  0.00    -0.146 I 
ENDROOT
TORSDOF 0
ENDMDL
