MODEL 1
REMARK minimizedAffinity 4.23486423
REMARK minimizedRMSD -1
REMARK  0 active torsions:
REMARK  status: ('A' for Active; 'I' for Inactive)
ROOT
ATOM      1  C   UNL d   1      -3.248   3.181  -1.625  0.00  0.00     0.023 A 
ATOM      2  C1  UNL d   1      -3.042   1.909  -1.091  0.00  0.00     0.003 A 
ATOM      3  C2  UNL d   1      -3.330   0.775  -1.854  0.00  0.00     0.048 A 
ATOM      4  C3  UNL d   1      -3.824   0.921  -3.150  0.00  0.00     0.023 A 
ATOM      5  C4  UNL d   1      -4.031   2.192  -3.688  0.00  0.00     0.048 A 
ATOM      6  C5  UNL d   1      -3.742   3.323  -2.922  0.00  0.00     0.003 A 
ATOM      7  I   UNL d   1      -4.254  -0.765  -4.287  0.00  0.00    -0.146 I 
ENDROOT
TORSDOF 0
ENDMDL
