MODEL 1
REMARK minimizedAffinity 0.416809589
REMARK minimizedRMSD -1
REMARK  0 active torsions:
REMARK  status: ('A' for Active; 'I' for Inactive)
ROOT
ATOM      1  C   UNL d   1       2.396  -5.626  -2.143  0.00  0.00     0.023 A 
ATOM      2  C1  UNL d   1       3.766  -5.707  -1.890  0.00  0.00     0.003 A 
ATOM      3  C2  UNL d   1       4.668  -5.815  -2.950  0.00  0.00     0.048 A 
ATOM      4  C3  UNL d   1       4.194  -5.840  -4.261  0.00  0.00     0.023 A 
ATOM      5  C4  UNL d   1       2.824  -5.758  -4.519  0.00  0.00     0.048 A 
ATOM      6  C5  UNL d   1       1.926  -5.651  -3.456  0.00  0.00     0.003 A 
ATOM      7  I   UNL d   1       5.535  -6.000  -5.841  0.00  0.00    -0.146 I 
ENDROOT
TORSDOF 0
ENDMDL
