MODEL 1
REMARK minimizedAffinity 12.5229406
REMARK minimizedRMSD -1
REMARK  0 active torsions:
REMARK  status: ('A' for Active; 'I' for Inactive)
ROOT
ATOM      1  C   UNL d   1      -4.788  -5.935  -5.660  0.00  0.00     0.023 A 
ATOM      2  C1  UNL d   1      -5.996  -5.251  -5.522  0.00  0.00     0.003 A 
ATOM      3  C2  UNL d   1      -5.999  -3.870  -5.316  0.00  0.00     0.048 A 
ATOM      4  C3  UNL d   1      -4.790  -3.179  -5.251  0.00  0.00     0.023 A 
ATOM      5  C4  UNL d   1      -3.579  -3.858  -5.390  0.00  0.00     0.048 A 
ATOM      6  C5  UNL d   1      -3.581  -5.239  -5.595  0.00  0.00     0.003 A 
ATOM      7  I   UNL d   1      -4.791  -1.123  -4.945  0.00  0.00    -0.146 I 
ENDROOT
TORSDOF 0
ENDMDL
