MODEL 1
REMARK minimizedAffinity 15.257844
REMARK minimizedRMSD -1
REMARK  0 active torsions:
REMARK  status: ('A' for Active; 'I' for Inactive)
ROOT
ATOM      1  C   UNL d   1      -3.460   0.943  -4.049  0.00  0.00     0.023 A 
ATOM      2  C1  UNL d   1      -3.069   0.028  -3.071  0.00  0.00     0.003 A 
ATOM      3  C2  UNL d   1      -2.913   0.443  -1.747  0.00  0.00     0.048 A 
ATOM      4  C3  UNL d   1      -3.151   1.774  -1.408  0.00  0.00     0.023 A 
ATOM      5  C4  UNL d   1      -3.544   2.693  -2.383  0.00  0.00     0.048 A 
ATOM      6  C5  UNL d   1      -3.697   2.274  -3.705  0.00  0.00     0.003 A 
ATOM      7  I   UNL d   1      -2.920   2.395   0.562  0.00  0.00    -0.146 I 
ENDROOT
TORSDOF 0
ENDMDL
