MODEL 1
REMARK minimizedAffinity 2.214921
REMARK minimizedRMSD -1
REMARK  0 active torsions:
REMARK  status: ('A' for Active; 'I' for Inactive)
ROOT
ATOM      1  C   UNL d   1       1.275  -2.319   3.901  0.00  0.00     0.023 A 
ATOM      2  C1  UNL d   1       1.952  -3.073   4.860  0.00  0.00     0.003 A 
ATOM      3  C2  UNL d   1       3.308  -3.363   4.692  0.00  0.00     0.048 A 
ATOM      4  C3  UNL d   1       3.981  -2.895   3.564  0.00  0.00     0.023 A 
ATOM      5  C4  UNL d   1       3.307  -2.140   2.602  0.00  0.00     0.048 A 
ATOM      6  C5  UNL d   1       1.952  -1.853   2.774  0.00  0.00     0.003 A 
ATOM      7  I   UNL d   1       5.998  -3.326   3.312  0.00  0.00    -0.146 I 
ENDROOT
TORSDOF 0
ENDMDL
