MODEL 1
REMARK minimizedAffinity -4.44458866
REMARK minimizedRMSD -1
REMARK  3 active torsions:
REMARK  status: ('A' for Active; 'I' for Inactive)
REMARK    1  A    between atoms: C3'_2  and  C2'_3 
REMARK    2  A    between atoms: C2'_3  and  C1'_4 
REMARK    3  A    between atoms: C1'_4  and  C1_5 
ROOT
ATOM      1  C1  N4B d   1      -0.505   0.583   0.034  0.00  0.00    -0.075 A 
ATOM      2  C2  N4B d   1      -0.295   0.561   1.430  0.00  0.00     0.002 A 
ATOM      3  C3  N4B d   1      -1.142   1.252   2.262  0.00  0.00     0.002 A 
ATOM      4  C4  N4B d   1      -2.189   1.983   1.722  0.00  0.00    -0.004 A 
ATOM      5  C5  N4B d   1      -2.400   1.978   0.374  0.00  0.00     0.002 A 
ATOM      6  C6  N4B d   1      -1.559   1.285  -0.474  0.00  0.00     0.002 A 
ENDROOT
BRANCH   1   7
ATOM      7  C1' N4B d   1       0.445  -0.086  -0.922  0.00  0.00     0.057 C 
BRANCH   7   8
ATOM      8  C2' N4B d   1       0.218  -1.595  -0.879  0.00  0.00     0.009 C 
BRANCH   8   9
ATOM      9  C3' N4B d   1      -0.192  -2.146  -2.234  0.00  0.00     0.004 C 
ATOM     10  C4' N4B d   1      -0.138  -3.644  -2.291  0.00  0.00     0.003 C 
ENDBRANCH   8   9
ENDBRANCH   7   8
ENDBRANCH   1   7
TORSDOF 3
ENDMDL
