MODEL 1
REMARK minimizedAffinity -4.96434784
REMARK minimizedRMSD -1
REMARK  3 active torsions:
REMARK  status: ('A' for Active; 'I' for Inactive)
REMARK    1  A    between atoms: C3'_2  and  C2'_3 
REMARK    2  A    between atoms: C2'_3  and  C1'_4 
REMARK    3  A    between atoms: C1'_4  and  C1_5 
ROOT
ATOM      1  C1  N4B d   1      -0.035   1.056  -0.074  0.00  0.00    -0.075 A 
ATOM      2  C2  N4B d   1      -0.458   0.693   1.223  0.00  0.00     0.002 A 
ATOM      3  C3  N4B d   1      -1.379   1.466   1.887  0.00  0.00     0.002 A 
ATOM      4  C4  N4B d   1      -1.876   2.611   1.283  0.00  0.00    -0.004 A 
ATOM      5  C5  N4B d   1      -1.482   2.941   0.019  0.00  0.00     0.002 A 
ATOM      6  C6  N4B d   1      -0.560   2.172  -0.661  0.00  0.00     0.002 A 
ENDROOT
BRANCH   1   7
ATOM      7  C1' N4B d   1       1.034   0.291  -0.805  0.00  0.00     0.057 C 
BRANCH   7   8
ATOM      8  C2' N4B d   1       0.843  -1.202  -0.551  0.00  0.00     0.009 C 
BRANCH   8   9
ATOM      9  C3' N4B d   1       0.099  -1.881  -1.687  0.00  0.00     0.004 C 
ATOM     10  C4' N4B d   1       0.520  -3.307  -1.887  0.00  0.00     0.003 C 
ENDBRANCH   8   9
ENDBRANCH   7   8
ENDBRANCH   1   7
TORSDOF 3
ENDMDL
