MODEL 1
REMARK minimizedAffinity -4.34592581
REMARK minimizedRMSD -1
REMARK  3 active torsions:
REMARK  status: ('A' for Active; 'I' for Inactive)
REMARK    1  A    between atoms: C3'_2  and  C2'_3 
REMARK    2  A    between atoms: C2'_3  and  C1'_4 
REMARK    3  A    between atoms: C1'_4  and  C1_5 
ROOT
ATOM      1  C1  N4B d   1       0.421   0.103  -0.284  0.00  0.00    -0.075 A 
ATOM      2  C2  N4B d   1       0.012  -0.720   0.789  0.00  0.00     0.002 A 
ATOM      3  C3  N4B d   1      -0.663  -0.175   1.854  0.00  0.00     0.002 A 
ATOM      4  C4  N4B d   1      -0.923   1.187   1.876  0.00  0.00    -0.004 A 
ATOM      5  C5  N4B d   1      -0.548   1.970   0.824  0.00  0.00     0.002 A 
ATOM      6  C6  N4B d   1       0.128   1.435  -0.254  0.00  0.00     0.002 A 
ENDROOT
BRANCH   1   7
ATOM      7  C1' N4B d   1       1.236  -0.433  -1.429  0.00  0.00     0.057 C 
BRANCH   7   8
ATOM      8  C2' N4B d   1       1.166  -1.957  -1.425  0.00  0.00     0.009 C 
BRANCH   8   9
ATOM      9  C3' N4B d   1       0.367  -2.492  -2.600  0.00  0.00     0.004 C 
ATOM     10  C4' N4B d   1      -0.261  -3.824  -2.317  0.00  0.00     0.003 C 
ENDBRANCH   8   9
ENDBRANCH   7   8
ENDBRANCH   1   7
TORSDOF 3
ENDMDL
