MODEL 1
REMARK minimizedAffinity -4.62309361
REMARK minimizedRMSD -1
REMARK  3 active torsions:
REMARK  status: ('A' for Active; 'I' for Inactive)
REMARK    1  A    between atoms: C3'_2  and  C2'_3 
REMARK    2  A    between atoms: C2'_3  and  C1'_4 
REMARK    3  A    between atoms: C1'_4  and  C1_5 
ROOT
ATOM      1  C1  N4B d   1      -0.247   0.099   0.057  0.00  0.00    -0.075 A 
ATOM      2  C2  N4B d   1      -1.180   0.895  -0.643  0.00  0.00     0.002 A 
ATOM      3  C3  N4B d   1      -2.151   1.580   0.045  0.00  0.00     0.002 A 
ATOM      4  C4  N4B d   1      -2.221   1.469   1.426  0.00  0.00    -0.004 A 
ATOM      5  C5  N4B d   1      -1.300   0.719   2.097  0.00  0.00     0.002 A 
ATOM      6  C6  N4B d   1      -0.316   0.028   1.419  0.00  0.00     0.002 A 
ENDROOT
BRANCH   1   7
ATOM      7  C1' N4B d   1       0.780  -0.736  -0.658  0.00  0.00     0.057 C 
BRANCH   7   8
ATOM      8  C2' N4B d   1       0.134  -1.389  -1.876  0.00  0.00     0.009 C 
BRANCH   8   9
ATOM      9  C3' N4B d   1       0.220  -2.905  -1.820  0.00  0.00     0.004 C 
ATOM     10  C4' N4B d   1      -0.514  -3.570  -2.946  0.00  0.00     0.003 C 
ENDBRANCH   8   9
ENDBRANCH   7   8
ENDBRANCH   1   7
TORSDOF 3
ENDMDL
