MODEL 1
REMARK minimizedAffinity 4.87251234
REMARK minimizedRMSD -1
REMARK  3 active torsions:
REMARK  status: ('A' for Active; 'I' for Inactive)
REMARK    1  A    between atoms: C3'_2  and  C2'_3 
REMARK    2  A    between atoms: C2'_3  and  C1'_4 
REMARK    3  A    between atoms: C1'_4  and  C1_5 
ROOT
ATOM      1  C1  N4B d   1       0.265   0.843  -0.516  0.00  0.00    -0.075 A 
ATOM      2  C2  N4B d   1      -0.957   0.202  -0.815  0.00  0.00     0.002 A 
ATOM      3  C3  N4B d   1      -2.021   0.935  -1.280  0.00  0.00     0.002 A 
ATOM      4  C4  N4B d   1      -1.893   2.307  -1.435  0.00  0.00    -0.004 A 
ATOM      5  C5  N4B d   1      -0.702   2.915  -1.168  0.00  0.00     0.002 A 
ATOM      6  C6  N4B d   1       0.378   2.190  -0.704  0.00  0.00     0.002 A 
ENDROOT
BRANCH   1   7
ATOM      7  C1' N4B d   1       1.430   0.097   0.076  0.00  0.00     0.057 C 
BRANCH   7   8
ATOM      8  C2' N4B d   1       0.933  -0.778   1.223  0.00  0.00     0.009 C 
BRANCH   8   9
ATOM      9  C3' N4B d   1       2.027  -1.059   2.238  0.00  0.00     0.004 C 
ATOM     10  C4' N4B d   1       1.589  -2.005   3.316  0.00  0.00     0.003 C 
ENDBRANCH   8   9
ENDBRANCH   7   8
ENDBRANCH   1   7
TORSDOF 3
ENDMDL
