MODEL 1
REMARK minimizedAffinity -4.60195398
REMARK minimizedRMSD -1
REMARK  3 active torsions:
REMARK  status: ('A' for Active; 'I' for Inactive)
REMARK    1  A    between atoms: C3'_2  and  C2'_3 
REMARK    2  A    between atoms: C2'_3  and  C1'_4 
REMARK    3  A    between atoms: C1'_4  and  C1_5 
ROOT
ATOM      1  C1  N4B d   1      -0.210  -0.251   0.566  0.00  0.00    -0.075 A 
ATOM      2  C2  N4B d   1      -0.757  -0.274   1.868  0.00  0.00     0.002 A 
ATOM      3  C3  N4B d   1      -1.547   0.764   2.299  0.00  0.00     0.002 A 
ATOM      4  C4  N4B d   1      -1.788   1.838   1.456  0.00  0.00    -0.004 A 
ATOM      5  C5  N4B d   1      -1.278   1.840   0.191  0.00  0.00     0.002 A 
ATOM      6  C6  N4B d   1      -0.485   0.802  -0.257  0.00  0.00     0.002 A 
ENDROOT
BRANCH   1   7
ATOM      7  C1' N4B d   1       0.729  -1.321   0.080  0.00  0.00     0.057 C 
BRANCH   7   8
ATOM      8  C2' N4B d   1       0.333  -1.731  -1.335  0.00  0.00     0.009 C 
BRANCH   8   9
ATOM      9  C3' N4B d   1       0.350  -3.239  -1.515  0.00  0.00     0.004 C 
ATOM     10  C4' N4B d   1      -0.229  -3.673  -2.829  0.00  0.00     0.003 C 
ENDBRANCH   8   9
ENDBRANCH   7   8
ENDBRANCH   1   7
TORSDOF 3
ENDMDL
