MODEL 1
REMARK minimizedAffinity -3.33521152
REMARK minimizedRMSD -1
REMARK  3 active torsions:
REMARK  status: ('A' for Active; 'I' for Inactive)
REMARK    1  A    between atoms: C3'_2  and  C2'_3 
REMARK    2  A    between atoms: C2'_3  and  C1'_4 
REMARK    3  A    between atoms: C1'_4  and  C1_5 
ROOT
ATOM      1  C1  N4B d   1       0.015  -0.585  -0.027  0.00  0.00    -0.075 A 
ATOM      2  C2  N4B d   1      -0.202   0.580  -0.794  0.00  0.00     0.002 A 
ATOM      3  C3  N4B d   1      -0.778   1.685  -0.215  0.00  0.00     0.002 A 
ATOM      4  C4  N4B d   1      -1.159   1.642   1.117  0.00  0.00    -0.004 A 
ATOM      5  C5  N4B d   1      -0.922   0.521   1.858  0.00  0.00     0.002 A 
ATOM      6  C6  N4B d   1      -0.341  -0.595   1.291  0.00  0.00     0.002 A 
ENDROOT
BRANCH   1   7
ATOM      7  C1' N4B d   1       0.562  -1.847  -0.637  0.00  0.00     0.057 C 
BRANCH   7   8
ATOM      8  C2' N4B d   1      -0.079  -2.061  -2.004  0.00  0.00     0.009 C 
BRANCH   8   9
ATOM      9  C3' N4B d   1      -0.098  -3.527  -2.400  0.00  0.00     0.004 C 
ATOM     10  C4' N4B d   1       0.680  -4.393  -1.455  0.00  0.00     0.003 C 
ENDBRANCH   8   9
ENDBRANCH   7   8
ENDBRANCH   1   7
TORSDOF 3
ENDMDL
