MODEL 1
REMARK minimizedAffinity -2.15595222
REMARK minimizedRMSD -1
REMARK  3 active torsions:
REMARK  status: ('A' for Active; 'I' for Inactive)
REMARK    1  A    between atoms: C3'_2  and  C2'_3 
REMARK    2  A    between atoms: C2'_3  and  C1'_4 
REMARK    3  A    between atoms: C1'_4  and  C1_5 
ROOT
ATOM      1  C1  N4B d   1       0.520  -0.488  -0.228  0.00  0.00    -0.075 A 
ATOM      2  C2  N4B d   1       0.612  -1.028   1.073  0.00  0.00     0.002 A 
ATOM      3  C3  N4B d   1      -0.140  -0.498   2.092  0.00  0.00     0.002 A 
ATOM      4  C4  N4B d   1      -0.974   0.581   1.839  0.00  0.00    -0.004 A 
ATOM      5  C5  N4B d   1      -1.077   1.081   0.574  0.00  0.00     0.002 A 
ATOM      6  C6  N4B d   1      -0.330   0.555  -0.461  0.00  0.00     0.002 A 
ENDROOT
BRANCH   1   7
ATOM      7  C1' N4B d   1       1.386  -0.979  -1.356  0.00  0.00     0.057 C 
BRANCH   7   8
ATOM      8  C2' N4B d   1       1.211  -2.488  -1.501  0.00  0.00     0.009 C 
BRANCH   8   9
ATOM      9  C3' N4B d   1       0.427  -2.851  -2.750  0.00  0.00     0.004 C 
ATOM     10  C4' N4B d   1      -0.440  -4.060  -2.560  0.00  0.00     0.003 C 
ENDBRANCH   8   9
ENDBRANCH   7   8
ENDBRANCH   1   7
TORSDOF 3
ENDMDL
