MODEL 1
REMARK minimizedAffinity -5.31209898
REMARK minimizedRMSD -1
REMARK  3 active torsions:
REMARK  status: ('A' for Active; 'I' for Inactive)
REMARK    1  A    between atoms: C3'_2  and  C2'_3 
REMARK    2  A    between atoms: C2'_3  and  C1'_4 
REMARK    3  A    between atoms: C1'_4  and  C1_5 
ROOT
ATOM      1  C1  N4B d   1      -0.339   0.454   0.233  0.00  0.00    -0.075 A 
ATOM      2  C2  N4B d   1      -0.055   1.510  -0.661  0.00  0.00     0.002 A 
ATOM      3  C3  N4B d   1      -0.701   2.715  -0.528  0.00  0.00     0.002 A 
ATOM      4  C4  N4B d   1      -1.644   2.881   0.475  0.00  0.00    -0.004 A 
ATOM      5  C5  N4B d   1      -1.894   1.864   1.350  0.00  0.00     0.002 A 
ATOM      6  C6  N4B d   1      -1.250   0.649   1.231  0.00  0.00     0.002 A 
ENDROOT
BRANCH   1   7
ATOM      7  C1' N4B d   1       0.278  -0.908   0.075  0.00  0.00     0.057 C 
BRANCH   7   8
ATOM      8  C2' N4B d   1      -0.142  -1.495  -1.270  0.00  0.00     0.009 C 
BRANCH   8   9
ATOM      9  C3' N4B d   1      -0.065  -3.012  -1.276  0.00  0.00     0.004 C 
ATOM     10  C4' N4B d   1      -0.360  -3.603  -2.622  0.00  0.00     0.003 C 
ENDBRANCH   8   9
ENDBRANCH   7   8
ENDBRANCH   1   7
TORSDOF 3
ENDMDL
