MODEL 1
REMARK minimizedAffinity -3.27544546
REMARK minimizedRMSD -1
REMARK  3 active torsions:
REMARK  status: ('A' for Active; 'I' for Inactive)
REMARK    1  A    between atoms: C3'_2  and  C2'_3 
REMARK    2  A    between atoms: C2'_3  and  C1'_4 
REMARK    3  A    between atoms: C1'_4  and  C1_5 
ROOT
ATOM      1  C1  N4B d   1       0.283  -0.118  -0.183  0.00  0.00    -0.075 A 
ATOM      2  C2  N4B d   1       0.417  -0.054   1.222  0.00  0.00     0.002 A 
ATOM      3  C3  N4B d   1      -0.430   0.738   1.957  0.00  0.00     0.002 A 
ATOM      4  C4  N4B d   1      -1.402   1.487   1.311  0.00  0.00    -0.004 A 
ATOM      5  C5  N4B d   1      -1.541   1.400  -0.043  0.00  0.00     0.002 A 
ATOM      6  C6  N4B d   1      -0.700   0.605  -0.795  0.00  0.00     0.002 A 
ENDROOT
BRANCH   1   7
ATOM      7  C1' N4B d   1       1.240  -0.903  -1.037  0.00  0.00     0.057 C 
BRANCH   7   8
ATOM      8  C2' N4B d   1       0.456  -1.911  -1.872  0.00  0.00     0.009 C 
BRANCH   8   9
ATOM      9  C3' N4B d   1       1.138  -3.267  -1.914  0.00  0.00     0.004 C 
ATOM     10  C4' N4B d   1       0.253  -4.378  -1.432  0.00  0.00     0.003 C 
ENDBRANCH   8   9
ENDBRANCH   7   8
ENDBRANCH   1   7
TORSDOF 3
ENDMDL
