MODEL 1
REMARK minimizedAffinity -4.42208195
REMARK minimizedRMSD -1
REMARK  3 active torsions:
REMARK  status: ('A' for Active; 'I' for Inactive)
REMARK    1  A    between atoms: C3'_2  and  C2'_3 
REMARK    2  A    between atoms: C2'_3  and  C1'_4 
REMARK    3  A    between atoms: C1'_4  and  C1_5 
ROOT
ATOM      1  C1  N4B d   1       0.388   0.209   0.077  0.00  0.00    -0.075 A 
ATOM      2  C2  N4B d   1      -0.009   1.351  -0.653  0.00  0.00     0.002 A 
ATOM      3  C3  N4B d   1      -0.914   2.231  -0.112  0.00  0.00     0.002 A 
ATOM      4  C4  N4B d   1      -1.447   1.982   1.143  0.00  0.00    -0.004 A 
ATOM      5  C5  N4B d   1      -1.039   0.890   1.852  0.00  0.00     0.002 A 
ATOM      6  C6  N4B d   1      -0.128  -0.001   1.323  0.00  0.00     0.002 A 
ENDROOT
BRANCH   1   7
ATOM      7  C1' N4B d   1       1.309  -0.827  -0.508  0.00  0.00     0.057 C 
BRANCH   7   8
ATOM      8  C2' N4B d   1       0.589  -1.555  -1.639  0.00  0.00     0.009 C 
BRANCH   8   9
ATOM      9  C3' N4B d   1       1.024  -3.007  -1.748  0.00  0.00     0.004 C 
ATOM     10  C4' N4B d   1       0.337  -3.737  -2.863  0.00  0.00     0.003 C 
ENDBRANCH   8   9
ENDBRANCH   7   8
ENDBRANCH   1   7
TORSDOF 3
ENDMDL
