MODEL 1
REMARK minimizedAffinity -5.42309809
REMARK minimizedRMSD -1
REMARK  3 active torsions:
REMARK  status: ('A' for Active; 'I' for Inactive)
REMARK    1  A    between atoms: C3'_2  and  C2'_3 
REMARK    2  A    between atoms: C2'_3  and  C1'_4 
REMARK    3  A    between atoms: C1'_4  and  C1_5 
ROOT
ATOM      1  C1  N4B d   1      -0.279  -0.394   0.019  0.00  0.00    -0.075 A 
ATOM      2  C2  N4B d   1      -0.107  -0.065   1.382  0.00  0.00     0.002 A 
ATOM      3  C3  N4B d   1      -0.899   0.896   1.961  0.00  0.00     0.002 A 
ATOM      4  C4  N4B d   1      -1.853   1.551   1.196  0.00  0.00    -0.004 A 
ATOM      5  C5  N4B d   1      -2.031   1.208  -0.112  0.00  0.00     0.002 A 
ATOM      6  C6  N4B d   1      -1.244   0.242  -0.706  0.00  0.00     0.002 A 
ENDROOT
BRANCH   1   7
ATOM      7  C1' N4B d   1       0.620  -1.377  -0.680  0.00  0.00     0.057 C 
BRANCH   7   8
ATOM      8  C2' N4B d   1       0.025  -1.719  -2.042  0.00  0.00     0.009 C 
BRANCH   8   9
ATOM      9  C3' N4B d   1       0.346  -3.144  -2.461  0.00  0.00     0.004 C 
ATOM     10  C4' N4B d   1      -0.793  -4.090  -2.221  0.00  0.00     0.003 C 
ENDBRANCH   8   9
ENDBRANCH   7   8
ENDBRANCH   1   7
TORSDOF 3
ENDMDL
