MODEL 1
REMARK minimizedAffinity -4.28659391
REMARK minimizedRMSD -1
REMARK  0 active torsions:
REMARK  status: ('A' for Active; 'I' for Inactive)
ROOT
ATOM      1  C1  BNZ d   1       0.508   0.299   0.511  0.00  0.00     0.000 A 
ATOM      2  C2  BNZ d   1       0.517  -0.864   1.235  0.00  0.00     0.000 A 
ATOM      3  C3  BNZ d   1      -0.652  -1.461   1.615  0.00  0.00     0.000 A 
ATOM      4  C4  BNZ d   1      -1.827  -0.874   1.307  0.00  0.00     0.000 A 
ATOM      5  C5  BNZ d   1      -1.852   0.303   0.587  0.00  0.00     0.000 A 
ATOM      6  C6  BNZ d   1      -0.674   0.881   0.172  0.00  0.00     0.000 A 
ENDROOT
TORSDOF 0
ENDMDL
