MODEL 1
REMARK minimizedAffinity -4.49169731
REMARK minimizedRMSD -1
REMARK  0 active torsions:
REMARK  status: ('A' for Active; 'I' for Inactive)
ROOT
ATOM      1  C1  BNZ d   1      -2.039  -0.599   0.758  0.00  0.00     0.000 A 
ATOM      2  C2  BNZ d   1      -0.714  -0.258   0.703  0.00  0.00     0.000 A 
ATOM      3  C3  BNZ d   1      -0.127   0.082  -0.483  0.00  0.00     0.000 A 
ATOM      4  C4  BNZ d   1      -0.855   0.042  -1.618  0.00  0.00     0.000 A 
ATOM      5  C5  BNZ d   1      -2.190  -0.309  -1.581  0.00  0.00     0.000 A 
ATOM      6  C6  BNZ d   1      -2.787  -0.613  -0.379  0.00  0.00     0.000 A 
ENDROOT
TORSDOF 0
ENDMDL
