MODEL 1
REMARK minimizedAffinity -4.52527666
REMARK minimizedRMSD -1
REMARK  0 active torsions:
REMARK  status: ('A' for Active; 'I' for Inactive)
ROOT
ATOM      1  C1  BNZ d   1      -1.323  -0.635   1.050  0.00  0.00     0.000 A 
ATOM      2  C2  BNZ d   1      -0.004  -0.274   0.984  0.00  0.00     0.000 A 
ATOM      3  C3  BNZ d   1       0.513   0.286  -0.151  0.00  0.00     0.000 A 
ATOM      4  C4  BNZ d   1      -0.280   0.447  -1.230  0.00  0.00     0.000 A 
ATOM      5  C5  BNZ d   1      -1.610   0.079  -1.182  0.00  0.00     0.000 A 
ATOM      6  C6  BNZ d   1      -2.135  -0.448  -0.025  0.00  0.00     0.000 A 
ENDROOT
TORSDOF 0
ENDMDL
