MODEL 1
REMARK minimizedAffinity -3.92985535
REMARK minimizedRMSD -1
REMARK  0 active torsions:
REMARK  status: ('A' for Active; 'I' for Inactive)
ROOT
ATOM      1  C1  BNZ d   1      -0.813  -0.190   0.166  0.00  0.00     0.000 A 
ATOM      2  C2  BNZ d   1      -2.104  -0.635   0.270  0.00  0.00     0.000 A 
ATOM      3  C3  BNZ d   1      -2.895  -0.752  -0.838  0.00  0.00     0.000 A 
ATOM      4  C4  BNZ d   1      -2.409  -0.386  -2.042  0.00  0.00     0.000 A 
ATOM      5  C5  BNZ d   1      -1.113   0.073  -2.162  0.00  0.00     0.000 A 
ATOM      6  C6  BNZ d   1      -0.306   0.153  -1.049  0.00  0.00     0.000 A 
ENDROOT
TORSDOF 0
ENDMDL
