MODEL 1
REMARK minimizedAffinity -4.85226154
REMARK minimizedRMSD -1
REMARK  0 active torsions:
REMARK  status: ('A' for Active; 'I' for Inactive)
ROOT
ATOM      1  C1  BNZ d   1      -2.297  -1.016   0.397  0.00  0.00     0.000 A 
ATOM      2  C2  BNZ d   1      -1.120  -0.316   0.363  0.00  0.00     0.000 A 
ATOM      3  C3  BNZ d   1      -0.720   0.324  -0.777  0.00  0.00     0.000 A 
ATOM      4  C4  BNZ d   1      -1.475   0.230  -1.890  0.00  0.00     0.000 A 
ATOM      5  C5  BNZ d   1      -2.659  -0.480  -1.874  0.00  0.00     0.000 A 
ATOM      6  C6  BNZ d   1      -3.078  -1.090  -0.714  0.00  0.00     0.000 A 
ENDROOT
TORSDOF 0
ENDMDL
