MODEL 1
REMARK minimizedAffinity -1.09064555
REMARK minimizedRMSD -1
REMARK  0 active torsions:
REMARK  status: ('A' for Active; 'I' for Inactive)
ROOT
ATOM      1  C1  BNZ d   1       1.383  -0.524   0.670  0.00  0.00     0.000 A 
ATOM      2  C2  BNZ d   1       0.633  -1.383   1.429  0.00  0.00     0.000 A 
ATOM      3  C3  BNZ d   1      -0.708  -1.525   1.204  0.00  0.00     0.000 A 
ATOM      4  C4  BNZ d   1      -1.303  -0.781   0.250  0.00  0.00     0.000 A 
ATOM      5  C5  BNZ d   1      -0.562   0.096  -0.517  0.00  0.00     0.000 A 
ATOM      6  C6  BNZ d   1       0.794   0.208  -0.314  0.00  0.00     0.000 A 
ENDROOT
TORSDOF 0
ENDMDL
