MODEL 1
REMARK minimizedAffinity -4.80859184
REMARK minimizedRMSD -1
REMARK  0 active torsions:
REMARK  status: ('A' for Active; 'I' for Inactive)
ROOT
ATOM      1  C1  BNZ d   1       2.501   1.546   1.171  0.00  0.00     0.000 A 
ATOM      2  C2  BNZ d   1       3.186   1.566  -0.015  0.00  0.00     0.000 A 
ATOM      3  C3  BNZ d   1       3.226   2.697  -0.781  0.00  0.00     0.000 A 
ATOM      4  C4  BNZ d   1       2.548   3.793  -0.381  0.00  0.00     0.000 A 
ATOM      5  C5  BNZ d   1       1.845   3.785   0.807  0.00  0.00     0.000 A 
ATOM      6  C6  BNZ d   1       1.839   2.657   1.595  0.00  0.00     0.000 A 
ENDROOT
TORSDOF 0
ENDMDL
