MODEL 1
REMARK minimizedAffinity -1.51275229
REMARK minimizedRMSD -1
REMARK  0 active torsions:
REMARK  status: ('A' for Active; 'I' for Inactive)
ROOT
ATOM      1  C1  BNZ d   1       1.036  -0.071   0.007  0.00  0.00     0.000 A 
ATOM      2  C2  BNZ d   1       1.505  -0.533   1.208  0.00  0.00     0.000 A 
ATOM      3  C3  BNZ d   1       0.675  -1.174   2.084  0.00  0.00     0.000 A 
ATOM      4  C4  BNZ d   1      -0.630  -1.317   1.777  0.00  0.00     0.000 A 
ATOM      5  C5  BNZ d   1      -1.121  -0.849   0.575  0.00  0.00     0.000 A 
ATOM      6  C6  BNZ d   1      -0.274  -0.239  -0.322  0.00  0.00     0.000 A 
ENDROOT
TORSDOF 0
ENDMDL
