MODEL 1
REMARK minimizedAffinity -2.34509492
REMARK minimizedRMSD -1
REMARK  0 active torsions:
REMARK  status: ('A' for Active; 'I' for Inactive)
ROOT
ATOM      1  C1  BNZ d   1      -0.144  -1.626   1.219  0.00  0.00     0.000 A 
ATOM      2  C2  BNZ d   1      -1.014  -1.046   0.335  0.00  0.00     0.000 A 
ATOM      3  C3  BNZ d   1      -0.585  -0.098  -0.551  0.00  0.00     0.000 A 
ATOM      4  C4  BNZ d   1       0.704   0.298  -0.525  0.00  0.00     0.000 A 
ATOM      5  C5  BNZ d   1       1.592  -0.270   0.367  0.00  0.00     0.000 A 
ATOM      6  C6  BNZ d   1       1.165  -1.252   1.230  0.00  0.00     0.000 A 
ENDROOT
TORSDOF 0
ENDMDL
