MODEL 1
REMARK minimizedAffinity -5.14547634
REMARK minimizedRMSD -1
REMARK  0 active torsions:
REMARK  status: ('A' for Active; 'I' for Inactive)
ROOT
ATOM      1  C1  BNZ d   1      -1.178  -0.293  -1.864  0.00  0.00     0.000 A 
ATOM      2  C2  BNZ d   1      -2.371  -0.963  -1.890  0.00  0.00     0.000 A 
ATOM      3  C3  BNZ d   1      -3.037  -1.252  -0.732  0.00  0.00     0.000 A 
ATOM      4  C4  BNZ d   1      -2.491  -0.906   0.451  0.00  0.00     0.000 A 
ATOM      5  C5  BNZ d   1      -1.283  -0.238   0.494  0.00  0.00     0.000 A 
ATOM      6  C6  BNZ d   1      -0.635   0.086  -0.675  0.00  0.00     0.000 A 
ENDROOT
TORSDOF 0
ENDMDL
