MODEL 1
REMARK minimizedAffinity -4.51882601
REMARK minimizedRMSD -1
REMARK  0 active torsions:
REMARK  status: ('A' for Active; 'I' for Inactive)
ROOT
ATOM      1  C1  BNZ d   1       0.010   0.238  -1.166  0.00  0.00     0.000 A 
ATOM      2  C2  BNZ d   1      -1.247  -0.138  -0.774  0.00  0.00     0.000 A 
ATOM      3  C3  BNZ d   1      -1.449  -0.769   0.422  0.00  0.00     0.000 A 
ATOM      4  C4  BNZ d   1      -0.390  -1.060   1.204  0.00  0.00     0.000 A 
ATOM      5  C5  BNZ d   1       0.885  -0.696   0.819  0.00  0.00     0.000 A 
ATOM      6  C6  BNZ d   1       1.080  -0.026  -0.367  0.00  0.00     0.000 A 
ENDROOT
TORSDOF 0
ENDMDL
