MODEL 1
REMARK minimizedAffinity -3.70932436
REMARK minimizedRMSD -1
REMARK  0 active torsions:
REMARK  status: ('A' for Active; 'I' for Inactive)
ROOT
ATOM      1  C1  BNZ d   1      -1.020   0.435  -0.036  0.00  0.00     0.000 A 
ATOM      2  C2  BNZ d   1      -2.238  -0.121   0.251  0.00  0.00     0.000 A 
ATOM      3  C3  BNZ d   1      -2.959  -0.765  -0.716  0.00  0.00     0.000 A 
ATOM      4  C4  BNZ d   1      -2.480  -0.818  -1.975  0.00  0.00     0.000 A 
ATOM      5  C5  BNZ d   1      -1.258  -0.254  -2.283  0.00  0.00     0.000 A 
ATOM      6  C6  BNZ d   1      -0.517   0.359  -1.298  0.00  0.00     0.000 A 
ENDROOT
TORSDOF 0
ENDMDL
