MODEL 1
REMARK minimizedAffinity -2.78973341
REMARK minimizedRMSD -1
REMARK  0 active torsions:
REMARK  status: ('A' for Active; 'I' for Inactive)
ROOT
ATOM      1  C1  BNZ d   1       1.658   2.248   2.011  0.00  0.00     0.000 A 
ATOM      2  C2  BNZ d   1       0.719   1.274   1.794  0.00  0.00     0.000 A 
ATOM      3  C3  BNZ d   1       0.645   0.628   0.592  0.00  0.00     0.000 A 
ATOM      4  C4  BNZ d   1       1.482   0.983  -0.404  0.00  0.00     0.000 A 
ATOM      5  C5  BNZ d   1       2.428   1.969  -0.204  0.00  0.00     0.000 A 
ATOM      6  C6  BNZ d   1       2.525   2.590   1.020  0.00  0.00     0.000 A 
ENDROOT
TORSDOF 0
ENDMDL
