MODEL 1
REMARK minimizedAffinity -2.61500168
REMARK minimizedRMSD -1
REMARK  0 active torsions:
REMARK  status: ('A' for Active; 'I' for Inactive)
ROOT
ATOM      1  C1  BNZ d   1       2.054   0.274   0.080  0.00  0.00     0.000 A 
ATOM      2  C2  BNZ d   1       3.013   1.214   0.346  0.00  0.00     0.000 A 
ATOM      3  C3  BNZ d   1       2.708   2.344   1.052  0.00  0.00     0.000 A 
ATOM      4  C4  BNZ d   1       1.438   2.551   1.456  0.00  0.00     0.000 A 
ATOM      5  C5  BNZ d   1       0.458   1.616   1.188  0.00  0.00     0.000 A 
ATOM      6  C6  BNZ d   1       0.777   0.462   0.510  0.00  0.00     0.000 A 
ENDROOT
TORSDOF 0
ENDMDL
