MODEL 1
REMARK minimizedAffinity -3.78844213
REMARK minimizedRMSD -1
REMARK  0 active torsions:
REMARK  status: ('A' for Active; 'I' for Inactive)
ROOT
ATOM      1  C1  BNZ d   1       1.872   1.133   1.465  0.00  0.00     0.000 A 
ATOM      2  C2  BNZ d   1       2.571   0.970   0.299  0.00  0.00     0.000 A 
ATOM      3  C3  BNZ d   1       3.358   1.974  -0.192  0.00  0.00     0.000 A 
ATOM      4  C4  BNZ d   1       3.414   3.152   0.461  0.00  0.00     0.000 A 
ATOM      5  C5  BNZ d   1       2.708   3.336   1.633  0.00  0.00     0.000 A 
ATOM      6  C6  BNZ d   1       1.947   2.309   2.146  0.00  0.00     0.000 A 
ENDROOT
TORSDOF 0
ENDMDL
