MODEL 1
REMARK minimizedAffinity 2.6567657
REMARK minimizedRMSD -1
REMARK  0 active torsions:
REMARK  status: ('A' for Active; 'I' for Inactive)
ROOT
ATOM      1  C1  DEN d   1      -1.571   5.868   2.253  0.00  0.00     0.130 A 
ATOM      2  C2  DEN d   1      -2.752   5.876   1.395  0.00  0.00    -0.031 A 
ATOM      3  C3  DEN d   1      -3.946   5.927   2.263  0.00  0.00     0.027 A 
ATOM      4  C4  DEN d   1      -4.079   5.999   4.837  0.00  0.00     0.027 A 
ATOM      5  C5  DEN d   1      -3.340   5.999   6.000  0.00  0.00    -0.003 A 
ATOM      6  C6  DEN d   1      -1.973   5.921   5.996  0.00  0.00     0.001 A 
ATOM      7  C7  DEN d   1      -1.298   5.886   4.804  0.00  0.00     0.017 A 
ATOM      8  C8  DEN d   1      -2.036   5.878   3.628  0.00  0.00    -0.094 A 
ATOM      9  C9  DEN d   1      -3.418   5.970   3.653  0.00  0.00    -0.072 A 
ENDROOT
TORSDOF 0
ENDMDL
