MODEL 1
REMARK minimizedAffinity 1.03598547
REMARK minimizedRMSD -1
REMARK  0 active torsions:
REMARK  status: ('A' for Active; 'I' for Inactive)
ROOT
ATOM      1  C1  DEN d   1       1.780   1.089  -3.825  0.00  0.00     0.130 A 
ATOM      2  C2  DEN d   1       1.319   2.295  -3.142  0.00  0.00    -0.031 A 
ATOM      3  C3  DEN d   1       1.013   1.938  -1.742  0.00  0.00     0.027 A 
ATOM      4  C4  DEN d   1       1.211  -0.351  -0.571  0.00  0.00     0.027 A 
ATOM      5  C5  DEN d   1       1.546  -1.676  -0.745  0.00  0.00    -0.003 A 
ATOM      6  C6  DEN d   1       1.946  -2.175  -1.956  0.00  0.00     0.001 A 
ATOM      7  C7  DEN d   1       2.065  -1.334  -3.031  0.00  0.00     0.017 A 
ATOM      8  C8  DEN d   1       1.722   0.002  -2.865  0.00  0.00    -0.094 A 
ATOM      9  C9  DEN d   1       1.332   0.489  -1.629  0.00  0.00    -0.072 A 
ENDROOT
TORSDOF 0
ENDMDL
