MODEL 1
REMARK minimizedAffinity -1.80115426
REMARK minimizedRMSD -1
REMARK  0 active torsions:
REMARK  status: ('A' for Active; 'I' for Inactive)
ROOT
ATOM      1  C1  DEN d   1       1.423   0.862  -3.932  0.00  0.00     0.130 A 
ATOM      2  C2  DEN d   1       1.281   1.613  -2.687  0.00  0.00    -0.031 A 
ATOM      3  C3  DEN d   1       1.164   0.643  -1.580  0.00  0.00     0.027 A 
ATOM      4  C4  DEN d   1       1.193  -1.934  -1.670  0.00  0.00     0.027 A 
ATOM      5  C5  DEN d   1       1.280  -3.027  -2.504  0.00  0.00    -0.003 A 
ATOM      6  C6  DEN d   1       1.386  -2.902  -3.864  0.00  0.00     0.001 A 
ATOM      7  C7  DEN d   1       1.453  -1.655  -4.427  0.00  0.00     0.017 A 
ATOM      8  C8  DEN d   1       1.358  -0.548  -3.594  0.00  0.00    -0.094 A 
ATOM      9  C9  DEN d   1       1.264  -0.696  -2.221  0.00  0.00    -0.072 A 
ENDROOT
TORSDOF 0
ENDMDL
