MODEL 1
REMARK minimizedAffinity 6.32862806
REMARK minimizedRMSD -1
REMARK  0 active torsions:
REMARK  status: ('A' for Active; 'I' for Inactive)
ROOT
ATOM      1  C1  DEN d   1       3.094   2.910  -5.960  0.00  0.00     0.130 A 
ATOM      2  C2  DEN d   1       4.359   2.181  -5.998  0.00  0.00    -0.031 A 
ATOM      3  C3  DEN d   1       4.475   1.402  -4.749  0.00  0.00     0.027 A 
ATOM      4  C4  DEN d   1       2.824   1.250  -2.773  0.00  0.00     0.027 A 
ATOM      5  C5  DEN d   1       1.619   1.698  -2.280  0.00  0.00    -0.003 A 
ATOM      6  C6  DEN d   1       0.843   2.601  -2.959  0.00  0.00     0.001 A 
ATOM      7  C7  DEN d   1       1.243   3.049  -4.190  0.00  0.00     0.017 A 
ATOM      8  C8  DEN d   1       2.460   2.608  -4.690  0.00  0.00    -0.094 A 
ATOM      9  C9  DEN d   1       3.224   1.686  -3.994  0.00  0.00    -0.072 A 
ENDROOT
TORSDOF 0
ENDMDL
