MODEL 1
REMARK minimizedAffinity 5.97763348
REMARK minimizedRMSD -1
REMARK  0 active torsions:
REMARK  status: ('A' for Active; 'I' for Inactive)
ROOT
ATOM      1  C1  DEN d   1       2.574   0.140  -2.677  0.00  0.00     0.130 A 
ATOM      2  C2  DEN d   1       1.349   0.130  -1.881  0.00  0.00    -0.031 A 
ATOM      3  C3  DEN d   1       0.662   1.421  -2.084  0.00  0.00     0.027 A 
ATOM      4  C4  DEN d   1       1.368   3.422  -3.549  0.00  0.00     0.027 A 
ATOM      5  C5  DEN d   1       2.338   3.903  -4.402  0.00  0.00    -0.003 A 
ATOM      6  C6  DEN d   1       3.461   3.182  -4.710  0.00  0.00     0.001 A 
ATOM      7  C7  DEN d   1       3.621   1.922  -4.197  0.00  0.00     0.017 A 
ATOM      8  C8  DEN d   1       2.652   1.434  -3.330  0.00  0.00    -0.094 A 
ATOM      9  C9  DEN d   1       1.517   2.173  -3.041  0.00  0.00    -0.072 A 
ENDROOT
TORSDOF 0
ENDMDL
