MODEL 1
REMARK minimizedAffinity 3.49850655
REMARK minimizedRMSD -1
REMARK  0 active torsions:
REMARK  status: ('A' for Active; 'I' for Inactive)
ROOT
ATOM      1  C1  DEN d   1      -4.649   4.852   2.259  0.00  0.00     0.130 A 
ATOM      2  C2  DEN d   1      -3.552   5.291   1.401  0.00  0.00    -0.031 A 
ATOM      3  C3  DEN d   1      -2.479   5.820   2.266  0.00  0.00     0.027 A 
ATOM      4  C4  DEN d   1      -2.409   5.999   4.839  0.00  0.00     0.027 A 
ATOM      5  C5  DEN d   1      -3.112   5.766   6.000  0.00  0.00    -0.003 A 
ATOM      6  C6  DEN d   1      -4.380   5.249   5.994  0.00  0.00     0.001 A 
ATOM      7  C7  DEN d   1      -4.967   4.904   4.805  0.00  0.00     0.017 A 
ATOM      8  C8  DEN d   1      -4.267   5.143   3.629  0.00  0.00    -0.094 A 
ATOM      9  C9  DEN d   1      -2.981   5.655   3.657  0.00  0.00    -0.072 A 
ENDROOT
TORSDOF 0
ENDMDL
