MODEL 1
REMARK minimizedAffinity 0.962293983
REMARK minimizedRMSD -1
REMARK  0 active torsions:
REMARK  status: ('A' for Active; 'I' for Inactive)
ROOT
ATOM      1  C1  DEN d   1       1.319   0.307  -0.282  0.00  0.00     0.130 A 
ATOM      2  C2  DEN d   1       1.562  -1.017  -0.848  0.00  0.00    -0.031 A 
ATOM      3  C3  DEN d   1       1.919  -0.846  -2.271  0.00  0.00     0.027 A 
ATOM      4  C4  DEN d   1       2.121   1.328  -3.643  0.00  0.00     0.027 A 
ATOM      5  C5  DEN d   1       1.998   2.699  -3.599  0.00  0.00    -0.003 A 
ATOM      6  C6  DEN d   1       1.610   3.361  -2.464  0.00  0.00     0.001 A 
ATOM      7  C7  DEN d   1       1.375   2.656  -1.314  0.00  0.00     0.017 A 
ATOM      8  C8  DEN d   1       1.490   1.272  -1.353  0.00  0.00    -0.094 A 
ATOM      9  C9  DEN d   1       1.895   0.623  -2.506  0.00  0.00    -0.072 A 
ENDROOT
TORSDOF 0
ENDMDL
