MODEL 1
REMARK minimizedAffinity 4.39760971
REMARK minimizedRMSD -1
REMARK  0 active torsions:
REMARK  status: ('A' for Active; 'I' for Inactive)
ROOT
ATOM      1  C1  DEN d   1       1.811   0.349  -1.474  0.00  0.00     0.130 A 
ATOM      2  C2  DEN d   1       1.489  -0.893  -2.171  0.00  0.00    -0.031 A 
ATOM      3  C3  DEN d   1       1.304  -0.578  -3.602  0.00  0.00     0.027 A 
ATOM      4  C4  DEN d   1       1.490   1.698  -4.800  0.00  0.00     0.027 A 
ATOM      5  C5  DEN d   1       1.732   3.043  -4.624  0.00  0.00    -0.003 A 
ATOM      6  C6  DEN d   1       1.981   3.585  -3.392  0.00  0.00     0.001 A 
ATOM      7  C7  DEN d   1       2.039   2.771  -2.291  0.00  0.00     0.017 A 
ATOM      8  C8  DEN d   1       1.789   1.415  -2.460  0.00  0.00    -0.094 A 
ATOM      9  C9  DEN d   1       1.551   0.885  -3.716  0.00  0.00    -0.072 A 
ENDROOT
TORSDOF 0
ENDMDL
