MODEL 1
REMARK minimizedAffinity 1.7026422
REMARK minimizedRMSD -1
REMARK  0 active torsions:
REMARK  status: ('A' for Active; 'I' for Inactive)
ROOT
ATOM      1  C1  DEN d   1       5.940  -4.485   5.996  0.00  0.00     0.130 A 
ATOM      2  C2  DEN d   1       4.864  -5.472   5.993  0.00  0.00    -0.031 A 
ATOM      3  C3  DEN d   1       3.643  -4.814   5.486  0.00  0.00     0.027 A 
ATOM      4  C4  DEN d   1       3.318  -2.377   4.705  0.00  0.00     0.027 A 
ATOM      5  C5  DEN d   1       3.940  -1.160   4.536  0.00  0.00    -0.003 A 
ATOM      6  C6  DEN d   1       5.253  -0.959   4.870  0.00  0.00     0.001 A 
ATOM      7  C7  DEN d   1       5.999  -2.003   5.350  0.00  0.00     0.017 A 
ATOM      8  C8  DEN d   1       5.377  -3.231   5.530  0.00  0.00    -0.094 A 
ATOM      9  C9  DEN d   1       4.052  -3.418   5.175  0.00  0.00    -0.072 A 
ENDROOT
TORSDOF 0
ENDMDL
