MODEL 1
REMARK minimizedAffinity -0.584750652
REMARK minimizedRMSD -1
REMARK  0 active torsions:
REMARK  status: ('A' for Active; 'I' for Inactive)
ROOT
ATOM      1  C1  DEN d   1      -3.887   5.898   1.866  0.00  0.00     0.130 A 
ATOM      2  C2  DEN d   1      -5.337   5.823   1.703  0.00  0.00    -0.031 A 
ATOM      3  C3  DEN d   1      -5.947   5.824   3.048  0.00  0.00     0.027 A 
ATOM      4  C4  DEN d   1      -4.796   5.937   5.353  0.00  0.00     0.027 A 
ATOM      5  C5  DEN d   1      -3.581   6.000   5.999  0.00  0.00    -0.003 A 
ATOM      6  C6  DEN d   1      -2.392   5.999   5.320  0.00  0.00     0.001 A 
ATOM      7  C7  DEN d   1      -2.393   5.979   3.950  0.00  0.00     0.017 A 
ATOM      8  C8  DEN d   1      -3.613   5.908   3.292  0.00  0.00    -0.094 A 
ATOM      9  C9  DEN d   1      -4.805   5.923   3.996  0.00  0.00    -0.072 A 
ENDROOT
TORSDOF 0
ENDMDL
