MODEL 1
REMARK minimizedAffinity 2.61373496
REMARK minimizedRMSD -1
REMARK  0 active torsions:
REMARK  status: ('A' for Active; 'I' for Inactive)
ROOT
ATOM      1  C1  DEN d   1       3.818  -1.395   4.920  0.00  0.00     0.130 A 
ATOM      2  C2  DEN d   1       5.112  -0.812   5.266  0.00  0.00    -0.031 A 
ATOM      3  C3  DEN d   1       5.988  -1.898   5.749  0.00  0.00     0.027 A 
ATOM      4  C4  DEN d   1       5.471  -4.413   5.989  0.00  0.00     0.027 A 
ATOM      5  C5  DEN d   1       4.503  -5.381   5.832  0.00  0.00    -0.003 A 
ATOM      6  C6  DEN d   1       3.239  -5.084   5.395  0.00  0.00     0.001 A 
ATOM      7  C7  DEN d   1       2.923  -3.795   5.058  0.00  0.00     0.017 A 
ATOM      8  C8  DEN d   1       3.891  -2.813   5.221  0.00  0.00    -0.094 A 
ATOM      9  C9  DEN d   1       5.167  -3.135   5.652  0.00  0.00    -0.072 A 
ENDROOT
TORSDOF 0
ENDMDL
