MODEL 1
REMARK minimizedAffinity 4.62565613
REMARK minimizedRMSD -1
REMARK  0 active torsions:
REMARK  status: ('A' for Active; 'I' for Inactive)
ROOT
ATOM      1  C1  DEN d   1      -2.819   5.975   5.259  0.00  0.00     0.130 A 
ATOM      2  C2  DEN d   1      -4.078   6.000   6.000  0.00  0.00    -0.031 A 
ATOM      3  C3  DEN d   1      -5.182   5.853   5.030  0.00  0.00     0.027 A 
ATOM      4  C4  DEN d   1      -5.065   5.586   2.467  0.00  0.00     0.027 A 
ATOM      5  C5  DEN d   1      -4.218   5.519   1.383  0.00  0.00    -0.003 A 
ATOM      6  C6  DEN d   1      -2.859   5.633   1.510  0.00  0.00     0.001 A 
ATOM      7  C7  DEN d   1      -2.303   5.774   2.754  0.00  0.00     0.017 A 
ATOM      8  C8  DEN d   1      -3.151   5.850   3.851  0.00  0.00    -0.094 A 
ATOM      9  C9  DEN d   1      -4.521   5.721   3.703  0.00  0.00    -0.072 A 
ENDROOT
TORSDOF 0
ENDMDL
