MODEL 1
REMARK minimizedAffinity 0.36085543
REMARK minimizedRMSD -1
REMARK  0 active torsions:
REMARK  status: ('A' for Active; 'I' for Inactive)
ROOT
ATOM      1  C   UNL d   1       1.356  -0.825   2.507  0.00  0.00     0.020 A 
ATOM      2  C1  UNL d   1       2.174  -0.076   1.662  0.00  0.00     0.020 A 
ATOM      3  C2  UNL d   1       1.666   0.423   0.461  0.00  0.00     0.034 A 
ATOM      4  C3  UNL d   1       0.337   0.174   0.101  0.00  0.00     0.017 A 
ATOM      5  C4  UNL d   1      -0.484  -0.577   0.950  0.00  0.00     0.017 A 
ATOM      6  C5  UNL d   1       0.030  -1.075   2.151  0.00  0.00     0.034 A 
ATOM      7 Cl   UNL d   1      -2.134  -0.926   0.574  0.00  0.00    -0.070 Cl
ATOM      8 Cl1  UNL d   1      -0.225   0.823  -1.399  0.00  0.00    -0.070 Cl
ENDROOT
TORSDOF 0
ENDMDL
