MODEL 1
REMARK minimizedAffinity -4.30750608
REMARK minimizedRMSD -1
REMARK  0 active torsions:
REMARK  status: ('A' for Active; 'I' for Inactive)
ROOT
ATOM      1  C   UNL d   1       0.521  -0.776   3.027  0.00  0.00     0.020 A 
ATOM      2  C1  UNL d   1      -0.638  -0.108   2.638  0.00  0.00     0.020 A 
ATOM      3  C2  UNL d   1      -0.895   0.115   1.284  0.00  0.00     0.034 A 
ATOM      4  C3  UNL d   1       0.010  -0.331   0.313  0.00  0.00     0.017 A 
ATOM      5  C4  UNL d   1       1.174  -1.002   0.705  0.00  0.00     0.017 A 
ATOM      6  C5  UNL d   1       1.425  -1.223   2.062  0.00  0.00     0.034 A 
ATOM      7 Cl   UNL d   1       2.337  -1.582  -0.434  0.00  0.00    -0.070 Cl
ATOM      8 Cl1  UNL d   1      -0.371  -0.021  -1.343  0.00  0.00    -0.070 Cl
ENDROOT
TORSDOF 0
ENDMDL
