MODEL 1
REMARK minimizedAffinity -0.625081778
REMARK minimizedRMSD -1
REMARK  0 active torsions:
REMARK  status: ('A' for Active; 'I' for Inactive)
ROOT
ATOM      1  C   UNL d   1      -0.011   0.448   0.142  0.00  0.00     0.020 A 
ATOM      2  C1  UNL d   1      -1.179  -0.314   0.144  0.00  0.00     0.020 A 
ATOM      3  C2  UNL d   1      -1.371  -1.293   1.121  0.00  0.00     0.034 A 
ATOM      4  C3  UNL d   1      -0.395  -1.514   2.099  0.00  0.00     0.017 A 
ATOM      5  C4  UNL d   1       0.777  -0.749   2.096  0.00  0.00     0.017 A 
ATOM      6  C5  UNL d   1       0.965   0.231   1.116  0.00  0.00     0.034 A 
ATOM      7 Cl   UNL d   1       2.027  -0.963   3.270  0.00  0.00    -0.070 Cl
ATOM      8 Cl1  UNL d   1      -0.700  -2.741   3.276  0.00  0.00    -0.070 Cl
ENDROOT
TORSDOF 0
ENDMDL
