MODEL 1
REMARK minimizedAffinity -2.75196385
REMARK minimizedRMSD -1
REMARK  0 active torsions:
REMARK  status: ('A' for Active; 'I' for Inactive)
ROOT
ATOM      1  C   UNL d   1       0.127  -1.322   2.192  0.00  0.00     0.020 A 
ATOM      2  C1  UNL d   1      -0.913  -0.394   2.184  0.00  0.00     0.020 A 
ATOM      3  C2  UNL d   1      -1.251   0.266   1.000  0.00  0.00     0.034 A 
ATOM      4  C3  UNL d   1      -0.548  -0.003  -0.180  0.00  0.00     0.017 A 
ATOM      5  C4  UNL d   1       0.496  -0.935  -0.171  0.00  0.00     0.017 A 
ATOM      6  C5  UNL d   1       0.830  -1.592   1.017  0.00  0.00     0.034 A 
ATOM      7 Cl   UNL d   1       1.409  -1.318  -1.587  0.00  0.00    -0.070 Cl
ATOM      8 Cl1  UNL d   1      -1.020   0.849  -1.608  0.00  0.00    -0.070 Cl
ENDROOT
TORSDOF 0
ENDMDL
