MODEL 1
REMARK minimizedAffinity -3.36547756
REMARK minimizedRMSD -1
REMARK  0 active torsions:
REMARK  status: ('A' for Active; 'I' for Inactive)
ROOT
ATOM      1  C   UNL d   1      -0.112  -0.167   2.625  0.00  0.00     0.020 A 
ATOM      2  C1  UNL d   1      -1.222   0.184   1.859  0.00  0.00     0.020 A 
ATOM      3  C2  UNL d   1      -1.198   0.009   0.473  0.00  0.00     0.034 A 
ATOM      4  C3  UNL d   1      -0.061  -0.520  -0.149  0.00  0.00     0.017 A 
ATOM      5  C4  UNL d   1       1.052  -0.873   0.621  0.00  0.00     0.017 A 
ATOM      6  C5  UNL d   1       1.023  -0.695   2.008  0.00  0.00     0.034 A 
ATOM      7 Cl   UNL d   1       2.491  -1.532  -0.075  0.00  0.00    -0.070 Cl
ATOM      8 Cl1  UNL d   1      -0.101  -0.711  -1.866  0.00  0.00    -0.070 Cl
ENDROOT
TORSDOF 0
ENDMDL
