MODEL 1
REMARK minimizedAffinity -4.72618437
REMARK minimizedRMSD -1
REMARK  1 active torsions:
REMARK  status: ('A' for Active; 'I' for Inactive)
REMARK    1  A    between atoms: C1_2  and  C2_3 
ROOT
ATOM      1  C2  UNL d   1      -0.048   0.376   0.153  0.00  0.00    -0.073 A 
ATOM      2  C3  UNL d   1      -0.356  -0.769   0.896  0.00  0.00    -0.002 A 
ATOM      3  C4  UNL d   1      -1.424  -1.586   0.522  0.00  0.00     0.004 A 
ATOM      4  C5  UNL d   1      -2.190  -1.270  -0.601  0.00  0.00    -0.004 A 
ATOM      5  C6  UNL d   1      -1.890  -0.136  -1.363  0.00  0.00    -0.075 A 
ATOM      6  C7  UNL d   1      -2.704   0.219  -2.572  0.00  0.00     0.076 C 
ATOM      7  C8  UNL d   1      -0.817   0.680  -0.979  0.00  0.00     0.001 A 
ENDROOT
BRANCH   1   8
ATOM      8  C1  UNL d   1       1.108   1.257   0.550  0.00  0.00     0.053 C 
ATOM      9  C   UNL d   1       2.321   0.447   0.980  0.00  0.00     0.018 C 
ENDBRANCH   1   8
TORSDOF 1
ENDMDL
