MODEL 1
REMARK minimizedAffinity -4.21582127
REMARK minimizedRMSD -1
REMARK  1 active torsions:
REMARK  status: ('A' for Active; 'I' for Inactive)
REMARK    1  A    between atoms: C1_2  and  C2_3 
ROOT
ATOM      1  C2  UNL d   1       0.723   0.104   0.286  0.00  0.00    -0.073 A 
ATOM      2  C3  UNL d   1       1.978   0.707   0.431  0.00  0.00    -0.002 A 
ATOM      3  C4  UNL d   1       3.022   0.021   1.052  0.00  0.00     0.004 A 
ATOM      4  C5  UNL d   1       2.826  -1.275   1.527  0.00  0.00    -0.004 A 
ATOM      5  C6  UNL d   1       1.582  -1.899   1.381  0.00  0.00    -0.075 A 
ATOM      6  C7  UNL d   1       1.354  -3.293   1.890  0.00  0.00     0.076 C 
ATOM      7  C8  UNL d   1       0.538  -1.203   0.759  0.00  0.00     0.001 A 
ENDROOT
BRANCH   1   8
ATOM      8  C1  UNL d   1      -0.406   0.839  -0.389  0.00  0.00     0.053 C 
ATOM      9  C   UNL d   1      -1.697   0.036  -0.377  0.00  0.00     0.018 C 
ENDBRANCH   1   8
TORSDOF 1
ENDMDL
