MODEL 1
REMARK minimizedAffinity -5.52985859
REMARK minimizedRMSD -1
REMARK  1 active torsions:
REMARK  status: ('A' for Active; 'I' for Inactive)
REMARK    1  A    between atoms: C1_2  and  C2_3 
ROOT
ATOM      1  C2  UNL d   1       1.052  -0.117   0.253  0.00  0.00    -0.073 A 
ATOM      2  C3  UNL d   1      -0.017  -1.020   0.241  0.00  0.00    -0.002 A 
ATOM      3  C4  UNL d   1      -1.332  -0.557   0.288  0.00  0.00     0.004 A 
ATOM      4  C5  UNL d   1      -1.592   0.813   0.341  0.00  0.00    -0.004 A 
ATOM      5  C6  UNL d   1      -0.538   1.731   0.342  0.00  0.00    -0.075 A 
ATOM      6  C7  UNL d   1      -0.801   3.208   0.401  0.00  0.00     0.076 C 
ATOM      7  C8  UNL d   1       0.780   1.258   0.298  0.00  0.00     0.001 A 
ENDROOT
BRANCH   1   8
ATOM      8  C1  UNL d   1       2.474  -0.613   0.196  0.00  0.00     0.053 C 
ATOM      9  C   UNL d   1       3.414   0.257   1.016  0.00  0.00     0.018 C 
ENDBRANCH   1   8
TORSDOF 1
ENDMDL
