MODEL 1
REMARK minimizedAffinity -4.98729134
REMARK minimizedRMSD -1
REMARK  1 active torsions:
REMARK  status: ('A' for Active; 'I' for Inactive)
REMARK    1  A    between atoms: C1_2  and  C2_3 
ROOT
ATOM      1  C2  UNL d   1       0.917  -0.734   0.273  0.00  0.00    -0.073 A 
ATOM      2  C3  UNL d   1       0.381  -1.386   1.389  0.00  0.00    -0.002 A 
ATOM      3  C4  UNL d   1      -0.999  -1.552   1.513  0.00  0.00     0.004 A 
ATOM      4  C5  UNL d   1      -1.856  -1.075   0.521  0.00  0.00    -0.004 A 
ATOM      5  C6  UNL d   1      -1.338  -0.431  -0.607  0.00  0.00    -0.075 A 
ATOM      6  C7  UNL d   1      -2.246   0.091  -1.682  0.00  0.00     0.076 C 
ATOM      7  C8  UNL d   1       0.049  -0.266  -0.723  0.00  0.00     0.001 A 
ENDROOT
BRANCH   1   8
ATOM      8  C1  UNL d   1       2.407  -0.559   0.131  0.00  0.00     0.053 C 
ATOM      9  C   UNL d   1       2.984   0.319   1.231  0.00  0.00     0.018 C 
ENDBRANCH   1   8
TORSDOF 1
ENDMDL
