MODEL 1
REMARK minimizedAffinity -1.95197999
REMARK minimizedRMSD -1
REMARK  0 active torsions:
REMARK  status: ('A' for Active; 'I' for Inactive)
ROOT
ATOM      1  C4' PXY d   1       0.495  -1.341  -0.494  0.00  0.00     0.077 C 
ATOM      2  C1' PXY d   1      -4.069   1.894   0.961  0.00  0.00     0.077 C 
ATOM      3  C1  PXY d   1      -2.871   1.052   0.568  0.00  0.00    -0.082 A 
ATOM      4  C2  PXY d   1      -2.716  -0.152   1.095  0.00  0.00     0.003 A 
ATOM      5  C3  PXY d   1      -1.622  -0.913   0.775  0.00  0.00     0.003 A 
ATOM      6  C4  PXY d   1      -0.704  -0.460  -0.134  0.00  0.00    -0.082 A 
ATOM      7  C5  PXY d   1      -0.860   0.763  -0.684  0.00  0.00     0.003 A 
ATOM      8  C6  PXY d   1      -1.956   1.537  -0.315  0.00  0.00     0.003 A 
ENDROOT
TORSDOF 0
ENDMDL
