MODEL 1
REMARK minimizedAffinity -3.0238893
REMARK minimizedRMSD -1
REMARK  0 active torsions:
REMARK  status: ('A' for Active; 'I' for Inactive)
ROOT
ATOM      1  C4' PXY d   1       2.761  -1.599  -0.721  0.00  0.00     0.077 C 
ATOM      2  C1' PXY d   1      -2.468   0.635   0.320  0.00  0.00     0.077 C 
ATOM      3  C1  PXY d   1      -1.091   0.060   0.050  0.00  0.00    -0.082 A 
ATOM      4  C2  PXY d   1      -0.964  -0.984  -0.753  0.00  0.00     0.003 A 
ATOM      5  C3  PXY d   1       0.270  -1.535  -0.983  0.00  0.00     0.003 A 
ATOM      6  C4  PXY d   1       1.392  -0.980  -0.427  0.00  0.00    -0.082 A 
ATOM      7  C5  PXY d   1       1.272   0.091   0.385  0.00  0.00     0.003 A 
ATOM      8  C6  PXY d   1       0.006   0.611   0.638  0.00  0.00     0.003 A 
ENDROOT
TORSDOF 0
ENDMDL
