MODEL 1
REMARK minimizedAffinity -3.28793383
REMARK minimizedRMSD -1
REMARK  0 active torsions:
REMARK  status: ('A' for Active; 'I' for Inactive)
ROOT
ATOM      1  C4' PXY d   1       3.375  -1.500   1.125  0.00  0.00     0.077 C 
ATOM      2  C1' PXY d   1      -1.615   0.750  -0.734  0.00  0.00     0.077 C 
ATOM      3  C1  PXY d   1      -0.312   0.148  -0.246  0.00  0.00    -0.082 A 
ATOM      4  C2  PXY d   1       0.571   0.914   0.375  0.00  0.00     0.003 A 
ATOM      5  C3  PXY d   1       1.768   0.393   0.795  0.00  0.00     0.003 A 
ATOM      6  C4  PXY d   1       2.042  -0.937   0.624  0.00  0.00    -0.082 A 
ATOM      7  C5  PXY d   1       1.143  -1.728   0.000  0.00  0.00     0.003 A 
ATOM      8  C6  PXY d   1      -0.049  -1.171  -0.455  0.00  0.00     0.003 A 
ENDROOT
TORSDOF 0
ENDMDL
