MODEL 1
REMARK minimizedAffinity -2.36013246
REMARK minimizedRMSD -1
REMARK  0 active torsions:
REMARK  status: ('A' for Active; 'I' for Inactive)
ROOT
ATOM      1  C4' PXY d   1       2.605  -2.203  -0.319  0.00  0.00     0.077 C 
ATOM      2  C1' PXY d   1      -2.130   1.107  -0.130  0.00  0.00     0.077 C 
ATOM      3  C1  PXY d   1      -0.895   0.229  -0.177  0.00  0.00    -0.082 A 
ATOM      4  C2  PXY d   1       0.296   0.761   0.047  0.00  0.00     0.003 A 
ATOM      5  C3  PXY d   1       1.425  -0.013  -0.024  0.00  0.00     0.003 A 
ATOM      6  C4  PXY d   1       1.331  -1.356  -0.273  0.00  0.00    -0.082 A 
ATOM      7  C5  PXY d   1       0.119  -1.908  -0.491  0.00  0.00     0.003 A 
ATOM      8  C6  PXY d   1      -1.012  -1.098  -0.456  0.00  0.00     0.003 A 
ENDROOT
TORSDOF 0
ENDMDL
