MODEL 1
REMARK minimizedAffinity -4.28236628
REMARK minimizedRMSD -1
REMARK  0 active torsions:
REMARK  status: ('A' for Active; 'I' for Inactive)
ROOT
ATOM      1  C4' PXY d   1      -1.793   0.979  -0.113  0.00  0.00     0.077 C 
ATOM      2  C1' PXY d   1       3.153  -1.888   0.739  0.00  0.00     0.077 C 
ATOM      3  C1  PXY d   1       1.853  -1.145   0.506  0.00  0.00    -0.082 A 
ATOM      4  C2  PXY d   1       1.746   0.119   0.881  0.00  0.00     0.003 A 
ATOM      5  C3  PXY d   1       0.567   0.797   0.707  0.00  0.00     0.003 A 
ATOM      6  C4  PXY d   1      -0.496   0.191   0.094  0.00  0.00    -0.082 A 
ATOM      7  C5  PXY d   1      -0.392  -1.095  -0.302  0.00  0.00     0.003 A 
ATOM      8  C6  PXY d   1       0.800  -1.778  -0.079  0.00  0.00     0.003 A 
ENDROOT
TORSDOF 0
ENDMDL
