MODEL 1
REMARK minimizedAffinity -3.45413136
REMARK minimizedRMSD -1
REMARK  0 active torsions:
REMARK  status: ('A' for Active; 'I' for Inactive)
ROOT
ATOM      1  C4' PXY d   1       2.936  -1.783   1.620  0.00  0.00     0.077 C 
ATOM      2  C1' PXY d   1      -1.072   1.230  -1.255  0.00  0.00     0.077 C 
ATOM      3  C1  PXY d   1      -0.027   0.429  -0.504  0.00  0.00    -0.082 A 
ATOM      4  C2  PXY d   1       0.710   1.021   0.422  0.00  0.00     0.003 A 
ATOM      5  C3  PXY d   1       1.681   0.319   1.088  0.00  0.00     0.003 A 
ATOM      6  C4  PXY d   1       1.863  -1.015   0.843  0.00  0.00    -0.082 A 
ATOM      7  C5  PXY d   1       1.108  -1.629  -0.092  0.00  0.00     0.003 A 
ATOM      8  C6  PXY d   1       0.155  -0.889  -0.787  0.00  0.00     0.003 A 
ENDROOT
TORSDOF 0
ENDMDL
