MODEL 1
REMARK minimizedAffinity -4.92222309
REMARK minimizedRMSD -1
REMARK  0 active torsions:
REMARK  status: ('A' for Active; 'I' for Inactive)
ROOT
ATOM      1  C4' PXY d   1       3.186  -1.419   0.857  0.00  0.00     0.077 C 
ATOM      2  C1' PXY d   1      -1.972   0.970  -0.192  0.00  0.00     0.077 C 
ATOM      3  C1  PXY d   1      -0.624   0.332   0.083  0.00  0.00    -0.082 A 
ATOM      4  C2  PXY d   1       0.325   1.038   0.674  0.00  0.00     0.003 A 
ATOM      5  C3  PXY d   1       1.560   0.486   0.902  0.00  0.00     0.003 A 
ATOM      6  C4  PXY d   1       1.808  -0.818   0.568  0.00  0.00    -0.082 A 
ATOM      7  C5  PXY d   1       0.841  -1.549  -0.026  0.00  0.00     0.003 A 
ATOM      8  C6  PXY d   1      -0.393  -0.958  -0.285  0.00  0.00     0.003 A 
ENDROOT
TORSDOF 0
ENDMDL
