MODEL 1
REMARK minimizedAffinity -4.37178326
REMARK minimizedRMSD -1
REMARK  0 active torsions:
REMARK  status: ('A' for Active; 'I' for Inactive)
ROOT
ATOM      1  C4' PXY d   1      -2.438   0.741   0.061  0.00  0.00     0.077 C 
ATOM      2  C1' PXY d   1       2.990  -1.237  -0.150  0.00  0.00     0.077 C 
ATOM      3  C1  PXY d   1       1.570  -0.709  -0.087  0.00  0.00    -0.082 A 
ATOM      4  C2  PXY d   1       0.555  -1.535  -0.280  0.00  0.00     0.003 A 
ATOM      5  C3  PXY d   1      -0.734  -1.068  -0.258  0.00  0.00     0.003 A 
ATOM      6  C4  PXY d   1      -0.988   0.249   0.016  0.00  0.00    -0.082 A 
ATOM      7  C5  PXY d   1       0.041   1.097   0.225  0.00  0.00     0.003 A 
ATOM      8  C6  PXY d   1       1.344   0.611   0.158  0.00  0.00     0.003 A 
ENDROOT
TORSDOF 0
ENDMDL
