MODEL 1
REMARK minimizedAffinity -5.44405365
REMARK minimizedRMSD -1
REMARK  0 active torsions:
REMARK  status: ('A' for Active; 'I' for Inactive)
ROOT
ATOM      1  C4' PXY d   1      -2.447   0.793  -0.969  0.00  0.00     0.077 C 
ATOM      2  C1' PXY d   1       2.427  -1.333   1.299  0.00  0.00     0.077 C 
ATOM      3  C1  PXY d   1       1.156  -0.767   0.697  0.00  0.00    -0.082 A 
ATOM      4  C2  PXY d   1       0.018  -0.857   1.367  0.00  0.00     0.003 A 
ATOM      5  C3  PXY d   1      -1.146  -0.380   0.823  0.00  0.00     0.003 A 
ATOM      6  C4  PXY d   1      -1.137   0.244  -0.396  0.00  0.00    -0.082 A 
ATOM      7  C5  PXY d   1       0.021   0.350  -1.080  0.00  0.00     0.003 A 
ATOM      8  C6  PXY d   1       1.185  -0.178  -0.529  0.00  0.00     0.003 A 
ENDROOT
TORSDOF 0
ENDMDL
