MODEL 1
REMARK minimizedAffinity -5.01312208
REMARK minimizedRMSD -1
REMARK  0 active torsions:
REMARK  status: ('A' for Active; 'I' for Inactive)
ROOT
ATOM      1  C4' PXY d   1      -1.421   0.734  -0.812  0.00  0.00     0.077 C 
ATOM      2  C1' PXY d   1       3.587  -1.320   1.219  0.00  0.00     0.077 C 
ATOM      3  C1  PXY d   1       2.274  -0.790   0.677  0.00  0.00    -0.082 A 
ATOM      4  C2  PXY d   1       1.904   0.450   0.954  0.00  0.00     0.003 A 
ATOM      5  C3  PXY d   1       0.705   0.935   0.499  0.00  0.00     0.003 A 
ATOM      6  C4  PXY d   1      -0.099   0.160  -0.294  0.00  0.00    -0.082 A 
ATOM      7  C5  PXY d   1       0.276  -1.102  -0.590  0.00  0.00     0.003 A 
ATOM      8  C6  PXY d   1       1.477  -1.589  -0.084  0.00  0.00     0.003 A 
ENDROOT
TORSDOF 0
ENDMDL
