MODEL 1
REMARK minimizedAffinity -5.29567289
REMARK minimizedRMSD -1
REMARK  0 active torsions:
REMARK  status: ('A' for Active; 'I' for Inactive)
ROOT
ATOM      1  C4' PXY d   1       2.552  -1.539  -0.368  0.00  0.00     0.077 C 
ATOM      2  C1' PXY d   1      -2.636   1.009  -0.286  0.00  0.00     0.077 C 
ATOM      3  C1  PXY d   1      -1.269   0.353  -0.308  0.00  0.00    -0.082 A 
ATOM      4  C2  PXY d   1      -1.149  -0.892  -0.739  0.00  0.00     0.003 A 
ATOM      5  C3  PXY d   1       0.074  -1.512  -0.736  0.00  0.00     0.003 A 
ATOM      6  C4  PXY d   1       1.194  -0.833  -0.337  0.00  0.00    -0.082 A 
ATOM      7  C5  PXY d   1       1.081   0.442   0.094  0.00  0.00     0.003 A 
ATOM      8  C6  PXY d   1      -0.176   1.039   0.122  0.00  0.00     0.003 A 
ENDROOT
TORSDOF 0
ENDMDL
