MODEL 1
REMARK minimizedAffinity -4.30090666
REMARK minimizedRMSD -1
REMARK  0 active torsions:
REMARK  status: ('A' for Active; 'I' for Inactive)
ROOT
ATOM      1  C4' PXY d   1      -0.274  -3.024  -0.970  0.00  0.00     0.077 C 
ATOM      2  C1' PXY d   1       1.449   2.120   1.028  0.00  0.00     0.077 C 
ATOM      3  C1  PXY d   1       1.009   0.766   0.505  0.00  0.00    -0.082 A 
ATOM      4  C2  PXY d   1      -0.089   0.674  -0.228  0.00  0.00     0.003 A 
ATOM      5  C3  PXY d   1      -0.518  -0.547  -0.682  0.00  0.00     0.003 A 
ATOM      6  C4  PXY d   1       0.213  -1.677  -0.429  0.00  0.00    -0.082 A 
ATOM      7  C5  PXY d   1       1.340  -1.589   0.309  0.00  0.00     0.003 A 
ATOM      8  C6  PXY d   1       1.737  -0.346   0.795  0.00  0.00     0.003 A 
ENDROOT
TORSDOF 0
ENDMDL
