MODEL 1
REMARK minimizedAffinity -2.24727631
REMARK minimizedRMSD -1
REMARK  0 active torsions:
REMARK  status: ('A' for Active; 'I' for Inactive)
ROOT
ATOM      1  C   UNL d   1       0.127  -1.043   2.571  0.00  0.00    -0.002 A 
ATOM      2  C1  UNL d   1       1.324  -1.269   1.907  0.00  0.00     0.010 A 
ATOM      3  C2  UNL d   1       1.503  -0.827   0.595  0.00  0.00     0.041 A 
ATOM      4  C3  UNL d   1       0.450  -0.145  -0.044  0.00  0.00    -0.075 A 
ATOM      5  S   UNL d   1       0.443   0.490  -1.647  0.00  0.00     0.015 SA
ATOM      6  C4  UNL d   1      -1.149   1.077  -1.488  0.00  0.00     0.022 A 
ATOM      7  C5  UNL d   1      -1.678   0.804  -0.249  0.00  0.00     0.026 A 
ATOM      8  C6  UNL d   1      -0.765   0.096   0.604  0.00  0.00    -0.082 A 
ATOM      9  C7  UNL d   1      -0.917  -0.366   1.934  0.00  0.00     0.045 A 
ENDROOT
TORSDOF 0
ENDMDL
