MODEL 1
REMARK minimizedAffinity 2.24730325
REMARK minimizedRMSD -1
REMARK  0 active torsions:
REMARK  status: ('A' for Active; 'I' for Inactive)
ROOT
ATOM      1  C   UNL d   1      -0.249   0.071  -1.864  0.00  0.00    -0.002 A 
ATOM      2  C1  UNL d   1      -0.904   0.682  -0.805  0.00  0.00     0.010 A 
ATOM      3  C2  UNL d   1      -0.405   0.578   0.495  0.00  0.00     0.041 A 
ATOM      4  C3  UNL d   1       0.778  -0.156   0.714  0.00  0.00    -0.075 A 
ATOM      5  S   UNL d   1       1.575  -0.417   2.220  0.00  0.00     0.015 SA
ATOM      6  C4  UNL d   1       2.806  -1.345   1.492  0.00  0.00     0.022 A 
ATOM      7  C5  UNL d   1       2.628  -1.463   0.134  0.00  0.00     0.026 A 
ATOM      8  C6  UNL d   1       1.457  -0.779  -0.337  0.00  0.00    -0.082 A 
ATOM      9  C7  UNL d   1       0.924  -0.656  -1.643  0.00  0.00     0.045 A 
ENDROOT
TORSDOF 0
ENDMDL
