MODEL 1
REMARK minimizedAffinity 1.40280712
REMARK minimizedRMSD -1
REMARK  0 active torsions:
REMARK  status: ('A' for Active; 'I' for Inactive)
ROOT
ATOM      1  C   UNL d   1       2.145  -0.332   2.209  0.00  0.00    -0.002 A 
ATOM      2  C1  UNL d   1       1.164  -0.991   2.937  0.00  0.00     0.010 A 
ATOM      3  C2  UNL d   1      -0.127  -1.132   2.424  0.00  0.00     0.041 A 
ATOM      4  C3  UNL d   1      -0.418  -0.595   1.154  0.00  0.00    -0.075 A 
ATOM      5  S   UNL d   1      -1.928  -0.648   0.325  0.00  0.00     0.015 SA
ATOM      6  C4  UNL d   1      -1.307   0.202  -1.015  0.00  0.00     0.022 A 
ATOM      7  C5  UNL d   1       0.019   0.526  -0.851  0.00  0.00     0.026 A 
ATOM      8  C6  UNL d   1       0.553   0.072   0.402  0.00  0.00    -0.082 A 
ATOM      9  C7  UNL d   1       1.853   0.199   0.950  0.00  0.00     0.045 A 
ENDROOT
TORSDOF 0
ENDMDL
