MODEL 1
REMARK minimizedAffinity -2.48961449
REMARK minimizedRMSD -1
REMARK  0 active torsions:
REMARK  status: ('A' for Active; 'I' for Inactive)
ROOT
ATOM      1  C   UNL d   1      -0.523  -0.657   2.488  0.00  0.00    -0.002 A 
ATOM      2  C1  UNL d   1       0.828  -0.818   2.216  0.00  0.00     0.010 A 
ATOM      3  C2  UNL d   1       1.309  -0.694   0.911  0.00  0.00     0.041 A 
ATOM      4  C3  UNL d   1       0.401  -0.401  -0.125  0.00  0.00    -0.075 A 
ATOM      5  S   UNL d   1       0.763  -0.202  -1.799  0.00  0.00     0.015 SA
ATOM      6  C4  UNL d   1      -0.867   0.102  -2.192  0.00  0.00     0.022 A 
ATOM      7  C5  UNL d   1      -1.681   0.057  -1.086  0.00  0.00     0.026 A 
ATOM      8  C6  UNL d   1      -0.964  -0.233   0.124  0.00  0.00    -0.082 A 
ATOM      9  C7  UNL d   1      -1.421  -0.366   1.457  0.00  0.00     0.045 A 
ENDROOT
TORSDOF 0
ENDMDL
