MODEL 1
REMARK minimizedAffinity -1.05480349
REMARK minimizedRMSD -1
REMARK  0 active torsions:
REMARK  status: ('A' for Active; 'I' for Inactive)
ROOT
ATOM      1  C   UNL d   1      -0.111   0.987  -0.884  0.00  0.00    -0.002 A 
ATOM      2  C1  UNL d   1      -1.339   0.359  -0.730  0.00  0.00     0.010 A 
ATOM      3  C2  UNL d   1      -1.551  -0.537   0.320  0.00  0.00     0.041 A 
ATOM      4  C3  UNL d   1      -0.499  -0.792   1.222  0.00  0.00    -0.075 A 
ATOM      5  S   UNL d   1      -0.530  -1.850   2.582  0.00  0.00     0.015 SA
ATOM      6  C4  UNL d   1       1.086  -1.493   2.991  0.00  0.00     0.022 A 
ATOM      7  C5  UNL d   1       1.650  -0.591   2.121  0.00  0.00     0.026 A 
ATOM      8  C6  UNL d   1       0.746  -0.171   1.087  0.00  0.00    -0.082 A 
ATOM      9  C7  UNL d   1       0.930   0.731   0.012  0.00  0.00     0.045 A 
ENDROOT
TORSDOF 0
ENDMDL
