MODEL 1
REMARK minimizedAffinity -5.44309616
REMARK minimizedRMSD -1
REMARK  0 active torsions:
REMARK  status: ('A' for Active; 'I' for Inactive)
ROOT
ATOM      1  C   UNL d   1       2.524  -2.515   1.846  0.00  0.00    -0.002 A 
ATOM      2  C1  UNL d   1       2.664  -2.308   0.481  0.00  0.00     0.010 A 
ATOM      3  C2  UNL d   1       1.755  -1.508  -0.214  0.00  0.00     0.041 A 
ATOM      4  C3  UNL d   1       0.693  -0.911   0.494  0.00  0.00    -0.075 A 
ATOM      5  S   UNL d   1      -0.540   0.109  -0.147  0.00  0.00     0.015 SA
ATOM      6  C4  UNL d   1      -1.282   0.295   1.376  0.00  0.00     0.022 A 
ATOM      7  C5  UNL d   1      -0.618  -0.397   2.361  0.00  0.00     0.026 A 
ATOM      8  C6  UNL d   1       0.531  -1.104   1.869  0.00  0.00    -0.082 A 
ATOM      9  C7  UNL d   1       1.469  -1.921   2.544  0.00  0.00     0.045 A 
ENDROOT
TORSDOF 0
ENDMDL
