MODEL 1
REMARK minimizedAffinity -2.25471735
REMARK minimizedRMSD -1
REMARK  1 active torsions:
REMARK  status: ('A' for Active; 'I' for Inactive)
REMARK    1  A    between atoms: C1_2  and  C2_3 
ROOT
ATOM      1  C2  UNL d   1       3.056   0.198   2.308  0.00  0.00    -0.077 A 
ATOM      2  C3  UNL d   1       2.304  -0.685   3.095  0.00  0.00     0.002 A 
ATOM      3  C4  UNL d   1       0.924  -0.517   3.223  0.00  0.00     0.002 A 
ATOM      4  C5  UNL d   1       0.284   0.531   2.565  0.00  0.00    -0.004 A 
ATOM      5  C6  UNL d   1       1.024   1.416   1.782  0.00  0.00     0.002 A 
ATOM      6  C7  UNL d   1       2.403   1.250   1.653  0.00  0.00     0.002 A 
ENDROOT
BRANCH   1   7
ATOM      7  C1  UNL d   1       4.537  -0.011   2.129  0.00  0.00     0.055 C 
ATOM      8  C   UNL d   1       4.985   0.375   0.727  0.00  0.00     0.019 C 
ENDBRANCH   1   7
TORSDOF 1
ENDMDL
