MODEL 1
REMARK minimizedAffinity 2.22007489
REMARK minimizedRMSD -1
REMARK  1 active torsions:
REMARK  status: ('A' for Active; 'I' for Inactive)
REMARK    1  A    between atoms: C1_2  and  C2_3 
ROOT
ATOM      1  C2  UNL d   1       5.428  -1.913   3.885  0.00  0.00    -0.077 A 
ATOM      2  C3  UNL d   1       5.851  -1.820   5.218  0.00  0.00     0.002 A 
ATOM      3  C4  UNL d   1       5.996  -2.972   5.995  0.00  0.00     0.002 A 
ATOM      4  C5  UNL d   1       5.724  -4.223   5.446  0.00  0.00    -0.004 A 
ATOM      5  C6  UNL d   1       5.300  -4.326   4.122  0.00  0.00     0.002 A 
ATOM      6  C7  UNL d   1       5.154  -3.176   3.344  0.00  0.00     0.002 A 
ENDROOT
BRANCH   1   7
ATOM      7  C1  UNL d   1       5.318  -0.677   3.031  0.00  0.00     0.055 C 
ATOM      8  C   UNL d   1       3.956  -0.588   2.358  0.00  0.00     0.019 C 
ENDBRANCH   1   7
TORSDOF 1
ENDMDL
