MODEL 1
REMARK minimizedAffinity 12.8865108
REMARK minimizedRMSD -1
REMARK  1 active torsions:
REMARK  status: ('A' for Active; 'I' for Inactive)
REMARK    1  A    between atoms: C1_2  and  C2_3 
ROOT
ATOM      1  C2  UNL d   1       3.682   3.923  -3.137  0.00  0.00    -0.077 A 
ATOM      2  C3  UNL d   1       3.731   2.534  -2.959  0.00  0.00     0.002 A 
ATOM      3  C4  UNL d   1       3.118   1.942  -1.853  0.00  0.00     0.002 A 
ATOM      4  C5  UNL d   1       2.448   2.730  -0.920  0.00  0.00    -0.004 A 
ATOM      5  C6  UNL d   1       2.395   4.113  -1.087  0.00  0.00     0.002 A 
ATOM      6  C7  UNL d   1       3.009   4.707  -2.191  0.00  0.00     0.002 A 
ENDROOT
BRANCH   1   7
ATOM      7  C1  UNL d   1       4.300   4.559  -4.355  0.00  0.00     0.055 C 
ATOM      8  C   UNL d   1       5.704   4.028  -4.604  0.00  0.00     0.019 C 
ENDBRANCH   1   7
TORSDOF 1
ENDMDL
