MODEL 1
REMARK minimizedAffinity 8.72906017
REMARK minimizedRMSD -1
REMARK  1 active torsions:
REMARK  status: ('A' for Active; 'I' for Inactive)
REMARK    1  A    between atoms: C1_2  and  C2_3 
ROOT
ATOM      1  C2  UNL d   1      -4.478  -4.083  -5.057  0.00  0.00    -0.077 A 
ATOM      2  C3  UNL d   1      -4.266  -5.430  -5.383  0.00  0.00     0.002 A 
ATOM      3  C4  UNL d   1      -3.022  -5.855  -5.854  0.00  0.00     0.002 A 
ATOM      4  C5  UNL d   1      -1.981  -4.941  -6.000  0.00  0.00    -0.004 A 
ATOM      5  C6  UNL d   1      -2.183  -3.599  -5.681  0.00  0.00     0.002 A 
ATOM      6  C7  UNL d   1      -3.426  -3.172  -5.211  0.00  0.00     0.002 A 
ENDROOT
BRANCH   1   7
ATOM      7  C1  UNL d   1      -5.804  -3.631  -4.502  0.00  0.00     0.055 C 
ATOM      8  C   UNL d   1      -5.762  -3.527  -2.984  0.00  0.00     0.019 C 
ENDBRANCH   1   7
TORSDOF 1
ENDMDL
