MODEL 1
REMARK minimizedAffinity 9.78594112
REMARK minimizedRMSD -1
REMARK  1 active torsions:
REMARK  status: ('A' for Active; 'I' for Inactive)
REMARK    1  A    between atoms: C1_2  and  C2_3 
ROOT
ATOM      1  C2  UNL d   1      -4.686  -3.681  -0.120  0.00  0.00    -0.077 A 
ATOM      2  C3  UNL d   1      -4.468  -4.847  -0.867  0.00  0.00     0.002 A 
ATOM      3  C4  UNL d   1      -3.977  -6.000  -0.251  0.00  0.00     0.002 A 
ATOM      4  C5  UNL d   1      -3.705  -5.999   1.116  0.00  0.00    -0.004 A 
ATOM      5  C6  UNL d   1      -3.917  -4.844   1.867  0.00  0.00     0.002 A 
ATOM      6  C7  UNL d   1      -4.406  -3.690   1.252  0.00  0.00     0.002 A 
ENDROOT
BRANCH   1   7
ATOM      7  C1  UNL d   1      -5.262  -2.452  -0.774  0.00  0.00     0.055 C 
ATOM      8  C   UNL d   1      -5.665  -2.729  -2.215  0.00  0.00     0.019 C 
ENDBRANCH   1   7
TORSDOF 1
ENDMDL
