MODEL 1
REMARK minimizedAffinity 2.07936788
REMARK minimizedRMSD -1
REMARK  1 active torsions:
REMARK  status: ('A' for Active; 'I' for Inactive)
REMARK    1  A    between atoms: C1_2  and  C2_3 
ROOT
ATOM      1  C2  UNL d   1       3.547   3.626  -5.349  0.00  0.00    -0.077 A 
ATOM      2  C3  UNL d   1       2.400   3.146  -5.998  0.00  0.00     0.002 A 
ATOM      3  C4  UNL d   1       1.160   3.747  -5.776  0.00  0.00     0.002 A 
ATOM      4  C5  UNL d   1       1.055   4.832  -4.909  0.00  0.00    -0.004 A 
ATOM      5  C6  UNL d   1       2.189   5.316  -4.258  0.00  0.00     0.002 A 
ATOM      6  C7  UNL d   1       3.429   4.716  -4.478  0.00  0.00     0.002 A 
ENDROOT
BRANCH   1   7
ATOM      7  C1  UNL d   1       4.894   3.011  -5.626  0.00  0.00     0.055 C 
ATOM      8  C   UNL d   1       6.000   3.740  -4.875  0.00  0.00     0.019 C 
ENDBRANCH   1   7
TORSDOF 1
ENDMDL
