MODEL 1
REMARK minimizedAffinity 14.0405397
REMARK minimizedRMSD -1
REMARK  1 active torsions:
REMARK  status: ('A' for Active; 'I' for Inactive)
REMARK    1  A    between atoms: C1_2  and  C2_3 
ROOT
ATOM      1  C2  UNL d   1      -0.334  -0.697  -5.263  0.00  0.00    -0.077 A 
ATOM      2  C3  UNL d   1      -1.496  -0.004  -5.630  0.00  0.00     0.002 A 
ATOM      3  C4  UNL d   1      -2.648  -0.702  -5.999  0.00  0.00     0.002 A 
ATOM      4  C5  UNL d   1      -2.650  -2.095  -6.000  0.00  0.00    -0.004 A 
ATOM      5  C6  UNL d   1      -1.499  -2.793  -5.638  0.00  0.00     0.002 A 
ATOM      6  C7  UNL d   1      -0.346  -2.098  -5.271  0.00  0.00     0.002 A 
ENDROOT
BRANCH   1   7
ATOM      7  C1  UNL d   1       0.894   0.053  -4.818  0.00  0.00     0.055 C 
ATOM      8  C   UNL d   1       1.617  -0.683  -3.700  0.00  0.00     0.019 C 
ENDBRANCH   1   7
TORSDOF 1
ENDMDL
