MODEL 1
REMARK minimizedAffinity 7.8915081
REMARK minimizedRMSD -1
REMARK  1 active torsions:
REMARK  status: ('A' for Active; 'I' for Inactive)
REMARK    1  A    between atoms: C1_2  and  C2_3 
ROOT
ATOM      1  C2  UNL d   1       1.942   0.354  -2.316  0.00  0.00    -0.077 A 
ATOM      2  C3  UNL d   1       0.910   0.452  -1.372  0.00  0.00     0.002 A 
ATOM      3  C4  UNL d   1       1.010   1.350  -0.307  0.00  0.00     0.002 A 
ATOM      4  C5  UNL d   1       2.138   2.158  -0.179  0.00  0.00    -0.004 A 
ATOM      5  C6  UNL d   1       3.170   2.067  -1.111  0.00  0.00     0.002 A 
ATOM      6  C7  UNL d   1       3.073   1.169  -2.176  0.00  0.00     0.002 A 
ENDROOT
BRANCH   1   7
ATOM      7  C1  UNL d   1       1.814  -0.577  -3.493  0.00  0.00     0.055 C 
ATOM      8  C   UNL d   1       2.622  -0.080  -4.683  0.00  0.00     0.019 C 
ENDBRANCH   1   7
TORSDOF 1
ENDMDL
