MODEL 1
REMARK minimizedAffinity 7.9586916
REMARK minimizedRMSD -1
REMARK  1 active torsions:
REMARK  status: ('A' for Active; 'I' for Inactive)
REMARK    1  A    between atoms: C1_2  and  C2_3 
ROOT
ATOM      1  C2  UNL d   1       1.538   0.209  -2.531  0.00  0.00    -0.077 A 
ATOM      2  C3  UNL d   1       0.435   0.709  -1.825  0.00  0.00     0.002 A 
ATOM      3  C4  UNL d   1       0.557   1.863  -1.048  0.00  0.00     0.002 A 
ATOM      4  C5  UNL d   1       1.779   2.528  -0.973  0.00  0.00    -0.004 A 
ATOM      5  C6  UNL d   1       2.883   2.037  -1.670  0.00  0.00     0.002 A 
ATOM      6  C7  UNL d   1       2.763   0.884  -2.446  0.00  0.00     0.002 A 
ENDROOT
BRANCH   1   7
ATOM      7  C1  UNL d   1       1.396  -1.007  -3.409  0.00  0.00     0.055 C 
ATOM      8  C   UNL d   1       2.472  -1.042  -4.484  0.00  0.00     0.019 C 
ENDBRANCH   1   7
TORSDOF 1
ENDMDL
