MODEL 1
REMARK minimizedAffinity 14.0610933
REMARK minimizedRMSD -1
REMARK  1 active torsions:
REMARK  status: ('A' for Active; 'I' for Inactive)
REMARK    1  A    between atoms: C1_2  and  C2_3 
ROOT
ATOM      1  C2  UNL d   1       1.495   1.307  -2.421  0.00  0.00    -0.077 A 
ATOM      2  C3  UNL d   1       0.647   0.645  -3.321  0.00  0.00     0.002 A 
ATOM      3  C4  UNL d   1       1.124  -0.423  -4.084  0.00  0.00     0.002 A 
ATOM      4  C5  UNL d   1       2.446  -0.841  -3.953  0.00  0.00    -0.004 A 
ATOM      5  C6  UNL d   1       3.297  -0.188  -3.062  0.00  0.00     0.002 A 
ATOM      6  C7  UNL d   1       2.824   0.880  -2.299  0.00  0.00     0.002 A 
ENDROOT
BRANCH   1   7
ATOM      7  C1  UNL d   1       0.970   2.426  -1.561  0.00  0.00     0.055 C 
ATOM      8  C   UNL d   1       1.526   3.772  -2.004  0.00  0.00     0.019 C 
ENDBRANCH   1   7
TORSDOF 1
ENDMDL
