MODEL 1
REMARK minimizedAffinity 3.32607245
REMARK minimizedRMSD -1
REMARK  1 active torsions:
REMARK  status: ('A' for Active; 'I' for Inactive)
REMARK    1  A    between atoms: C1_2  and  C2_3 
ROOT
ATOM      1  C2  UNL d   1       0.809   0.873  -2.068  0.00  0.00    -0.077 A 
ATOM      2  C3  UNL d   1      -0.241   1.314  -2.885  0.00  0.00     0.002 A 
ATOM      3  C4  UNL d   1      -0.643   0.557  -3.988  0.00  0.00     0.002 A 
ATOM      4  C5  UNL d   1      -0.003  -0.645  -4.281  0.00  0.00    -0.004 A 
ATOM      5  C6  UNL d   1       1.044  -1.091  -3.475  0.00  0.00     0.002 A 
ATOM      6  C7  UNL d   1       1.448  -0.336  -2.373  0.00  0.00     0.002 A 
ENDROOT
BRANCH   1   7
ATOM      7  C1  UNL d   1       1.212   1.662  -0.849  0.00  0.00     0.055 C 
ATOM      8  C   UNL d   1       1.992   2.911  -1.232  0.00  0.00     0.019 C 
ENDBRANCH   1   7
TORSDOF 1
ENDMDL
