MODEL 1
REMARK minimizedAffinity 7.27531815
REMARK minimizedRMSD -1
REMARK  1 active torsions:
REMARK  status: ('A' for Active; 'I' for Inactive)
REMARK    1  A    between atoms: C1_2  and  C2_3 
ROOT
ATOM      1  C2  UNL d   1       1.807   0.995  -1.721  0.00  0.00    -0.077 A 
ATOM      2  C3  UNL d   1       2.596   0.950  -2.878  0.00  0.00     0.002 A 
ATOM      3  C4  UNL d   1       2.514  -0.140  -3.747  0.00  0.00     0.002 A 
ATOM      4  C5  UNL d   1       1.640  -1.189  -3.470  0.00  0.00    -0.004 A 
ATOM      5  C6  UNL d   1       0.853  -1.154  -2.321  0.00  0.00     0.002 A 
ATOM      6  C7  UNL d   1       0.935  -0.067  -1.450  0.00  0.00     0.002 A 
ENDROOT
BRANCH   1   7
ATOM      7  C1  UNL d   1       1.859   2.192  -0.808  0.00  0.00     0.055 C 
ATOM      8  C   UNL d   1       2.100   3.475  -1.590  0.00  0.00     0.019 C 
ENDBRANCH   1   7
TORSDOF 1
ENDMDL
