MODEL 1
REMARK minimizedAffinity 9.67804432
REMARK minimizedRMSD -1
REMARK  1 active torsions:
REMARK  status: ('A' for Active; 'I' for Inactive)
REMARK    1  A    between atoms: C1_2  and  C2_3 
ROOT
ATOM      1  C2  UNL d   1       3.385   4.320  -3.310  0.00  0.00    -0.077 A 
ATOM      2  C3  UNL d   1       2.517   4.729  -4.333  0.00  0.00     0.002 A 
ATOM      3  C4  UNL d   1       2.824   4.462  -5.668  0.00  0.00     0.002 A 
ATOM      4  C5  UNL d   1       3.996   3.781  -5.993  0.00  0.00    -0.004 A 
ATOM      5  C6  UNL d   1       4.866   3.372  -4.983  0.00  0.00     0.002 A 
ATOM      6  C7  UNL d   1       4.562   3.640  -3.648  0.00  0.00     0.002 A 
ENDROOT
BRANCH   1   7
ATOM      7  C1  UNL d   1       3.032   4.564  -1.866  0.00  0.00     0.055 C 
ATOM      8  C   UNL d   1       2.335   3.357  -1.255  0.00  0.00     0.019 C 
ENDBRANCH   1   7
TORSDOF 1
ENDMDL
