MODEL 1
REMARK minimizedAffinity 3.77032733
REMARK minimizedRMSD -1
REMARK  1 active torsions:
REMARK  status: ('A' for Active; 'I' for Inactive)
REMARK    1  A    between atoms: N_2  and  C1_3 
ROOT
ATOM      1  C1  UNL d   1      -3.136   0.015  -3.879  0.00  0.00     0.143 A 
ATOM      2  C2  UNL d   1      -3.317   0.964  -2.867  0.00  0.00    -0.057 A 
ATOM      3  C3  UNL d   1      -3.876   2.218  -3.139  0.00  0.00     0.033 A 
ATOM      4  C4  UNL d   1      -4.238   2.558  -4.439  0.00  0.00    -0.042 A 
ATOM      5  C5  UNL d   1      -4.044   1.640  -5.465  0.00  0.00     0.033 A 
ATOM      6  C6  UNL d   1      -3.491   0.386  -5.185  0.00  0.00    -0.057 A 
ENDROOT
BRANCH   1   7
ATOM      7  N   UNL d   1      -2.495  -1.212  -3.690  0.00  0.00    -0.732 N 
ATOM      8  C   UNL d   1      -1.736  -1.820  -4.761  0.00  0.00     0.284 C 
ATOM      9  H3  UNL d   1      -2.055  -1.283  -2.775  0.00  0.00     0.395 HD
ENDBRANCH   1   7
TORSDOF 1
ENDMDL
