MODEL 1
REMARK minimizedAffinity -0.584517479
REMARK minimizedRMSD -1
REMARK  1 active torsions:
REMARK  status: ('A' for Active; 'I' for Inactive)
REMARK    1  A    between atoms: N_2  and  C1_3 
ROOT
ATOM      1  C1  UNL d   1       5.221  -3.882   3.246  0.00  0.00     0.143 A 
ATOM      2  C2  UNL d   1       6.000  -2.837   3.753  0.00  0.00    -0.057 A 
ATOM      3  C3  UNL d   1       5.999  -2.527   5.118  0.00  0.00     0.033 A 
ATOM      4  C4  UNL d   1       5.194  -3.242   5.999  0.00  0.00    -0.042 A 
ATOM      5  C5  UNL d   1       4.393  -4.269   5.514  0.00  0.00     0.033 A 
ATOM      6  C6  UNL d   1       4.402  -4.577   4.150  0.00  0.00    -0.057 A 
ENDROOT
BRANCH   1   7
ATOM      7  N   UNL d   1       5.103  -4.175   1.885  0.00  0.00    -0.732 N 
ATOM      8  C   UNL d   1       3.989  -3.665   1.115  0.00  0.00     0.284 C 
ATOM      9  H3  UNL d   1       5.996  -4.135   1.400  0.00  0.00     0.395 HD
ENDBRANCH   1   7
TORSDOF 1
ENDMDL
