MODEL 1
REMARK minimizedAffinity 7.52849293
REMARK minimizedRMSD -1
REMARK  0 active torsions:
REMARK  status: ('A' for Active; 'I' for Inactive)
ROOT
ATOM      1  C   UNL d   1      -1.208  -5.005  -0.155  0.00  0.00     0.124 A 
ATOM      2  C1  UNL d   1       0.178  -4.926  -0.125  0.00  0.00     0.062 A 
ATOM      3  C2  UNL d   1       0.805  -3.893   0.565  0.00  0.00     0.162 A 
ATOM      4  C3  UNL d   1       0.047  -2.929   1.231  0.00  0.00    -0.034 A 
ATOM      5  C4  UNL d   1      -1.346  -3.015   1.196  0.00  0.00     0.162 A 
ATOM      6  C5  UNL d   1      -1.968  -4.050   0.505  0.00  0.00     0.062 A 
ATOM      7  F   UNL d   1      -3.306  -4.124   0.477  0.00  0.00    -0.097 F 
ATOM      8  F1  UNL d   1      -2.104  -2.106   1.825  0.00  0.00    -0.096 F 
ATOM      9  I   UNL d   1       0.982  -1.383   2.264  0.00  0.00    -0.060 I 
ATOM     10  F2  UNL d   1       2.145  -3.841   0.578  0.00  0.00    -0.096 F 
ATOM     11  F3  UNL d   1       0.914  -5.847  -0.762  0.00  0.00    -0.097 F 
ATOM     12  F4  UNL d   1      -1.809  -6.000  -0.820  0.00  0.00    -0.092 F 
ENDROOT
TORSDOF 0
ENDMDL
