MODEL 1
REMARK minimizedAffinity 22.3408241
REMARK minimizedRMSD -1
REMARK  0 active torsions:
REMARK  status: ('A' for Active; 'I' for Inactive)
ROOT
ATOM      1  C   UNL d   1      -2.110   4.766   1.030  0.00  0.00     0.124 A 
ATOM      2  C1  UNL d   1      -0.739   4.573   1.125  0.00  0.00     0.062 A 
ATOM      3  C2  UNL d   1      -0.204   3.291   1.032  0.00  0.00     0.162 A 
ATOM      4  C3  UNL d   1      -1.040   2.192   0.843  0.00  0.00    -0.034 A 
ATOM      5  C4  UNL d   1      -2.419   2.393   0.749  0.00  0.00     0.162 A 
ATOM      6  C5  UNL d   1      -2.948   3.676   0.843  0.00  0.00     0.062 A 
ATOM      7  F   UNL d   1      -4.273   3.860   0.751  0.00  0.00    -0.097 F 
ATOM      8  F1  UNL d   1      -3.252   1.358   0.567  0.00  0.00    -0.096 F 
ATOM      9  I   UNL d   1      -0.244   0.274   0.704  0.00  0.00    -0.060 I 
ATOM     10  F2  UNL d   1       1.125   3.135   1.127  0.00  0.00    -0.096 F 
ATOM     11  F3  UNL d   1       0.074   5.624   1.307  0.00  0.00    -0.097 F 
ATOM     12  F4  UNL d   1      -2.622   6.000   1.121  0.00  0.00    -0.092 F 
ENDROOT
TORSDOF 0
ENDMDL
