MODEL 1
REMARK minimizedAffinity 10.5904522
REMARK minimizedRMSD -1
REMARK  0 active torsions:
REMARK  status: ('A' for Active; 'I' for Inactive)
ROOT
ATOM      1  C   UNL d   1      -1.401  -4.928  -0.165  0.00  0.00     0.124 A 
ATOM      2  C1  UNL d   1      -0.019  -4.805  -0.127  0.00  0.00     0.062 A 
ATOM      3  C2  UNL d   1       0.569  -3.691   0.466  0.00  0.00     0.162 A 
ATOM      4  C3  UNL d   1      -0.225  -2.692   1.028  0.00  0.00    -0.034 A 
ATOM      5  C4  UNL d   1      -1.615  -2.822   0.986  0.00  0.00     0.162 A 
ATOM      6  C5  UNL d   1      -2.198  -3.937   0.392  0.00  0.00     0.062 A 
ATOM      7  F   UNL d   1      -3.533  -4.054   0.357  0.00  0.00    -0.097 F 
ATOM      8  F1  UNL d   1      -2.408  -1.880   1.516  0.00  0.00    -0.096 F 
ATOM      9  I   UNL d   1       0.650  -1.025   1.915  0.00  0.00    -0.060 I 
ATOM     10  F2  UNL d   1       1.907  -3.599   0.487  0.00  0.00    -0.096 F 
ATOM     11  F3  UNL d   1       0.752  -5.761  -0.665  0.00  0.00    -0.097 F 
ATOM     12  F4  UNL d   1      -1.964  -6.000  -0.737  0.00  0.00    -0.092 F 
ENDROOT
TORSDOF 0
ENDMDL
