MODEL 1
REMARK minimizedAffinity 19.5048599
REMARK minimizedRMSD -1
REMARK  0 active torsions:
REMARK  status: ('A' for Active; 'I' for Inactive)
ROOT
ATOM      1  C   UNL d   1      -4.158   3.410  -4.580  0.00  0.00     0.124 A 
ATOM      2  C1  UNL d   1      -3.684   2.107  -4.508  0.00  0.00     0.062 A 
ATOM      3  C2  UNL d   1      -3.416   1.527  -3.272  0.00  0.00     0.162 A 
ATOM      4  C3  UNL d   1      -3.622   2.249  -2.096  0.00  0.00    -0.034 A 
ATOM      5  C4  UNL d   1      -4.098   3.559  -2.177  0.00  0.00     0.162 A 
ATOM      6  C5  UNL d   1      -4.364   4.135  -3.415  0.00  0.00     0.062 A 
ATOM      7  F   UNL d   1      -4.822   5.393  -3.483  0.00  0.00    -0.097 F 
ATOM      8  F1  UNL d   1      -4.308   4.282  -1.066  0.00  0.00    -0.096 F 
ATOM      9  I   UNL d   1      -3.223   1.386  -0.245  0.00  0.00    -0.060 I 
ATOM     10  F2  UNL d   1      -2.959   0.267  -3.232  0.00  0.00    -0.096 F 
ATOM     11  F3  UNL d   1      -3.482   1.406  -5.633  0.00  0.00    -0.097 F 
ATOM     12  F4  UNL d   1      -4.413   3.966  -5.772  0.00  0.00    -0.092 F 
ENDROOT
TORSDOF 0
ENDMDL
