MODEL 1
REMARK minimizedAffinity 11.8575764
REMARK minimizedRMSD -1
REMARK  0 active torsions:
REMARK  status: ('A' for Active; 'I' for Inactive)
ROOT
ATOM      1  C   UNL d   1       2.507  -1.957   1.404  0.00  0.00     0.124 A 
ATOM      2  C1  UNL d   1       3.369  -2.928   1.894  0.00  0.00     0.062 A 
ATOM      3  C2  UNL d   1       3.245  -3.378   3.205  0.00  0.00     0.162 A 
ATOM      4  C3  UNL d   1       2.252  -2.858   4.036  0.00  0.00    -0.034 A 
ATOM      5  C4  UNL d   1       1.390  -1.881   3.537  0.00  0.00     0.162 A 
ATOM      6  C5  UNL d   1       1.518  -1.434   2.225  0.00  0.00     0.062 A 
ATOM      7  F   UNL d   1       0.684  -0.496   1.754  0.00  0.00    -0.097 F 
ATOM      8  F1  UNL d   1       0.424  -1.359   4.309  0.00  0.00    -0.096 F 
ATOM      9  I   UNL d   1       2.063  -3.528   5.997  0.00  0.00    -0.060 I 
ATOM     10  F2  UNL d   1       4.092  -4.317   3.651  0.00  0.00    -0.096 F 
ATOM     11  F3  UNL d   1       4.326  -3.434   1.102  0.00  0.00    -0.097 F 
ATOM     12  F4  UNL d   1       2.630  -1.525   0.142  0.00  0.00    -0.092 F 
ENDROOT
TORSDOF 0
ENDMDL
