MODEL 1
REMARK minimizedAffinity 19.440958
REMARK minimizedRMSD -1
REMARK  0 active torsions:
REMARK  status: ('A' for Active; 'I' for Inactive)
ROOT
ATOM      1  C   UNL d   1       2.167  -1.541   1.504  0.00  0.00     0.124 A 
ATOM      2  C1  UNL d   1       1.562  -0.763   2.481  0.00  0.00     0.062 A 
ATOM      3  C2  UNL d   1       1.380  -1.269   3.765  0.00  0.00     0.162 A 
ATOM      4  C3  UNL d   1       1.806  -2.559   4.080  0.00  0.00    -0.034 A 
ATOM      5  C4  UNL d   1       2.413  -3.336   3.092  0.00  0.00     0.162 A 
ATOM      6  C5  UNL d   1       2.592  -2.826   1.810  0.00  0.00     0.062 A 
ATOM      7  F   UNL d   1       3.177  -3.580   0.867  0.00  0.00    -0.097 F 
ATOM      8  F1  UNL d   1       2.834  -4.581   3.361  0.00  0.00    -0.096 F 
ATOM      9  I   UNL d   1       1.536  -3.319   5.999  0.00  0.00    -0.060 I 
ATOM     10  F2  UNL d   1       0.792  -0.495   4.689  0.00  0.00    -0.096 F 
ATOM     11  F3  UNL d   1       1.150   0.478   2.187  0.00  0.00    -0.097 F 
ATOM     12  F4  UNL d   1       2.340  -1.053   0.269  0.00  0.00    -0.092 F 
ENDROOT
TORSDOF 0
ENDMDL
