MODEL 1
REMARK minimizedAffinity 19.6825771
REMARK minimizedRMSD -1
REMARK  0 active torsions:
REMARK  status: ('A' for Active; 'I' for Inactive)
ROOT
ATOM      1  C   UNL d   1       2.108  -1.641   1.524  0.00  0.00     0.124 A 
ATOM      2  C1  UNL d   1       1.493  -0.851   2.486  0.00  0.00     0.062 A 
ATOM      3  C2  UNL d   1       1.265  -1.353   3.764  0.00  0.00     0.162 A 
ATOM      4  C3  UNL d   1       1.654  -2.653   4.089  0.00  0.00    -0.034 A 
ATOM      5  C4  UNL d   1       2.270  -3.442   3.116  0.00  0.00     0.162 A 
ATOM      6  C5  UNL d   1       2.495  -2.936   1.840  0.00  0.00     0.062 A 
ATOM      7  F   UNL d   1       3.089  -3.701   0.913  0.00  0.00    -0.097 F 
ATOM      8  F1  UNL d   1       2.656  -4.696   3.395  0.00  0.00    -0.096 F 
ATOM      9  I   UNL d   1       1.315  -3.408   5.999  0.00  0.00    -0.060 I 
ATOM     10  F2  UNL d   1       0.669  -0.567   4.673  0.00  0.00    -0.096 F 
ATOM     11  F3  UNL d   1       1.116   0.400   2.183  0.00  0.00    -0.097 F 
ATOM     12  F4  UNL d   1       2.324  -1.156   0.295  0.00  0.00    -0.092 F 
ENDROOT
TORSDOF 0
ENDMDL
