MODEL 1
REMARK minimizedAffinity 25.7615013
REMARK minimizedRMSD -1
REMARK  0 active torsions:
REMARK  status: ('A' for Active; 'I' for Inactive)
ROOT
ATOM      1  C   UNL d   1      -3.505   3.676  -4.675  0.00  0.00     0.124 A 
ATOM      2  C1  UNL d   1      -3.420   4.848  -3.935  0.00  0.00     0.062 A 
ATOM      3  C2  UNL d   1      -3.669   4.832  -2.566  0.00  0.00     0.162 A 
ATOM      4  C3  UNL d   1      -4.005   3.639  -1.926  0.00  0.00    -0.034 A 
ATOM      5  C4  UNL d   1      -4.089   2.464  -2.676  0.00  0.00     0.162 A 
ATOM      6  C5  UNL d   1      -3.839   2.486  -4.045  0.00  0.00     0.062 A 
ATOM      7  F   UNL d   1      -3.922   1.353  -4.757  0.00  0.00    -0.097 F 
ATOM      8  F1  UNL d   1      -4.410   1.300  -2.093  0.00  0.00    -0.096 F 
ATOM      9  I   UNL d   1      -4.378   3.610   0.121  0.00  0.00    -0.060 I 
ATOM     10  F2  UNL d   1      -3.580   5.979  -1.877  0.00  0.00    -0.096 F 
ATOM     11  F3  UNL d   1      -3.098   6.000  -4.542  0.00  0.00    -0.097 F 
ATOM     12  F4  UNL d   1      -3.266   3.695  -5.992  0.00  0.00    -0.092 F 
ENDROOT
TORSDOF 0
ENDMDL
