MODEL 1
REMARK minimizedAffinity 19.2352581
REMARK minimizedRMSD -1
REMARK  0 active torsions:
REMARK  status: ('A' for Active; 'I' for Inactive)
ROOT
ATOM      1  C   UNL d   1      -0.790  -5.031  -0.366  0.00  0.00     0.124 A 
ATOM      2  C1  UNL d   1       0.533  -5.031   0.053  0.00  0.00     0.062 A 
ATOM      3  C2  UNL d   1       1.000  -4.027   0.898  0.00  0.00     0.162 A 
ATOM      4  C3  UNL d   1       0.141  -3.015   1.329  0.00  0.00    -0.034 A 
ATOM      5  C4  UNL d   1      -1.188  -3.022   0.902  0.00  0.00     0.162 A 
ATOM      6  C5  UNL d   1      -1.648  -4.027   0.058  0.00  0.00     0.062 A 
ATOM      7  F   UNL d   1      -2.927  -4.026  -0.347  0.00  0.00    -0.097 F 
ATOM      8  F1  UNL d   1      -2.039  -2.065   1.298  0.00  0.00    -0.096 F 
ATOM      9  I   UNL d   1       0.835  -1.513   2.592  0.00  0.00    -0.060 I 
ATOM     10  F2  UNL d   1       2.283  -4.052   1.288  0.00  0.00    -0.096 F 
ATOM     11  F3  UNL d   1       1.366  -5.999  -0.356  0.00  0.00    -0.097 F 
ATOM     12  F4  UNL d   1      -1.235  -5.997  -1.180  0.00  0.00    -0.092 F 
ENDROOT
TORSDOF 0
ENDMDL
