MODEL 1
REMARK minimizedAffinity 16.6777592
REMARK minimizedRMSD -1
REMARK  0 active torsions:
REMARK  status: ('A' for Active; 'I' for Inactive)
ROOT
ATOM      1  C   UNL d   1       1.728  -1.627   1.470  0.00  0.00     0.124 A 
ATOM      2  C1  UNL d   1       1.827  -2.991   1.708  0.00  0.00     0.062 A 
ATOM      3  C2  UNL d   1       1.687  -3.488   3.000  0.00  0.00     0.162 A 
ATOM      4  C3  UNL d   1       1.446  -2.620   4.066  0.00  0.00    -0.034 A 
ATOM      5  C4  UNL d   1       1.349  -1.250   3.819  0.00  0.00     0.162 A 
ATOM      6  C5  UNL d   1       1.490  -0.758   2.525  0.00  0.00     0.062 A 
ATOM      7  F   UNL d   1       1.394   0.560   2.298  0.00  0.00    -0.097 F 
ATOM      8  F1  UNL d   1       1.118  -0.387   4.820  0.00  0.00    -0.096 F 
ATOM      9  I   UNL d   1       1.236  -3.360   6.000  0.00  0.00    -0.060 I 
ATOM     10  F2  UNL d   1       1.786  -4.810   3.201  0.00  0.00    -0.096 F 
ATOM     11  F3  UNL d   1       2.058  -3.832   0.690  0.00  0.00    -0.097 F 
ATOM     12  F4  UNL d   1       1.864  -1.151   0.226  0.00  0.00    -0.092 F 
ENDROOT
TORSDOF 0
ENDMDL
