MODEL 1
REMARK minimizedAffinity 27.2654781
REMARK minimizedRMSD -1
REMARK  0 active torsions:
REMARK  status: ('A' for Active; 'I' for Inactive)
ROOT
ATOM      1  C   UNL d   1       1.263  -5.075  -2.087  0.00  0.00     0.124 A 
ATOM      2  C1  UNL d   1       2.346  -4.272  -1.758  0.00  0.00     0.062 A 
ATOM      3  C2  UNL d   1       2.335  -3.531  -0.580  0.00  0.00     0.162 A 
ATOM      4  C3  UNL d   1       1.237  -3.589   0.279  0.00  0.00    -0.034 A 
ATOM      5  C4  UNL d   1       0.151  -4.398  -0.060  0.00  0.00     0.162 A 
ATOM      6  C5  UNL d   1       0.167  -5.137  -1.239  0.00  0.00     0.062 A 
ATOM      7  F   UNL d   1      -0.881  -5.912  -1.556  0.00  0.00    -0.097 F 
ATOM      8  F1  UNL d   1      -0.921  -4.477   0.742  0.00  0.00    -0.096 F 
ATOM      9  I   UNL d   1       1.217  -2.482   2.041  0.00  0.00    -0.060 I 
ATOM     10  F2  UNL d   1       3.396  -2.764  -0.286  0.00  0.00    -0.096 F 
ATOM     11  F3  UNL d   1       3.406  -4.209  -2.576  0.00  0.00    -0.097 F 
ATOM     12  F4  UNL d   1       1.276  -5.786  -3.222  0.00  0.00    -0.092 F 
ENDROOT
TORSDOF 0
ENDMDL
