MODEL 1
REMARK minimizedAffinity -3.4599185
REMARK minimizedRMSD -1
REMARK  1 active torsions:
REMARK  status: ('A' for Active; 'I' for Inactive)
REMARK    1  A    between atoms: C1_2  and  C2_3 
ROOT
ATOM      1  C2  UNL d   1       1.453   2.598  -1.209  0.00  0.00    -0.077 A 
ATOM      2  C3  UNL d   1       1.244   1.451  -1.986  0.00  0.00     0.002 A 
ATOM      3  C4  UNL d   1       1.046   0.210  -1.376  0.00  0.00     0.002 A 
ATOM      4  C5  UNL d   1       1.052   0.107   0.013  0.00  0.00    -0.004 A 
ATOM      5  C6  UNL d   1       1.261   1.242   0.795  0.00  0.00     0.002 A 
ATOM      6  C7  UNL d   1       1.460   2.482   0.187  0.00  0.00     0.002 A 
ENDROOT
BRANCH   1   7
ATOM      7  C1  UNL d   1       1.618   3.945  -1.864  0.00  0.00     0.055 C 
ATOM      8  C   UNL d   1       2.112   4.987  -0.872  0.00  0.00     0.019 C 
ENDBRANCH   1   7
TORSDOF 1
ENDMDL
