MODEL 1
REMARK minimizedAffinity 1.24560654
REMARK minimizedRMSD -1
REMARK  1 active torsions:
REMARK  status: ('A' for Active; 'I' for Inactive)
REMARK    1  A    between atoms: C1_2  and  C2_3 
ROOT
ATOM      1  C2  UNL d   1       1.539   1.079   1.296  0.00  0.00    -0.077 A 
ATOM      2  C3  UNL d   1       0.814   1.922   0.442  0.00  0.00     0.002 A 
ATOM      3  C4  UNL d   1       0.442   1.487  -0.832  0.00  0.00     0.002 A 
ATOM      4  C5  UNL d   1       0.787   0.207  -1.261  0.00  0.00    -0.004 A 
ATOM      5  C6  UNL d   1       1.509  -0.638  -0.420  0.00  0.00     0.002 A 
ATOM      6  C7  UNL d   1       1.883  -0.204   0.853  0.00  0.00     0.002 A 
ENDROOT
BRANCH   1   7
ATOM      7  C1  UNL d   1       1.898   1.529   2.688  0.00  0.00     0.055 C 
ATOM      8  C   UNL d   1       2.299   2.996   2.710  0.00  0.00     0.019 C 
ENDBRANCH   1   7
TORSDOF 1
ENDMDL
