MODEL 1
REMARK minimizedAffinity 7.00321007
REMARK minimizedRMSD -1
REMARK  1 active torsions:
REMARK  status: ('A' for Active; 'I' for Inactive)
REMARK    1  A    between atoms: C1_2  and  C2_3 
ROOT
ATOM      1  C2  UNL d   1      -0.846   1.723   0.090  0.00  0.00    -0.077 A 
ATOM      2  C3  UNL d   1      -0.572   0.983  -1.069  0.00  0.00     0.002 A 
ATOM      3  C4  UNL d   1       0.662   0.349  -1.226  0.00  0.00     0.002 A 
ATOM      4  C5  UNL d   1       1.629   0.445  -0.227  0.00  0.00    -0.004 A 
ATOM      5  C6  UNL d   1       1.366   1.180   0.928  0.00  0.00     0.002 A 
ATOM      6  C7  UNL d   1       0.134   1.815   1.086  0.00  0.00     0.002 A 
ENDROOT
BRANCH   1   7
ATOM      7  C1  UNL d   1      -2.195   2.367   0.283  0.00  0.00     0.055 C 
ATOM      8  C   UNL d   1      -2.384   2.836   1.718  0.00  0.00     0.019 C 
ENDBRANCH   1   7
TORSDOF 1
ENDMDL
