MODEL 1
REMARK minimizedAffinity 5.44400454
REMARK minimizedRMSD -1
REMARK  1 active torsions:
REMARK  status: ('A' for Active; 'I' for Inactive)
REMARK    1  A    between atoms: C1_2  and  C2_3 
ROOT
ATOM      1  C2  UNL d   1       1.455   3.616  -1.032  0.00  0.00    -0.077 A 
ATOM      2  C3  UNL d   1       1.500   2.573  -1.967  0.00  0.00     0.002 A 
ATOM      3  C4  UNL d   1       1.366   1.246  -1.553  0.00  0.00     0.002 A 
ATOM      4  C5  UNL d   1       1.181   0.951  -0.204  0.00  0.00    -0.004 A 
ATOM      5  C6  UNL d   1       1.136   1.982   0.735  0.00  0.00     0.002 A 
ATOM      6  C7  UNL d   1       1.272   3.308   0.323  0.00  0.00     0.002 A 
ENDROOT
BRANCH   1   7
ATOM      7  C1  UNL d   1       1.551   5.050  -1.482  0.00  0.00     0.055 C 
ATOM      8  C   UNL d   1       1.622   6.000  -0.295  0.00  0.00     0.019 C 
ENDBRANCH   1   7
TORSDOF 1
ENDMDL
