MODEL 1
REMARK minimizedAffinity -0.176910996
REMARK minimizedRMSD -1
REMARK  1 active torsions:
REMARK  status: ('A' for Active; 'I' for Inactive)
REMARK    1  A    between atoms: C1_2  and  C2_3 
ROOT
ATOM      1  C2  UNL d   1       0.809  -1.306  -1.243  0.00  0.00    -0.077 A 
ATOM      2  C3  UNL d   1       1.783  -2.213  -0.801  0.00  0.00     0.002 A 
ATOM      3  C4  UNL d   1       1.515  -3.583  -0.783  0.00  0.00     0.002 A 
ATOM      4  C5  UNL d   1       0.277  -4.059  -1.210  0.00  0.00    -0.004 A 
ATOM      5  C6  UNL d   1      -0.698  -3.165  -1.650  0.00  0.00     0.002 A 
ATOM      6  C7  UNL d   1      -0.433  -1.795  -1.667  0.00  0.00     0.002 A 
ENDROOT
BRANCH   1   7
ATOM      7  C1  UNL d   1       1.113   0.168  -1.310  0.00  0.00     0.055 C 
ATOM      8  C   UNL d   1       1.780   0.654  -0.031  0.00  0.00     0.019 C 
ENDBRANCH   1   7
TORSDOF 1
ENDMDL
