MODEL 1
REMARK minimizedAffinity -5.46127129
REMARK minimizedRMSD -1
REMARK  1 active torsions:
REMARK  status: ('A' for Active; 'I' for Inactive)
REMARK    1  A    between atoms: C1_2  and  C2_3 
ROOT
ATOM      1  C2  UNL d   1       1.114   2.601  -0.841  0.00  0.00    -0.077 A 
ATOM      2  C3  UNL d   1       0.981   2.505   0.551  0.00  0.00     0.002 A 
ATOM      3  C4  UNL d   1       0.730   1.271   1.153  0.00  0.00     0.002 A 
ATOM      4  C5  UNL d   1       0.615   0.123   0.372  0.00  0.00    -0.004 A 
ATOM      5  C6  UNL d   1       0.743   0.208  -1.014  0.00  0.00     0.002 A 
ATOM      6  C7  UNL d   1       0.993   1.441  -1.618  0.00  0.00     0.002 A 
ENDROOT
BRANCH   1   7
ATOM      7  C1  UNL d   1       1.434   3.923  -1.489  0.00  0.00     0.055 C 
ATOM      8  C   UNL d   1       1.456   5.049  -0.465  0.00  0.00     0.019 C 
ENDBRANCH   1   7
TORSDOF 1
ENDMDL
