MODEL 1
REMARK minimizedAffinity 2.64585853
REMARK minimizedRMSD -1
REMARK  1 active torsions:
REMARK  status: ('A' for Active; 'I' for Inactive)
REMARK    1  A    between atoms: C1_2  and  C2_3 
ROOT
ATOM      1  C2  UNL d   1       1.519   3.674  -1.243  0.00  0.00    -0.077 A 
ATOM      2  C3  UNL d   1       1.511   3.408   0.134  0.00  0.00     0.002 A 
ATOM      3  C4  UNL d   1       1.461   2.092   0.599  0.00  0.00     0.002 A 
ATOM      4  C5  UNL d   1       1.423   1.033  -0.306  0.00  0.00    -0.004 A 
ATOM      5  C6  UNL d   1       1.430   1.288  -1.677  0.00  0.00     0.002 A 
ATOM      6  C7  UNL d   1       1.478   2.602  -2.143  0.00  0.00     0.002 A 
ENDROOT
BRANCH   1   7
ATOM      7  C1  UNL d   1       1.622   5.090  -1.746  0.00  0.00     0.055 C 
ATOM      8  C   UNL d   1       2.271   5.999  -0.712  0.00  0.00     0.019 C 
ENDBRANCH   1   7
TORSDOF 1
ENDMDL
