MODEL 1
REMARK minimizedAffinity 3.88942266
REMARK minimizedRMSD -1
REMARK  1 active torsions:
REMARK  status: ('A' for Active; 'I' for Inactive)
REMARK    1  A    between atoms: C1_2  and  C2_3 
ROOT
ATOM      1  C2  UNL d   1       0.965   2.076  -1.156  0.00  0.00    -0.077 A 
ATOM      2  C3  UNL d   1       1.229   2.247   0.210  0.00  0.00     0.002 A 
ATOM      3  C4  UNL d   1       1.565   1.151   1.007  0.00  0.00     0.002 A 
ATOM      4  C5  UNL d   1       1.645  -0.122   0.446  0.00  0.00    -0.004 A 
ATOM      5  C6  UNL d   1       1.382  -0.302  -0.911  0.00  0.00     0.002 A 
ATOM      6  C7  UNL d   1       1.045   0.792  -1.709  0.00  0.00     0.002 A 
ENDROOT
BRANCH   1   7
ATOM      7  C1  UNL d   1       0.650   3.264  -2.027  0.00  0.00     0.055 C 
ATOM      8  C   UNL d   1      -0.215   2.866  -3.215  0.00  0.00     0.019 C 
ENDBRANCH   1   7
TORSDOF 1
ENDMDL
