MODEL 1
REMARK minimizedAffinity 2.50088334
REMARK minimizedRMSD -1
REMARK  1 active torsions:
REMARK  status: ('A' for Active; 'I' for Inactive)
REMARK    1  A    between atoms: C1_2  and  C2_3 
ROOT
ATOM      1  C2  UNL d   1       1.898   1.714  -0.735  0.00  0.00    -0.077 A 
ATOM      2  C3  UNL d   1       2.798   0.640  -0.795  0.00  0.00     0.002 A 
ATOM      3  C4  UNL d   1       3.504   0.245   0.342  0.00  0.00     0.002 A 
ATOM      4  C5  UNL d   1       3.315   0.915   1.549  0.00  0.00    -0.004 A 
ATOM      5  C6  UNL d   1       2.424   1.985   1.619  0.00  0.00     0.002 A 
ATOM      6  C7  UNL d   1       1.718   2.383   0.483  0.00  0.00     0.002 A 
ENDROOT
BRANCH   1   7
ATOM      7  C1  UNL d   1       1.099   2.110  -1.949  0.00  0.00     0.055 C 
ATOM      8  C   UNL d   1       0.726   3.585  -1.908  0.00  0.00     0.019 C 
ENDBRANCH   1   7
TORSDOF 1
ENDMDL
