MODEL 1
REMARK minimizedAffinity -3.34921074
REMARK minimizedRMSD -1
REMARK  1 active torsions:
REMARK  status: ('A' for Active; 'I' for Inactive)
REMARK    1  A    between atoms: C1_2  and  C2_3 
ROOT
ATOM      1  C2  UNL d   1       1.245   1.930  -0.567  0.00  0.00    -0.077 A 
ATOM      2  C3  UNL d   1       1.411   2.967  -1.496  0.00  0.00     0.002 A 
ATOM      3  C4  UNL d   1       1.332   4.300  -1.087  0.00  0.00     0.002 A 
ATOM      4  C5  UNL d   1       1.091   4.607   0.250  0.00  0.00    -0.004 A 
ATOM      5  C6  UNL d   1       0.922   3.583   1.181  0.00  0.00     0.002 A 
ATOM      6  C7  UNL d   1       0.999   2.250   0.774  0.00  0.00     0.002 A 
ENDROOT
BRANCH   1   7
ATOM      7  C1  UNL d   1       1.378   0.492  -0.997  0.00  0.00     0.055 C 
ATOM      8  C   UNL d   1       0.840   0.282  -2.405  0.00  0.00     0.019 C 
ENDBRANCH   1   7
TORSDOF 1
ENDMDL
