MODEL 1
REMARK minimizedAffinity -0.522227824
REMARK minimizedRMSD -1
REMARK  1 active torsions:
REMARK  status: ('A' for Active; 'I' for Inactive)
REMARK    1  A    between atoms: C1_2  and  C2_3 
ROOT
ATOM      1  C2  UNL d   1       0.737   1.174  -0.639  0.00  0.00    -0.077 A 
ATOM      2  C3  UNL d   1       0.829   1.992   0.496  0.00  0.00     0.002 A 
ATOM      3  C4  UNL d   1       1.513   1.552   1.631  0.00  0.00     0.002 A 
ATOM      4  C5  UNL d   1       2.112   0.295   1.641  0.00  0.00    -0.004 A 
ATOM      5  C6  UNL d   1       2.025  -0.528   0.519  0.00  0.00     0.002 A 
ATOM      6  C7  UNL d   1       1.341  -0.090  -0.616  0.00  0.00     0.002 A 
ENDROOT
BRANCH   1   7
ATOM      7  C1  UNL d   1       0.043   1.666  -1.881  0.00  0.00     0.055 C 
ATOM      8  C   UNL d   1       1.042   2.185  -2.905  0.00  0.00     0.019 C 
ENDBRANCH   1   7
TORSDOF 1
ENDMDL
