MODEL 1
REMARK minimizedAffinity 5.48145533
REMARK minimizedRMSD -1
REMARK  1 active torsions:
REMARK  status: ('A' for Active; 'I' for Inactive)
REMARK    1  A    between atoms: C1_2  and  C2_3 
ROOT
ATOM      1  C2  UNL d   1       0.895   3.318  -0.754  0.00  0.00    -0.077 A 
ATOM      2  C3  UNL d   1       0.092   3.263  -1.902  0.00  0.00     0.002 A 
ATOM      3  C4  UNL d   1       0.021   2.091  -2.658  0.00  0.00     0.002 A 
ATOM      4  C5  UNL d   1       0.745   0.965  -2.272  0.00  0.00    -0.004 A 
ATOM      5  C6  UNL d   1       1.548   1.011  -1.133  0.00  0.00     0.002 A 
ATOM      6  C7  UNL d   1       1.622   2.181  -0.377  0.00  0.00     0.002 A 
ENDROOT
BRANCH   1   7
ATOM      7  C1  UNL d   1       0.936   4.565   0.090  0.00  0.00     0.055 C 
ATOM      8  C   UNL d   1       1.422   5.762  -0.713  0.00  0.00     0.019 C 
ENDBRANCH   1   7
TORSDOF 1
ENDMDL
