MODEL 1
REMARK minimizedAffinity -1.60902262
REMARK minimizedRMSD -1
REMARK  0 active torsions:
REMARK  status: ('A' for Active; 'I' for Inactive)
ROOT
ATOM      1  C1  DEN d   1      -0.912   0.535   0.863  0.00  0.00     0.130 A 
ATOM      2  C2  DEN d   1      -0.098   1.539   0.183  0.00  0.00    -0.031 A 
ATOM      3  C3  DEN d   1       0.924   0.834  -0.617  0.00  0.00     0.027 A 
ATOM      4  C4  DEN d   1       1.318  -1.703  -0.871  0.00  0.00     0.027 A 
ATOM      5  C5  DEN d   1       0.888  -2.951  -0.479  0.00  0.00    -0.003 A 
ATOM      6  C6  DEN d   1      -0.142  -3.122   0.408  0.00  0.00     0.001 A 
ATOM      7  C7  DEN d   1      -0.807  -2.028   0.896  0.00  0.00     0.017 A 
ATOM      8  C8  DEN d   1      -0.373  -0.767   0.511  0.00  0.00    -0.094 A 
ATOM      9  C9  DEN d   1       0.662  -0.614  -0.396  0.00  0.00    -0.072 A 
ENDROOT
TORSDOF 0
ENDMDL
