MODEL 1
REMARK minimizedAffinity -3.10514975
REMARK minimizedRMSD -1
REMARK  0 active torsions:
REMARK  status: ('A' for Active; 'I' for Inactive)
ROOT
ATOM      1  C1  DEN d   1      -0.044  -2.400   0.563  0.00  0.00     0.130 A 
ATOM      2  C2  DEN d   1       0.815  -2.790  -0.552  0.00  0.00    -0.031 A 
ATOM      3  C3  DEN d   1       1.217  -1.564  -1.270  0.00  0.00     0.027 A 
ATOM      4  C4  DEN d   1       0.600   0.888  -0.764  0.00  0.00     0.027 A 
ATOM      5  C5  DEN d   1      -0.115   1.716   0.074  0.00  0.00    -0.003 A 
ATOM      6  C6  DEN d   1      -0.877   1.232   1.103  0.00  0.00     0.001 A 
ATOM      7  C7  DEN d   1      -0.906  -0.115   1.351  0.00  0.00     0.017 A 
ATOM      8  C8  DEN d   1      -0.194  -0.957   0.506  0.00  0.00    -0.094 A 
ATOM      9  C9  DEN d   1       0.580  -0.447  -0.522  0.00  0.00    -0.072 A 
ENDROOT
TORSDOF 0
ENDMDL
