MODEL 1
REMARK minimizedAffinity -4.12083864
REMARK minimizedRMSD -1
REMARK  0 active torsions:
REMARK  status: ('A' for Active; 'I' for Inactive)
ROOT
ATOM      1  C1  DEN d   1       0.293  -3.194   0.393  0.00  0.00     0.130 A 
ATOM      2  C2  DEN d   1      -0.964  -3.928   0.508  0.00  0.00    -0.031 A 
ATOM      3  C3  DEN d   1      -2.055  -2.944   0.658  0.00  0.00     0.027 A 
ATOM      4  C4  DEN d   1      -1.921  -0.369   0.718  0.00  0.00     0.027 A 
ATOM      5  C5  DEN d   1      -1.069   0.712   0.670  0.00  0.00    -0.003 A 
ATOM      6  C6  DEN d   1       0.289   0.567   0.560  0.00  0.00     0.001 A 
ATOM      7  C7  DEN d   1       0.831  -0.686   0.451  0.00  0.00     0.017 A 
ATOM      8  C8  DEN d   1      -0.021  -1.781   0.506  0.00  0.00    -0.094 A 
ATOM      9  C9  DEN d   1      -1.392  -1.614   0.605  0.00  0.00    -0.072 A 
ENDROOT
TORSDOF 0
ENDMDL
