MODEL 1
REMARK minimizedAffinity -3.87180972
REMARK minimizedRMSD -1
REMARK  0 active torsions:
REMARK  status: ('A' for Active; 'I' for Inactive)
ROOT
ATOM      1  C1  DEN d   1       0.907  -2.545  -0.275  0.00  0.00     0.130 A 
ATOM      2  C2  DEN d   1       0.201  -3.423   0.654  0.00  0.00    -0.031 A 
ATOM      3  C3  DEN d   1      -0.782  -2.607   1.395  0.00  0.00     0.027 A 
ATOM      4  C4  DEN d   1      -1.278  -0.084   1.192  0.00  0.00     0.027 A 
ATOM      5  C5  DEN d   1      -0.925   1.081   0.548  0.00  0.00    -0.003 A 
ATOM      6  C6  DEN d   1       0.078   1.125  -0.384  0.00  0.00     0.001 A 
ATOM      7  C7  DEN d   1       0.733  -0.026  -0.730  0.00  0.00     0.017 A 
ATOM      8  C8  DEN d   1       0.388  -1.204  -0.080  0.00  0.00    -0.094 A 
ATOM      9  C9  DEN d   1      -0.637  -1.230   0.850  0.00  0.00    -0.072 A 
ENDROOT
TORSDOF 0
ENDMDL
