MODEL 1
REMARK minimizedAffinity -0.575057924
REMARK minimizedRMSD -1
REMARK  0 active torsions:
REMARK  status: ('A' for Active; 'I' for Inactive)
ROOT
ATOM      1  C1  DEN d   1       1.118  -1.501  -0.030  0.00  0.00     0.130 A 
ATOM      2  C2  DEN d   1       1.172  -2.158  -1.334  0.00  0.00    -0.031 A 
ATOM      3  C3  DEN d   1       1.075  -1.114  -2.375  0.00  0.00     0.027 A 
ATOM      4  C4  DEN d   1       0.852   1.440  -2.096  0.00  0.00     0.027 A 
ATOM      5  C5  DEN d   1       0.752   2.465  -1.181  0.00  0.00    -0.003 A 
ATOM      6  C6  DEN d   1       0.733   2.239   0.170  0.00  0.00     0.001 A 
ATOM      7  C7  DEN d   1       0.860   0.960   0.646  0.00  0.00     0.017 A 
ATOM      8  C8  DEN d   1       0.954  -0.079  -0.270  0.00  0.00    -0.094 A 
ATOM      9  C9  DEN d   1       0.984   0.172  -1.632  0.00  0.00    -0.072 A 
ENDROOT
TORSDOF 0
ENDMDL
