MODEL 1
REMARK minimizedAffinity -2.42368102
REMARK minimizedRMSD -1
REMARK  0 active torsions:
REMARK  status: ('A' for Active; 'I' for Inactive)
ROOT
ATOM      1  C1  DEN d   1       0.078   0.656   0.926  0.00  0.00     0.130 A 
ATOM      2  C2  DEN d   1       0.037   1.835   0.066  0.00  0.00    -0.031 A 
ATOM      3  C3  DEN d   1       0.380   1.412  -1.307  0.00  0.00     0.027 A 
ATOM      4  C4  DEN d   1       0.962  -0.944  -2.181  0.00  0.00     0.027 A 
ATOM      5  C5  DEN d   1       1.137  -2.262  -1.823  0.00  0.00    -0.003 A 
ATOM      6  C6  DEN d   1       1.006  -2.691  -0.529  0.00  0.00     0.001 A 
ATOM      7  C7  DEN d   1       0.646  -1.801   0.448  0.00  0.00     0.017 A 
ATOM      8  C8  DEN d   1       0.475  -0.468   0.097  0.00  0.00    -0.094 A 
ATOM      9  C9  DEN d   1       0.600  -0.057  -1.219  0.00  0.00    -0.072 A 
ENDROOT
TORSDOF 0
ENDMDL
