MODEL 1
REMARK minimizedAffinity -4.41664124
REMARK minimizedRMSD -1
REMARK  0 active torsions:
REMARK  status: ('A' for Active; 'I' for Inactive)
ROOT
ATOM      1  C1  DEN d   1       0.132   0.626   0.972  0.00  0.00     0.130 A 
ATOM      2  C2  DEN d   1      -0.016   0.425  -0.467  0.00  0.00    -0.031 A 
ATOM      3  C3  DEN d   1       0.676   1.532  -1.156  0.00  0.00     0.027 A 
ATOM      4  C4  DEN d   1       1.961   3.525  -0.140  0.00  0.00     0.027 A 
ATOM      5  C5  DEN d   1       2.349   4.129   1.035  0.00  0.00    -0.003 A 
ATOM      6  C6  DEN d   1       1.998   3.630   2.262  0.00  0.00     0.001 A 
ATOM      7  C7  DEN d   1       1.276   2.469   2.342  0.00  0.00     0.017 A 
ATOM      8  C8  DEN d   1       0.875   1.859   1.161  0.00  0.00    -0.094 A 
ATOM      9  C9  DEN d   1       1.250   2.371  -0.070  0.00  0.00    -0.072 A 
ENDROOT
TORSDOF 0
ENDMDL
