MODEL 1
REMARK minimizedAffinity -2.84761715
REMARK minimizedRMSD -1
REMARK  0 active torsions:
REMARK  status: ('A' for Active; 'I' for Inactive)
ROOT
ATOM      1  C1  DEN d   1      -0.438  -3.199  -1.842  0.00  0.00     0.130 A 
ATOM      2  C2  DEN d   1       0.251  -2.422  -2.870  0.00  0.00    -0.031 A 
ATOM      3  C3  DEN d   1       0.538  -1.084  -2.315  0.00  0.00     0.027 A 
ATOM      4  C4  DEN d   1      -0.009  -0.146   0.024  0.00  0.00     0.027 A 
ATOM      5  C5  DEN d   1      -0.597  -0.428   1.237  0.00  0.00    -0.003 A 
ATOM      6  C6  DEN d   1      -1.198  -1.632   1.495  0.00  0.00     0.001 A 
ATOM      7  C7  DEN d   1      -1.185  -2.615   0.542  0.00  0.00     0.017 A 
ATOM      8  C8  DEN d   1      -0.601  -2.335  -0.687  0.00  0.00    -0.094 A 
ATOM      9  C9  DEN d   1       0.012  -1.117  -0.924  0.00  0.00    -0.072 A 
ENDROOT
TORSDOF 0
ENDMDL
