MODEL 1
REMARK minimizedAffinity -5.70240068
REMARK minimizedRMSD -1
REMARK  0 active torsions:
REMARK  status: ('A' for Active; 'I' for Inactive)
ROOT
ATOM      1  C1  DEN d   1       0.188  -3.562  -1.252  0.00  0.00     0.130 A 
ATOM      2  C2  DEN d   1       0.686  -2.961  -2.486  0.00  0.00    -0.031 A 
ATOM      3  C3  DEN d   1       0.588  -1.494  -2.351  0.00  0.00     0.027 A 
ATOM      4  C4  DEN d   1      -0.276  -0.102  -0.359  0.00  0.00     0.027 A 
ATOM      5  C5  DEN d   1      -0.814  -0.169   0.908  0.00  0.00    -0.003 A 
ATOM      6  C6  DEN d   1      -1.085  -1.361   1.524  0.00  0.00     0.001 A 
ATOM      7  C7  DEN d   1      -0.777  -2.537   0.893  0.00  0.00     0.017 A 
ATOM      8  C8  DEN d   1      -0.241  -2.479  -0.387  0.00  0.00    -0.094 A 
ATOM      9  C9  DEN d   1       0.037  -1.263  -0.988  0.00  0.00    -0.072 A 
ENDROOT
TORSDOF 0
ENDMDL
