MODEL 1
REMARK minimizedAffinity -6.33659267
REMARK minimizedRMSD -1
REMARK  0 active torsions:
REMARK  status: ('A' for Active; 'I' for Inactive)
ROOT
ATOM      1  C1  DEN d   1      -0.096  -3.368  -0.026  0.00  0.00     0.130 A 
ATOM      2  C2  DEN d   1       0.914  -3.118  -1.051  0.00  0.00    -0.031 A 
ATOM      3  C3  DEN d   1       1.110  -1.658  -1.152  0.00  0.00     0.027 A 
ATOM      4  C4  DEN d   1      -0.042   0.230   0.174  0.00  0.00     0.027 A 
ATOM      5  C5  DEN d   1      -0.979   0.510   1.144  0.00  0.00    -0.003 A 
ATOM      6  C6  DEN d   1      -1.705  -0.472   1.763  0.00  0.00     0.001 A 
ATOM      7  C7  DEN d   1      -1.475  -1.786   1.450  0.00  0.00     0.017 A 
ATOM      8  C8  DEN d   1      -0.537  -2.076   0.468  0.00  0.00    -0.094 A 
ATOM      9  C9  DEN d   1       0.196  -1.069  -0.137  0.00  0.00    -0.072 A 
ENDROOT
TORSDOF 0
ENDMDL
