MODEL 1
REMARK minimizedAffinity -3.67471337
REMARK minimizedRMSD -1
REMARK  2 active torsions:
REMARK  status: ('A' for Active; 'I' for Inactive)
REMARK    1  A    between atoms: C2'_3  and  C1'_4 
REMARK    2  A    between atoms: C1'_4  and  C1_5 
ROOT
ATOM      1  C1  I4B d   1       0.375  -0.616   0.023  0.00  0.00    -0.075 A 
ATOM      2  C2  I4B d   1       0.036   0.711  -0.056  0.00  0.00     0.003 A 
ATOM      3  C3  I4B d   1      -0.051   1.496   1.119  0.00  0.00     0.002 A 
ATOM      4  C4  I4B d   1       0.159   0.905   2.348  0.00  0.00    -0.004 A 
ATOM      5  C5  I4B d   1       0.525  -0.436   2.425  0.00  0.00     0.002 A 
ATOM      6  C6  I4B d   1       0.646  -1.199   1.254  0.00  0.00     0.003 A 
ENDROOT
BRANCH   1   7
ATOM      7  C1' I4B d   1       0.425  -1.424  -1.235  0.00  0.00     0.060 C 
BRANCH   7   8
ATOM      8  C2' I4B d   1      -0.043  -2.827  -0.908  0.00  0.00    -0.013 C 
ATOM      9  C4' I4B d   1      -1.363  -3.129  -1.569  0.00  0.00     0.013 C 
ATOM     10  C3' I4B d   1       1.019  -3.786  -1.357  0.00  0.00     0.013 C 
ENDBRANCH   7   8
ENDBRANCH   1   7
TORSDOF 2
ENDMDL
