MODEL 1
REMARK minimizedAffinity -2.1019783
REMARK minimizedRMSD -1
REMARK  2 active torsions:
REMARK  status: ('A' for Active; 'I' for Inactive)
REMARK    1  A    between atoms: C2'_3  and  C1'_4 
REMARK    2  A    between atoms: C1'_4  and  C1_5 
ROOT
ATOM      1  C1  I4B d   1      -0.527  -0.649   0.511  0.00  0.00    -0.075 A 
ATOM      2  C2  I4B d   1      -0.173  -0.029  -0.661  0.00  0.00     0.003 A 
ATOM      3  C3  I4B d   1       0.463   1.236  -0.635  0.00  0.00     0.002 A 
ATOM      4  C4  I4B d   1       0.679   1.863   0.575  0.00  0.00    -0.004 A 
ATOM      5  C5  I4B d   1       0.340   1.223   1.764  0.00  0.00     0.002 A 
ATOM      6  C6  I4B d   1      -0.255  -0.046   1.733  0.00  0.00     0.003 A 
ENDROOT
BRANCH   1   7
ATOM      7  C1' I4B d   1      -1.227  -1.969   0.446  0.00  0.00     0.060 C 
BRANCH   7   8
ATOM      8  C2' I4B d   1      -0.828  -2.645  -0.850  0.00  0.00    -0.013 C 
ATOM      9  C4' I4B d   1       0.553  -3.238  -0.753  0.00  0.00     0.013 C 
ATOM     10  C3' I4B d   1      -1.849  -3.699  -1.156  0.00  0.00     0.013 C 
ENDBRANCH   7   8
ENDBRANCH   1   7
TORSDOF 2
ENDMDL
