MODEL 1
REMARK minimizedAffinity -0.0985517427
REMARK minimizedRMSD -1
REMARK  0 active torsions:
REMARK  status: ('A' for Active; 'I' for Inactive)
ROOT
ATOM      1  C   UNL d   1      -1.621   2.458  -5.255  0.00  0.00     0.172 C 
ATOM      2  N   UNL d   1      -2.416   3.651  -5.427  0.00  0.00    -0.070 N 
ATOM      3  C1  UNL d   1      -3.659   3.707  -6.000  0.00  0.00    -0.004 A 
ATOM      4  C2  UNL d   1      -4.076   5.020  -5.975  0.00  0.00    -0.047 A 
ATOM      5  C3  UNL d   1      -3.048   5.780  -5.367  0.00  0.00    -0.047 A 
ATOM      6  C4  UNL d   1      -2.033   4.907  -5.038  0.00  0.00    -0.004 A 
ENDROOT
TORSDOF 0
ENDMDL
