MODEL 1
REMARK minimizedAffinity -0.635789037
REMARK minimizedRMSD -1
REMARK  0 active torsions:
REMARK  status: ('A' for Active; 'I' for Inactive)
ROOT
ATOM      1  C   UNL d   1       2.659   1.483   1.208  0.00  0.00     0.172 C 
ATOM      2  N   UNL d   1       2.482   0.398   0.271  0.00  0.00    -0.070 N 
ATOM      3  C1  UNL d   1       1.601  -0.641   0.410  0.00  0.00    -0.004 A 
ATOM      4  C2  UNL d   1       1.737  -1.460  -0.691  0.00  0.00    -0.047 A 
ATOM      5  C3  UNL d   1       2.736  -0.894  -1.518  0.00  0.00    -0.047 A 
ATOM      6  C4  UNL d   1       3.180   0.255  -0.899  0.00  0.00    -0.004 A 
ENDROOT
TORSDOF 0
ENDMDL
