MODEL 1
REMARK minimizedAffinity -1.14040303
REMARK minimizedRMSD -1
REMARK  0 active torsions:
REMARK  status: ('A' for Active; 'I' for Inactive)
ROOT
ATOM      1  C   UNL d   1       0.904  -0.421  -1.385  0.00  0.00     0.172 C 
ATOM      2  N   UNL d   1      -0.133  -0.001  -0.473  0.00  0.00    -0.070 N 
ATOM      3  C1  UNL d   1      -1.088   0.946  -0.732  0.00  0.00    -0.004 A 
ATOM      4  C2  UNL d   1      -1.887   1.057   0.386  0.00  0.00    -0.047 A 
ATOM      5  C3  UNL d   1      -1.395   0.145   1.350  0.00  0.00    -0.047 A 
ATOM      6  C4  UNL d   1      -0.309  -0.496   0.792  0.00  0.00    -0.004 A 
ENDROOT
TORSDOF 0
ENDMDL
