MODEL 1
REMARK minimizedAffinity 0.605468929
REMARK minimizedRMSD -1
REMARK  0 active torsions:
REMARK  status: ('A' for Active; 'I' for Inactive)
ROOT
ATOM      1  C   UNL d   1       1.306  -0.015   0.345  0.00  0.00     0.172 C 
ATOM      2  N   UNL d   1       0.116   0.763   0.596  0.00  0.00    -0.070 N 
ATOM      3  C1  UNL d   1      -1.166   0.281   0.603  0.00  0.00    -0.004 A 
ATOM      4  C2  UNL d   1      -2.011   1.334   0.881  0.00  0.00    -0.047 A 
ATOM      5  C3  UNL d   1      -1.209   2.488   1.046  0.00  0.00    -0.047 A 
ATOM      6  C4  UNL d   1       0.103   2.106   0.864  0.00  0.00    -0.004 A 
ENDROOT
TORSDOF 0
ENDMDL
