MODEL 1
REMARK minimizedAffinity 1.47500324
REMARK minimizedRMSD -1
REMARK  0 active torsions:
REMARK  status: ('A' for Active; 'I' for Inactive)
ROOT
ATOM      1  C   UNL d   1       1.299   0.889   0.650  0.00  0.00     0.172 C 
ATOM      2  N   UNL d   1      -0.105   1.134   0.881  0.00  0.00    -0.070 N 
ATOM      3  C1  UNL d   1      -1.069   0.172   1.027  0.00  0.00    -0.004 A 
ATOM      4  C2  UNL d   1      -2.274   0.811   1.230  0.00  0.00    -0.047 A 
ATOM      5  C3  UNL d   1      -2.025   2.204   1.205  0.00  0.00    -0.047 A 
ATOM      6  C4  UNL d   1      -0.674   2.375   0.987  0.00  0.00    -0.004 A 
ENDROOT
TORSDOF 0
ENDMDL
