MODEL 1
REMARK minimizedAffinity -1.19390976
REMARK minimizedRMSD -1
REMARK  0 active torsions:
REMARK  status: ('A' for Active; 'I' for Inactive)
ROOT
ATOM      1  C   UNL d   1       1.429   0.112   0.589  0.00  0.00     0.172 C 
ATOM      2  N   UNL d   1       0.060   0.554   0.716  0.00  0.00    -0.070 N 
ATOM      3  C1  UNL d   1      -1.031  -0.260   0.869  0.00  0.00    -0.004 A 
ATOM      4  C2  UNL d   1      -2.148   0.543   0.953  0.00  0.00    -0.047 A 
ATOM      5  C3  UNL d   1      -1.714   1.886   0.846  0.00  0.00    -0.047 A 
ATOM      6  C4  UNL d   1      -0.343   1.863   0.700  0.00  0.00    -0.004 A 
ENDROOT
TORSDOF 0
ENDMDL
