MODEL 1
REMARK minimizedAffinity -2.27397084
REMARK minimizedRMSD -1
REMARK  0 active torsions:
REMARK  status: ('A' for Active; 'I' for Inactive)
ROOT
ATOM      1  C   UNL d   1       2.360   2.549   1.907  0.00  0.00     0.172 C 
ATOM      2  N   UNL d   1       1.054   2.146   1.440  0.00  0.00    -0.070 N 
ATOM      3  C1  UNL d   1       0.738   0.922   0.914  0.00  0.00    -0.004 A 
ATOM      4  C2  UNL d   1      -0.602   0.935   0.592  0.00  0.00    -0.047 A 
ATOM      5  C3  UNL d   1      -1.108   2.211   0.935  0.00  0.00    -0.047 A 
ATOM      6  C4  UNL d   1      -0.061   2.940   1.458  0.00  0.00    -0.004 A 
ENDROOT
TORSDOF 0
ENDMDL
