MODEL 1
REMARK minimizedAffinity -1.33238065
REMARK minimizedRMSD -1
REMARK  0 active torsions:
REMARK  status: ('A' for Active; 'I' for Inactive)
ROOT
ATOM      1  C   UNL d   1      -1.875   5.829  -5.244  0.00  0.00     0.172 C 
ATOM      2  N   UNL d   1      -2.196   4.452  -5.538  0.00  0.00    -0.070 N 
ATOM      3  C1  UNL d   1      -1.293   3.429  -5.649  0.00  0.00    -0.004 A 
ATOM      4  C2  UNL d   1      -1.994   2.277  -5.936  0.00  0.00    -0.047 A 
ATOM      5  C3  UNL d   1      -3.365   2.621  -5.999  0.00  0.00    -0.047 A 
ATOM      6  C4  UNL d   1      -3.462   3.973  -5.749  0.00  0.00    -0.004 A 
ENDROOT
TORSDOF 0
ENDMDL
