MODEL 1
REMARK minimizedAffinity -2.40046835
REMARK minimizedRMSD -1
REMARK  0 active torsions:
REMARK  status: ('A' for Active; 'I' for Inactive)
ROOT
ATOM      1  C   UNL d   1      -5.250   3.380  -6.000  0.00  0.00     0.172 C 
ATOM      2  N   UNL d   1      -4.024   4.054  -5.643  0.00  0.00    -0.070 N 
ATOM      3  C1  UNL d   1      -3.917   5.362  -5.251  0.00  0.00    -0.004 A 
ATOM      4  C2  UNL d   1      -2.586   5.620  -5.000  0.00  0.00    -0.047 A 
ATOM      5  C3  UNL d   1      -1.869   4.426  -5.250  0.00  0.00    -0.047 A 
ATOM      6  C4  UNL d   1      -2.783   3.473  -5.646  0.00  0.00    -0.004 A 
ENDROOT
TORSDOF 0
ENDMDL
