MODEL 1
REMARK minimizedAffinity 0.997669876
REMARK minimizedRMSD -1
REMARK  0 active torsions:
REMARK  status: ('A' for Active; 'I' for Inactive)
ROOT
ATOM      1  C   UNL d   1       1.831  -0.030   0.494  0.00  0.00     0.172 C 
ATOM      2  N   UNL d   1       0.430   0.198   0.762  0.00  0.00    -0.070 N 
ATOM      3  C1  UNL d   1      -0.512  -0.774   0.969  0.00  0.00    -0.004 A 
ATOM      4  C2  UNL d   1      -1.720  -0.150   1.191  0.00  0.00    -0.047 A 
ATOM      5  C3  UNL d   1      -1.497   1.245   1.113  0.00  0.00    -0.047 A 
ATOM      6  C4  UNL d   1      -0.157   1.433   0.847  0.00  0.00    -0.004 A 
ENDROOT
TORSDOF 0
ENDMDL
