MODEL 1
REMARK minimizedAffinity 0.215564042
REMARK minimizedRMSD -1
REMARK  0 active torsions:
REMARK  status: ('A' for Active; 'I' for Inactive)
ROOT
ATOM      1  C   UNL d   1       1.693   0.247   0.678  0.00  0.00     0.172 C 
ATOM      2  N   UNL d   1       0.331   0.687   0.869  0.00  0.00    -0.070 N 
ATOM      3  C1  UNL d   1      -0.763  -0.128   0.976  0.00  0.00    -0.004 A 
ATOM      4  C2  UNL d   1      -1.871   0.673   1.150  0.00  0.00    -0.047 A 
ATOM      5  C3  UNL d   1      -1.427   2.017   1.146  0.00  0.00    -0.047 A 
ATOM      6  C4  UNL d   1      -0.059   1.996   0.971  0.00  0.00    -0.004 A 
ENDROOT
TORSDOF 0
ENDMDL
