MODEL 1
REMARK minimizedAffinity -0.373421371
REMARK minimizedRMSD -1
REMARK  0 active torsions:
REMARK  status: ('A' for Active; 'I' for Inactive)
ROOT
ATOM      1  C   UNL d   1       2.232   2.631   2.808  0.00  0.00     0.172 C 
ATOM      2  N   UNL d   1       1.154   2.336   1.894  0.00  0.00    -0.070 N 
ATOM      3  C1  UNL d   1       1.222   1.478   0.829  0.00  0.00    -0.004 A 
ATOM      4  C2  UNL d   1      -0.009   1.473   0.211  0.00  0.00    -0.047 A 
ATOM      5  C3  UNL d   1      -0.847   2.360   0.928  0.00  0.00    -0.047 A 
ATOM      6  C4  UNL d   1      -0.101   2.880   1.965  0.00  0.00    -0.004 A 
ENDROOT
TORSDOF 0
ENDMDL
