MODEL 1
REMARK minimizedAffinity 1.52087915
REMARK minimizedRMSD -1
REMARK  0 active torsions:
REMARK  status: ('A' for Active; 'I' for Inactive)
ROOT
ATOM      1  C   UNL d   1      -3.778  -5.470  -0.865  0.00  0.00     0.172 C 
ATOM      2  N   UNL d   1      -2.598  -4.742  -1.271  0.00  0.00    -0.070 N 
ATOM      3  C1  UNL d   1      -1.392  -5.299  -1.604  0.00  0.00    -0.004 A 
ATOM      4  C2  UNL d   1      -0.531  -4.274  -1.932  0.00  0.00    -0.047 A 
ATOM      5  C3  UNL d   1      -1.243  -3.060  -1.789  0.00  0.00    -0.047 A 
ATOM      6  C4  UNL d   1      -2.521  -3.379  -1.379  0.00  0.00    -0.004 A 
ENDROOT
TORSDOF 0
ENDMDL
