MODEL 1
REMARK minimizedAffinity 2.33369112
REMARK minimizedRMSD -1
REMARK  0 active torsions:
REMARK  status: ('A' for Active; 'I' for Inactive)
ROOT
ATOM      1  C   UNL d   1      -1.186  -1.156   1.101  0.00  0.00     0.172 C 
ATOM      2  N   UNL d   1      -1.355   0.268   0.924  0.00  0.00    -0.070 N 
ATOM      3  C1  UNL d   1      -2.531   0.901   0.627  0.00  0.00    -0.004 A 
ATOM      4  C2  UNL d   1      -2.274   2.252   0.543  0.00  0.00    -0.047 A 
ATOM      5  C3  UNL d   1      -0.894   2.437   0.797  0.00  0.00    -0.047 A 
ATOM      6  C4  UNL d   1      -0.349   1.192   1.030  0.00  0.00    -0.004 A 
ENDROOT
TORSDOF 0
ENDMDL
