MODEL 1
REMARK minimizedAffinity 9.99764538
REMARK minimizedRMSD -1
REMARK  0 active torsions:
REMARK  status: ('A' for Active; 'I' for Inactive)
ROOT
ATOM      1  C   UNL d   1       5.582  -0.961  -2.744  0.00  0.00     0.172 C 
ATOM      2  N   UNL d   1       4.173  -0.644  -2.753  0.00  0.00    -0.070 N 
ATOM      3  C1  UNL d   1       3.269  -1.000  -1.789  0.00  0.00    -0.004 A 
ATOM      4  C2  UNL d   1       2.037  -0.511  -2.165  0.00  0.00    -0.047 A 
ATOM      5  C3  UNL d   1       2.206   0.162  -3.398  0.00  0.00    -0.047 A 
ATOM      6  C4  UNL d   1       3.538   0.064  -3.739  0.00  0.00    -0.004 A 
ENDROOT
TORSDOF 0
ENDMDL
