MODEL 1
REMARK minimizedAffinity 0.393969685
REMARK minimizedRMSD -1
REMARK  0 active torsions:
REMARK  status: ('A' for Active; 'I' for Inactive)
ROOT
ATOM      1  C   UNL d   1       1.807   0.026  -0.024  0.00  0.00     0.172 C 
ATOM      2  N   UNL d   1       2.275  -0.273  -1.356  0.00  0.00    -0.070 N 
ATOM      3  C1  UNL d   1       1.919   0.396  -2.497  0.00  0.00    -0.004 A 
ATOM      4  C2  UNL d   1       2.578  -0.192  -3.554  0.00  0.00    -0.047 A 
ATOM      5  C3  UNL d   1       3.357  -1.252  -3.031  0.00  0.00    -0.047 A 
ATOM      6  C4  UNL d   1       3.151  -1.279  -1.668  0.00  0.00    -0.004 A 
ENDROOT
TORSDOF 0
ENDMDL
