MODEL 1
REMARK minimizedAffinity 6.64267492
REMARK minimizedRMSD -1
REMARK  0 active torsions:
REMARK  status: ('A' for Active; 'I' for Inactive)
ROOT
ATOM      1  C   UNL d   1       1.878  -0.178  -2.582  0.00  0.00     0.172 C 
ATOM      2  N   UNL d   1       1.375   0.952  -3.327  0.00  0.00    -0.070 N 
ATOM      3  C1  UNL d   1       0.120   1.488  -3.214  0.00  0.00    -0.004 A 
ATOM      4  C2  UNL d   1       0.034   2.549  -4.090  0.00  0.00    -0.047 A 
ATOM      5  C3  UNL d   1       1.279   2.653  -4.753  0.00  0.00    -0.047 A 
ATOM      6  C4  UNL d   1       2.091   1.652  -4.262  0.00  0.00    -0.004 A 
ENDROOT
TORSDOF 0
ENDMDL
