MODEL 1
REMARK minimizedAffinity 4.4561162
REMARK minimizedRMSD -1
REMARK  0 active torsions:
REMARK  status: ('A' for Active; 'I' for Inactive)
ROOT
ATOM      1  C   UNL d   1       0.745   0.703   0.614  0.00  0.00     0.172 C 
ATOM      2  N   UNL d   1      -0.621   1.142   0.773  0.00  0.00    -0.070 N 
ATOM      3  C1  UNL d   1      -1.723   0.329   0.809  0.00  0.00    -0.004 A 
ATOM      4  C2  UNL d   1      -2.833   1.130   0.973  0.00  0.00    -0.047 A 
ATOM      5  C3  UNL d   1      -2.383   2.470   1.036  0.00  0.00    -0.047 A 
ATOM      6  C4  UNL d   1      -1.010   2.449   0.910  0.00  0.00    -0.004 A 
ENDROOT
TORSDOF 0
ENDMDL
