MODEL 1
REMARK minimizedAffinity -2.8529799
REMARK minimizedRMSD -1
REMARK  1 active torsions:
REMARK  status: ('A' for Active; 'I' for Inactive)
REMARK    1  A    between atoms: C1_2  and  C2_3 
ROOT
ATOM      1  C2  UNL d   1       1.373  -1.035  -0.098  0.00  0.00    -0.073 A 
ATOM      2  C3  UNL d   1       0.268  -1.300  -0.915  0.00  0.00    -0.002 A 
ATOM      3  C4  UNL d   1      -0.758  -0.363  -1.039  0.00  0.00     0.004 A 
ATOM      4  C5  UNL d   1      -0.687   0.851  -0.355  0.00  0.00    -0.004 A 
ATOM      5  C6  UNL d   1       0.415   1.140   0.456  0.00  0.00    -0.075 A 
ATOM      6  C7  UNL d   1       0.506   2.440   1.200  0.00  0.00     0.076 C 
ATOM      7  C8  UNL d   1       1.440   0.192   0.578  0.00  0.00     0.001 A 
ENDROOT
BRANCH   1   8
ATOM      8  C1  UNL d   1       2.486  -2.041   0.034  0.00  0.00     0.053 C 
ATOM      9  C   UNL d   1       3.283  -1.845   1.314  0.00  0.00     0.018 C 
ENDBRANCH   1   8
TORSDOF 1
ENDMDL
