MODEL 1
REMARK minimizedAffinity 3.63871622
REMARK minimizedRMSD -1
REMARK  1 active torsions:
REMARK  status: ('A' for Active; 'I' for Inactive)
REMARK    1  A    between atoms: C1_2  and  C2_3 
ROOT
ATOM      1  C2  UNL d   1       3.187  -0.568  -0.868  0.00  0.00    -0.073 A 
ATOM      2  C3  UNL d   1       3.358  -1.949  -0.722  0.00  0.00    -0.002 A 
ATOM      3  C4  UNL d   1       2.275  -2.763  -0.388  0.00  0.00     0.004 A 
ATOM      4  C5  UNL d   1       1.010  -2.206  -0.202  0.00  0.00    -0.004 A 
ATOM      5  C6  UNL d   1       0.816  -0.829  -0.355  0.00  0.00    -0.075 A 
ATOM      6  C7  UNL d   1      -0.539  -0.214  -0.157  0.00  0.00     0.076 C 
ATOM      7  C8  UNL d   1       1.909  -0.018  -0.689  0.00  0.00     0.001 A 
ENDROOT
BRANCH   1   8
ATOM      8  C1  UNL d   1       4.352   0.314  -1.236  0.00  0.00     0.053 C 
ATOM      9  C   UNL d   1       4.256   1.686  -0.588  0.00  0.00     0.018 C 
ENDBRANCH   1   8
TORSDOF 1
ENDMDL
