MODEL 1
REMARK minimizedAffinity 2.49764991
REMARK minimizedRMSD -1
REMARK  1 active torsions:
REMARK  status: ('A' for Active; 'I' for Inactive)
REMARK    1  A    between atoms: C1_2  and  C2_3 
ROOT
ATOM      1  C2  UNL d   1      -2.251   1.620   1.837  0.00  0.00    -0.073 A 
ATOM      2  C3  UNL d   1      -1.535   1.265   2.986  0.00  0.00    -0.002 A 
ATOM      3  C4  UNL d   1      -0.142   1.189   2.953  0.00  0.00     0.004 A 
ATOM      4  C5  UNL d   1       0.549   1.473   1.775  0.00  0.00    -0.004 A 
ATOM      5  C6  UNL d   1      -0.148   1.841   0.620  0.00  0.00    -0.075 A 
ATOM      6  C7  UNL d   1       0.580   2.148  -0.656  0.00  0.00     0.076 C 
ATOM      7  C8  UNL d   1      -1.547   1.913   0.660  0.00  0.00     0.001 A 
ENDROOT
BRANCH   1   8
ATOM      8  C1  UNL d   1      -3.755   1.709   1.870  0.00  0.00     0.053 C 
ATOM      9  C   UNL d   1      -4.398   0.904   0.752  0.00  0.00     0.018 C 
ENDBRANCH   1   8
TORSDOF 1
ENDMDL
