MODEL 1
REMARK minimizedAffinity 7.02160501
REMARK minimizedRMSD -1
REMARK  3 active torsions:
REMARK  status: ('A' for Active; 'I' for Inactive)
REMARK    1  A    between atoms: C3'_2  and  C2'_3 
REMARK    2  A    between atoms: C2'_3  and  C1'_4 
REMARK    3  A    between atoms: C1'_4  and  C1_5 
ROOT
ATOM      1  C1  N4B d   1       2.284  -3.083   1.433  0.00  0.00    -0.075 A 
ATOM      2  C2  N4B d   1       1.353  -2.330   2.182  0.00  0.00     0.002 A 
ATOM      3  C3  N4B d   1       0.778  -1.210   1.635  0.00  0.00     0.002 A 
ATOM      4  C4  N4B d   1       1.130  -0.814   0.353  0.00  0.00    -0.004 A 
ATOM      5  C5  N4B d   1       2.011  -1.561  -0.373  0.00  0.00     0.002 A 
ATOM      6  C6  N4B d   1       2.594  -2.692   0.163  0.00  0.00     0.002 A 
ENDROOT
BRANCH   1   7
ATOM      7  C1' N4B d   1       3.004  -4.266   2.020  0.00  0.00     0.057 C 
BRANCH   7   8
ATOM      8  C2' N4B d   1       4.346  -3.808   2.583  0.00  0.00     0.009 C 
BRANCH   8   9
ATOM      9  C3' N4B d   1       4.536  -4.245   4.025  0.00  0.00     0.004 C 
ATOM     10  C4' N4B d   1       5.033  -3.138   4.907  0.00  0.00     0.003 C 
ENDBRANCH   8   9
ENDBRANCH   7   8
ENDBRANCH   1   7
TORSDOF 3
ENDMDL
