MODEL 1
REMARK minimizedAffinity 3.62904644
REMARK minimizedRMSD -1
REMARK  3 active torsions:
REMARK  status: ('A' for Active; 'I' for Inactive)
REMARK    1  A    between atoms: C3'_2  and  C2'_3 
REMARK    2  A    between atoms: C2'_3  and  C1'_4 
REMARK    3  A    between atoms: C1'_4  and  C1_5 
ROOT
ATOM      1  C1  N4B d   1       0.076  -1.052   1.797  0.00  0.00    -0.075 A 
ATOM      2  C2  N4B d   1       1.174  -0.525   1.083  0.00  0.00     0.002 A 
ATOM      3  C3  N4B d   1       2.018  -1.367   0.401  0.00  0.00     0.002 A 
ATOM      4  C4  N4B d   1       1.796  -2.736   0.436  0.00  0.00    -0.004 A 
ATOM      5  C5  N4B d   1       0.719  -3.235   1.107  0.00  0.00     0.002 A 
ATOM      6  C6  N4B d   1      -0.140  -2.400   1.793  0.00  0.00     0.002 A 
ENDROOT
BRANCH   1   7
ATOM      7  C1' N4B d   1      -0.824  -0.179   2.628  0.00  0.00     0.057 C 
BRANCH   7   8
ATOM      8  C2' N4B d   1      -2.279  -0.522   2.320  0.00  0.00     0.009 C 
BRANCH   8   9
ATOM      9  C3' N4B d   1      -3.109   0.719   2.043  0.00  0.00     0.004 C 
ATOM     10  C4' N4B d   1      -3.728   1.291   3.284  0.00  0.00     0.003 C 
ENDBRANCH   8   9
ENDBRANCH   7   8
ENDBRANCH   1   7
TORSDOF 3
ENDMDL
