MODEL 1
REMARK minimizedAffinity 4.49101591
REMARK minimizedRMSD -1
REMARK  3 active torsions:
REMARK  status: ('A' for Active; 'I' for Inactive)
REMARK    1  A    between atoms: C3'_2  and  C2'_3 
REMARK    2  A    between atoms: C2'_3  and  C1'_4 
REMARK    3  A    between atoms: C1'_4  and  C1_5 
ROOT
ATOM      1  C1  N4B d   1       0.127  -0.414  -0.206  0.00  0.00    -0.075 A 
ATOM      2  C2  N4B d   1       0.167  -0.521   1.201  0.00  0.00     0.002 A 
ATOM      3  C3  N4B d   1      -0.999  -0.491   1.926  0.00  0.00     0.002 A 
ATOM      4  C4  N4B d   1      -2.211  -0.337   1.269  0.00  0.00    -0.004 A 
ATOM      5  C5  N4B d   1      -2.243  -0.261  -0.093  0.00  0.00     0.002 A 
ATOM      6  C6  N4B d   1      -1.078  -0.293  -0.834  0.00  0.00     0.002 A 
ENDROOT
BRANCH   1   7
ATOM      7  C1' N4B d   1       1.382  -0.355  -1.034  0.00  0.00     0.057 C 
BRANCH   7   8
ATOM      8  C2' N4B d   1       2.564  -0.019  -0.129  0.00  0.00     0.009 C 
BRANCH   8   9
ATOM      9  C3' N4B d   1       3.316   1.210  -0.610  0.00  0.00     0.004 C 
ATOM     10  C4' N4B d   1       2.770   1.760  -1.893  0.00  0.00     0.003 C 
ENDBRANCH   8   9
ENDBRANCH   7   8
ENDBRANCH   1   7
TORSDOF 3
ENDMDL
