MODEL 1
REMARK minimizedAffinity -2.49464822
REMARK minimizedRMSD -1
REMARK  0 active torsions:
REMARK  status: ('A' for Active; 'I' for Inactive)
ROOT
ATOM      1  O1  BZF d   1      -1.909  -1.658   1.255  0.00  0.00    -0.204 OA
ATOM      2  C2  BZF d   1      -1.611  -2.932   0.810  0.00  0.00     0.174 A 
ATOM      3  C3  BZF d   1      -0.730  -2.888  -0.211  0.00  0.00    -0.012 A 
ATOM      4  C3A BZF d   1      -0.391  -1.506  -0.356  0.00  0.00    -0.107 A 
ATOM      5  C4  BZF d   1       0.450  -0.828  -1.192  0.00  0.00     0.055 A 
ATOM      6  C5  BZF d   1       0.497   0.528  -1.124  0.00  0.00    -0.016 A 
ATOM      7  C6  BZF d   1      -0.285   1.238  -0.237  0.00  0.00     0.022 A 
ATOM      8  C7  BZF d   1      -1.131   0.610   0.616  0.00  0.00     0.029 A 
ATOM      9  C7A BZF d   1      -1.156  -0.762   0.572  0.00  0.00     0.058 A 
ENDROOT
TORSDOF 0
ENDMDL
