MODEL 1
REMARK minimizedAffinity -5.59767437
REMARK minimizedRMSD -1
REMARK  0 active torsions:
REMARK  status: ('A' for Active; 'I' for Inactive)
ROOT
ATOM      1  O1  BZF d   1      -1.428   0.230   0.290  0.00  0.00    -0.204 OA
ATOM      2  C2  BZF d   1      -0.545   1.166  -0.210  0.00  0.00     0.174 A 
ATOM      3  C3  BZF d   1       0.667   0.614  -0.425  0.00  0.00    -0.012 A 
ATOM      4  C3A BZF d   1       0.507  -0.775  -0.122  0.00  0.00    -0.107 A 
ATOM      5  C4  BZF d   1       1.351  -1.847  -0.158  0.00  0.00     0.055 A 
ATOM      6  C5  BZF d   1       0.903  -3.056   0.271  0.00  0.00    -0.016 A 
ATOM      7  C6  BZF d   1      -0.381  -3.227   0.746  0.00  0.00     0.022 A 
ATOM      8  C7  BZF d   1      -1.257  -2.194   0.796  0.00  0.00     0.029 A 
ATOM      9  C7A BZF d   1      -0.817  -0.978   0.333  0.00  0.00     0.058 A 
ENDROOT
TORSDOF 0
ENDMDL
