MODEL 1
REMARK minimizedAffinity -4.65176868
REMARK minimizedRMSD -1
REMARK  0 active torsions:
REMARK  status: ('A' for Active; 'I' for Inactive)
ROOT
ATOM      1  O1  BZF d   1       0.565  -1.005  -2.176  0.00  0.00    -0.204 OA
ATOM      2  C2  BZF d   1       0.482   0.374  -2.204  0.00  0.00     0.174 A 
ATOM      3  C3  BZF d   1       0.013   0.849  -1.032  0.00  0.00    -0.012 A 
ATOM      4  C3A BZF d   1      -0.124  -0.299  -0.189  0.00  0.00    -0.107 A 
ATOM      5  C4  BZF d   1      -0.532  -0.472   1.103  0.00  0.00     0.055 A 
ATOM      6  C5  BZF d   1      -0.621  -1.731   1.605  0.00  0.00    -0.016 A 
ATOM      7  C6  BZF d   1      -0.316  -2.840   0.842  0.00  0.00     0.022 A 
ATOM      8  C7  BZF d   1       0.098  -2.719  -0.442  0.00  0.00     0.029 A 
ATOM      9  C7A BZF d   1       0.221  -1.445  -0.942  0.00  0.00     0.058 A 
ENDROOT
TORSDOF 0
ENDMDL
