MODEL 1
REMARK minimizedAffinity -5.63659477
REMARK minimizedRMSD -1
REMARK  0 active torsions:
REMARK  status: ('A' for Active; 'I' for Inactive)
ROOT
ATOM      1  O1  BZF d   1      -0.361   0.356  -1.478  0.00  0.00    -0.204 OA
ATOM      2  C2  BZF d   1      -1.026   0.829  -0.363  0.00  0.00     0.174 A 
ATOM      3  C3  BZF d   1      -1.202  -0.155   0.543  0.00  0.00    -0.012 A 
ATOM      4  C3A BZF d   1      -0.528  -1.293  -0.003  0.00  0.00    -0.107 A 
ATOM      5  C4  BZF d   1      -0.334  -2.570   0.439  0.00  0.00     0.055 A 
ATOM      6  C5  BZF d   1       0.307  -3.458  -0.366  0.00  0.00    -0.016 A 
ATOM      7  C6  BZF d   1       0.761  -3.104  -1.620  0.00  0.00     0.022 A 
ATOM      8  C7  BZF d   1       0.596  -1.847  -2.100  0.00  0.00     0.029 A 
ATOM      9  C7A BZF d   1      -0.021  -0.939  -1.275  0.00  0.00     0.058 A 
ENDROOT
TORSDOF 0
ENDMDL
