MODEL 1
REMARK minimizedAffinity -4.75368881
REMARK minimizedRMSD -1
REMARK  0 active torsions:
REMARK  status: ('A' for Active; 'I' for Inactive)
ROOT
ATOM      1  O1  BZF d   1      -0.587   0.759  -1.454  0.00  0.00    -0.204 OA
ATOM      2  C2  BZF d   1      -0.165  -0.073  -2.473  0.00  0.00     0.174 A 
ATOM      3  C3  BZF d   1      -0.175  -1.361  -2.075  0.00  0.00    -0.012 A 
ATOM      4  C3A BZF d   1      -0.719  -1.342  -0.751  0.00  0.00    -0.107 A 
ATOM      5  C4  BZF d   1      -0.994  -2.316   0.165  0.00  0.00     0.055 A 
ATOM      6  C5  BZF d   1      -1.453  -1.958   1.393  0.00  0.00    -0.016 A 
ATOM      7  C6  BZF d   1      -1.644  -0.636   1.739  0.00  0.00     0.022 A 
ATOM      8  C7  BZF d   1      -1.390   0.366   0.862  0.00  0.00     0.029 A 
ATOM      9  C7A BZF d   1      -0.957   0.005  -0.391  0.00  0.00     0.058 A 
ENDROOT
TORSDOF 0
ENDMDL
