MODEL 1
REMARK minimizedAffinity -4.02262735
REMARK minimizedRMSD -1
REMARK  0 active torsions:
REMARK  status: ('A' for Active; 'I' for Inactive)
ROOT
ATOM      1  O1  BZF d   1       0.811   0.513  -0.647  0.00  0.00    -0.204 OA
ATOM      2  C2  BZF d   1       0.011   1.428   0.010  0.00  0.00     0.174 A 
ATOM      3  C3  BZF d   1      -0.990   0.806   0.664  0.00  0.00    -0.012 A 
ATOM      4  C3A BZF d   1      -0.751  -0.592   0.476  0.00  0.00    -0.107 A 
ATOM      5  C4  BZF d   1      -1.394  -1.720   0.899  0.00  0.00     0.055 A 
ATOM      6  C5  BZF d   1      -0.946  -2.933   0.479  0.00  0.00    -0.016 A 
ATOM      7  C6  BZF d   1       0.138  -3.053  -0.366  0.00  0.00     0.022 A 
ATOM      8  C7  BZF d   1       0.811  -1.963  -0.808  0.00  0.00     0.029 A 
ATOM      9  C7A BZF d   1       0.381  -0.739  -0.360  0.00  0.00     0.058 A 
ENDROOT
TORSDOF 0
ENDMDL
