MODEL 1
REMARK minimizedAffinity 0.058860641
REMARK minimizedRMSD -1
REMARK  0 active torsions:
REMARK  status: ('A' for Active; 'I' for Inactive)
ROOT
ATOM      1  O1  BZF d   1       1.783   2.477  -0.731  0.00  0.00    -0.204 OA
ATOM      2  C2  BZF d   1       1.686   3.414   0.279  0.00  0.00     0.174 A 
ATOM      3  C3  BZF d   1       0.732   3.065   1.166  0.00  0.00    -0.012 A 
ATOM      4  C3A BZF d   1       0.262   1.787   0.729  0.00  0.00    -0.107 A 
ATOM      5  C4  BZF d   1      -0.676   0.917   1.209  0.00  0.00     0.055 A 
ATOM      6  C5  BZF d   1      -0.947  -0.215   0.507  0.00  0.00    -0.016 A 
ATOM      7  C6  BZF d   1      -0.306  -0.505  -0.680  0.00  0.00     0.022 A 
ATOM      8  C7  BZF d   1       0.635   0.325  -1.193  0.00  0.00     0.029 A 
ATOM      9  C7A BZF d   1       0.936   1.453  -0.469  0.00  0.00     0.058 A 
ENDROOT
TORSDOF 0
ENDMDL
