MODEL 1
REMARK minimizedAffinity -4.20264292
REMARK minimizedRMSD -1
REMARK  0 active torsions:
REMARK  status: ('A' for Active; 'I' for Inactive)
ROOT
ATOM      1  O1  BZF d   1       0.368   0.533  -1.105  0.00  0.00    -0.204 OA
ATOM      2  C2  BZF d   1      -0.488   1.360  -0.403  0.00  0.00     0.174 A 
ATOM      3  C3  BZF d   1      -1.162   0.665   0.536  0.00  0.00    -0.012 A 
ATOM      4  C3A BZF d   1      -0.630  -0.662   0.476  0.00  0.00    -0.107 A 
ATOM      5  C4  BZF d   1      -0.885  -1.808   1.174  0.00  0.00     0.055 A 
ATOM      6  C5  BZF d   1      -0.245  -2.953   0.819  0.00  0.00    -0.016 A 
ATOM      7  C6  BZF d   1       0.651  -2.989  -0.229  0.00  0.00     0.022 A 
ATOM      8  C7  BZF d   1       0.939  -1.877  -0.948  0.00  0.00     0.029 A 
ATOM      9  C7A BZF d   1       0.319  -0.711  -0.571  0.00  0.00     0.058 A 
ENDROOT
TORSDOF 0
ENDMDL
