MODEL 1
REMARK minimizedAffinity -0.785132527
REMARK minimizedRMSD -1
REMARK  0 active torsions:
REMARK  status: ('A' for Active; 'I' for Inactive)
ROOT
ATOM      1  O1  BZF d   1      -0.716   0.982   0.601  0.00  0.00    -0.204 OA
ATOM      2  C2  BZF d   1       0.439   1.315  -0.081  0.00  0.00     0.174 A 
ATOM      3  C3  BZF d   1       1.029   0.213  -0.589  0.00  0.00    -0.012 A 
ATOM      4  C3A BZF d   1       0.141  -0.865  -0.280  0.00  0.00    -0.107 A 
ATOM      5  C4  BZF d   1       0.168  -2.206  -0.536  0.00  0.00     0.055 A 
ATOM      6  C5  BZF d   1      -0.817  -2.995  -0.032  0.00  0.00    -0.016 A 
ATOM      7  C6  BZF d   1      -1.841  -2.478   0.734  0.00  0.00     0.022 A 
ATOM      8  C7  BZF d   1      -1.913  -1.153   1.010  0.00  0.00     0.029 A 
ATOM      9  C7A BZF d   1      -0.937  -0.348   0.475  0.00  0.00     0.058 A 
ENDROOT
TORSDOF 0
ENDMDL
