MODEL 1
REMARK minimizedAffinity -4.26600409
REMARK minimizedRMSD -1
REMARK  0 active torsions:
REMARK  status: ('A' for Active; 'I' for Inactive)
ROOT
ATOM      1  O1  BZF d   1       0.306  -1.009  -2.359  0.00  0.00    -0.204 OA
ATOM      2  C2  BZF d   1       0.099   0.271  -2.836  0.00  0.00     0.174 A 
ATOM      3  C3  BZF d   1      -0.388   1.071  -1.866  0.00  0.00    -0.012 A 
ATOM      4  C3A BZF d   1      -0.405   0.263  -0.685  0.00  0.00    -0.107 A 
ATOM      5  C4  BZF d   1      -0.770   0.499   0.609  0.00  0.00     0.055 A 
ATOM      6  C5  BZF d   1      -0.736  -0.524   1.503  0.00  0.00    -0.016 A 
ATOM      7  C6  BZF d   1      -0.347  -1.795   1.136  0.00  0.00     0.022 A 
ATOM      8  C7  BZF d   1       0.030  -2.077  -0.135  0.00  0.00     0.029 A 
ATOM      9  C7A BZF d   1       0.027  -1.038  -1.033  0.00  0.00     0.058 A 
ENDROOT
TORSDOF 0
ENDMDL
