MODEL 1
REMARK minimizedAffinity -2.35016513
REMARK minimizedRMSD -1
REMARK  0 active torsions:
REMARK  status: ('A' for Active; 'I' for Inactive)
ROOT
ATOM      1  O1  BZF d   1      -1.501   0.335   0.382  0.00  0.00    -0.204 OA
ATOM      2  C2  BZF d   1      -0.602   1.225  -0.174  0.00  0.00     0.174 A 
ATOM      3  C3  BZF d   1       0.539   0.597  -0.523  0.00  0.00    -0.012 A 
ATOM      4  C3A BZF d   1       0.306  -0.787  -0.247  0.00  0.00    -0.107 A 
ATOM      5  C4  BZF d   1       1.062  -1.915  -0.398  0.00  0.00     0.055 A 
ATOM      6  C5  BZF d   1       0.568  -3.104   0.036  0.00  0.00    -0.016 A 
ATOM      7  C6  BZF d   1      -0.674  -3.201   0.629  0.00  0.00     0.022 A 
ATOM      8  C7  BZF d   1      -1.462  -2.112   0.796  0.00  0.00     0.029 A 
ATOM      9  C7A BZF d   1      -0.979  -0.914   0.328  0.00  0.00     0.058 A 
ENDROOT
TORSDOF 0
ENDMDL
