MODEL 1
REMARK minimizedAffinity -2.44591928
REMARK minimizedRMSD -1
REMARK  0 active torsions:
REMARK  status: ('A' for Active; 'I' for Inactive)
ROOT
ATOM      1  O1  BZF d   1      -0.058   1.703   1.136  0.00  0.00    -0.204 OA
ATOM      2  C2  BZF d   1       0.744   2.167   0.112  0.00  0.00     0.174 A 
ATOM      3  C3  BZF d   1       1.040   1.174  -0.751  0.00  0.00    -0.012 A 
ATOM      4  C3A BZF d   1       0.307   0.038  -0.284  0.00  0.00    -0.107 A 
ATOM      5  C4  BZF d   1       0.179  -1.246  -0.732  0.00  0.00     0.055 A 
ATOM      6  C5  BZF d   1      -0.557  -2.128  -0.005  0.00  0.00    -0.016 A 
ATOM      7  C6  BZF d   1      -1.172  -1.763   1.174  0.00  0.00     0.022 A 
ATOM      8  C7  BZF d   1      -1.077  -0.499   1.656  0.00  0.00     0.029 A 
ATOM      9  C7A BZF d   1      -0.362   0.403   0.907  0.00  0.00     0.058 A 
ENDROOT
TORSDOF 0
ENDMDL
