MODEL 1
REMARK minimizedAffinity -5.65133953
REMARK minimizedRMSD -1
REMARK  0 active torsions:
REMARK  status: ('A' for Active; 'I' for Inactive)
ROOT
ATOM      1  O1  BZF d   1       0.230   0.127  -1.640  0.00  0.00    -0.204 OA
ATOM      2  C2  BZF d   1      -0.085   1.343  -1.065  0.00  0.00     0.174 A 
ATOM      3  C3  BZF d   1      -0.549   1.173   0.190  0.00  0.00    -0.012 A 
ATOM      4  C3A BZF d   1      -0.437  -0.231   0.446  0.00  0.00    -0.107 A 
ATOM      5  C4  BZF d   1      -0.725  -1.014   1.527  0.00  0.00     0.055 A 
ATOM      6  C5  BZF d   1      -0.568  -2.360   1.428  0.00  0.00    -0.016 A 
ATOM      7  C6  BZF d   1      -0.132  -2.956   0.263  0.00  0.00     0.022 A 
ATOM      8  C7  BZF d   1       0.171  -2.220  -0.834  0.00  0.00     0.029 A 
ATOM      9  C7A BZF d   1       0.046  -0.857  -0.727  0.00  0.00     0.058 A 
ENDROOT
TORSDOF 0
ENDMDL
