MODEL 1
REMARK minimizedAffinity -6.27893734
REMARK minimizedRMSD -1
REMARK  0 active torsions:
REMARK  status: ('A' for Active; 'I' for Inactive)
ROOT
ATOM      1  O1  BZF d   1       0.217   0.212  -2.105  0.00  0.00    -0.204 OA
ATOM      2  C2  BZF d   1      -0.057   1.263  -1.252  0.00  0.00     0.174 A 
ATOM      3  C3  BZF d   1      -0.362   0.811  -0.018  0.00  0.00    -0.012 A 
ATOM      4  C3A BZF d   1      -0.183  -0.607  -0.082  0.00  0.00    -0.107 A 
ATOM      5  C4  BZF d   1      -0.317  -1.612   0.833  0.00  0.00     0.055 A 
ATOM      6  C5  BZF d   1      -0.140  -2.898   0.431  0.00  0.00    -0.016 A 
ATOM      7  C6  BZF d   1       0.168  -3.215  -0.876  0.00  0.00     0.022 A 
ATOM      8  C7  BZF d   1       0.317  -2.252  -1.817  0.00  0.00     0.029 A 
ATOM      9  C7A BZF d   1       0.170  -0.949  -1.408  0.00  0.00     0.058 A 
ENDROOT
TORSDOF 0
ENDMDL
