MODEL 1
REMARK minimizedAffinity -2.78072357
REMARK minimizedRMSD -1
REMARK  0 active torsions:
REMARK  status: ('A' for Active; 'I' for Inactive)
ROOT
ATOM      1  O1  BZF d   1      -1.427  -1.928   0.963  0.00  0.00    -0.204 OA
ATOM      2  C2  BZF d   1      -0.946  -3.065   0.342  0.00  0.00     0.174 A 
ATOM      3  C3  BZF d   1      -0.138  -2.741  -0.689  0.00  0.00    -0.012 A 
ATOM      4  C3A BZF d   1      -0.040  -1.314  -0.656  0.00  0.00    -0.107 A 
ATOM      5  C4  BZF d   1       0.633  -0.401  -1.417  0.00  0.00     0.055 A 
ATOM      6  C5  BZF d   1       0.459   0.923  -1.168  0.00  0.00    -0.016 A 
ATOM      7  C6  BZF d   1      -0.383   1.370  -0.171  0.00  0.00     0.022 A 
ATOM      8  C7  BZF d   1      -1.068   0.503   0.613  0.00  0.00     0.029 A 
ATOM      9  C7A BZF d   1      -0.869  -0.837   0.386  0.00  0.00     0.058 A 
ENDROOT
TORSDOF 0
ENDMDL
