MODEL 1
REMARK minimizedAffinity -3.19289112
REMARK minimizedRMSD -1
REMARK  0 active torsions:
REMARK  status: ('A' for Active; 'I' for Inactive)
ROOT
ATOM      1  O1  BZF d   1       0.046  -0.657  -2.467  0.00  0.00    -0.204 OA
ATOM      2  C2  BZF d   1       0.036  -1.834  -3.191  0.00  0.00     0.174 A 
ATOM      3  C3  BZF d   1      -0.179  -2.891  -2.382  0.00  0.00    -0.012 A 
ATOM      4  C3A BZF d   1      -0.405  -2.333  -1.085  0.00  0.00    -0.107 A 
ATOM      5  C4  BZF d   1      -0.689  -2.877   0.135  0.00  0.00     0.055 A 
ATOM      6  C5  BZF d   1      -0.778  -2.061   1.218  0.00  0.00    -0.016 A 
ATOM      7  C6  BZF d   1      -0.583  -0.699   1.119  0.00  0.00     0.022 A 
ATOM      8  C7  BZF d   1      -0.304  -0.113  -0.071  0.00  0.00     0.029 A 
ATOM      9  C7A BZF d   1      -0.246  -0.931  -1.173  0.00  0.00     0.058 A 
ENDROOT
TORSDOF 0
ENDMDL
