MODEL 1
REMARK minimizedAffinity -3.54328012
REMARK minimizedRMSD -1
REMARK  0 active torsions:
REMARK  status: ('A' for Active; 'I' for Inactive)
ROOT
ATOM      1  C   UNL d   1      -0.127  -2.876   0.701  0.00  0.00     0.020 A 
ATOM      2  C1  UNL d   1      -1.475  -3.027   1.027  0.00  0.00     0.020 A 
ATOM      3  C2  UNL d   1      -2.313  -1.910   1.064  0.00  0.00     0.034 A 
ATOM      4  C3  UNL d   1      -1.805  -0.639   0.775  0.00  0.00     0.017 A 
ATOM      5  C4  UNL d   1      -0.452  -0.489   0.448  0.00  0.00     0.017 A 
ATOM      6  C5  UNL d   1       0.383  -1.610   0.412  0.00  0.00     0.034 A 
ATOM      7 Cl   UNL d   1       0.248   1.048   0.079  0.00  0.00    -0.070 Cl
ATOM      8 Cl1  UNL d   1      -2.898   0.698   0.840  0.00  0.00    -0.070 Cl
ENDROOT
TORSDOF 0
ENDMDL
