MODEL 1
REMARK minimizedAffinity 2.28613067
REMARK minimizedRMSD -1
REMARK  0 active torsions:
REMARK  status: ('A' for Active; 'I' for Inactive)
ROOT
ATOM      1  C   UNL d   1       3.782   1.370   1.841  0.00  0.00     0.020 A 
ATOM      2  C1  UNL d   1       4.700   0.330   1.973  0.00  0.00     0.020 A 
ATOM      3  C2  UNL d   1       4.351  -0.964   1.578  0.00  0.00     0.034 A 
ATOM      4  C3  UNL d   1       3.080  -1.219   1.049  0.00  0.00     0.017 A 
ATOM      5  C4  UNL d   1       2.159  -0.174   0.917  0.00  0.00     0.017 A 
ATOM      6  C5  UNL d   1       2.514   1.119   1.314  0.00  0.00     0.034 A 
ATOM      7 Cl   UNL d   1       0.573  -0.412   0.273  0.00  0.00    -0.070 Cl
ATOM      8 Cl1  UNL d   1       2.717  -2.842   0.581  0.00  0.00    -0.070 Cl
ENDROOT
TORSDOF 0
ENDMDL
