MODEL 1
REMARK minimizedAffinity -1.14938927
REMARK minimizedRMSD -1
REMARK  0 active torsions:
REMARK  status: ('A' for Active; 'I' for Inactive)
ROOT
ATOM      1  C   UNL d   1      -0.903   1.521   0.628  0.00  0.00     0.020 A 
ATOM      2  C1  UNL d   1      -0.609   0.388  -0.130  0.00  0.00     0.020 A 
ATOM      3  C2  UNL d   1      -0.177   0.524  -1.451  0.00  0.00     0.034 A 
ATOM      4  C3  UNL d   1      -0.039   1.796  -2.018  0.00  0.00     0.017 A 
ATOM      5  C4  UNL d   1      -0.334   2.933  -1.257  0.00  0.00     0.017 A 
ATOM      6  C5  UNL d   1      -0.766   2.790   0.066  0.00  0.00     0.034 A 
ATOM      7 Cl   UNL d   1      -0.187   4.535  -1.888  0.00  0.00    -0.070 Cl
ATOM      8 Cl1  UNL d   1       0.500   1.890  -3.657  0.00  0.00    -0.070 Cl
ENDROOT
TORSDOF 0
ENDMDL
