MODEL 1
REMARK minimizedAffinity -3.02986121
REMARK minimizedRMSD -1
REMARK  0 active torsions:
REMARK  status: ('A' for Active; 'I' for Inactive)
ROOT
ATOM      1  C   UNL d   1      -2.031  -2.173  -0.248  0.00  0.00     0.020 A 
ATOM      2  C1  UNL d   1      -1.415  -2.534   0.950  0.00  0.00     0.020 A 
ATOM      3  C2  UNL d   1      -0.220  -1.922   1.332  0.00  0.00     0.034 A 
ATOM      4  C3  UNL d   1       0.364  -0.946   0.516  0.00  0.00     0.017 A 
ATOM      5  C4  UNL d   1      -0.254  -0.585  -0.686  0.00  0.00     0.017 A 
ATOM      6  C5  UNL d   1      -1.451  -1.201  -1.064  0.00  0.00     0.034 A 
ATOM      7 Cl   UNL d   1       0.406   0.610  -1.746  0.00  0.00    -0.070 Cl
ATOM      8 Cl1  UNL d   1       1.843  -0.231   1.051  0.00  0.00    -0.070 Cl
ENDROOT
TORSDOF 0
ENDMDL
