MODEL 1
REMARK minimizedAffinity -5.32936049
REMARK minimizedRMSD -1
REMARK  0 active torsions:
REMARK  status: ('A' for Active; 'I' for Inactive)
ROOT
ATOM      1  C   UNL d   1       1.548  -1.191   0.630  0.00  0.00     0.020 A 
ATOM      2  C1  UNL d   1       1.280   0.167   0.464  0.00  0.00     0.020 A 
ATOM      3  C2  UNL d   1      -0.023   0.645   0.614  0.00  0.00     0.034 A 
ATOM      4  C3  UNL d   1      -1.064  -0.235   0.931  0.00  0.00     0.017 A 
ATOM      5  C4  UNL d   1      -0.794  -1.599   1.097  0.00  0.00     0.017 A 
ATOM      6  C5  UNL d   1       0.513  -2.072   0.946  0.00  0.00     0.034 A 
ATOM      7 Cl   UNL d   1      -2.025  -2.746   1.489  0.00  0.00    -0.070 Cl
ATOM      8 Cl1  UNL d   1      -2.651   0.425   1.101  0.00  0.00    -0.070 Cl
ENDROOT
TORSDOF 0
ENDMDL
