MODEL 1
REMARK minimizedAffinity -3.95973015
REMARK minimizedRMSD -1
REMARK  0 active torsions:
REMARK  status: ('A' for Active; 'I' for Inactive)
ROOT
ATOM      1  C   UNL d   1      -1.943  -1.873   0.531  0.00  0.00     0.020 A 
ATOM      2  C1  UNL d   1      -1.862  -0.499   0.750  0.00  0.00     0.020 A 
ATOM      3  C2  UNL d   1      -0.614   0.125   0.814  0.00  0.00     0.034 A 
ATOM      4  C3  UNL d   1       0.557  -0.626   0.659  0.00  0.00     0.017 A 
ATOM      5  C4  UNL d   1       0.474  -2.005   0.439  0.00  0.00     0.017 A 
ATOM      6  C5  UNL d   1      -0.778  -2.625   0.375  0.00  0.00     0.034 A 
ATOM      7 Cl   UNL d   1       1.875  -2.998   0.238  0.00  0.00    -0.070 Cl
ATOM      8 Cl1  UNL d   1       2.066   0.211   0.750  0.00  0.00    -0.070 Cl
ENDROOT
TORSDOF 0
ENDMDL
