MODEL 1
REMARK minimizedAffinity -4.64557219
REMARK minimizedRMSD -1
REMARK  0 active torsions:
REMARK  status: ('A' for Active; 'I' for Inactive)
ROOT
ATOM      1  C   UNL d   1      -1.537  -2.714   1.294  0.00  0.00     0.020 A 
ATOM      2  C1  UNL d   1      -2.355  -1.729   0.742  0.00  0.00     0.020 A 
ATOM      3  C2  UNL d   1      -1.787  -0.585   0.179  0.00  0.00     0.034 A 
ATOM      4  C3  UNL d   1      -0.396  -0.423   0.166  0.00  0.00     0.017 A 
ATOM      5  C4  UNL d   1       0.424  -1.412   0.720  0.00  0.00     0.017 A 
ATOM      6  C5  UNL d   1      -0.151  -2.556   1.283  0.00  0.00     0.034 A 
ATOM      7 Cl   UNL d   1       2.147  -1.283   0.741  0.00  0.00    -0.070 Cl
ATOM      8 Cl1  UNL d   1       0.238   1.017  -0.548  0.00  0.00    -0.070 Cl
ENDROOT
TORSDOF 0
ENDMDL
