MODEL 1
REMARK minimizedAffinity -3.26860905
REMARK minimizedRMSD -1
REMARK  0 active torsions:
REMARK  status: ('A' for Active; 'I' for Inactive)
ROOT
ATOM      1  C   UNL d   1      -0.951  -2.225   1.529  0.00  0.00     0.020 A 
ATOM      2  C1  UNL d   1       0.096  -2.516   0.657  0.00  0.00     0.020 A 
ATOM      3  C2  UNL d   1       0.673  -1.498  -0.106  0.00  0.00     0.034 A 
ATOM      4  C3  UNL d   1       0.202  -0.185   0.002  0.00  0.00     0.017 A 
ATOM      5  C4  UNL d   1      -0.850   0.106   0.879  0.00  0.00     0.017 A 
ATOM      6  C5  UNL d   1      -1.423  -0.917   1.640  0.00  0.00     0.034 A 
ATOM      7 Cl   UNL d   1      -1.485   1.703   1.067  0.00  0.00    -0.070 Cl
ATOM      8 Cl1  UNL d   1       0.961   1.024  -0.971  0.00  0.00    -0.070 Cl
ENDROOT
TORSDOF 0
ENDMDL
