MODEL 1
REMARK minimizedAffinity -1.02760243
REMARK minimizedRMSD -1
REMARK  0 active torsions:
REMARK  status: ('A' for Active; 'I' for Inactive)
ROOT
ATOM      1  C   UNL d   1      -1.939  -0.941   2.854  0.00  0.00     0.020 A 
ATOM      2  C1  UNL d   1      -1.204  -2.104   2.631  0.00  0.00     0.020 A 
ATOM      3  C2  UNL d   1      -0.630  -2.339   1.380  0.00  0.00     0.034 A 
ATOM      4  C3  UNL d   1      -0.789  -1.409   0.347  0.00  0.00     0.017 A 
ATOM      5  C4  UNL d   1      -1.528  -0.241   0.571  0.00  0.00     0.017 A 
ATOM      6  C5  UNL d   1      -2.101  -0.011   1.826  0.00  0.00     0.034 A 
ATOM      7 Cl   UNL d   1      -1.768   0.954  -0.655  0.00  0.00    -0.070 Cl
ATOM      8 Cl1  UNL d   1      -0.051  -1.763  -1.175  0.00  0.00    -0.070 Cl
ENDROOT
TORSDOF 0
ENDMDL
