MODEL 1
REMARK minimizedAffinity -1.94295239
REMARK minimizedRMSD -1
REMARK  0 active torsions:
REMARK  status: ('A' for Active; 'I' for Inactive)
ROOT
ATOM      1  C   UNL d   1      -1.381  -1.996   3.310  0.00  0.00     0.020 A 
ATOM      2  C1  UNL d   1      -0.510  -3.085   3.299  0.00  0.00     0.020 A 
ATOM      3  C2  UNL d   1       0.627  -3.062   2.489  0.00  0.00     0.034 A 
ATOM      4  C3  UNL d   1       0.896  -1.948   1.685  0.00  0.00     0.017 A 
ATOM      5  C4  UNL d   1       0.021  -0.855   1.697  0.00  0.00     0.017 A 
ATOM      6  C5  UNL d   1      -1.116  -0.884   2.510  0.00  0.00     0.034 A 
ATOM      7 Cl   UNL d   1       0.287   0.555   0.733  0.00  0.00    -0.070 Cl
ATOM      8 Cl1  UNL d   1       2.320  -1.988   0.708  0.00  0.00    -0.070 Cl
ENDROOT
TORSDOF 0
ENDMDL
