MODEL 1
REMARK minimizedAffinity -3.07045937
REMARK minimizedRMSD -1
REMARK  0 active torsions:
REMARK  status: ('A' for Active; 'I' for Inactive)
ROOT
ATOM      1  C   UNL d   1      -1.370  -1.880   3.639  0.00  0.00     0.020 A 
ATOM      2  C1  UNL d   1      -0.665  -3.065   3.429  0.00  0.00     0.020 A 
ATOM      3  C2  UNL d   1       0.236  -3.162   2.367  0.00  0.00     0.034 A 
ATOM      4  C3  UNL d   1       0.436  -2.072   1.511  0.00  0.00     0.017 A 
ATOM      5  C4  UNL d   1      -0.272  -0.883   1.723  0.00  0.00     0.017 A 
ATOM      6  C5  UNL d   1      -1.173  -0.792   2.788  0.00  0.00     0.034 A 
ATOM      7 Cl   UNL d   1      -0.079   0.504   0.710  0.00  0.00    -0.070 Cl
ATOM      8 Cl1  UNL d   1       1.566  -2.262   0.218  0.00  0.00    -0.070 Cl
ENDROOT
TORSDOF 0
ENDMDL
