MODEL 1
REMARK minimizedAffinity -0.596437693
REMARK minimizedRMSD -1
REMARK  0 active torsions:
REMARK  status: ('A' for Active; 'I' for Inactive)
ROOT
ATOM      1  C   UNL d   1      -1.435   0.348  -1.200  0.00  0.00     0.020 A 
ATOM      2  C1  UNL d   1      -2.290  -0.468  -0.460  0.00  0.00     0.020 A 
ATOM      3  C2  UNL d   1      -1.768  -1.335   0.502  0.00  0.00     0.034 A 
ATOM      4  C3  UNL d   1      -0.388  -1.389   0.727  0.00  0.00     0.017 A 
ATOM      5  C4  UNL d   1       0.470  -0.570  -0.016  0.00  0.00     0.017 A 
ATOM      6  C5  UNL d   1      -0.058   0.297  -0.978  0.00  0.00     0.034 A 
ATOM      7 Cl   UNL d   1       2.184  -0.580   0.205  0.00  0.00    -0.070 Cl
ATOM      8 Cl1  UNL d   1       0.188  -2.484   1.933  0.00  0.00    -0.070 Cl
ENDROOT
TORSDOF 0
ENDMDL
