MODEL 1
REMARK minimizedAffinity 3.46997833
REMARK minimizedRMSD -1
REMARK  0 active torsions:
REMARK  status: ('A' for Active; 'I' for Inactive)
ROOT
ATOM      1  C   UNL d   1      -3.177   2.856  -2.221  0.00  0.00     0.020 A 
ATOM      2  C1  UNL d   1      -3.283   4.069  -2.900  0.00  0.00     0.020 A 
ATOM      3  C2  UNL d   1      -2.175   4.594  -3.568  0.00  0.00     0.034 A 
ATOM      4  C3  UNL d   1      -0.956   3.907  -3.558  0.00  0.00     0.017 A 
ATOM      5  C4  UNL d   1      -0.850   2.690  -2.876  0.00  0.00     0.017 A 
ATOM      6  C5  UNL d   1      -1.963   2.168  -2.209  0.00  0.00     0.034 A 
ATOM      7 Cl   UNL d   1       0.621   1.784  -2.819  0.00  0.00    -0.070 Cl
ATOM      8 Cl1  UNL d   1       0.373   4.615  -4.405  0.00  0.00    -0.070 Cl
ENDROOT
TORSDOF 0
ENDMDL
