MODEL 1
REMARK minimizedAffinity -1.4405241
REMARK minimizedRMSD -1
REMARK  0 active torsions:
REMARK  status: ('A' for Active; 'I' for Inactive)
ROOT
ATOM      1  C   UNL d   1      -0.875  -5.673  -5.436  0.00  0.00     0.020 A 
ATOM      2  C1  UNL d   1      -1.153  -5.999  -4.109  0.00  0.00     0.020 A 
ATOM      3  C2  UNL d   1      -1.975  -5.168  -3.344  0.00  0.00     0.034 A 
ATOM      4  C3  UNL d   1      -2.521  -4.008  -3.906  0.00  0.00     0.017 A 
ATOM      5  C4  UNL d   1      -2.242  -3.683  -5.238  0.00  0.00     0.017 A 
ATOM      6  C5  UNL d   1      -1.418  -4.518  -5.999  0.00  0.00     0.034 A 
ATOM      7 Cl   UNL d   1      -2.879  -2.268  -6.000  0.00  0.00    -0.070 Cl
ATOM      8 Cl1  UNL d   1      -3.529  -3.028  -2.902  0.00  0.00    -0.070 Cl
ENDROOT
TORSDOF 0
ENDMDL
