MODEL 1
REMARK minimizedAffinity 5.99142456
REMARK minimizedRMSD -1
REMARK  0 active torsions:
REMARK  status: ('A' for Active; 'I' for Inactive)
ROOT
ATOM      1  C   UNL d   1      -1.064  -5.489  -5.957  0.00  0.00     0.020 A 
ATOM      2  C1  UNL d   1      -0.856  -4.111  -5.929  0.00  0.00     0.020 A 
ATOM      3  C2  UNL d   1      -1.948  -3.240  -5.899  0.00  0.00     0.034 A 
ATOM      4  C3  UNL d   1      -3.252  -3.748  -5.897  0.00  0.00     0.017 A 
ATOM      5  C4  UNL d   1      -3.460  -5.132  -5.926  0.00  0.00     0.017 A 
ATOM      6  C5  UNL d   1      -2.363  -5.998  -5.956  0.00  0.00     0.034 A 
ATOM      7 Cl   UNL d   1      -5.040  -5.832  -5.925  0.00  0.00    -0.070 Cl
ATOM      8 Cl1  UNL d   1      -4.555  -2.614  -5.859  0.00  0.00    -0.070 Cl
ENDROOT
TORSDOF 0
ENDMDL
