MODEL 1
REMARK minimizedAffinity 6.15419865
REMARK minimizedRMSD -1
REMARK  0 active torsions:
REMARK  status: ('A' for Active; 'I' for Inactive)
ROOT
ATOM      1  C   UNL d   1       1.394  -3.814   4.152  0.00  0.00     0.020 A 
ATOM      2  C1  UNL d   1       0.256  -3.603   4.929  0.00  0.00     0.020 A 
ATOM      3  C2  UNL d   1      -0.717  -2.693   4.510  0.00  0.00     0.034 A 
ATOM      4  C3  UNL d   1      -0.553  -1.991   3.310  0.00  0.00     0.017 A 
ATOM      5  C4  UNL d   1       0.589  -2.204   2.530  0.00  0.00     0.017 A 
ATOM      6  C5  UNL d   1       1.560  -3.117   2.955  0.00  0.00     0.034 A 
ATOM      7 Cl   UNL d   1       0.861  -1.376   1.038  0.00  0.00    -0.070 Cl
ATOM      8 Cl1  UNL d   1      -1.797  -0.882   2.852  0.00  0.00    -0.070 Cl
ENDROOT
TORSDOF 0
ENDMDL
