MODEL 1
REMARK minimizedAffinity 6.19659042
REMARK minimizedRMSD -1
REMARK  0 active torsions:
REMARK  status: ('A' for Active; 'I' for Inactive)
ROOT
ATOM      1  C   UNL d   1       1.344  -3.386   1.823  0.00  0.00     0.020 A 
ATOM      2  C1  UNL d   1       1.771  -2.687   0.695  0.00  0.00     0.020 A 
ATOM      3  C2  UNL d   1       1.196  -1.454   0.380  0.00  0.00     0.034 A 
ATOM      4  C3  UNL d   1       0.192  -0.917   1.193  0.00  0.00     0.017 A 
ATOM      5  C4  UNL d   1      -0.236  -1.620   2.325  0.00  0.00     0.017 A 
ATOM      6  C5  UNL d   1       0.343  -2.854   2.637  0.00  0.00     0.034 A 
ATOM      7 Cl   UNL d   1      -1.470  -1.021   3.377  0.00  0.00    -0.070 Cl
ATOM      8 Cl1  UNL d   1      -0.475   0.613   0.743  0.00  0.00    -0.070 Cl
ENDROOT
TORSDOF 0
ENDMDL
