MODEL 1
REMARK minimizedAffinity -3.13195181
REMARK minimizedRMSD -1
REMARK  0 active torsions:
REMARK  status: ('A' for Active; 'I' for Inactive)
ROOT
ATOM      1  C   UNL d   1      -1.699  -5.177  -5.977  0.00  0.00     0.020 A 
ATOM      2  C1  UNL d   1      -1.606  -3.786  -5.979  0.00  0.00     0.020 A 
ATOM      3  C2  UNL d   1      -2.765  -3.008  -5.986  0.00  0.00     0.034 A 
ATOM      4  C3  UNL d   1      -4.024  -3.621  -5.991  0.00  0.00     0.017 A 
ATOM      5  C4  UNL d   1      -4.117  -5.017  -5.989  0.00  0.00     0.017 A 
ATOM      6  C5  UNL d   1      -2.952  -5.791  -5.982  0.00  0.00     0.034 A 
ATOM      7 Cl   UNL d   1      -5.634  -5.845  -5.996  0.00  0.00    -0.070 Cl
ATOM      8 Cl1  UNL d   1      -5.416  -2.597  -6.000  0.00  0.00    -0.070 Cl
ENDROOT
TORSDOF 0
ENDMDL
