MODEL 1
REMARK minimizedAffinity 2.03502417
REMARK minimizedRMSD -1
REMARK  0 active torsions:
REMARK  status: ('A' for Active; 'I' for Inactive)
ROOT
ATOM      1  C   UNL d   1      -0.380  -2.539   4.349  0.00  0.00     0.020 A 
ATOM      2  C1  UNL d   1       0.691  -3.332   3.938  0.00  0.00     0.020 A 
ATOM      3  C2  UNL d   1       1.247  -3.151   2.670  0.00  0.00     0.034 A 
ATOM      4  C3  UNL d   1       0.734  -2.175   1.809  0.00  0.00     0.017 A 
ATOM      5  C4  UNL d   1      -0.341  -1.379   2.223  0.00  0.00     0.017 A 
ATOM      6  C5  UNL d   1      -0.894  -1.565   3.493  0.00  0.00     0.034 A 
ATOM      7 Cl   UNL d   1      -1.028  -0.154   1.216  0.00  0.00    -0.070 Cl
ATOM      8 Cl1  UNL d   1       1.471  -2.005   0.256  0.00  0.00    -0.070 Cl
ENDROOT
TORSDOF 0
ENDMDL
