MODEL 1
REMARK minimizedAffinity 12.7296047
REMARK minimizedRMSD -1
REMARK  0 active torsions:
REMARK  status: ('A' for Active; 'I' for Inactive)
ROOT
ATOM      1  C4' PXY d   1       0.754   2.430   2.264  0.00  0.00     0.077 C 
ATOM      2  C1' PXY d   1       2.075  -3.175   1.755  0.00  0.00     0.077 C 
ATOM      3  C1  PXY d   1       1.741  -1.702   1.886  0.00  0.00    -0.082 A 
ATOM      4  C2  PXY d   1       0.692  -1.330   2.602  0.00  0.00     0.003 A 
ATOM      5  C3  PXY d   1       0.357  -0.004   2.704  0.00  0.00     0.003 A 
ATOM      6  C4  PXY d   1       1.135   0.954   2.112  0.00  0.00    -0.082 A 
ATOM      7  C5  PXY d   1       2.212   0.584   1.388  0.00  0.00     0.003 A 
ATOM      8  C6  PXY d   1       2.512  -0.770   1.262  0.00  0.00     0.003 A 
ENDROOT
TORSDOF 0
ENDMDL
