MODEL 1
REMARK minimizedAffinity 11.6854448
REMARK minimizedRMSD -1
REMARK  0 active torsions:
REMARK  status: ('A' for Active; 'I' for Inactive)
ROOT
ATOM      1  C4' PXY d   1      -0.095  -3.404   5.180  0.00  0.00     0.077 C 
ATOM      2  C1' PXY d   1       2.340  -0.369   0.906  0.00  0.00     0.077 C 
ATOM      3  C1  PXY d   1       1.706  -1.156   2.035  0.00  0.00    -0.082 A 
ATOM      4  C2  PXY d   1       1.449  -2.444   1.872  0.00  0.00     0.003 A 
ATOM      5  C3  PXY d   1       0.847  -3.163   2.871  0.00  0.00     0.003 A 
ATOM      6  C4  PXY d   1       0.553  -2.572   4.070  0.00  0.00    -0.082 A 
ATOM      7  C5  PXY d   1       0.821  -1.261   4.249  0.00  0.00     0.003 A 
ATOM      8  C6  PXY d   1       1.395  -0.538   3.207  0.00  0.00     0.003 A 
ENDROOT
TORSDOF 0
ENDMDL
