MODEL 1
REMARK minimizedAffinity 10.0653334
REMARK minimizedRMSD -1
REMARK  0 active torsions:
REMARK  status: ('A' for Active; 'I' for Inactive)
ROOT
ATOM      1  C4' PXY d   1       0.174  -2.033   4.696  0.00  0.00     0.077 C 
ATOM      2  C1' PXY d   1       3.597  -0.684   0.238  0.00  0.00     0.077 C 
ATOM      3  C1  PXY d   1       2.698  -1.025   1.409  0.00  0.00    -0.082 A 
ATOM      4  C2  PXY d   1       2.848  -2.181   2.035  0.00  0.00     0.003 A 
ATOM      5  C3  PXY d   1       2.022  -2.519   3.076  0.00  0.00     0.003 A 
ATOM      6  C4  PXY d   1       1.066  -1.642   3.515  0.00  0.00    -0.082 A 
ATOM      7  C5  PXY d   1       0.913  -0.456   2.888  0.00  0.00     0.003 A 
ATOM      8  C6  PXY d   1       1.735  -0.149   1.807  0.00  0.00     0.003 A 
ENDROOT
TORSDOF 0
ENDMDL
