MODEL 1
REMARK minimizedAffinity 5.80131483
REMARK minimizedRMSD -1
REMARK  0 active torsions:
REMARK  status: ('A' for Active; 'I' for Inactive)
ROOT
ATOM      1  C4' PXY d   1       0.373  -6.000  -2.953  0.00  0.00     0.077 C 
ATOM      2  C1' PXY d   1       1.377  -5.613   2.727  0.00  0.00     0.077 C 
ATOM      3  C1  PXY d   1       1.125  -5.708   1.235  0.00  0.00    -0.082 A 
ATOM      4  C2  PXY d   1      -0.109  -5.880   0.790  0.00  0.00     0.003 A 
ATOM      5  C3  PXY d   1      -0.352  -6.000  -0.554  0.00  0.00     0.003 A 
ATOM      6  C4  PXY d   1       0.673  -5.889  -1.456  0.00  0.00    -0.082 A 
ATOM      7  C5  PXY d   1       1.934  -5.703  -1.010  0.00  0.00     0.003 A 
ATOM      8  C6  PXY d   1       2.164  -5.625   0.360  0.00  0.00     0.003 A 
ENDROOT
TORSDOF 0
ENDMDL
