MODEL 1
REMARK minimizedAffinity 9.65187073
REMARK minimizedRMSD -1
REMARK  0 active torsions:
REMARK  status: ('A' for Active; 'I' for Inactive)
ROOT
ATOM      1  C4' PXY d   1      -2.222   1.412   0.384  0.00  0.00     0.077 C 
ATOM      2  C1' PXY d   1      -5.031   1.998  -4.634  0.00  0.00     0.077 C 
ATOM      3  C1  PXY d   1      -4.293   1.832  -3.320  0.00  0.00    -0.082 A 
ATOM      4  C2  PXY d   1      -4.436   2.741  -2.370  0.00  0.00     0.003 A 
ATOM      5  C3  PXY d   1      -3.752   2.623  -1.188  0.00  0.00     0.003 A 
ATOM      6  C4  PXY d   1      -2.954   1.535  -0.955  0.00  0.00    -0.082 A 
ATOM      7  C5  PXY d   1      -2.811   0.597  -1.916  0.00  0.00     0.003 A 
ATOM      8  C6  PXY d   1      -3.482   0.757  -3.125  0.00  0.00     0.003 A 
ENDROOT
TORSDOF 0
ENDMDL
