MODEL 1
REMARK minimizedAffinity 4.32340431
REMARK minimizedRMSD -1
REMARK  0 active torsions:
REMARK  status: ('A' for Active; 'I' for Inactive)
ROOT
ATOM      1  C4' PXY d   1       1.166  -1.928   4.705  0.00  0.00     0.077 C 
ATOM      2  C1' PXY d   1       2.739  -0.887  -0.759  0.00  0.00     0.077 C 
ATOM      3  C1  PXY d   1       2.317  -1.151   0.673  0.00  0.00    -0.082 A 
ATOM      4  C2  PXY d   1       3.183  -1.677   1.524  0.00  0.00     0.003 A 
ATOM      5  C3  PXY d   1       2.809  -1.952   2.814  0.00  0.00     0.003 A 
ATOM      6  C4  PXY d   1       1.551  -1.636   3.253  0.00  0.00    -0.082 A 
ATOM      7  C5  PXY d   1       0.665  -1.089   2.394  0.00  0.00     0.003 A 
ATOM      8  C6  PXY d   1       1.052  -0.856   1.077  0.00  0.00     0.003 A 
ENDROOT
TORSDOF 0
ENDMDL
