MODEL 1
REMARK minimizedAffinity 16.4284687
REMARK minimizedRMSD -1
REMARK  0 active torsions:
REMARK  status: ('A' for Active; 'I' for Inactive)
ROOT
ATOM      1  C4' PXY d   1       0.539  -3.511   5.271  0.00  0.00     0.077 C 
ATOM      2  C1' PXY d   1       2.111  -0.275   0.747  0.00  0.00     0.077 C 
ATOM      3  C1  PXY d   1       1.699  -1.113   1.941  0.00  0.00    -0.082 A 
ATOM      4  C2  PXY d   1       1.946  -2.413   1.944  0.00  0.00     0.003 A 
ATOM      5  C3  PXY d   1       1.552  -3.191   3.002  0.00  0.00     0.003 A 
ATOM      6  C4  PXY d   1       0.946  -2.625   4.091  0.00  0.00    -0.082 A 
ATOM      7  C5  PXY d   1       0.700  -1.297   4.100  0.00  0.00     0.003 A 
ATOM      8  C6  PXY d   1       1.071  -0.531   2.999  0.00  0.00     0.003 A 
ENDROOT
TORSDOF 0
ENDMDL
