MODEL 1
REMARK minimizedAffinity 11.792285
REMARK minimizedRMSD -1
REMARK  0 active torsions:
REMARK  status: ('A' for Active; 'I' for Inactive)
ROOT
ATOM      1  C4' PXY d   1       2.236  -1.482  -1.819  0.00  0.00     0.077 C 
ATOM      2  C1' PXY d   1       1.168  -1.868   3.849  0.00  0.00     0.077 C 
ATOM      3  C1  PXY d   1       1.443  -1.755   2.363  0.00  0.00    -0.082 A 
ATOM      4  C2  PXY d   1       1.487  -2.849   1.620  0.00  0.00     0.003 A 
ATOM      5  C3  PXY d   1       1.767  -2.767   0.280  0.00  0.00     0.003 A 
ATOM      6  C4  PXY d   1       1.952  -1.548  -0.316  0.00  0.00    -0.082 A 
ATOM      7  C5  PXY d   1       1.898  -0.426   0.433  0.00  0.00     0.003 A 
ATOM      8  C6  PXY d   1       1.654  -0.534   1.799  0.00  0.00     0.003 A 
ENDROOT
TORSDOF 0
ENDMDL
