MODEL 1
REMARK minimizedAffinity 13.5933886
REMARK minimizedRMSD -1
REMARK  0 active torsions:
REMARK  status: ('A' for Active; 'I' for Inactive)
ROOT
ATOM      1  C4' PXY d   1      -0.357  -3.220   5.970  0.00  0.00     0.077 C 
ATOM      2  C1' PXY d   1       1.885   0.713   2.375  0.00  0.00     0.077 C 
ATOM      3  C1  PXY d   1       1.305  -0.315   3.327  0.00  0.00    -0.082 A 
ATOM      4  C2  PXY d   1       0.669  -1.369   2.843  0.00  0.00     0.003 A 
ATOM      5  C3  PXY d   1       0.111  -2.292   3.690  0.00  0.00     0.003 A 
ATOM      6  C4  PXY d   1       0.252  -2.162   5.046  0.00  0.00    -0.082 A 
ATOM      7  C5  PXY d   1       0.909  -1.094   5.547  0.00  0.00     0.003 A 
ATOM      8  C6  PXY d   1       1.433  -0.148   4.671  0.00  0.00     0.003 A 
ENDROOT
TORSDOF 0
ENDMDL
