MODEL 1
REMARK minimizedAffinity 13.5265379
REMARK minimizedRMSD -1
REMARK  0 active torsions:
REMARK  status: ('A' for Active; 'I' for Inactive)
ROOT
ATOM      1  C4' PXY d   1      -2.261   0.902   0.248  0.00  0.00     0.077 C 
ATOM      2  C1' PXY d   1      -5.972   4.625   2.651  0.00  0.00     0.077 C 
ATOM      3  C1  PXY d   1      -4.989   3.657   2.022  0.00  0.00    -0.082 A 
ATOM      4  C2  PXY d   1      -5.436   2.681   1.249  0.00  0.00     0.003 A 
ATOM      5  C3  PXY d   1      -4.564   1.778   0.698  0.00  0.00     0.003 A 
ATOM      6  C4  PXY d   1      -3.216   1.907   0.897  0.00  0.00    -0.082 A 
ATOM      7  C5  PXY d   1      -2.751   2.907   1.676  0.00  0.00     0.003 A 
ATOM      8  C6  PXY d   1      -3.656   3.788   2.260  0.00  0.00     0.003 A 
ENDROOT
TORSDOF 0
ENDMDL
