MODEL 1
REMARK minimizedAffinity 4.00752974
REMARK minimizedRMSD -1
REMARK  0 active torsions:
REMARK  status: ('A' for Active; 'I' for Inactive)
ROOT
ATOM      1  C4' PXY d   1       2.304  -4.923   1.344  0.00  0.00     0.077 C 
ATOM      2  C1' PXY d   1      -1.428  -0.565   0.638  0.00  0.00     0.077 C 
ATOM      3  C1  PXY d   1      -0.442  -1.703   0.813  0.00  0.00    -0.082 A 
ATOM      4  C2  PXY d   1      -0.841  -2.833   1.375  0.00  0.00     0.003 A 
ATOM      5  C3  PXY d   1       0.046  -3.861   1.570  0.00  0.00     0.003 A 
ATOM      6  C4  PXY d   1       1.340  -3.751   1.138  0.00  0.00    -0.082 A 
ATOM      7  C5  PXY d   1       1.752  -2.605   0.555  0.00  0.00     0.003 A 
ATOM      8  C6  PXY d   1       0.847  -1.558   0.403  0.00  0.00     0.003 A 
ENDROOT
TORSDOF 0
ENDMDL
