MODEL 1
REMARK minimizedAffinity 7.51251173
REMARK minimizedRMSD -1
REMARK  0 active torsions:
REMARK  status: ('A' for Active; 'I' for Inactive)
ROOT
ATOM      1  C4' PXY d   1      -2.505  -2.971  -1.301  0.00  0.00     0.077 C 
ATOM      2  C1' PXY d   1       2.380  -1.357   1.335  0.00  0.00     0.077 C 
ATOM      3  C1  PXY d   1       1.103  -1.776   0.632  0.00  0.00    -0.082 A 
ATOM      4  C2  PXY d   1      -0.016  -1.897   1.327  0.00  0.00     0.003 A 
ATOM      5  C3  PXY d   1      -1.173  -2.306   0.713  0.00  0.00     0.003 A 
ATOM      6  C4  PXY d   1      -1.195  -2.541  -0.635  0.00  0.00    -0.082 A 
ATOM      7  C5  PXY d   1      -0.060  -2.410  -1.353  0.00  0.00     0.003 A 
ATOM      8  C6  PXY d   1       1.113  -2.034  -0.704  0.00  0.00     0.003 A 
ENDROOT
TORSDOF 0
ENDMDL
