MODEL 1
REMARK minimizedAffinity 11.4655294
REMARK minimizedRMSD -1
REMARK  0 active torsions:
REMARK  status: ('A' for Active; 'I' for Inactive)
ROOT
ATOM      1  C   UNL d   1       4.963  -0.777   1.405  0.00  0.00     0.020 A 
ATOM      2  C1  UNL d   1       5.999   0.022   1.886  0.00  0.00     0.020 A 
ATOM      3  C2  UNL d   1       5.852   1.410   1.921  0.00  0.00     0.034 A 
ATOM      4  C3  UNL d   1       4.666   2.004   1.472  0.00  0.00     0.017 A 
ATOM      5  C4  UNL d   1       3.627   1.201   0.989  0.00  0.00     0.017 A 
ATOM      6  C5  UNL d   1       3.779  -0.189   0.957  0.00  0.00     0.034 A 
ATOM      7 Cl   UNL d   1       2.134   1.860   0.419  0.00  0.00    -0.070 Cl
ATOM      8 Cl1  UNL d   1       4.553   3.726   1.544  0.00  0.00    -0.070 Cl
ENDROOT
TORSDOF 0
ENDMDL
