MODEL 1
REMARK minimizedAffinity 9.42212677
REMARK minimizedRMSD -1
REMARK  0 active torsions:
REMARK  status: ('A' for Active; 'I' for Inactive)
ROOT
ATOM      1  C   UNL d   1       4.656  -0.935   0.980  0.00  0.00     0.020 A 
ATOM      2  C1  UNL d   1       5.841  -0.373   1.453  0.00  0.00     0.020 A 
ATOM      3  C2  UNL d   1       6.000   1.015   1.466  0.00  0.00     0.034 A 
ATOM      4  C3  UNL d   1       4.972   1.845   1.004  0.00  0.00     0.017 A 
ATOM      5  C4  UNL d   1       3.782   1.280   0.530  0.00  0.00     0.017 A 
ATOM      6  C5  UNL d   1       3.629  -0.110   0.520  0.00  0.00     0.034 A 
ATOM      7 Cl   UNL d   1       2.469   2.239  -0.056  0.00  0.00    -0.070 Cl
ATOM      8 Cl1  UNL d   1       5.236   3.552   1.049  0.00  0.00    -0.070 Cl
ENDROOT
TORSDOF 0
ENDMDL
