MODEL 1
REMARK minimizedAffinity 7.5857029
REMARK minimizedRMSD -1
REMARK  0 active torsions:
REMARK  status: ('A' for Active; 'I' for Inactive)
ROOT
ATOM      1  C   UNL d   1       2.121   1.147  -0.451  0.00  0.00     0.020 A 
ATOM      2  C1  UNL d   1       3.345   0.491  -0.583  0.00  0.00     0.020 A 
ATOM      3  C2  UNL d   1       3.951  -0.087   0.535  0.00  0.00     0.034 A 
ATOM      4  C3  UNL d   1       3.334  -0.010   1.789  0.00  0.00     0.017 A 
ATOM      5  C4  UNL d   1       2.106   0.648   1.920  0.00  0.00     0.017 A 
ATOM      6  C5  UNL d   1       1.503   1.225   0.798  0.00  0.00     0.034 A 
ATOM      7 Cl   UNL d   1       1.284   0.784   3.434  0.00  0.00    -0.070 Cl
ATOM      8 Cl1  UNL d   1       4.140  -0.748   3.127  0.00  0.00    -0.070 Cl
ENDROOT
TORSDOF 0
ENDMDL
