MODEL 1
REMARK minimizedAffinity 4.88455391
REMARK minimizedRMSD -1
REMARK  0 active torsions:
REMARK  status: ('A' for Active; 'I' for Inactive)
ROOT
ATOM      1  C   UNL d   1       2.290   0.659  -0.495  0.00  0.00     0.020 A 
ATOM      2  C1  UNL d   1       3.451  -0.112  -0.456  0.00  0.00     0.020 A 
ATOM      3  C2  UNL d   1       3.942  -0.574   0.767  0.00  0.00     0.034 A 
ATOM      4  C3  UNL d   1       3.273  -0.264   1.957  0.00  0.00     0.017 A 
ATOM      5  C4  UNL d   1       2.108   0.511   1.917  0.00  0.00     0.017 A 
ATOM      6  C5  UNL d   1       1.620   0.970   0.689  0.00  0.00     0.034 A 
ATOM      7 Cl   UNL d   1       1.227   0.934   3.342  0.00  0.00    -0.070 Cl
ATOM      8 Cl1  UNL d   1       3.937  -0.868   3.433  0.00  0.00    -0.070 Cl
ENDROOT
TORSDOF 0
ENDMDL
