MODEL 1
REMARK minimizedAffinity 5.62198353
REMARK minimizedRMSD -1
REMARK  0 active torsions:
REMARK  status: ('A' for Active; 'I' for Inactive)
ROOT
ATOM      1  C   UNL d   1      -2.174  -2.666  -0.988  0.00  0.00     0.020 A 
ATOM      2  C1  UNL d   1      -2.554  -1.580  -1.777  0.00  0.00     0.020 A 
ATOM      3  C2  UNL d   1      -2.289  -1.586  -3.148  0.00  0.00     0.034 A 
ATOM      4  C3  UNL d   1      -1.642  -2.680  -3.735  0.00  0.00     0.017 A 
ATOM      5  C4  UNL d   1      -1.261  -3.769  -2.943  0.00  0.00     0.017 A 
ATOM      6  C5  UNL d   1      -1.529  -3.758  -1.571  0.00  0.00     0.034 A 
ATOM      7 Cl   UNL d   1      -0.460  -5.154  -3.596  0.00  0.00    -0.070 Cl
ATOM      8 Cl1  UNL d   1      -1.347  -2.620  -5.436  0.00  0.00    -0.070 Cl
ENDROOT
TORSDOF 0
ENDMDL
