MODEL 1
REMARK minimizedAffinity 7.85114288
REMARK minimizedRMSD -1
REMARK  0 active torsions:
REMARK  status: ('A' for Active; 'I' for Inactive)
ROOT
ATOM      1  C   UNL d   1      -4.320  -4.926  -3.392  0.00  0.00     0.020 A 
ATOM      2  C1  UNL d   1      -4.951  -3.977  -2.589  0.00  0.00     0.020 A 
ATOM      3  C2  UNL d   1      -4.205  -2.956  -1.996  0.00  0.00     0.034 A 
ATOM      4  C3  UNL d   1      -2.823  -2.882  -2.206  0.00  0.00     0.017 A 
ATOM      5  C4  UNL d   1      -2.190  -3.834  -3.013  0.00  0.00     0.017 A 
ATOM      6  C5  UNL d   1      -2.942  -4.854  -3.604  0.00  0.00     0.034 A 
ATOM      7 Cl   UNL d   1      -0.489  -3.808  -3.318  0.00  0.00    -0.070 Cl
ATOM      8 Cl1  UNL d   1      -1.963  -1.593  -1.442  0.00  0.00    -0.070 Cl
ENDROOT
TORSDOF 0
ENDMDL
