MODEL 1
REMARK minimizedAffinity 7.91934872
REMARK minimizedRMSD -1
REMARK  0 active torsions:
REMARK  status: ('A' for Active; 'I' for Inactive)
ROOT
ATOM      1  C   UNL d   1       2.722   3.014   0.691  0.00  0.00     0.020 A 
ATOM      2  C1  UNL d   1       4.083   2.760   0.522  0.00  0.00     0.020 A 
ATOM      3  C2  UNL d   1       4.571   1.458   0.646  0.00  0.00     0.034 A 
ATOM      4  C3  UNL d   1       3.699   0.404   0.940  0.00  0.00     0.017 A 
ATOM      5  C4  UNL d   1       2.333   0.659   1.109  0.00  0.00     0.017 A 
ATOM      6  C5  UNL d   1       1.849   1.965   0.984  0.00  0.00     0.034 A 
ATOM      7 Cl   UNL d   1       1.195  -0.589   1.473  0.00  0.00    -0.070 Cl
ATOM      8 Cl1  UNL d   1       4.371  -1.182   1.078  0.00  0.00    -0.070 Cl
ENDROOT
TORSDOF 0
ENDMDL
