MODEL 1
REMARK minimizedAffinity 1.62253475
REMARK minimizedRMSD -1
REMARK  0 active torsions:
REMARK  status: ('A' for Active; 'I' for Inactive)
ROOT
ATOM      1  C   UNL d   1       1.528  -0.171   3.734  0.00  0.00     0.020 A 
ATOM      2  C1  UNL d   1       0.906   1.051   3.479  0.00  0.00     0.020 A 
ATOM      3  C2  UNL d   1       1.159   1.727   2.284  0.00  0.00     0.034 A 
ATOM      4  C3  UNL d   1       2.036   1.182   1.339  0.00  0.00     0.017 A 
ATOM      5  C4  UNL d   1       2.660  -0.044   1.596  0.00  0.00     0.017 A 
ATOM      6  C5  UNL d   1       2.403  -0.717   2.794  0.00  0.00     0.034 A 
ATOM      7 Cl   UNL d   1       3.754  -0.780   0.478  0.00  0.00    -0.070 Cl
ATOM      8 Cl1  UNL d   1       2.302   2.073  -0.118  0.00  0.00    -0.070 Cl
ENDROOT
TORSDOF 0
ENDMDL
