MODEL 1
REMARK minimizedAffinity 0.514067829
REMARK minimizedRMSD -1
REMARK  0 active torsions:
REMARK  status: ('A' for Active; 'I' for Inactive)
ROOT
ATOM      1  C   UNL d   1       1.170   0.834   3.406  0.00  0.00     0.020 A 
ATOM      2  C1  UNL d   1       1.806  -0.361   3.738  0.00  0.00     0.020 A 
ATOM      3  C2  UNL d   1       2.714  -0.939   2.848  0.00  0.00     0.034 A 
ATOM      4  C3  UNL d   1       2.989  -0.322   1.623  0.00  0.00     0.017 A 
ATOM      5  C4  UNL d   1       2.350   0.878   1.290  0.00  0.00     0.017 A 
ATOM      6  C5  UNL d   1       1.442   1.452   2.185  0.00  0.00     0.034 A 
ATOM      7 Cl   UNL d   1       2.638   1.699  -0.203  0.00  0.00    -0.070 Cl
ATOM      8 Cl1  UNL d   1       4.124  -1.093   0.571  0.00  0.00    -0.070 Cl
ENDROOT
TORSDOF 0
ENDMDL
