MODEL 1
REMARK minimizedAffinity 8.4005909
REMARK minimizedRMSD -1
REMARK  0 active torsions:
REMARK  status: ('A' for Active; 'I' for Inactive)
ROOT
ATOM      1  C   UNL d   1       1.894   0.733   0.749  0.00  0.00     0.020 A 
ATOM      2  C1  UNL d   1       2.647   0.758  -0.424  0.00  0.00     0.020 A 
ATOM      3  C2  UNL d   1       3.912   0.167  -0.454  0.00  0.00     0.034 A 
ATOM      4  C3  UNL d   1       4.428  -0.450   0.691  0.00  0.00     0.017 A 
ATOM      5  C4  UNL d   1       3.672  -0.475   1.868  0.00  0.00     0.017 A 
ATOM      6  C5  UNL d   1       2.405   0.118   1.893  0.00  0.00     0.034 A 
ATOM      7 Cl   UNL d   1       4.241  -1.218   3.321  0.00  0.00    -0.070 Cl
ATOM      8 Cl1  UNL d   1       6.000  -1.160   0.582  0.00  0.00    -0.070 Cl
ENDROOT
TORSDOF 0
ENDMDL
