MODEL 1
REMARK minimizedAffinity 10.2729836
REMARK minimizedRMSD -1
REMARK  0 active torsions:
REMARK  status: ('A' for Active; 'I' for Inactive)
ROOT
ATOM      1  C   UNL d   1      -5.994   0.737   5.819  0.00  0.00     0.020 A 
ATOM      2  C1  UNL d   1      -5.429   0.056   4.742  0.00  0.00     0.020 A 
ATOM      3  C2  UNL d   1      -4.611   0.737   3.837  0.00  0.00     0.034 A 
ATOM      4  C3  UNL d   1      -4.355   2.102   4.009  0.00  0.00     0.017 A 
ATOM      5  C4  UNL d   1      -4.922   2.785   5.092  0.00  0.00     0.017 A 
ATOM      6  C5  UNL d   1      -5.741   2.098   5.994  0.00  0.00     0.034 A 
ATOM      7 Cl   UNL d   1      -4.652   4.469   5.370  0.00  0.00    -0.070 Cl
ATOM      8 Cl1  UNL d   1      -3.333   2.880   2.853  0.00  0.00    -0.070 Cl
ENDROOT
TORSDOF 0
ENDMDL
