MODEL 1
REMARK minimizedAffinity 10.0473242
REMARK minimizedRMSD -1
REMARK  0 active torsions:
REMARK  status: ('A' for Active; 'I' for Inactive)
ROOT
ATOM      1  C   UNL d   1      -6.000   5.080   2.387  0.00  0.00     0.020 A 
ATOM      2  C1  UNL d   1      -5.748   5.962   3.437  0.00  0.00     0.020 A 
ATOM      3  C2  UNL d   1      -5.009   5.537   4.544  0.00  0.00     0.034 A 
ATOM      4  C3  UNL d   1      -4.519   4.227   4.602  0.00  0.00     0.017 A 
ATOM      5  C4  UNL d   1      -4.772   3.343   3.547  0.00  0.00     0.017 A 
ATOM      6  C5  UNL d   1      -5.513   3.774   2.442  0.00  0.00     0.034 A 
ATOM      7 Cl   UNL d   1      -4.201   1.712   3.547  0.00  0.00    -0.070 Cl
ATOM      8 Cl1  UNL d   1      -3.613   3.770   6.000  0.00  0.00    -0.070 Cl
ENDROOT
TORSDOF 0
ENDMDL
