MODEL 1
REMARK minimizedAffinity 4.89992762
REMARK minimizedRMSD -1
REMARK  0 active torsions:
REMARK  status: ('A' for Active; 'I' for Inactive)
ROOT
ATOM      1  C   UNL d   1      -2.234  -4.053  -4.323  0.00  0.00     0.020 A 
ATOM      2  C1  UNL d   1      -3.201  -3.744  -3.367  0.00  0.00     0.020 A 
ATOM      3  C2  UNL d   1      -2.817  -3.439  -2.059  0.00  0.00     0.034 A 
ATOM      4  C3  UNL d   1      -1.463  -3.443  -1.704  0.00  0.00     0.017 A 
ATOM      5  C4  UNL d   1      -0.494  -3.753  -2.664  0.00  0.00     0.017 A 
ATOM      6  C5  UNL d   1      -0.883  -4.057  -3.972  0.00  0.00     0.034 A 
ATOM      7 Cl   UNL d   1       1.196  -3.778  -2.301  0.00  0.00    -0.070 Cl
ATOM      8 Cl1  UNL d   1      -1.061  -3.056  -0.069  0.00  0.00    -0.070 Cl
ENDROOT
TORSDOF 0
ENDMDL
