MODEL 1
REMARK minimizedAffinity 11.600832
REMARK minimizedRMSD -1
REMARK  0 active torsions:
REMARK  status: ('A' for Active; 'I' for Inactive)
ROOT
ATOM      1  C   UNL d   1      -1.434  -6.000   1.498  0.00  0.00     0.020 A 
ATOM      2  C1  UNL d   1      -2.819  -5.981   1.656  0.00  0.00     0.020 A 
ATOM      3  C2  UNL d   1      -3.532  -4.803   1.428  0.00  0.00     0.034 A 
ATOM      4  C3  UNL d   1      -2.861  -3.637   1.040  0.00  0.00     0.017 A 
ATOM      5  C4  UNL d   1      -1.470  -3.657   0.882  0.00  0.00     0.017 A 
ATOM      6  C5  UNL d   1      -0.761  -4.840   1.111  0.00  0.00     0.034 A 
ATOM      7 Cl   UNL d   1      -0.572  -2.259   0.406  0.00  0.00    -0.070 Cl
ATOM      8 Cl1  UNL d   1      -3.806  -2.216   0.774  0.00  0.00    -0.070 Cl
ENDROOT
TORSDOF 0
ENDMDL
