MODEL 1
REMARK minimizedAffinity 10.2879448
REMARK minimizedRMSD -1
REMARK  0 active torsions:
REMARK  status: ('A' for Active; 'I' for Inactive)
ROOT
ATOM      1  C   UNL d   1      -6.000   5.150   1.824  0.00  0.00     0.020 A 
ATOM      2  C1  UNL d   1      -6.000   6.000   2.929  0.00  0.00     0.020 A 
ATOM      3  C2  UNL d   1      -5.390   5.597   4.119  0.00  0.00     0.034 A 
ATOM      4  C3  UNL d   1      -4.778   4.341   4.206  0.00  0.00     0.017 A 
ATOM      5  C4  UNL d   1      -4.778   3.490   3.096  0.00  0.00     0.017 A 
ATOM      6  C5  UNL d   1      -5.390   3.898   1.907  0.00  0.00     0.034 A 
ATOM      7 Cl   UNL d   1      -4.042   1.926   3.127  0.00  0.00    -0.070 Cl
ATOM      8 Cl1  UNL d   1      -4.042   3.908   5.709  0.00  0.00    -0.070 Cl
ENDROOT
TORSDOF 0
ENDMDL
