MODEL 1
REMARK minimizedAffinity 19.7049122
REMARK minimizedRMSD -1
REMARK  0 active torsions:
REMARK  status: ('A' for Active; 'I' for Inactive)
ROOT
ATOM      1  C   UNL d   1      -2.861  -2.385   1.035  0.00  0.00     0.020 A 
ATOM      2  C1  UNL d   1      -1.777  -2.962   1.695  0.00  0.00     0.020 A 
ATOM      3  C2  UNL d   1      -0.624  -3.298   0.983  0.00  0.00     0.034 A 
ATOM      4  C3  UNL d   1      -0.553  -3.058  -0.394  0.00  0.00     0.017 A 
ATOM      5  C4  UNL d   1      -1.641  -2.479  -1.056  0.00  0.00     0.017 A 
ATOM      6  C5  UNL d   1      -2.793  -2.144  -0.338  0.00  0.00     0.034 A 
ATOM      7 Cl   UNL d   1      -1.627  -2.152  -2.753  0.00  0.00    -0.070 Cl
ATOM      8 Cl1  UNL d   1       0.904  -3.499  -1.212  0.00  0.00    -0.070 Cl
ENDROOT
TORSDOF 0
ENDMDL
