MODEL 1
REMARK minimizedAffinity 5.71813202
REMARK minimizedRMSD -1
REMARK  0 active torsions:
REMARK  status: ('A' for Active; 'I' for Inactive)
ROOT
ATOM      1  C   UNL d   1      -1.469  -4.374   1.498  0.00  0.00     0.020 A 
ATOM      2  C1  UNL d   1      -2.292  -5.494   1.619  0.00  0.00     0.020 A 
ATOM      3  C2  UNL d   1      -3.257  -5.758   0.645  0.00  0.00     0.034 A 
ATOM      4  C3  UNL d   1      -3.402  -4.903  -0.453  0.00  0.00     0.017 A 
ATOM      5  C4  UNL d   1      -2.576  -3.779  -0.573  0.00  0.00     0.017 A 
ATOM      6  C5  UNL d   1      -1.611  -3.519   0.405  0.00  0.00     0.034 A 
ATOM      7 Cl   UNL d   1      -2.696  -2.678  -1.899  0.00  0.00    -0.070 Cl
ATOM      8 Cl1  UNL d   1      -4.617  -5.291  -1.619  0.00  0.00    -0.070 Cl
ENDROOT
TORSDOF 0
ENDMDL
