MODEL 1
REMARK minimizedAffinity 3.77991939
REMARK minimizedRMSD -1
REMARK  0 active torsions:
REMARK  status: ('A' for Active; 'I' for Inactive)
ROOT
ATOM      1  C   UNL d   1      -5.628  -0.261   4.089  0.00  0.00     0.020 A 
ATOM      2  C1  UNL d   1      -6.000   0.028   5.401  0.00  0.00     0.020 A 
ATOM      3  C2  UNL d   1      -5.649   1.253   5.972  0.00  0.00     0.034 A 
ATOM      4  C3  UNL d   1      -4.925   2.194   5.231  0.00  0.00     0.017 A 
ATOM      5  C4  UNL d   1      -4.553   1.903   3.913  0.00  0.00     0.017 A 
ATOM      6  C5  UNL d   1      -4.906   0.674   3.347  0.00  0.00     0.034 A 
ATOM      7 Cl   UNL d   1      -3.658   3.013   2.936  0.00  0.00    -0.070 Cl
ATOM      8 Cl1  UNL d   1      -4.526   3.689   6.000  0.00  0.00    -0.070 Cl
ENDROOT
TORSDOF 0
ENDMDL
