MODEL 1
REMARK minimizedAffinity 2.40758061
REMARK minimizedRMSD -1
REMARK  0 active torsions:
REMARK  status: ('A' for Active; 'I' for Inactive)
ROOT
ATOM      1  C   UNL d   1       1.596   1.285   0.676  0.00  0.00     0.020 A 
ATOM      2  C1  UNL d   1       1.405   1.397   2.052  0.00  0.00     0.020 A 
ATOM      3  C2  UNL d   1       2.308   0.798   2.933  0.00  0.00     0.034 A 
ATOM      4  C3  UNL d   1       3.406   0.085   2.439  0.00  0.00     0.017 A 
ATOM      5  C4  UNL d   1       3.597  -0.027   1.057  0.00  0.00     0.017 A 
ATOM      6  C5  UNL d   1       2.690   0.575   0.179  0.00  0.00     0.034 A 
ATOM      7 Cl   UNL d   1       4.928  -0.891   0.372  0.00  0.00    -0.070 Cl
ATOM      8 Cl1  UNL d   1       4.483  -0.630   3.586  0.00  0.00    -0.070 Cl
ENDROOT
TORSDOF 0
ENDMDL
