MODEL 1
REMARK minimizedAffinity -3.89661527
REMARK minimizedRMSD -1
REMARK  0 active torsions:
REMARK  status: ('A' for Active; 'I' for Inactive)
ROOT
ATOM      1  C1  DEN d   1      -0.104   2.652  -5.952  0.00  0.00     0.130 A 
ATOM      2  C2  DEN d   1       1.143   3.412  -5.979  0.00  0.00    -0.031 A 
ATOM      3  C3  DEN d   1       0.801   4.848  -5.999  0.00  0.00     0.027 A 
ATOM      4  C4  DEN d   1      -1.524   5.964  -5.986  0.00  0.00     0.027 A 
ATOM      5  C5  DEN d   1      -2.881   5.729  -5.978  0.00  0.00    -0.003 A 
ATOM      6  C6  DEN d   1      -3.404   4.463  -5.994  0.00  0.00     0.001 A 
ATOM      7  C7  DEN d   1      -2.563   3.382  -5.975  0.00  0.00     0.017 A 
ATOM      8  C8  DEN d   1      -1.194   3.610  -5.991  0.00  0.00    -0.094 A 
ATOM      9  C9  DEN d   1      -0.685   4.897  -5.961  0.00  0.00    -0.072 A 
ENDROOT
TORSDOF 0
ENDMDL
