MODEL 1
REMARK minimizedAffinity -3.16121984
REMARK minimizedRMSD -1
REMARK  0 active torsions:
REMARK  status: ('A' for Active; 'I' for Inactive)
ROOT
ATOM      1  C1  DEN d   1      -0.217   5.743  -5.989  0.00  0.00     0.130 A 
ATOM      2  C2  DEN d   1       0.668   4.582  -5.962  0.00  0.00    -0.031 A 
ATOM      3  C3  DEN d   1      -0.172   3.368  -5.955  0.00  0.00     0.027 A 
ATOM      4  C4  DEN d   1      -2.744   3.174  -5.987  0.00  0.00     0.027 A 
ATOM      5  C5  DEN d   1      -3.923   3.886  -5.999  0.00  0.00    -0.003 A 
ATOM      6  C6  DEN d   1      -3.950   5.255  -5.975  0.00  0.00     0.001 A 
ATOM      7  C7  DEN d   1      -2.773   5.957  -5.983  0.00  0.00     0.017 A 
ATOM      8  C8  DEN d   1      -1.581   5.247  -5.963  0.00  0.00    -0.094 A 
ATOM      9  C9  DEN d   1      -1.574   3.863  -6.000  0.00  0.00    -0.072 A 
ENDROOT
TORSDOF 0
ENDMDL
