MODEL 1
REMARK minimizedAffinity 0.0422574133
REMARK minimizedRMSD -1
REMARK  0 active torsions:
REMARK  status: ('A' for Active; 'I' for Inactive)
ROOT
ATOM      1  C1  DEN d   1       0.634   2.633  -5.984  0.00  0.00     0.130 A 
ATOM      2  C2  DEN d   1      -0.517   3.530  -5.942  0.00  0.00    -0.031 A 
ATOM      3  C3  DEN d   1      -0.014   4.918  -5.930  0.00  0.00     0.027 A 
ATOM      4  C4  DEN d   1       2.424   5.760  -5.975  0.00  0.00     0.027 A 
ATOM      5  C5  DEN d   1       3.745   5.372  -6.000  0.00  0.00    -0.003 A 
ATOM      6  C6  DEN d   1       4.120   4.054  -5.987  0.00  0.00     0.001 A 
ATOM      7  C7  DEN d   1       3.161   3.076  -5.994  0.00  0.00     0.017 A 
ATOM      8  C8  DEN d   1       1.826   3.460  -5.961  0.00  0.00    -0.094 A 
ATOM      9  C9  DEN d   1       1.468   4.797  -5.986  0.00  0.00    -0.072 A 
ENDROOT
TORSDOF 0
ENDMDL
