MODEL 1
REMARK minimizedAffinity -0.24782379
REMARK minimizedRMSD -1
REMARK  0 active torsions:
REMARK  status: ('A' for Active; 'I' for Inactive)
ROOT
ATOM      1  C1  DEN d   1       5.649   3.524  -5.791  0.00  0.00     0.130 A 
ATOM      2  C2  DEN d   1       5.985   4.944  -5.836  0.00  0.00    -0.031 A 
ATOM      3  C3  DEN d   1       4.725   5.709  -5.928  0.00  0.00     0.027 A 
ATOM      4  C4  DEN d   1       2.299   4.836  -6.000  0.00  0.00     0.027 A 
ATOM      5  C5  DEN d   1       1.512   3.705  -5.999  0.00  0.00    -0.003 A 
ATOM      6  C6  DEN d   1       2.046   2.444  -5.964  0.00  0.00     0.001 A 
ATOM      7  C7  DEN d   1       3.404   2.284  -5.882  0.00  0.00     0.017 A 
ATOM      8  C8  DEN d   1       4.204   3.419  -5.889  0.00  0.00    -0.094 A 
ATOM      9  C9  DEN d   1       3.645   4.686  -5.913  0.00  0.00    -0.072 A 
ENDROOT
TORSDOF 0
ENDMDL
