MODEL 1
REMARK minimizedAffinity -0.866390884
REMARK minimizedRMSD -1
REMARK  0 active torsions:
REMARK  status: ('A' for Active; 'I' for Inactive)
ROOT
ATOM      1  C1  DEN d   1      -2.514   2.624  -5.970  0.00  0.00     0.130 A 
ATOM      2  C2  DEN d   1      -3.763   3.380  -5.929  0.00  0.00    -0.031 A 
ATOM      3  C3  DEN d   1      -3.426   4.818  -5.921  0.00  0.00     0.027 A 
ATOM      4  C4  DEN d   1      -1.105   5.941  -5.971  0.00  0.00     0.027 A 
ATOM      5  C5  DEN d   1       0.253   5.711  -5.997  0.00  0.00    -0.003 A 
ATOM      6  C6  DEN d   1       0.780   4.447  -5.982  0.00  0.00     0.001 A 
ATOM      7  C7  DEN d   1      -0.057   3.362  -5.985  0.00  0.00     0.017 A 
ATOM      8  C8  DEN d   1      -1.427   3.586  -5.951  0.00  0.00    -0.094 A 
ATOM      9  C9  DEN d   1      -1.940   4.871  -5.979  0.00  0.00    -0.072 A 
ENDROOT
TORSDOF 0
ENDMDL
