MODEL 1
REMARK minimizedAffinity 0.673797429
REMARK minimizedRMSD -1
REMARK  0 active torsions:
REMARK  status: ('A' for Active; 'I' for Inactive)
ROOT
ATOM      1  C1  DEN d   1      -4.029   3.663  -5.953  0.00  0.00     0.130 A 
ATOM      2  C2  DEN d   1      -4.662   4.979  -5.921  0.00  0.00    -0.031 A 
ATOM      3  C3  DEN d   1      -3.594   5.999  -5.923  0.00  0.00     0.027 A 
ATOM      4  C4  DEN d   1      -1.037   5.671  -5.978  0.00  0.00     0.027 A 
ATOM      5  C5  DEN d   1      -0.025   4.736  -6.000  0.00  0.00    -0.003 A 
ATOM      6  C6  DEN d   1      -0.274   3.390  -5.973  0.00  0.00     0.001 A 
ATOM      7  C7  DEN d   1      -1.568   2.939  -5.969  0.00  0.00     0.017 A 
ATOM      8  C8  DEN d   1      -2.593   3.875  -5.939  0.00  0.00    -0.094 A 
ATOM      9  C9  DEN d   1      -2.321   5.232  -5.979  0.00  0.00    -0.072 A 
ENDROOT
TORSDOF 0
ENDMDL
