MODEL 1
REMARK minimizedAffinity 13.6279993
REMARK minimizedRMSD -1
REMARK  0 active torsions:
REMARK  status: ('A' for Active; 'I' for Inactive)
ROOT
ATOM      1  C1  DEN d   1      -5.256   2.269  -0.161  0.00  0.00     0.130 A 
ATOM      2  C2  DEN d   1      -5.434   1.408  -1.326  0.00  0.00    -0.031 A 
ATOM      3  C3  DEN d   1      -5.756   2.267  -2.484  0.00  0.00     0.027 A 
ATOM      4  C4  DEN d   1      -5.991   4.834  -2.583  0.00  0.00     0.027 A 
ATOM      5  C5  DEN d   1      -5.941   5.995  -1.844  0.00  0.00    -0.003 A 
ATOM      6  C6  DEN d   1      -5.696   5.993  -0.497  0.00  0.00     0.001 A 
ATOM      7  C7  DEN d   1      -5.445   4.809   0.146  0.00  0.00     0.017 A 
ATOM      8  C8  DEN d   1      -5.501   3.634  -0.591  0.00  0.00    -0.094 A 
ATOM      9  C9  DEN d   1      -5.738   3.658  -1.955  0.00  0.00    -0.072 A 
ENDROOT
TORSDOF 0
ENDMDL
