MODEL 1
REMARK minimizedAffinity 8.83438396
REMARK minimizedRMSD -1
REMARK  0 active torsions:
REMARK  status: ('A' for Active; 'I' for Inactive)
ROOT
ATOM      1  C1  DEN d   1      -1.559   4.088  -5.965  0.00  0.00     0.130 A 
ATOM      2  C2  DEN d   1      -0.962   5.421  -5.954  0.00  0.00    -0.031 A 
ATOM      3  C3  DEN d   1       0.506   5.263  -5.961  0.00  0.00     0.027 A 
ATOM      4  C4  DEN d   1       1.906   3.097  -5.995  0.00  0.00     0.027 A 
ATOM      5  C5  DEN d   1       1.844   1.721  -5.998  0.00  0.00    -0.003 A 
ATOM      6  C6  DEN d   1       0.655   1.043  -5.957  0.00  0.00     0.001 A 
ATOM      7  C7  DEN d   1      -0.524   1.740  -5.956  0.00  0.00     0.017 A 
ATOM      8  C8  DEN d   1      -0.470   3.128  -5.945  0.00  0.00    -0.094 A 
ATOM      9  C9  DEN d   1       0.742   3.795  -5.999  0.00  0.00    -0.072 A 
ENDROOT
TORSDOF 0
ENDMDL
