MODEL 1
REMARK minimizedAffinity 3.57522011
REMARK minimizedRMSD -1
REMARK  0 active torsions:
REMARK  status: ('A' for Active; 'I' for Inactive)
ROOT
ATOM      1  C1  DEN d   1      -4.137  -5.527  -4.061  0.00  0.00     0.130 A 
ATOM      2  C2  DEN d   1      -2.775  -5.990  -4.314  0.00  0.00    -0.031 A 
ATOM      3  C3  DEN d   1      -2.046  -5.986  -3.031  0.00  0.00     0.027 A 
ATOM      4  C4  DEN d   1      -2.890  -5.316  -0.687  0.00  0.00     0.027 A 
ATOM      5  C5  DEN d   1      -3.971  -4.846   0.025  0.00  0.00    -0.003 A 
ATOM      6  C6  DEN d   1      -5.164  -4.540  -0.576  0.00  0.00     0.001 A 
ATOM      7  C7  DEN d   1      -5.317  -4.744  -1.922  0.00  0.00     0.017 A 
ATOM      8  C8  DEN d   1      -4.229  -5.211  -2.647  0.00  0.00    -0.094 A 
ATOM      9  C9  DEN d   1      -3.036  -5.525  -2.020  0.00  0.00    -0.072 A 
ENDROOT
TORSDOF 0
ENDMDL
