MODEL 1
REMARK minimizedAffinity 8.47687435
REMARK minimizedRMSD -1
REMARK  0 active torsions:
REMARK  status: ('A' for Active; 'I' for Inactive)
ROOT
ATOM      1  C1  DEN d   1       0.612  -0.134  -2.817  0.00  0.00     0.130 A 
ATOM      2  C2  DEN d   1       0.461   0.373  -1.456  0.00  0.00    -0.031 A 
ATOM      3  C3  DEN d   1       1.503  -0.253  -0.618  0.00  0.00     0.027 A 
ATOM      4  C4  DEN d   1       3.329  -1.945  -1.292  0.00  0.00     0.027 A 
ATOM      5  C5  DEN d   1       3.847  -2.681  -2.335  0.00  0.00    -0.003 A 
ATOM      6  C6  DEN d   1       3.307  -2.646  -3.593  0.00  0.00     0.001 A 
ATOM      7  C7  DEN d   1       2.243  -1.823  -3.852  0.00  0.00     0.017 A 
ATOM      8  C8  DEN d   1       1.710  -1.084  -2.804  0.00  0.00    -0.094 A 
ATOM      9  C9  DEN d   1       2.278  -1.124  -1.542  0.00  0.00    -0.072 A 
ENDROOT
TORSDOF 0
ENDMDL
