MODEL 1
REMARK minimizedAffinity 4.26515579
REMARK minimizedRMSD -1
REMARK  0 active torsions:
REMARK  status: ('A' for Active; 'I' for Inactive)
ROOT
ATOM      1  C1  DEN d   1      -0.981   2.118   0.812  0.00  0.00     0.130 A 
ATOM      2  C2  DEN d   1      -1.127   0.882   1.576  0.00  0.00    -0.031 A 
ATOM      3  C3  DEN d   1      -0.217  -0.125   0.992  0.00  0.00     0.027 A 
ATOM      4  C4  DEN d   1       1.398   0.112  -1.005  0.00  0.00     0.027 A 
ATOM      5  C5  DEN d   1       1.862   0.969  -1.978  0.00  0.00    -0.003 A 
ATOM      6  C6  DEN d   1       1.391   2.249  -2.109  0.00  0.00     0.001 A 
ATOM      7  C7  DEN d   1       0.458   2.722  -1.224  0.00  0.00     0.017 A 
ATOM      8  C8  DEN d   1      -0.021   1.861  -0.246  0.00  0.00    -0.094 A 
ATOM      9  C9  DEN d   1       0.477   0.575  -0.122  0.00  0.00    -0.072 A 
ENDROOT
TORSDOF 0
ENDMDL
