MODEL 1
REMARK minimizedAffinity 5.36573792
REMARK minimizedRMSD -1
REMARK  0 active torsions:
REMARK  status: ('A' for Active; 'I' for Inactive)
ROOT
ATOM      1  C1  DEN d   1      -1.210   0.508   1.232  0.00  0.00     0.130 A 
ATOM      2  C2  DEN d   1       0.017  -0.268   1.070  0.00  0.00    -0.031 A 
ATOM      3  C3  DEN d   1      -0.219  -1.616   1.624  0.00  0.00     0.027 A 
ATOM      4  C4  DEN d   1      -2.355  -2.575   2.706  0.00  0.00     0.027 A 
ATOM      5  C5  DEN d   1      -3.651  -2.291   3.076  0.00  0.00    -0.003 A 
ATOM      6  C6  DEN d   1      -4.208  -1.053   2.890  0.00  0.00     0.001 A 
ATOM      7  C7  DEN d   1      -3.482  -0.067   2.277  0.00  0.00     0.017 A 
ATOM      8  C8  DEN d   1      -2.172  -0.344   1.908  0.00  0.00    -0.094 A 
ATOM      9  C9  DEN d   1      -1.631  -1.605   2.094  0.00  0.00    -0.072 A 
ENDROOT
TORSDOF 0
ENDMDL
