MODEL 1
REMARK minimizedAffinity 4.06753254
REMARK minimizedRMSD -1
REMARK  0 active torsions:
REMARK  status: ('A' for Active; 'I' for Inactive)
ROOT
ATOM      1  C1  DEN d   1      -0.721   3.599  -5.896  0.00  0.00     0.130 A 
ATOM      2  C2  DEN d   1       0.084   4.814  -5.985  0.00  0.00    -0.031 A 
ATOM      3  C3  DEN d   1      -0.835   5.971  -5.995  0.00  0.00     0.027 A 
ATOM      4  C4  DEN d   1      -3.411   5.998  -5.876  0.00  0.00     0.027 A 
ATOM      5  C5  DEN d   1      -4.540   5.212  -5.802  0.00  0.00    -0.003 A 
ATOM      6  C6  DEN d   1      -4.477   3.843  -5.789  0.00  0.00     0.001 A 
ATOM      7  C7  DEN d   1      -3.257   3.220  -5.805  0.00  0.00     0.017 A 
ATOM      8  C8  DEN d   1      -2.115   4.005  -5.887  0.00  0.00    -0.094 A 
ATOM      9  C9  DEN d   1      -2.199   5.387  -5.887  0.00  0.00    -0.072 A 
ENDROOT
TORSDOF 0
ENDMDL
