MODEL 1
REMARK minimizedAffinity -4.22860146
REMARK minimizedRMSD -1
REMARK  0 active torsions:
REMARK  status: ('A' for Active; 'I' for Inactive)
ROOT
ATOM      1  C1  BNZ d   1       1.300   1.337  -0.802  0.00  0.00     0.000 A 
ATOM      2  C2  BNZ d   1       1.897   1.189  -2.026  0.00  0.00     0.000 A 
ATOM      3  C3  BNZ d   1       1.707   0.054  -2.765  0.00  0.00     0.000 A 
ATOM      4  C4  BNZ d   1       0.955  -0.946  -2.262  0.00  0.00     0.000 A 
ATOM      5  C5  BNZ d   1       0.354  -0.816  -1.025  0.00  0.00     0.000 A 
ATOM      6  C6  BNZ d   1       0.516   0.344  -0.302  0.00  0.00     0.000 A 
ENDROOT
TORSDOF 0
ENDMDL
