MODEL 1
REMARK minimizedAffinity -3.66402245
REMARK minimizedRMSD -1
REMARK  0 active torsions:
REMARK  status: ('A' for Active; 'I' for Inactive)
ROOT
ATOM      1  C1  BNZ d   1       1.657   0.879  -0.456  0.00  0.00     0.000 A 
ATOM      2  C2  BNZ d   1       1.983   1.120  -1.764  0.00  0.00     0.000 A 
ATOM      3  C3  BNZ d   1       1.336   0.470  -2.778  0.00  0.00     0.000 A 
ATOM      4  C4  BNZ d   1       0.393  -0.448  -2.481  0.00  0.00     0.000 A 
ATOM      5  C5  BNZ d   1       0.059  -0.708  -1.167  0.00  0.00     0.000 A 
ATOM      6  C6  BNZ d   1       0.685  -0.024  -0.151  0.00  0.00     0.000 A 
ENDROOT
TORSDOF 0
ENDMDL
