MODEL 1
REMARK minimizedAffinity -5.08171654
REMARK minimizedRMSD -1
REMARK  0 active torsions:
REMARK  status: ('A' for Active; 'I' for Inactive)
ROOT
ATOM      1  C1  BNZ d   1       1.156  -1.977  -0.672  0.00  0.00     0.000 A 
ATOM      2  C2  BNZ d   1       1.938  -2.205  -1.773  0.00  0.00     0.000 A 
ATOM      3  C3  BNZ d   1       2.129  -1.229  -2.711  0.00  0.00     0.000 A 
ATOM      4  C4  BNZ d   1       1.506  -0.042  -2.567  0.00  0.00     0.000 A 
ATOM      5  C5  BNZ d   1       0.706   0.200  -1.468  0.00  0.00     0.000 A 
ATOM      6  C6  BNZ d   1       0.548  -0.771  -0.507  0.00  0.00     0.000 A 
ENDROOT
TORSDOF 0
ENDMDL
