MODEL 1
REMARK minimizedAffinity -3.98923111
REMARK minimizedRMSD -1
REMARK  0 active torsions:
REMARK  status: ('A' for Active; 'I' for Inactive)
ROOT
ATOM      1  C1  BNZ d   1       1.546   1.074  -0.469  0.00  0.00     0.000 A 
ATOM      2  C2  BNZ d   1       2.313   0.961  -1.597  0.00  0.00     0.000 A 
ATOM      3  C3  BNZ d   1       1.939   0.133  -2.619  0.00  0.00     0.000 A 
ATOM      4  C4  BNZ d   1       0.820  -0.610  -2.494  0.00  0.00     0.000 A 
ATOM      5  C5  BNZ d   1       0.041  -0.514  -1.358  0.00  0.00     0.000 A 
ATOM      6  C6  BNZ d   1       0.400   0.350  -0.349  0.00  0.00     0.000 A 
ENDROOT
TORSDOF 0
ENDMDL
