MODEL 1
REMARK minimizedAffinity -3.13608885
REMARK minimizedRMSD -1
REMARK  0 active torsions:
REMARK  status: ('A' for Active; 'I' for Inactive)
ROOT
ATOM      1  C1  BNZ d   1       0.122  -2.160   0.503  0.00  0.00     0.000 A 
ATOM      2  C2  BNZ d   1       0.501  -2.038  -0.807  0.00  0.00     0.000 A 
ATOM      3  C3  BNZ d   1       0.539  -0.813  -1.413  0.00  0.00     0.000 A 
ATOM      4  C4  BNZ d   1       0.159   0.281  -0.722  0.00  0.00     0.000 A 
ATOM      5  C5  BNZ d   1      -0.235   0.172   0.597  0.00  0.00     0.000 A 
ATOM      6  C6  BNZ d   1      -0.234  -1.057   1.215  0.00  0.00     0.000 A 
ENDROOT
TORSDOF 0
ENDMDL
