MODEL 1
REMARK minimizedAffinity -4.5832119
REMARK minimizedRMSD -1
REMARK  0 active torsions:
REMARK  status: ('A' for Active; 'I' for Inactive)
ROOT
ATOM      1  C1  BNZ d   1      -0.351  -1.563   0.456  0.00  0.00     0.000 A 
ATOM      2  C2  BNZ d   1       0.178  -2.124  -0.676  0.00  0.00     0.000 A 
ATOM      3  C3  BNZ d   1       0.364  -1.376  -1.806  0.00  0.00     0.000 A 
ATOM      4  C4  BNZ d   1      -0.015  -0.082  -1.815  0.00  0.00     0.000 A 
ATOM      5  C5  BNZ d   1      -0.559   0.494  -0.685  0.00  0.00     0.000 A 
ATOM      6  C6  BNZ d   1      -0.709  -0.250   0.463  0.00  0.00     0.000 A 
ENDROOT
TORSDOF 0
ENDMDL
