MODEL 1
REMARK minimizedAffinity -3.01500702
REMARK minimizedRMSD -1
REMARK  0 active torsions:
REMARK  status: ('A' for Active; 'I' for Inactive)
ROOT
ATOM      1  C1  BNZ d   1      -4.161   0.927   1.882  0.00  0.00     0.000 A 
ATOM      2  C2  BNZ d   1      -4.375   2.227   2.255  0.00  0.00     0.000 A 
ATOM      3  C3  BNZ d   1      -3.482   2.881   3.057  0.00  0.00     0.000 A 
ATOM      4  C4  BNZ d   1      -2.399   2.222   3.518  0.00  0.00     0.000 A 
ATOM      5  C5  BNZ d   1      -2.174   0.908   3.158  0.00  0.00     0.000 A 
ATOM      6  C6  BNZ d   1      -3.054   0.266   2.319  0.00  0.00     0.000 A 
ENDROOT
TORSDOF 0
ENDMDL
