MODEL 1
REMARK minimizedAffinity -4.35031605
REMARK minimizedRMSD -1
REMARK  0 active torsions:
REMARK  status: ('A' for Active; 'I' for Inactive)
ROOT
ATOM      1  C1  BNZ d   1       0.501  -1.594  -1.455  0.00  0.00     0.000 A 
ATOM      2  C2  BNZ d   1      -0.088  -1.107  -0.318  0.00  0.00     0.000 A 
ATOM      3  C3  BNZ d   1       0.109   0.188   0.073  0.00  0.00     0.000 A 
ATOM      4  C4  BNZ d   1       0.925   0.982  -0.649  0.00  0.00     0.000 A 
ATOM      5  C5  BNZ d   1       1.534   0.503  -1.792  0.00  0.00     0.000 A 
ATOM      6  C6  BNZ d   1       1.302  -0.789  -2.204  0.00  0.00     0.000 A 
ENDROOT
TORSDOF 0
ENDMDL
