MODEL 1
REMARK minimizedAffinity -3.18431902
REMARK minimizedRMSD -1
REMARK  0 active torsions:
REMARK  status: ('A' for Active; 'I' for Inactive)
ROOT
ATOM      1  C1  BNZ d   1      -3.209   2.381   2.075  0.00  0.00     0.000 A 
ATOM      2  C2  BNZ d   1      -4.221   1.505   1.788  0.00  0.00     0.000 A 
ATOM      3  C3  BNZ d   1      -3.950   0.214   1.431  0.00  0.00     0.000 A 
ATOM      4  C4  BNZ d   1      -2.667  -0.188   1.323  0.00  0.00     0.000 A 
ATOM      5  C5  BNZ d   1      -1.635   0.686   1.601  0.00  0.00     0.000 A 
ATOM      6  C6  BNZ d   1      -1.913   1.974   1.997  0.00  0.00     0.000 A 
ENDROOT
TORSDOF 0
ENDMDL
