MODEL 1
REMARK minimizedAffinity -3.91774917
REMARK minimizedRMSD -1
REMARK  0 active torsions:
REMARK  status: ('A' for Active; 'I' for Inactive)
ROOT
ATOM      1  C1  BNZ d   1      -2.904  -0.019   1.962  0.00  0.00     0.000 A 
ATOM      2  C2  BNZ d   1      -1.871   0.792   2.351  0.00  0.00     0.000 A 
ATOM      3  C3  BNZ d   1      -2.070   2.128   2.559  0.00  0.00     0.000 A 
ATOM      4  C4  BNZ d   1      -3.290   2.659   2.339  0.00  0.00     0.000 A 
ATOM      5  C5  BNZ d   1      -4.340   1.857   1.937  0.00  0.00     0.000 A 
ATOM      6  C6  BNZ d   1      -4.145   0.505   1.766  0.00  0.00     0.000 A 
ENDROOT
TORSDOF 0
ENDMDL
