MODEL 1
REMARK minimizedAffinity -2.67370367
REMARK minimizedRMSD -1
REMARK  0 active torsions:
REMARK  status: ('A' for Active; 'I' for Inactive)
ROOT
ATOM      1  C1  BNZ d   1      -4.712   3.196  -5.887  0.00  0.00     0.000 A 
ATOM      2  C2  BNZ d   1      -5.925   3.831  -5.926  0.00  0.00     0.000 A 
ATOM      3  C3  BNZ d   1      -6.000   5.193  -6.000  0.00  0.00     0.000 A 
ATOM      4  C4  BNZ d   1      -4.865   5.921  -5.994  0.00  0.00     0.000 A 
ATOM      5  C5  BNZ d   1      -3.634   5.297  -5.945  0.00  0.00     0.000 A 
ATOM      6  C6  BNZ d   1      -3.562   3.923  -5.910  0.00  0.00     0.000 A 
ENDROOT
TORSDOF 0
ENDMDL
