MODEL 1
REMARK minimizedAffinity -2.78542924
REMARK minimizedRMSD -1
REMARK  0 active torsions:
REMARK  status: ('A' for Active; 'I' for Inactive)
ROOT
ATOM      1  C1  BNZ d   1      -3.700  -0.044   1.096  0.00  0.00     0.000 A 
ATOM      2  C2  BNZ d   1      -2.538  -0.471   0.510  0.00  0.00     0.000 A 
ATOM      3  C3  BNZ d   1      -1.323  -0.084   1.003  0.00  0.00     0.000 A 
ATOM      4  C4  BNZ d   1      -1.272   0.760   2.054  0.00  0.00     0.000 A 
ATOM      5  C5  BNZ d   1      -2.435   1.205   2.650  0.00  0.00     0.000 A 
ATOM      6  C6  BNZ d   1      -3.656   0.783   2.175  0.00  0.00     0.000 A 
ENDROOT
TORSDOF 0
ENDMDL
