MODEL 1
REMARK minimizedAffinity -3.3862927
REMARK minimizedRMSD -1
REMARK  0 active torsions:
REMARK  status: ('A' for Active; 'I' for Inactive)
ROOT
ATOM      1  C1  BNZ d   1       1.442   1.248  -1.118  0.00  0.00     0.000 A 
ATOM      2  C2  BNZ d   1       0.860   1.481   0.099  0.00  0.00     0.000 A 
ATOM      3  C3  BNZ d   1       0.198   0.485   0.761  0.00  0.00     0.000 A 
ATOM      4  C4  BNZ d   1       0.085  -0.730   0.188  0.00  0.00     0.000 A 
ATOM      5  C5  BNZ d   1       0.658  -0.979  -1.043  0.00  0.00     0.000 A 
ATOM      6  C6  BNZ d   1       1.357   0.015  -1.689  0.00  0.00     0.000 A 
ENDROOT
TORSDOF 0
ENDMDL
