MODEL 1
REMARK minimizedAffinity -1.13366222
REMARK minimizedRMSD -1
REMARK  0 active torsions:
REMARK  status: ('A' for Active; 'I' for Inactive)
ROOT
ATOM      1  C1  BNZ d   1      -0.665  -1.030   0.489  0.00  0.00     0.000 A 
ATOM      2  C2  BNZ d   1       0.656  -1.251   0.202  0.00  0.00     0.000 A 
ATOM      3  C3  BNZ d   1       1.437  -0.255  -0.313  0.00  0.00     0.000 A 
ATOM      4  C4  BNZ d   1       0.888   0.948  -0.578  0.00  0.00     0.000 A 
ATOM      5  C5  BNZ d   1      -0.445   1.184  -0.303  0.00  0.00     0.000 A 
ATOM      6  C6  BNZ d   1      -1.218   0.191   0.251  0.00  0.00     0.000 A 
ENDROOT
TORSDOF 0
ENDMDL
