MODEL 1
REMARK minimizedAffinity -4.86253119
REMARK minimizedRMSD -1
REMARK  0 active torsions:
REMARK  status: ('A' for Active; 'I' for Inactive)
ROOT
ATOM      1  C1  BNZ d   1       1.283   0.419  -2.183  0.00  0.00     0.000 A 
ATOM      2  C2  BNZ d   1       0.209  -0.401  -1.957  0.00  0.00     0.000 A 
ATOM      3  C3  BNZ d   1      -0.323  -0.528  -0.704  0.00  0.00     0.000 A 
ATOM      4  C4  BNZ d   1       0.243   0.132   0.327  0.00  0.00     0.000 A 
ATOM      5  C5  BNZ d   1       1.332   0.955   0.117  0.00  0.00     0.000 A 
ATOM      6  C6  BNZ d   1       1.840   1.111  -1.152  0.00  0.00     0.000 A 
ENDROOT
TORSDOF 0
ENDMDL
