MODEL 1
REMARK minimizedAffinity -4.70156479
REMARK minimizedRMSD -1
REMARK  0 active torsions:
REMARK  status: ('A' for Active; 'I' for Inactive)
ROOT
ATOM      1  C1  BNZ d   1       0.474  -0.125   0.825  0.00  0.00     0.000 A 
ATOM      2  C2  BNZ d   1       0.147  -1.428   0.560  0.00  0.00     0.000 A 
ATOM      3  C3  BNZ d   1       0.265  -1.936  -0.704  0.00  0.00     0.000 A 
ATOM      4  C4  BNZ d   1       0.671  -1.131  -1.707  0.00  0.00     0.000 A 
ATOM      5  C5  BNZ d   1       0.996   0.187  -1.457  0.00  0.00     0.000 A 
ATOM      6  C6  BNZ d   1       0.913   0.685  -0.177  0.00  0.00     0.000 A 
ENDROOT
TORSDOF 0
ENDMDL
