MODEL 1
REMARK minimizedAffinity 10.7328224
REMARK minimizedRMSD -1
REMARK  1 active torsions:
REMARK  status: ('A' for Active; 'I' for Inactive)
REMARK    1  A    between atoms: C1_2  and  C2_3 
ROOT
ATOM      1  C2  UNL d   1      -5.661  -2.862   4.015  0.00  0.00    -0.073 A 
ATOM      2  C3  UNL d   1      -5.776  -3.404   5.301  0.00  0.00    -0.002 A 
ATOM      3  C4  UNL d   1      -5.948  -4.777   5.474  0.00  0.00     0.004 A 
ATOM      4  C5  UNL d   1      -6.000  -5.624   4.367  0.00  0.00    -0.004 A 
ATOM      5  C6  UNL d   1      -5.875  -5.103   3.074  0.00  0.00    -0.075 A 
ATOM      6  C7  UNL d   1      -5.931  -6.000   1.873  0.00  0.00     0.076 C 
ATOM      7  C8  UNL d   1      -5.705  -3.722   2.908  0.00  0.00     0.001 A 
ENDROOT
BRANCH   1   8
ATOM      8  C1  UNL d   1      -5.469  -1.380   3.823  0.00  0.00     0.053 C 
ATOM      9  C   UNL d   1      -4.424  -1.074   2.761  0.00  0.00     0.018 C 
ENDBRANCH   1   8
TORSDOF 1
ENDMDL
