MODEL 1
REMARK minimizedAffinity 4.51306725
REMARK minimizedRMSD -1
REMARK  1 active torsions:
REMARK  status: ('A' for Active; 'I' for Inactive)
REMARK    1  A    between atoms: C1_2  and  C2_3 
ROOT
ATOM      1  C2  UNL d   1      -4.100  -2.100   1.540  0.00  0.00    -0.073 A 
ATOM      2  C3  UNL d   1      -3.033  -2.373   0.676  0.00  0.00    -0.002 A 
ATOM      3  C4  UNL d   1      -1.899  -1.560   0.679  0.00  0.00     0.004 A 
ATOM      4  C5  UNL d   1      -1.817  -0.472   1.549  0.00  0.00    -0.004 A 
ATOM      5  C6  UNL d   1      -2.868  -0.191   2.428  0.00  0.00    -0.075 A 
ATOM      6  C7  UNL d   1      -2.796   0.976   3.368  0.00  0.00     0.076 C 
ATOM      7  C8  UNL d   1      -4.005  -1.011   2.417  0.00  0.00     0.001 A 
ENDROOT
BRANCH   1   8
ATOM      8  C1  UNL d   1      -5.325  -2.979   1.545  0.00  0.00     0.053 C 
ATOM      9  C   UNL d   1      -5.581  -3.593   2.912  0.00  0.00     0.018 C 
ENDBRANCH   1   8
TORSDOF 1
ENDMDL
