MODEL 1
REMARK minimizedAffinity 8.26517391
REMARK minimizedRMSD -1
REMARK  1 active torsions:
REMARK  status: ('A' for Active; 'I' for Inactive)
REMARK    1  A    between atoms: C1_2  and  C2_3 
ROOT
ATOM      1  C2  UNL d   1      -2.932   1.178   3.559  0.00  0.00    -0.073 A 
ATOM      2  C3  UNL d   1      -2.846   0.354   4.687  0.00  0.00    -0.002 A 
ATOM      3  C4  UNL d   1      -3.602   0.636   5.825  0.00  0.00     0.004 A 
ATOM      4  C5  UNL d   1      -4.455   1.740   5.845  0.00  0.00    -0.004 A 
ATOM      5  C6  UNL d   1      -4.564   2.568   4.724  0.00  0.00    -0.075 A 
ATOM      6  C7  UNL d   1      -5.475   3.760   4.730  0.00  0.00     0.076 C 
ATOM      7  C8  UNL d   1      -3.799   2.280   3.585  0.00  0.00     0.001 A 
ENDROOT
BRANCH   1   8
ATOM      8  C1  UNL d   1      -2.122   0.874   2.325  0.00  0.00     0.053 C 
ATOM      9  C   UNL d   1      -2.512  -0.457   1.702  0.00  0.00     0.018 C 
ENDBRANCH   1   8
TORSDOF 1
ENDMDL
