MODEL 1
REMARK minimizedAffinity 8.02903748
REMARK minimizedRMSD -1
REMARK  1 active torsions:
REMARK  status: ('A' for Active; 'I' for Inactive)
REMARK    1  A    between atoms: C1_2  and  C2_3 
ROOT
ATOM      1  C2  UNL d   1       3.154   3.335  -3.121  0.00  0.00    -0.073 A 
ATOM      2  C3  UNL d   1       2.033   4.127  -3.398  0.00  0.00    -0.002 A 
ATOM      3  C4  UNL d   1       0.940   4.129  -2.531  0.00  0.00     0.004 A 
ATOM      4  C5  UNL d   1       0.958   3.346  -1.376  0.00  0.00    -0.004 A 
ATOM      5  C6  UNL d   1       2.073   2.558  -1.076  0.00  0.00    -0.075 A 
ATOM      6  C7  UNL d   1       2.108   1.708   0.160  0.00  0.00     0.076 C 
ATOM      7  C8  UNL d   1       3.166   2.559  -1.953  0.00  0.00     0.001 A 
ENDROOT
BRANCH   1   8
ATOM      8  C1  UNL d   1       4.339   3.335  -4.051  0.00  0.00     0.053 C 
ATOM      9  C   UNL d   1       5.487   4.174  -3.512  0.00  0.00     0.018 C 
ENDBRANCH   1   8
TORSDOF 1
ENDMDL
