MODEL 1
REMARK minimizedAffinity 2.63344979
REMARK minimizedRMSD -1
REMARK  1 active torsions:
REMARK  status: ('A' for Active; 'I' for Inactive)
REMARK    1  A    between atoms: C1_2  and  C2_3 
ROOT
ATOM      1  C2  UNL d   1      -4.262   1.053   5.377  0.00  0.00    -0.073 A 
ATOM      2  C3  UNL d   1      -5.036   0.066   5.997  0.00  0.00    -0.002 A 
ATOM      3  C4  UNL d   1      -5.160  -1.199   5.419  0.00  0.00     0.004 A 
ATOM      4  C5  UNL d   1      -4.507  -1.491   4.222  0.00  0.00    -0.004 A 
ATOM      5  C6  UNL d   1      -3.719  -0.521   3.593  0.00  0.00    -0.075 A 
ATOM      6  C7  UNL d   1      -3.012  -0.818   2.304  0.00  0.00     0.076 C 
ATOM      7  C8  UNL d   1      -3.602   0.747   4.178  0.00  0.00     0.001 A 
ENDROOT
BRANCH   1   8
ATOM      8  C1  UNL d   1      -4.120   2.418   6.000  0.00  0.00     0.053 C 
ATOM      9  C   UNL d   1      -5.269   3.339   5.623  0.00  0.00     0.018 C 
ENDBRANCH   1   8
TORSDOF 1
ENDMDL
