MODEL 1
REMARK minimizedAffinity 8.92931366
REMARK minimizedRMSD -1
REMARK  1 active torsions:
REMARK  status: ('A' for Active; 'I' for Inactive)
REMARK    1  A    between atoms: C1_2  and  C2_3 
ROOT
ATOM      1  C2  UNL d   1      -3.505   5.147  -3.450  0.00  0.00    -0.073 A 
ATOM      2  C3  UNL d   1      -4.203   5.830  -4.453  0.00  0.00    -0.002 A 
ATOM      3  C4  UNL d   1      -3.640   5.988  -5.720  0.00  0.00     0.004 A 
ATOM      4  C5  UNL d   1      -2.380   5.461  -6.000  0.00  0.00    -0.004 A 
ATOM      5  C6  UNL d   1      -1.672   4.765  -5.014  0.00  0.00    -0.075 A 
ATOM      6  C7  UNL d   1      -0.314   4.194  -5.298  0.00  0.00     0.076 C 
ATOM      7  C8  UNL d   1      -2.242   4.613  -3.743  0.00  0.00     0.001 A 
ENDROOT
BRANCH   1   8
ATOM      8  C1  UNL d   1      -4.111   4.968  -2.082  0.00  0.00     0.053 C 
ATOM      9  C   UNL d   1      -5.200   5.991  -1.803  0.00  0.00     0.018 C 
ENDBRANCH   1   8
TORSDOF 1
ENDMDL
