MODEL 1
REMARK minimizedAffinity 1.22907376
REMARK minimizedRMSD -1
REMARK  1 active torsions:
REMARK  status: ('A' for Active; 'I' for Inactive)
REMARK    1  A    between atoms: C1_2  and  C2_3 
ROOT
ATOM      1  C2  UNL d   1      -2.913  -1.248   2.940  0.00  0.00    -0.073 A 
ATOM      2  C3  UNL d   1      -2.685   0.065   3.366  0.00  0.00    -0.002 A 
ATOM      3  C4  UNL d   1      -3.344   0.566   4.490  0.00  0.00     0.004 A 
ATOM      4  C5  UNL d   1      -4.230  -0.242   5.202  0.00  0.00    -0.004 A 
ATOM      5  C6  UNL d   1      -4.462  -1.561   4.799  0.00  0.00    -0.075 A 
ATOM      6  C7  UNL d   1      -5.414  -2.443   5.553  0.00  0.00     0.076 C 
ATOM      7  C8  UNL d   1      -3.799  -2.056   3.668  0.00  0.00     0.001 A 
ENDROOT
BRANCH   1   8
ATOM      8  C1  UNL d   1      -2.199  -1.795   1.731  0.00  0.00     0.053 C 
ATOM      9  C   UNL d   1      -0.712  -1.986   1.984  0.00  0.00     0.018 C 
ENDBRANCH   1   8
TORSDOF 1
ENDMDL
