MODEL 1
REMARK minimizedAffinity 10.1434069
REMARK minimizedRMSD -1
REMARK  1 active torsions:
REMARK  status: ('A' for Active; 'I' for Inactive)
REMARK    1  A    between atoms: C1_2  and  C2_3 
ROOT
ATOM      1  C2  UNL d   1       4.106   3.719  -2.639  0.00  0.00    -0.073 A 
ATOM      2  C3  UNL d   1       3.333   2.556  -2.726  0.00  0.00    -0.002 A 
ATOM      3  C4  UNL d   1       3.095   1.782  -1.590  0.00  0.00     0.004 A 
ATOM      4  C5  UNL d   1       3.620   2.165  -0.356  0.00  0.00    -0.004 A 
ATOM      5  C6  UNL d   1       4.385   3.331  -0.247  0.00  0.00    -0.075 A 
ATOM      6  C7  UNL d   1       4.959   3.756   1.073  0.00  0.00     0.076 C 
ATOM      7  C8  UNL d   1       4.622   4.102  -1.393  0.00  0.00     0.001 A 
ENDROOT
BRANCH   1   8
ATOM      8  C1  UNL d   1       4.361   4.562  -3.862  0.00  0.00     0.053 C 
ATOM      9  C   UNL d   1       4.928   3.743  -5.011  0.00  0.00     0.018 C 
ENDBRANCH   1   8
TORSDOF 1
ENDMDL
