MODEL 1
REMARK minimizedAffinity 9.40310955
REMARK minimizedRMSD -1
REMARK  1 active torsions:
REMARK  status: ('A' for Active; 'I' for Inactive)
REMARK    1  A    between atoms: C1_2  and  C2_3 
ROOT
ATOM      1  C2  UNL d   1       3.085   1.875  -1.542  0.00  0.00    -0.073 A 
ATOM      2  C3  UNL d   1       1.717   2.020  -1.801  0.00  0.00    -0.002 A 
ATOM      3  C4  UNL d   1       1.283   2.753  -2.906  0.00  0.00     0.004 A 
ATOM      4  C5  UNL d   1       2.209   3.343  -3.766  0.00  0.00    -0.004 A 
ATOM      5  C6  UNL d   1       3.581   3.199  -3.531  0.00  0.00    -0.075 A 
ATOM      6  C7  UNL d   1       4.590   3.829  -4.445  0.00  0.00     0.076 C 
ATOM      7  C8  UNL d   1       4.009   2.464  -2.417  0.00  0.00     0.001 A 
ENDROOT
BRANCH   1   8
ATOM      8  C1  UNL d   1       3.559   1.079  -0.354  0.00  0.00     0.053 C 
ATOM      9  C   UNL d   1       2.769   1.406   0.903  0.00  0.00     0.018 C 
ENDBRANCH   1   8
TORSDOF 1
ENDMDL
