MODEL 1
REMARK minimizedAffinity 7.30077791
REMARK minimizedRMSD -1
REMARK  1 active torsions:
REMARK  status: ('A' for Active; 'I' for Inactive)
REMARK    1  A    between atoms: C1_2  and  C2_3 
ROOT
ATOM      1  C2  UNL d   1      -3.798  -4.994   2.335  0.00  0.00    -0.073 A 
ATOM      2  C3  UNL d   1      -4.910  -5.580   1.720  0.00  0.00    -0.002 A 
ATOM      3  C4  UNL d   1      -5.999  -6.000   2.486  0.00  0.00     0.004 A 
ATOM      4  C5  UNL d   1      -5.990  -5.833   3.870  0.00  0.00    -0.004 A 
ATOM      5  C6  UNL d   1      -4.892  -5.239   4.502  0.00  0.00    -0.075 A 
ATOM      6  C7  UNL d   1      -4.866  -5.054   5.991  0.00  0.00     0.076 C 
ATOM      7  C8  UNL d   1      -3.802  -4.822   3.727  0.00  0.00     0.001 A 
ENDROOT
BRANCH   1   8
ATOM      8  C1  UNL d   1      -2.623  -4.533   1.512  0.00  0.00     0.053 C 
ATOM      9  C   UNL d   1      -2.467  -3.020   1.538  0.00  0.00     0.018 C 
ENDBRANCH   1   8
TORSDOF 1
ENDMDL
