MODEL 1
REMARK minimizedAffinity 15.1687317
REMARK minimizedRMSD -1
REMARK  1 active torsions:
REMARK  status: ('A' for Active; 'I' for Inactive)
REMARK    1  A    between atoms: C1_2  and  C2_3 
ROOT
ATOM      1  C2  UNL d   1      -4.305  -3.513   2.986  0.00  0.00    -0.073 A 
ATOM      2  C3  UNL d   1      -4.893  -4.109   1.864  0.00  0.00    -0.002 A 
ATOM      3  C4  UNL d   1      -5.685  -5.249   2.005  0.00  0.00     0.004 A 
ATOM      4  C5  UNL d   1      -5.903  -5.801   3.267  0.00  0.00    -0.004 A 
ATOM      5  C6  UNL d   1      -5.334  -5.214   4.402  0.00  0.00    -0.075 A 
ATOM      6  C7  UNL d   1      -5.556  -5.797   5.766  0.00  0.00     0.076 C 
ATOM      7  C8  UNL d   1      -4.538  -4.070   4.252  0.00  0.00     0.001 A 
ENDROOT
BRANCH   1   8
ATOM      8  C1  UNL d   1      -3.455  -2.278   2.840  0.00  0.00     0.053 C 
ATOM      9  C   UNL d   1      -2.572  -2.337   1.603  0.00  0.00     0.018 C 
ENDBRANCH   1   8
TORSDOF 1
ENDMDL
