MODEL 1
REMARK minimizedAffinity 14.2771025
REMARK minimizedRMSD -1
REMARK  1 active torsions:
REMARK  status: ('A' for Active; 'I' for Inactive)
REMARK    1  A    between atoms: C1_2  and  C2_3 
ROOT
ATOM      1  C2  UNL d   1      -2.663  -2.134   2.051  0.00  0.00    -0.073 A 
ATOM      2  C3  UNL d   1      -2.492  -1.198   1.024  0.00  0.00    -0.002 A 
ATOM      3  C4  UNL d   1      -2.113   0.111   1.321  0.00  0.00     0.004 A 
ATOM      4  C5  UNL d   1      -1.895   0.497   2.643  0.00  0.00    -0.004 A 
ATOM      5  C6  UNL d   1      -2.050  -0.427   3.682  0.00  0.00    -0.075 A 
ATOM      6  C7  UNL d   1      -1.822  -0.027   5.110  0.00  0.00     0.076 C 
ATOM      7  C8  UNL d   1      -2.434  -1.740   3.376  0.00  0.00     0.001 A 
ENDROOT
BRANCH   1   8
ATOM      8  C1  UNL d   1      -3.066  -3.551   1.735  0.00  0.00     0.053 C 
ATOM      9  C   UNL d   1      -4.210  -4.029   2.616  0.00  0.00     0.018 C 
ENDBRANCH   1   8
TORSDOF 1
ENDMDL
