MODEL 1
REMARK minimizedAffinity -4.25809669
REMARK minimizedRMSD -1
REMARK  0 active torsions:
REMARK  status: ('A' for Active; 'I' for Inactive)
ROOT
ATOM      1  C   UNL d   1      -0.235   0.444  -2.611  0.00  0.00     0.023 A 
ATOM      2  C1  UNL d   1      -0.658   1.450  -1.743  0.00  0.00     0.003 A 
ATOM      3  C2  UNL d   1      -0.425   1.333  -0.371  0.00  0.00     0.048 A 
ATOM      4  C3  UNL d   1       0.232   0.209   0.126  0.00  0.00     0.023 A 
ATOM      5  C4  UNL d   1       0.658  -0.800  -0.739  0.00  0.00     0.048 A 
ATOM      6  C5  UNL d   1       0.423  -0.680  -2.110  0.00  0.00     0.003 A 
ATOM      7  I   UNL d   1       0.580   0.033   2.167  0.00  0.00    -0.146 I 
ENDROOT
TORSDOF 0
ENDMDL
