MODEL 1
REMARK minimizedAffinity -3.80151653
REMARK minimizedRMSD -1
REMARK  0 active torsions:
REMARK  status: ('A' for Active; 'I' for Inactive)
ROOT
ATOM      1  C   UNL d   1       0.103  -0.739   2.263  0.00  0.00     0.023 A 
ATOM      2  C1  UNL d   1       0.784  -1.174   1.125  0.00  0.00     0.003 A 
ATOM      3  C2  UNL d   1       0.541  -0.569  -0.109  0.00  0.00     0.048 A 
ATOM      4  C3  UNL d   1      -0.384   0.471  -0.199  0.00  0.00     0.023 A 
ATOM      5  C4  UNL d   1      -1.067   0.910   0.936  0.00  0.00     0.048 A 
ATOM      6  C5  UNL d   1      -0.821   0.301   2.168  0.00  0.00     0.003 A 
ATOM      7  I   UNL d   1      -0.748   1.374  -2.036  0.00  0.00    -0.146 I 
ENDROOT
TORSDOF 0
ENDMDL
