MODEL 1
REMARK minimizedAffinity -3.25868058
REMARK minimizedRMSD -1
REMARK  0 active torsions:
REMARK  status: ('A' for Active; 'I' for Inactive)
ROOT
ATOM      1  C   UNL d   1       0.608  -1.079   1.899  0.00  0.00     0.023 A 
ATOM      2  C1  UNL d   1      -0.704  -0.652   2.100  0.00  0.00     0.003 A 
ATOM      3  C2  UNL d   1      -1.371   0.057   1.099  0.00  0.00     0.048 A 
ATOM      4  C3  UNL d   1      -0.719   0.334  -0.102  0.00  0.00     0.023 A 
ATOM      5  C4  UNL d   1       0.594  -0.092  -0.309  0.00  0.00     0.048 A 
ATOM      6  C5  UNL d   1       1.257  -0.799   0.696  0.00  0.00     0.003 A 
ATOM      7  I   UNL d   1      -1.709   1.389  -1.595  0.00  0.00    -0.146 I 
ENDROOT
TORSDOF 0
ENDMDL
