MODEL 1
REMARK minimizedAffinity -3.92979622
REMARK minimizedRMSD -1
REMARK  0 active torsions:
REMARK  status: ('A' for Active; 'I' for Inactive)
ROOT
ATOM      1  C   UNL d   1       0.492  -0.867   2.493  0.00  0.00     0.023 A 
ATOM      2  C1  UNL d   1      -0.836  -0.507   2.265  0.00  0.00     0.003 A 
ATOM      3  C2  UNL d   1      -1.225  -0.032   1.011  0.00  0.00     0.048 A 
ATOM      4  C3  UNL d   1      -0.282   0.079  -0.010  0.00  0.00     0.023 A 
ATOM      5  C4  UNL d   1       1.047  -0.281   0.214  0.00  0.00     0.048 A 
ATOM      6  C5  UNL d   1       1.433  -0.754   1.469  0.00  0.00     0.003 A 
ATOM      7  I   UNL d   1      -0.860   0.786  -1.878  0.00  0.00    -0.146 I 
ENDROOT
TORSDOF 0
ENDMDL
