MODEL 1
REMARK minimizedAffinity -4.45764637
REMARK minimizedRMSD -1
REMARK  0 active torsions:
REMARK  status: ('A' for Active; 'I' for Inactive)
ROOT
ATOM      1  C   UNL d   1       0.927  -0.716   0.812  0.00  0.00     0.023 A 
ATOM      2  C1  UNL d   1       0.661   0.645   0.967  0.00  0.00     0.003 A 
ATOM      3  C2  UNL d   1      -0.043   1.337  -0.021  0.00  0.00     0.048 A 
ATOM      4  C3  UNL d   1      -0.480   0.662  -1.160  0.00  0.00     0.023 A 
ATOM      5  C4  UNL d   1      -0.218  -0.700  -1.319  0.00  0.00     0.048 A 
ATOM      6  C5  UNL d   1       0.488  -1.388  -0.329  0.00  0.00     0.003 A 
ATOM      7  I   UNL d   1      -1.529   1.689  -2.630  0.00  0.00    -0.146 I 
ENDROOT
TORSDOF 0
ENDMDL
