MODEL 1
REMARK minimizedAffinity -4.19531965
REMARK minimizedRMSD -1
REMARK  0 active torsions:
REMARK  status: ('A' for Active; 'I' for Inactive)
ROOT
ATOM      1  C   UNL d   1       0.373  -0.927   2.533  0.00  0.00     0.023 A 
ATOM      2  C1  UNL d   1       1.385  -0.936   1.573  0.00  0.00     0.003 A 
ATOM      3  C2  UNL d   1       1.145  -0.421   0.298  0.00  0.00     0.048 A 
ATOM      4  C3  UNL d   1      -0.110   0.103  -0.011  0.00  0.00     0.023 A 
ATOM      5  C4  UNL d   1      -1.126   0.115   0.946  0.00  0.00     0.048 A 
ATOM      6  C5  UNL d   1      -0.881  -0.402   2.220  0.00  0.00     0.003 A 
ATOM      7  I   UNL d   1      -0.471   0.870  -1.909  0.00  0.00    -0.146 I 
ENDROOT
TORSDOF 0
ENDMDL
