MODEL 1
REMARK minimizedAffinity -2.43864489
REMARK minimizedRMSD -1
REMARK  0 active torsions:
REMARK  status: ('A' for Active; 'I' for Inactive)
ROOT
ATOM      1  C   UNL d   1       5.993  -1.090  -4.852  0.00  0.00     0.077 C 
ATOM      2  C1  UNL d   1       5.159  -2.337  -4.879  0.00  0.00    -0.074 A 
ATOM      3  C2  UNL d   1       3.843  -2.331  -4.406  0.00  0.00    -0.005 A 
ATOM      4  C3  UNL d   1       3.076  -3.496  -4.446  0.00  0.00     0.006 A 
ATOM      5  C4  UNL d   1       3.617  -4.676  -4.958  0.00  0.00    -0.005 A 
ATOM      6  C5  UNL d   1       4.931  -4.700  -5.436  0.00  0.00    -0.074 A 
ATOM      7  C6  UNL d   1       5.525  -5.957  -5.999  0.00  0.00     0.077 C 
ATOM      8  C7  UNL d   1       5.693  -3.524  -5.399  0.00  0.00    -0.001 A 
ENDROOT
TORSDOF 0
ENDMDL
