MODEL 1
REMARK minimizedAffinity 3.77124667
REMARK minimizedRMSD -1
REMARK  0 active torsions:
REMARK  status: ('A' for Active; 'I' for Inactive)
ROOT
ATOM      1  C   UNL d   1       0.802  -1.762  -4.971  0.00  0.00     0.077 C 
ATOM      2  C1  UNL d   1       2.167  -2.302  -5.278  0.00  0.00    -0.074 A 
ATOM      3  C2  UNL d   1       3.278  -1.455  -5.338  0.00  0.00    -0.005 A 
ATOM      4  C3  UNL d   1       4.544  -1.972  -5.615  0.00  0.00     0.006 A 
ATOM      5  C4  UNL d   1       4.711  -3.340  -5.834  0.00  0.00    -0.005 A 
ATOM      6  C5  UNL d   1       3.612  -4.203  -5.776  0.00  0.00    -0.074 A 
ATOM      7  C6  UNL d   1       3.775  -5.677  -5.999  0.00  0.00     0.077 C 
ATOM      8  C7  UNL d   1       2.345  -3.676  -5.491  0.00  0.00    -0.001 A 
ENDROOT
TORSDOF 0
ENDMDL
