MODEL 1
REMARK minimizedAffinity 1.49780643
REMARK minimizedRMSD -1
REMARK  0 active torsions:
REMARK  status: ('A' for Active; 'I' for Inactive)
ROOT
ATOM      1  C   UNL d   1      -4.745   4.460  -3.038  0.00  0.00     0.077 C 
ATOM      2  C1  UNL d   1      -4.352   3.036  -3.298  0.00  0.00    -0.074 A 
ATOM      3  C2  UNL d   1      -5.313   2.075  -3.627  0.00  0.00    -0.005 A 
ATOM      4  C3  UNL d   1      -4.931   0.756  -3.875  0.00  0.00     0.006 A 
ATOM      5  C4  UNL d   1      -3.588   0.386  -3.797  0.00  0.00    -0.005 A 
ATOM      6  C5  UNL d   1      -2.613   1.335  -3.470  0.00  0.00    -0.074 A 
ATOM      7  C6  UNL d   1      -1.164   0.956  -3.392  0.00  0.00     0.077 C 
ATOM      8  C7  UNL d   1      -3.004   2.659  -3.229  0.00  0.00    -0.001 A 
ENDROOT
TORSDOF 0
ENDMDL
