MODEL 1
REMARK minimizedAffinity 11.6374369
REMARK minimizedRMSD -1
REMARK  0 active torsions:
REMARK  status: ('A' for Active; 'I' for Inactive)
ROOT
ATOM      1  C   UNL d   1      -0.523  -0.715  -3.602  0.00  0.00     0.077 C 
ATOM      2  C1  UNL d   1      -1.102   0.473  -2.894  0.00  0.00    -0.074 A 
ATOM      3  C2  UNL d   1      -0.400   1.110  -1.866  0.00  0.00    -0.005 A 
ATOM      4  C3  UNL d   1      -0.948   2.221  -1.223  0.00  0.00     0.006 A 
ATOM      5  C4  UNL d   1      -2.201   2.704  -1.601  0.00  0.00    -0.005 A 
ATOM      6  C5  UNL d   1      -2.917   2.080  -2.628  0.00  0.00    -0.074 A 
ATOM      7  C6  UNL d   1      -4.261   2.593  -3.053  0.00  0.00     0.077 C 
ATOM      8  C7  UNL d   1      -2.357   0.970  -3.273  0.00  0.00    -0.001 A 
ENDROOT
TORSDOF 0
ENDMDL
