MODEL 1
REMARK minimizedAffinity 2.2567265
REMARK minimizedRMSD -1
REMARK  0 active torsions:
REMARK  status: ('A' for Active; 'I' for Inactive)
ROOT
ATOM      1  C   UNL d   1       5.866   4.942  -4.994  0.00  0.00     0.077 C 
ATOM      2  C1  UNL d   1       5.269   5.161  -3.636  0.00  0.00    -0.074 A 
ATOM      3  C2  UNL d   1       5.998   5.793  -2.624  0.00  0.00    -0.005 A 
ATOM      4  C3  UNL d   1       5.426   5.998  -1.369  0.00  0.00     0.006 A 
ATOM      5  C4  UNL d   1       4.120   5.576  -1.114  0.00  0.00    -0.005 A 
ATOM      6  C5  UNL d   1       3.376   4.943  -2.114  0.00  0.00    -0.074 A 
ATOM      7  C6  UNL d   1       1.968   4.492  -1.860  0.00  0.00     0.077 C 
ATOM      8  C7  UNL d   1       3.955   4.747  -3.375  0.00  0.00    -0.001 A 
ENDROOT
TORSDOF 0
ENDMDL
