MODEL 1
REMARK minimizedAffinity 4.81245708
REMARK minimizedRMSD -1
REMARK  0 active torsions:
REMARK  status: ('A' for Active; 'I' for Inactive)
ROOT
ATOM      1  C   UNL d   1      -4.128   0.446  -5.513  0.00  0.00     0.077 C 
ATOM      2  C1  UNL d   1      -4.019   1.226  -4.237  0.00  0.00    -0.074 A 
ATOM      3  C2  UNL d   1      -3.228   0.767  -3.179  0.00  0.00    -0.005 A 
ATOM      4  C3  UNL d   1      -3.129   1.509  -2.001  0.00  0.00     0.006 A 
ATOM      5  C4  UNL d   1      -3.820   2.715  -1.870  0.00  0.00    -0.005 A 
ATOM      6  C5  UNL d   1      -4.615   3.190  -2.918  0.00  0.00    -0.074 A 
ATOM      7  C6  UNL d   1      -5.355   4.488  -2.797  0.00  0.00     0.077 C 
ATOM      8  C7  UNL d   1      -4.703   2.442  -4.101  0.00  0.00    -0.001 A 
ENDROOT
TORSDOF 0
ENDMDL
