MODEL 1
REMARK minimizedAffinity 12.4872675
REMARK minimizedRMSD -1
REMARK  0 active torsions:
REMARK  status: ('A' for Active; 'I' for Inactive)
ROOT
ATOM      1  C   UNL d   1      -2.986   4.171  -5.307  0.00  0.00     0.077 C 
ATOM      2  C1  UNL d   1      -2.957   3.331  -4.065  0.00  0.00    -0.074 A 
ATOM      3  C2  UNL d   1      -3.737   3.665  -2.953  0.00  0.00    -0.005 A 
ATOM      4  C3  UNL d   1      -3.707   2.870  -1.808  0.00  0.00     0.006 A 
ATOM      5  C4  UNL d   1      -2.897   1.734  -1.763  0.00  0.00    -0.005 A 
ATOM      6  C5  UNL d   1      -2.111   1.384  -2.865  0.00  0.00    -0.074 A 
ATOM      7  C6  UNL d   1      -1.242   0.161  -2.836  0.00  0.00     0.077 C 
ATOM      8  C7  UNL d   1      -2.152   2.185  -4.014  0.00  0.00    -0.001 A 
ENDROOT
TORSDOF 0
ENDMDL
