MODEL 1
REMARK minimizedAffinity 3.29422188
REMARK minimizedRMSD -1
REMARK  0 active torsions:
REMARK  status: ('A' for Active; 'I' for Inactive)
ROOT
ATOM      1  C   UNL d   1       6.000  -2.333  -6.000  0.00  0.00     0.077 C 
ATOM      2  C1  UNL d   1       5.270  -3.588  -5.625  0.00  0.00    -0.074 A 
ATOM      3  C2  UNL d   1       5.869  -4.842  -5.780  0.00  0.00    -0.005 A 
ATOM      4  C3  UNL d   1       5.181  -6.000  -5.418  0.00  0.00     0.006 A 
ATOM      5  C4  UNL d   1       3.889  -5.916  -4.897  0.00  0.00    -0.005 A 
ATOM      6  C5  UNL d   1       3.274  -4.671  -4.734  0.00  0.00    -0.074 A 
ATOM      7  C6  UNL d   1       1.890  -4.562  -4.166  0.00  0.00     0.077 C 
ATOM      8  C7  UNL d   1       3.975  -3.511  -5.094  0.00  0.00    -0.001 A 
ENDROOT
TORSDOF 0
ENDMDL
