MODEL 1
REMARK minimizedAffinity -2.18629313
REMARK minimizedRMSD -1
REMARK  0 active torsions:
REMARK  status: ('A' for Active; 'I' for Inactive)
ROOT
ATOM      1  C   UNL d   1      -0.944   2.388   2.095  0.00  0.00     0.172 C 
ATOM      2  N   UNL d   1      -0.652   2.826   0.750  0.00  0.00    -0.070 N 
ATOM      3  C1  UNL d   1      -0.306   4.099   0.383  0.00  0.00    -0.004 A 
ATOM      4  C2  UNL d   1      -0.109   4.106  -0.981  0.00  0.00    -0.047 A 
ATOM      5  C3  UNL d   1      -0.347   2.792  -1.450  0.00  0.00    -0.047 A 
ATOM      6  C4  UNL d   1      -0.680   2.020  -0.357  0.00  0.00    -0.004 A 
ENDROOT
TORSDOF 0
ENDMDL
