MODEL 1
REMARK minimizedAffinity -0.478874952
REMARK minimizedRMSD -1
REMARK  0 active torsions:
REMARK  status: ('A' for Active; 'I' for Inactive)
ROOT
ATOM      1  C   UNL d   1      -0.990   2.880  -2.750  0.00  0.00     0.172 C 
ATOM      2  N   UNL d   1      -0.502   3.139  -1.416  0.00  0.00    -0.070 N 
ATOM      3  C1  UNL d   1       0.072   4.307  -0.988  0.00  0.00    -0.004 A 
ATOM      4  C2  UNL d   1       0.399   4.154   0.342  0.00  0.00    -0.047 A 
ATOM      5  C3  UNL d   1       0.011   2.849   0.726  0.00  0.00    -0.047 A 
ATOM      6  C4  UNL d   1      -0.544   2.243  -0.381  0.00  0.00    -0.004 A 
ENDROOT
TORSDOF 0
ENDMDL
