MODEL 1
REMARK minimizedAffinity 1.48556244
REMARK minimizedRMSD -1
REMARK  0 active torsions:
REMARK  status: ('A' for Active; 'I' for Inactive)
ROOT
ATOM      1  C   UNL d   1      -1.689   3.403  -3.077  0.00  0.00     0.172 C 
ATOM      2  N   UNL d   1      -0.698   3.615  -2.048  0.00  0.00    -0.070 N 
ATOM      3  C1  UNL d   1       0.584   4.052  -2.253  0.00  0.00    -0.004 A 
ATOM      4  C2  UNL d   1       1.206   4.125  -1.026  0.00  0.00    -0.047 A 
ATOM      5  C3  UNL d   1       0.266   3.717  -0.049  0.00  0.00    -0.047 A 
ATOM      6  C4  UNL d   1      -0.904   3.407  -0.710  0.00  0.00    -0.004 A 
ENDROOT
TORSDOF 0
ENDMDL
