MODEL 1
REMARK minimizedAffinity 0.939872682
REMARK minimizedRMSD -1
REMARK  0 active torsions:
REMARK  status: ('A' for Active; 'I' for Inactive)
ROOT
ATOM      1  C   UNL d   1      -0.008   3.375  -1.121  0.00  0.00     0.172 C 
ATOM      2  N   UNL d   1      -0.128   2.978   0.262  0.00  0.00    -0.070 N 
ATOM      3  C1  UNL d   1       0.311   3.699   1.341  0.00  0.00    -0.004 A 
ATOM      4  C2  UNL d   1       0.010   2.981   2.479  0.00  0.00    -0.047 A 
ATOM      5  C3  UNL d   1      -0.630   1.787   2.070  0.00  0.00    -0.047 A 
ATOM      6  C4  UNL d   1      -0.702   1.811   0.693  0.00  0.00    -0.004 A 
ENDROOT
TORSDOF 0
ENDMDL
