MODEL 1
REMARK minimizedAffinity 0.517253458
REMARK minimizedRMSD -1
REMARK  0 active torsions:
REMARK  status: ('A' for Active; 'I' for Inactive)
ROOT
ATOM      1  C   UNL d   1      -1.450   1.988  -2.531  0.00  0.00     0.172 C 
ATOM      2  N   UNL d   1      -0.716   2.665  -1.488  0.00  0.00    -0.070 N 
ATOM      3  C1  UNL d   1      -0.098   3.882  -1.607  0.00  0.00    -0.004 A 
ATOM      4  C2  UNL d   1       0.488   4.177  -0.395  0.00  0.00    -0.047 A 
ATOM      5  C3  UNL d   1       0.214   3.101   0.482  0.00  0.00    -0.047 A 
ATOM      6  C4  UNL d   1      -0.533   2.179  -0.220  0.00  0.00    -0.004 A 
ENDROOT
TORSDOF 0
ENDMDL
