MODEL 1
REMARK minimizedAffinity 4.30616236
REMARK minimizedRMSD -1
REMARK  0 active torsions:
REMARK  status: ('A' for Active; 'I' for Inactive)
ROOT
ATOM      1  C   UNL d   1      -0.779   1.989   0.392  0.00  0.00     0.172 C 
ATOM      2  N   UNL d   1      -0.152   3.031  -0.387  0.00  0.00    -0.070 N 
ATOM      3  C1  UNL d   1      -0.242   3.176  -1.746  0.00  0.00    -0.004 A 
ATOM      4  C2  UNL d   1       0.492   4.286  -2.102  0.00  0.00    -0.047 A 
ATOM      5  C3  UNL d   1       1.044   4.826  -0.916  0.00  0.00    -0.047 A 
ATOM      6  C4  UNL d   1       0.629   4.030   0.130  0.00  0.00    -0.004 A 
ENDROOT
TORSDOF 0
ENDMDL
