MODEL 1
REMARK minimizedAffinity 1.19480169
REMARK minimizedRMSD -1
REMARK  0 active torsions:
REMARK  status: ('A' for Active; 'I' for Inactive)
ROOT
ATOM      1  C   UNL d   1      -1.195   3.451  -2.991  0.00  0.00     0.172 C 
ATOM      2  N   UNL d   1      -0.607   3.771  -1.711  0.00  0.00    -0.070 N 
ATOM      3  C1  UNL d   1      -1.090   4.689  -0.818  0.00  0.00    -0.004 A 
ATOM      4  C2  UNL d   1      -0.250   4.699   0.274  0.00  0.00    -0.047 A 
ATOM      5  C3  UNL d   1       0.774   3.754   0.028  0.00  0.00    -0.047 A 
ATOM      6  C4  UNL d   1       0.529   3.194  -1.208  0.00  0.00    -0.004 A 
ENDROOT
TORSDOF 0
ENDMDL
