MODEL 1
REMARK minimizedAffinity 3.69625998
REMARK minimizedRMSD -1
REMARK  0 active torsions:
REMARK  status: ('A' for Active; 'I' for Inactive)
ROOT
ATOM      1  C   UNL d   1      -1.177   2.091   1.196  0.00  0.00     0.172 C 
ATOM      2  N   UNL d   1      -0.610   3.117   0.352  0.00  0.00    -0.070 N 
ATOM      3  C1  UNL d   1      -0.138   2.933  -0.920  0.00  0.00    -0.004 A 
ATOM      4  C2  UNL d   1       0.317   4.149  -1.381  0.00  0.00    -0.047 A 
ATOM      5  C3  UNL d   1       0.112   5.097  -0.350  0.00  0.00    -0.047 A 
ATOM      6  C4  UNL d   1      -0.463   4.430   0.711  0.00  0.00    -0.004 A 
ENDROOT
TORSDOF 0
ENDMDL
