MODEL 1
REMARK minimizedAffinity 2.29570842
REMARK minimizedRMSD -1
REMARK  0 active torsions:
REMARK  status: ('A' for Active; 'I' for Inactive)
ROOT
ATOM      1  C   UNL d   1      -1.511   1.006   2.935  0.00  0.00     0.172 C 
ATOM      2  N   UNL d   1      -1.419  -0.356   3.406  0.00  0.00    -0.070 N 
ATOM      3  C1  UNL d   1      -0.294  -1.137   3.376  0.00  0.00    -0.004 A 
ATOM      4  C2  UNL d   1      -0.618  -2.364   3.914  0.00  0.00    -0.047 A 
ATOM      5  C3  UNL d   1      -1.984  -2.319   4.280  0.00  0.00    -0.047 A 
ATOM      6  C4  UNL d   1      -2.455  -1.065   3.954  0.00  0.00    -0.004 A 
ENDROOT
TORSDOF 0
ENDMDL
