MODEL 1
REMARK minimizedAffinity 6.02699757
REMARK minimizedRMSD -1
REMARK  0 active torsions:
REMARK  status: ('A' for Active; 'I' for Inactive)
ROOT
ATOM      1  C   UNL d   1      -0.152   1.812   0.294  0.00  0.00     0.172 C 
ATOM      2  N   UNL d   1       0.226   3.030  -0.383  0.00  0.00    -0.070 N 
ATOM      3  C1  UNL d   1       0.687   4.169   0.222  0.00  0.00    -0.004 A 
ATOM      4  C2  UNL d   1       0.935   5.100  -0.764  0.00  0.00    -0.047 A 
ATOM      5  C3  UNL d   1       0.612   4.499  -2.004  0.00  0.00    -0.047 A 
ATOM      6  C4  UNL d   1       0.176   3.218  -1.739  0.00  0.00    -0.004 A 
ENDROOT
TORSDOF 0
ENDMDL
