MODEL 1
REMARK minimizedAffinity 8.64605236
REMARK minimizedRMSD -1
REMARK  0 active torsions:
REMARK  status: ('A' for Active; 'I' for Inactive)
ROOT
ATOM      1  C   UNL d   1      -5.839  -4.583   5.970  0.00  0.00     0.172 C 
ATOM      2  N   UNL d   1      -4.755  -3.814   5.406  0.00  0.00    -0.070 N 
ATOM      3  C1  UNL d   1      -4.130  -4.071   4.215  0.00  0.00    -0.004 A 
ATOM      4  C2  UNL d   1      -3.155  -3.114   4.035  0.00  0.00    -0.047 A 
ATOM      5  C3  UNL d   1      -3.195  -2.252   5.156  0.00  0.00    -0.047 A 
ATOM      6  C4  UNL d   1      -4.195  -2.708   5.989  0.00  0.00    -0.004 A 
ENDROOT
TORSDOF 0
ENDMDL
