MODEL 1
REMARK minimizedAffinity 3.28114009
REMARK minimizedRMSD -1
REMARK  0 active torsions:
REMARK  status: ('A' for Active; 'I' for Inactive)
ROOT
ATOM      1  C   UNL d   1       0.333   2.986   1.061  0.00  0.00     0.172 C 
ATOM      2  N   UNL d   1      -0.196   3.673  -0.094  0.00  0.00    -0.070 N 
ATOM      3  C1  UNL d   1      -1.065   4.731  -0.064  0.00  0.00    -0.004 A 
ATOM      4  C2  UNL d   1      -1.328   5.098  -1.366  0.00  0.00    -0.047 A 
ATOM      5  C3  UNL d   1      -0.592   4.230  -2.208  0.00  0.00    -0.047 A 
ATOM      6  C4  UNL d   1       0.099   3.358  -1.394  0.00  0.00    -0.004 A 
ENDROOT
TORSDOF 0
ENDMDL
