MODEL 1
REMARK minimizedAffinity 3.84199357
REMARK minimizedRMSD -1
REMARK  0 active torsions:
REMARK  status: ('A' for Active; 'I' for Inactive)
ROOT
ATOM      1  C   UNL d   1      -1.092   3.341  -2.888  0.00  0.00     0.172 C 
ATOM      2  N   UNL d   1      -0.594   3.240  -1.536  0.00  0.00    -0.070 N 
ATOM      3  C1  UNL d   1       0.296   4.098  -0.947  0.00  0.00    -0.004 A 
ATOM      4  C2  UNL d   1       0.515   3.660   0.341  0.00  0.00    -0.047 A 
ATOM      5  C3  UNL d   1      -0.270   2.498   0.533  0.00  0.00    -0.047 A 
ATOM      6  C4  UNL d   1      -0.946   2.260  -0.645  0.00  0.00    -0.004 A 
ENDROOT
TORSDOF 0
ENDMDL
