MODEL 1
REMARK minimizedAffinity -1.52449489
REMARK minimizedRMSD -1
REMARK  0 active torsions:
REMARK  status: ('A' for Active; 'I' for Inactive)
ROOT
ATOM      1  C   UNL d   1      -4.837  -2.593   5.992  0.00  0.00     0.172 C 
ATOM      2  N   UNL d   1      -3.487  -2.957   5.630  0.00  0.00    -0.070 N 
ATOM      3  C1  UNL d   1      -2.634  -2.202   4.869  0.00  0.00    -0.004 A 
ATOM      4  C2  UNL d   1      -1.448  -2.894   4.753  0.00  0.00    -0.047 A 
ATOM      5  C3  UNL d   1      -1.593  -4.107   5.467  0.00  0.00    -0.047 A 
ATOM      6  C4  UNL d   1      -2.865  -4.120   6.000  0.00  0.00    -0.004 A 
ENDROOT
TORSDOF 0
ENDMDL
