MODEL 1
REMARK minimizedAffinity 3.10665178
REMARK minimizedRMSD -1
REMARK  0 active torsions:
REMARK  status: ('A' for Active; 'I' for Inactive)
ROOT
ATOM      1  C   UNL d   1       1.485  -2.997  -2.620  0.00  0.00     0.172 C 
ATOM      2  N   UNL d   1       1.271  -2.561  -3.980  0.00  0.00    -0.070 N 
ATOM      3  C1  UNL d   1       2.059  -1.677  -4.668  0.00  0.00    -0.004 A 
ATOM      4  C2  UNL d   1       1.521  -1.525  -5.928  0.00  0.00    -0.047 A 
ATOM      5  C3  UNL d   1       0.370  -2.344  -5.999  0.00  0.00    -0.047 A 
ATOM      6  C4  UNL d   1       0.238  -2.974  -4.779  0.00  0.00    -0.004 A 
ENDROOT
TORSDOF 0
ENDMDL
