MODEL 1
REMARK minimizedAffinity -5.34033823
REMARK minimizedRMSD -1
REMARK  0 active torsions:
REMARK  status: ('A' for Active; 'I' for Inactive)
ROOT
ATOM      1  C   UNL d   1       2.963   0.860  -0.063  0.00  0.00     0.078 C 
ATOM      2  C1  UNL d   1       1.486   0.888   0.195  0.00  0.00    -0.077 A 
ATOM      3  C2  UNL d   1       0.770   2.090   0.155  0.00  0.00    -0.001 A 
ATOM      4  C3  UNL d   1      -0.603   2.103   0.407  0.00  0.00     0.003 A 
ATOM      5  C4  UNL d   1      -1.271   0.916   0.701  0.00  0.00    -0.005 A 
ATOM      6  C5  UNL d   1      -0.566  -0.285   0.745  0.00  0.00     0.003 A 
ATOM      7  C6  UNL d   1       0.806  -0.300   0.494  0.00  0.00    -0.001 A 
ENDROOT
TORSDOF 0
ENDMDL
