MODEL 1
REMARK minimizedAffinity -0.535048723
REMARK minimizedRMSD -1
REMARK  0 active torsions:
REMARK  status: ('A' for Active; 'I' for Inactive)
ROOT
ATOM      1  C   UNL d   1      -0.058   2.869   0.835  0.00  0.00     0.078 C 
ATOM      2  C1  UNL d   1       0.089   1.400   0.572  0.00  0.00    -0.077 A 
ATOM      3  C2  UNL d   1      -1.029   0.557   0.545  0.00  0.00    -0.001 A 
ATOM      4  C3  UNL d   1      -0.876  -0.810   0.310  0.00  0.00     0.003 A 
ATOM      5  C4  UNL d   1       0.393  -1.347   0.100  0.00  0.00    -0.005 A 
ATOM      6  C5  UNL d   1       1.511  -0.516   0.128  0.00  0.00     0.003 A 
ATOM      7  C6  UNL d   1       1.361   0.852   0.363  0.00  0.00    -0.001 A 
ENDROOT
TORSDOF 0
ENDMDL
