MODEL 1
REMARK minimizedAffinity -2.39535809
REMARK minimizedRMSD -1
REMARK  0 active torsions:
REMARK  status: ('A' for Active; 'I' for Inactive)
ROOT
ATOM      1  C   UNL d   1       2.781   2.575   1.503  0.00  0.00     0.078 C 
ATOM      2  C1  UNL d   1       1.591   1.793   1.032  0.00  0.00    -0.077 A 
ATOM      3  C2  UNL d   1       1.733   0.489   0.544  0.00  0.00    -0.001 A 
ATOM      4  C3  UNL d   1       0.618  -0.224   0.099  0.00  0.00     0.003 A 
ATOM      5  C4  UNL d   1      -0.646   0.360   0.138  0.00  0.00    -0.005 A 
ATOM      6  C5  UNL d   1      -0.797   1.659   0.620  0.00  0.00     0.003 A 
ATOM      7  C6  UNL d   1       0.317   2.373   1.065  0.00  0.00    -0.001 A 
ENDROOT
TORSDOF 0
ENDMDL
