MODEL 1
REMARK minimizedAffinity -3.69874024
REMARK minimizedRMSD -1
REMARK  0 active torsions:
REMARK  status: ('A' for Active; 'I' for Inactive)
ROOT
ATOM      1  C   UNL d   1      -0.584   1.293  -0.011  0.00  0.00     0.078 C 
ATOM      2  C1  UNL d   1      -0.391  -0.162  -0.318  0.00  0.00    -0.077 A 
ATOM      3  C2  UNL d   1       0.626  -0.900   0.300  0.00  0.00    -0.001 A 
ATOM      4  C3  UNL d   1       0.801  -2.252  -0.003  0.00  0.00     0.003 A 
ATOM      5  C4  UNL d   1      -0.036  -2.876  -0.925  0.00  0.00    -0.005 A 
ATOM      6  C5  UNL d   1      -1.050  -2.149  -1.546  0.00  0.00     0.003 A 
ATOM      7  C6  UNL d   1      -1.226  -0.798  -1.245  0.00  0.00    -0.001 A 
ENDROOT
TORSDOF 0
ENDMDL
