MODEL 1
REMARK minimizedAffinity -4.46376133
REMARK minimizedRMSD -1
REMARK  0 active torsions:
REMARK  status: ('A' for Active; 'I' for Inactive)
ROOT
ATOM      1  C   UNL d   1      -0.330   0.937  -0.066  0.00  0.00     0.078 C 
ATOM      2  C1  UNL d   1      -0.121  -0.503  -0.430  0.00  0.00    -0.077 A 
ATOM      3  C2  UNL d   1      -0.403  -0.968  -1.720  0.00  0.00    -0.001 A 
ATOM      4  C3  UNL d   1      -0.214  -2.313  -2.043  0.00  0.00     0.003 A 
ATOM      5  C4  UNL d   1       0.258  -3.204  -1.080  0.00  0.00    -0.005 A 
ATOM      6  C5  UNL d   1       0.539  -2.750   0.207  0.00  0.00     0.003 A 
ATOM      7  C6  UNL d   1       0.350  -1.406   0.531  0.00  0.00    -0.001 A 
ENDROOT
TORSDOF 0
ENDMDL
