MODEL 1
REMARK minimizedAffinity -2.95759416
REMARK minimizedRMSD -1
REMARK  0 active torsions:
REMARK  status: ('A' for Active; 'I' for Inactive)
ROOT
ATOM      1  C   UNL d   1      -0.588  -3.452  -1.938  0.00  0.00     0.078 C 
ATOM      2  C1  UNL d   1      -0.256  -2.301  -1.036  0.00  0.00    -0.077 A 
ATOM      3  C2  UNL d   1      -1.035  -1.138  -1.033  0.00  0.00    -0.001 A 
ATOM      4  C3  UNL d   1      -0.708  -0.071  -0.195  0.00  0.00     0.003 A 
ATOM      5  C4  UNL d   1       0.399  -0.156   0.647  0.00  0.00    -0.005 A 
ATOM      6  C5  UNL d   1       1.182  -1.309   0.650  0.00  0.00     0.003 A 
ATOM      7  C6  UNL d   1       0.856  -2.377  -0.188  0.00  0.00    -0.001 A 
ENDROOT
TORSDOF 0
ENDMDL
