MODEL 1
REMARK minimizedAffinity -5.06593657
REMARK minimizedRMSD -1
REMARK  0 active torsions:
REMARK  status: ('A' for Active; 'I' for Inactive)
ROOT
ATOM      1  C   UNL d   1      -3.406  -4.803   0.407  0.00  0.00     0.078 C 
ATOM      2  C1  UNL d   1      -2.270  -4.272  -0.415  0.00  0.00    -0.077 A 
ATOM      3  C2  UNL d   1      -1.130  -3.732   0.193  0.00  0.00    -0.001 A 
ATOM      4  C3  UNL d   1      -0.085  -3.233  -0.585  0.00  0.00     0.003 A 
ATOM      5  C4  UNL d   1      -0.169  -3.267  -1.975  0.00  0.00    -0.005 A 
ATOM      6  C5  UNL d   1      -1.300  -3.800  -2.589  0.00  0.00     0.003 A 
ATOM      7  C6  UNL d   1      -2.347  -4.300  -1.813  0.00  0.00    -0.001 A 
ENDROOT
TORSDOF 0
ENDMDL
