MODEL 1
REMARK minimizedAffinity -2.97654557
REMARK minimizedRMSD -1
REMARK  0 active torsions:
REMARK  status: ('A' for Active; 'I' for Inactive)
ROOT
ATOM      1  C   UNL d   1       0.014  -0.569   0.403  0.00  0.00     0.078 C 
ATOM      2  C1  UNL d   1      -0.191  -1.706  -0.553  0.00  0.00    -0.077 A 
ATOM      3  C2  UNL d   1       0.608  -1.842  -1.695  0.00  0.00    -0.001 A 
ATOM      4  C3  UNL d   1       0.399  -2.900  -2.581  0.00  0.00     0.003 A 
ATOM      5  C4  UNL d   1      -0.610  -3.829  -2.335  0.00  0.00    -0.005 A 
ATOM      6  C5  UNL d   1      -1.412  -3.701  -1.203  0.00  0.00     0.003 A 
ATOM      7  C6  UNL d   1      -1.204  -2.643  -0.316  0.00  0.00    -0.001 A 
ENDROOT
TORSDOF 0
ENDMDL
