MODEL 1
REMARK minimizedAffinity -1.74911761
REMARK minimizedRMSD -1
REMARK  0 active torsions:
REMARK  status: ('A' for Active; 'I' for Inactive)
ROOT
ATOM      1  C   UNL d   1      -0.452  -1.416  -0.372  0.00  0.00     0.078 C 
ATOM      2  C1  UNL d   1      -0.447  -0.049   0.244  0.00  0.00    -0.077 A 
ATOM      3  C2  UNL d   1      -1.596   0.752   0.230  0.00  0.00    -0.001 A 
ATOM      4  C3  UNL d   1      -1.574   2.027   0.799  0.00  0.00     0.003 A 
ATOM      5  C4  UNL d   1      -0.406   2.512   1.384  0.00  0.00    -0.005 A 
ATOM      6  C5  UNL d   1       0.742   1.723   1.400  0.00  0.00     0.003 A 
ATOM      7  C6  UNL d   1       0.722   0.448   0.832  0.00  0.00    -0.001 A 
ENDROOT
TORSDOF 0
ENDMDL
