MODEL 1
REMARK minimizedAffinity -3.13216877
REMARK minimizedRMSD -1
REMARK  0 active torsions:
REMARK  status: ('A' for Active; 'I' for Inactive)
ROOT
ATOM      1  C   UNL d   1      -0.398  -3.067  -2.704  0.00  0.00     0.078 C 
ATOM      2  C1  UNL d   1      -0.433  -1.967  -1.686  0.00  0.00    -0.077 A 
ATOM      3  C2  UNL d   1      -0.744  -0.652  -2.056  0.00  0.00    -0.001 A 
ATOM      4  C3  UNL d   1      -0.763   0.364  -1.099  0.00  0.00     0.003 A 
ATOM      5  C4  UNL d   1      -0.471   0.077   0.232  0.00  0.00    -0.005 A 
ATOM      6  C5  UNL d   1      -0.158  -1.227   0.609  0.00  0.00     0.003 A 
ATOM      7  C6  UNL d   1      -0.138  -2.245  -0.346  0.00  0.00    -0.001 A 
ENDROOT
TORSDOF 0
ENDMDL
