MODEL 1
REMARK minimizedAffinity -1.61369669
REMARK minimizedRMSD -1
REMARK  0 active torsions:
REMARK  status: ('A' for Active; 'I' for Inactive)
ROOT
ATOM      1  C   UNL d   1       1.851   2.954   1.496  0.00  0.00     0.078 C 
ATOM      2  C1  UNL d   1       0.705   2.153   0.954  0.00  0.00    -0.077 A 
ATOM      3  C2  UNL d   1      -0.562   2.725   0.791  0.00  0.00    -0.001 A 
ATOM      4  C3  UNL d   1      -1.622   1.965   0.294  0.00  0.00     0.003 A 
ATOM      5  C4  UNL d   1      -1.425   0.627  -0.043  0.00  0.00    -0.005 A 
ATOM      6  C5  UNL d   1      -0.169   0.048   0.118  0.00  0.00     0.003 A 
ATOM      7  C6  UNL d   1       0.893   0.807   0.614  0.00  0.00    -0.001 A 
ENDROOT
TORSDOF 0
ENDMDL
