MODEL 1
REMARK minimizedAffinity -1.86771119
REMARK minimizedRMSD -1
REMARK  0 active torsions:
REMARK  status: ('A' for Active; 'I' for Inactive)
ROOT
ATOM      1  C   UNL d   1      -0.583   3.396   0.585  0.00  0.00     0.078 C 
ATOM      2  C1  UNL d   1      -0.212   1.954   0.405  0.00  0.00    -0.077 A 
ATOM      3  C2  UNL d   1      -1.160   1.013  -0.016  0.00  0.00    -0.001 A 
ATOM      4  C3  UNL d   1      -0.803  -0.327  -0.170  0.00  0.00     0.003 A 
ATOM      5  C4  UNL d   1       0.501  -0.739   0.096  0.00  0.00    -0.005 A 
ATOM      6  C5  UNL d   1       1.451   0.190   0.517  0.00  0.00     0.003 A 
ATOM      7  C6  UNL d   1       1.096   1.531   0.671  0.00  0.00    -0.001 A 
ENDROOT
TORSDOF 0
ENDMDL
