MODEL 1
REMARK minimizedAffinity -0.801459312
REMARK minimizedRMSD -1
REMARK  0 active torsions:
REMARK  status: ('A' for Active; 'I' for Inactive)
ROOT
ATOM      1  C   UNL d   1       0.204  -1.588  -0.264  0.00  0.00     0.078 C 
ATOM      2  C1  UNL d   1       0.184  -0.162   0.198  0.00  0.00    -0.077 A 
ATOM      3  C2  UNL d   1       1.374   0.525   0.470  0.00  0.00    -0.001 A 
ATOM      4  C3  UNL d   1       1.339   1.850   0.908  0.00  0.00     0.003 A 
ATOM      5  C4  UNL d   1       0.118   2.499   1.080  0.00  0.00    -0.005 A 
ATOM      6  C5  UNL d   1      -1.071   1.823   0.814  0.00  0.00     0.003 A 
ATOM      7  C6  UNL d   1      -1.039   0.498   0.375  0.00  0.00    -0.001 A 
ENDROOT
TORSDOF 0
ENDMDL
