MODEL 1
REMARK minimizedAffinity -4.50805283
REMARK minimizedRMSD -1
REMARK  0 active torsions:
REMARK  status: ('A' for Active; 'I' for Inactive)
ROOT
ATOM      1  C   UNL d   1      -0.201  -1.750  -0.417  0.00  0.00     0.078 C 
ATOM      2  C1  UNL d   1      -0.339  -0.308  -0.030  0.00  0.00    -0.077 A 
ATOM      3  C2  UNL d   1      -1.545   0.190   0.480  0.00  0.00    -0.001 A 
ATOM      4  C3  UNL d   1      -1.662   1.537   0.827  0.00  0.00     0.003 A 
ATOM      5  C4  UNL d   1      -0.577   2.397   0.668  0.00  0.00    -0.005 A 
ATOM      6  C5  UNL d   1       0.626   1.912   0.160  0.00  0.00     0.003 A 
ATOM      7  C6  UNL d   1       0.745   0.565  -0.188  0.00  0.00    -0.001 A 
ENDROOT
TORSDOF 0
ENDMDL
