MODEL 1
REMARK minimizedAffinity 2.65948343
REMARK minimizedRMSD -1
REMARK  1 active torsions:
REMARK  status: ('A' for Active; 'I' for Inactive)
REMARK    1  A    between atoms: C1_2  and  C2_3 
ROOT
ATOM      1  C2  UNL d   1      -3.293   0.083  -1.817  0.00  0.00    -0.077 A 
ATOM      2  C3  UNL d   1      -4.266   0.875  -2.444  0.00  0.00     0.002 A 
ATOM      3  C4  UNL d   1      -5.613   0.737  -2.106  0.00  0.00     0.002 A 
ATOM      4  C5  UNL d   1      -6.000  -0.188  -1.139  0.00  0.00    -0.004 A 
ATOM      5  C6  UNL d   1      -5.041  -0.982  -0.511  0.00  0.00     0.002 A 
ATOM      6  C7  UNL d   1      -3.693  -0.846  -0.848  0.00  0.00     0.002 A 
ENDROOT
BRANCH   1   7
ATOM      7  C1  UNL d   1      -1.834   0.265  -2.144  0.00  0.00     0.055 C 
ATOM      8  C   UNL d   1      -1.122   1.074  -1.069  0.00  0.00     0.019 C 
ENDBRANCH   1   7
TORSDOF 1
ENDMDL
