MODEL 1
REMARK minimizedAffinity 2.94100308
REMARK minimizedRMSD -1
REMARK  1 active torsions:
REMARK  status: ('A' for Active; 'I' for Inactive)
REMARK    1  A    between atoms: C1_2  and  C2_3 
ROOT
ATOM      1  C2  UNL d   1       1.751   0.907   0.399  0.00  0.00    -0.077 A 
ATOM      2  C3  UNL d   1       2.706   1.921   0.231  0.00  0.00     0.002 A 
ATOM      3  C4  UNL d   1       3.963   1.625  -0.299  0.00  0.00     0.002 A 
ATOM      4  C5  UNL d   1       4.277   0.319  -0.668  0.00  0.00    -0.004 A 
ATOM      5  C6  UNL d   1       3.335  -0.696  -0.503  0.00  0.00     0.002 A 
ATOM      6  C7  UNL d   1       2.078  -0.403   0.027  0.00  0.00     0.002 A 
ENDROOT
BRANCH   1   7
ATOM      7  C1  UNL d   1       0.377   1.232   0.924  0.00  0.00     0.055 C 
ATOM      8  C   UNL d   1      -0.576   1.595  -0.206  0.00  0.00     0.019 C 
ENDBRANCH   1   7
TORSDOF 1
ENDMDL
