MODEL 1
REMARK minimizedAffinity -1.32930374
REMARK minimizedRMSD -1
REMARK  1 active torsions:
REMARK  status: ('A' for Active; 'I' for Inactive)
REMARK    1  A    between atoms: C1_2  and  C2_3 
ROOT
ATOM      1  C2  UNL d   1       1.135   0.677   0.831  0.00  0.00    -0.077 A 
ATOM      2  C3  UNL d   1       1.166   0.275   2.174  0.00  0.00     0.002 A 
ATOM      3  C4  UNL d   1       0.006   0.311   2.949  0.00  0.00     0.002 A 
ATOM      4  C5  UNL d   1      -1.195   0.743   2.390  0.00  0.00    -0.004 A 
ATOM      5  C6  UNL d   1      -1.236   1.146   1.056  0.00  0.00     0.002 A 
ATOM      6  C7  UNL d   1      -0.077   1.113   0.280  0.00  0.00     0.002 A 
ENDROOT
BRANCH   1   7
ATOM      7  C1  UNL d   1       2.374   0.592  -0.020  0.00  0.00     0.055 C 
ATOM      8  C   UNL d   1       2.743  -0.854  -0.319  0.00  0.00     0.019 C 
ENDBRANCH   1   7
TORSDOF 1
ENDMDL
