MODEL 1
REMARK minimizedAffinity 0.382795215
REMARK minimizedRMSD -1
REMARK  1 active torsions:
REMARK  status: ('A' for Active; 'I' for Inactive)
REMARK    1  A    between atoms: C1_2  and  C2_3 
ROOT
ATOM      1  C2  UNL d   1       1.312   1.114   0.786  0.00  0.00    -0.077 A 
ATOM      2  C3  UNL d   1       1.449   1.111   2.181  0.00  0.00     0.002 A 
ATOM      3  C4  UNL d   1       0.351   1.384   2.999  0.00  0.00     0.002 A 
ATOM      4  C5  UNL d   1      -0.892   1.657   2.431  0.00  0.00    -0.004 A 
ATOM      5  C6  UNL d   1      -1.037   1.665   1.044  0.00  0.00     0.002 A 
ATOM      6  C7  UNL d   1       0.060   1.393   0.225  0.00  0.00     0.002 A 
ENDROOT
BRANCH   1   7
ATOM      7  C1  UNL d   1       2.484   0.771  -0.097  0.00  0.00     0.055 C 
ATOM      8  C   UNL d   1       3.603   1.793   0.048  0.00  0.00     0.019 C 
ENDBRANCH   1   7
TORSDOF 1
ENDMDL
