MODEL 1
REMARK minimizedAffinity 3.25966954
REMARK minimizedRMSD -1
REMARK  0 active torsions:
REMARK  status: ('A' for Active; 'I' for Inactive)
ROOT
ATOM      1  C1  DEN d   1       1.431   5.802  -0.517  0.00  0.00     0.130 A 
ATOM      2  C2  DEN d   1       0.207   5.552  -1.274  0.00  0.00    -0.031 A 
ATOM      3  C3  DEN d   1      -0.507   4.432  -0.629  0.00  0.00     0.027 A 
ATOM      4  C4  DEN d   1       0.156   3.072   1.459  0.00  0.00     0.027 A 
ATOM      5  C5  DEN d   1       1.115   2.908   2.434  0.00  0.00    -0.003 A 
ATOM      6  C6  DEN d   1       2.254   3.669   2.474  0.00  0.00     0.001 A 
ATOM      7  C7  DEN d   1       2.441   4.659   1.546  0.00  0.00     0.017 A 
ATOM      8  C8  DEN d   1       1.482   4.825   0.555  0.00  0.00    -0.094 A 
ATOM      9  C9  DEN d   1       0.332   4.054   0.540  0.00  0.00    -0.072 A 
ENDROOT
TORSDOF 0
ENDMDL
