MODEL 1
REMARK minimizedAffinity 10.2612247
REMARK minimizedRMSD -1
REMARK  0 active torsions:
REMARK  status: ('A' for Active; 'I' for Inactive)
ROOT
ATOM      1  C1  DEN d   1       0.635   4.602  -1.569  0.00  0.00     0.130 A 
ATOM      2  C2  DEN d   1       0.502   5.993  -1.143  0.00  0.00    -0.031 A 
ATOM      3  C3  DEN d   1       0.071   6.000   0.269  0.00  0.00     0.027 A 
ATOM      4  C4  DEN d   1      -0.396   4.002   1.832  0.00  0.00     0.027 A 
ATOM      5  C5  DEN d   1      -0.431   2.628   1.917  0.00  0.00    -0.003 A 
ATOM      6  C6  DEN d   1      -0.148   1.822   0.846  0.00  0.00     0.001 A 
ATOM      7  C7  DEN d   1       0.226   2.384  -0.346  0.00  0.00     0.017 A 
ATOM      8  C8  DEN d   1       0.256   3.769  -0.442  0.00  0.00    -0.094 A 
ATOM      9  C9  DEN d   1      -0.021   4.566   0.656  0.00  0.00    -0.072 A 
ENDROOT
TORSDOF 0
ENDMDL
