MODEL 1
REMARK minimizedAffinity 15.9615507
REMARK minimizedRMSD -1
REMARK  0 active torsions:
REMARK  status: ('A' for Active; 'I' for Inactive)
ROOT
ATOM      1  C1  DEN d   1      -0.930   3.242   2.840  0.00  0.00     0.130 A 
ATOM      2  C2  DEN d   1      -0.243   1.975   2.607  0.00  0.00    -0.031 A 
ATOM      3  C3  DEN d   1       0.462   2.070   1.312  0.00  0.00     0.027 A 
ATOM      4  C4  DEN d   1       0.559   4.047  -0.341  0.00  0.00     0.027 A 
ATOM      5  C5  DEN d   1       0.123   5.332  -0.581  0.00  0.00    -0.003 A 
ATOM      6  C6  DEN d   1      -0.714   5.992   0.278  0.00  0.00     0.001 A 
ATOM      7  C7  DEN d   1      -1.107   5.386   1.442  0.00  0.00     0.017 A 
ATOM      8  C8  DEN d   1      -0.678   4.088   1.688  0.00  0.00    -0.094 A 
ATOM      9  C9  DEN d   1       0.178   3.442   0.813  0.00  0.00    -0.072 A 
ENDROOT
TORSDOF 0
ENDMDL
