MODEL 1
REMARK minimizedAffinity 11.5410976
REMARK minimizedRMSD -1
REMARK  0 active torsions:
REMARK  status: ('A' for Active; 'I' for Inactive)
ROOT
ATOM      1  C1  DEN d   1      -0.393   3.578   2.653  0.00  0.00     0.130 A 
ATOM      2  C2  DEN d   1       0.311   2.334   2.355  0.00  0.00    -0.031 A 
ATOM      3  C3  DEN d   1       0.603   2.310   0.907  0.00  0.00     0.027 A 
ATOM      4  C4  DEN d   1       0.039   4.071  -0.890  0.00  0.00     0.027 A 
ATOM      5  C5  DEN d   1      -0.563   5.289  -1.119  0.00  0.00    -0.003 A 
ATOM      6  C6  DEN d   1      -1.176   6.000  -0.121  0.00  0.00     0.001 A 
ATOM      7  C7  DEN d   1      -1.160   5.520   1.162  0.00  0.00     0.017 A 
ATOM      8  C8  DEN d   1      -0.562   4.289   1.399  0.00  0.00    -0.094 A 
ATOM      9  C9  DEN d   1       0.063   3.592   0.379  0.00  0.00    -0.072 A 
ENDROOT
TORSDOF 0
ENDMDL
