MODEL 1
REMARK minimizedAffinity 11.4342995
REMARK minimizedRMSD -1
REMARK  0 active torsions:
REMARK  status: ('A' for Active; 'I' for Inactive)
ROOT
ATOM      1  C1  DEN d   1       5.999  -2.002  -3.378  0.00  0.00     0.130 A 
ATOM      2  C2  DEN d   1       5.353  -3.090  -4.108  0.00  0.00    -0.031 A 
ATOM      3  C3  DEN d   1       4.565  -3.882  -3.143  0.00  0.00     0.027 A 
ATOM      4  C4  DEN d   1       4.278  -3.529  -0.604  0.00  0.00     0.027 A 
ATOM      5  C5  DEN d   1       4.642  -2.744   0.468  0.00  0.00    -0.003 A 
ATOM      6  C6  DEN d   1       5.503  -1.687   0.341  0.00  0.00     0.001 A 
ATOM      7  C7  DEN d   1       5.994  -1.357  -0.895  0.00  0.00     0.017 A 
ATOM      8  C8  DEN d   1       5.638  -2.148  -1.979  0.00  0.00    -0.094 A 
ATOM      9  C9  DEN d   1       4.757  -3.205  -1.832  0.00  0.00    -0.072 A 
ENDROOT
TORSDOF 0
ENDMDL
