MODEL 1
REMARK minimizedAffinity 14.3460093
REMARK minimizedRMSD -1
REMARK  0 active torsions:
REMARK  status: ('A' for Active; 'I' for Inactive)
ROOT
ATOM      1  C1  DEN d   1      -3.147  -1.169   4.152  0.00  0.00     0.130 A 
ATOM      2  C2  DEN d   1      -4.380  -0.611   3.604  0.00  0.00    -0.031 A 
ATOM      3  C3  DEN d   1      -4.111   0.785   3.203  0.00  0.00     0.027 A 
ATOM      4  C4  DEN d   1      -1.915   2.127   3.372  0.00  0.00     0.027 A 
ATOM      5  C5  DEN d   1      -0.600   2.081   3.780  0.00  0.00    -0.003 A 
ATOM      6  C6  DEN d   1      -0.056   0.970   4.367  0.00  0.00     0.001 A 
ATOM      7  C7  DEN d   1      -0.818  -0.158   4.521  0.00  0.00     0.017 A 
ATOM      8  C8  DEN d   1      -2.146  -0.118   4.119  0.00  0.00    -0.094 A 
ATOM      9  C9  DEN d   1      -2.675   1.012   3.517  0.00  0.00    -0.072 A 
ENDROOT
TORSDOF 0
ENDMDL
