MODEL 1
REMARK minimizedAffinity 7.52658415
REMARK minimizedRMSD -1
REMARK  0 active torsions:
REMARK  status: ('A' for Active; 'I' for Inactive)
ROOT
ATOM      1  C1  DEN d   1       2.160   3.376   2.821  0.00  0.00     0.130 A 
ATOM      2  C2  DEN d   1       1.255   2.393   3.412  0.00  0.00    -0.031 A 
ATOM      3  C3  DEN d   1       0.060   2.296   2.549  0.00  0.00     0.027 A 
ATOM      4  C4  DEN d   1      -0.471   3.561   0.365  0.00  0.00     0.027 A 
ATOM      5  C5  DEN d   1      -0.012   4.507  -0.524  0.00  0.00    -0.003 A 
ATOM      6  C6  DEN d   1       1.178   5.161  -0.345  0.00  0.00     0.001 A 
ATOM      7  C7  DEN d   1       1.972   4.845   0.726  0.00  0.00     0.017 A 
ATOM      8  C8  DEN d   1       1.511   3.898   1.632  0.00  0.00    -0.094 A 
ATOM      9  C9  DEN d   1       0.311   3.240   1.426  0.00  0.00    -0.072 A 
ENDROOT
TORSDOF 0
ENDMDL
