MODEL 1
REMARK minimizedAffinity -2.12961531
REMARK minimizedRMSD -1
REMARK  0 active torsions:
REMARK  status: ('A' for Active; 'I' for Inactive)
ROOT
ATOM      1  C   UNL d   1       1.296  -1.715   5.340  0.00  0.00     0.077 C 
ATOM      2  C1  UNL d   1       0.907  -1.220   3.979  0.00  0.00    -0.074 A 
ATOM      3  C2  UNL d   1       1.814  -1.253   2.915  0.00  0.00    -0.005 A 
ATOM      4  C3  UNL d   1       1.436  -0.798   1.652  0.00  0.00     0.006 A 
ATOM      5  C4  UNL d   1       0.147  -0.305   1.441  0.00  0.00    -0.005 A 
ATOM      6  C5  UNL d   1      -0.774  -0.264   2.492  0.00  0.00    -0.074 A 
ATOM      7  C6  UNL d   1      -2.165   0.254   2.279  0.00  0.00     0.077 C 
ATOM      8  C7  UNL d   1      -0.388  -0.730   3.756  0.00  0.00    -0.001 A 
ENDROOT
TORSDOF 0
ENDMDL
