MODEL 1
REMARK minimizedAffinity -0.304098904
REMARK minimizedRMSD -1
REMARK  0 active torsions:
REMARK  status: ('A' for Active; 'I' for Inactive)
ROOT
ATOM      1  C   UNL d   1       1.334  -1.511   5.187  0.00  0.00     0.077 C 
ATOM      2  C1  UNL d   1       0.927  -0.991   3.840  0.00  0.00    -0.074 A 
ATOM      3  C2  UNL d   1       1.828  -0.981   2.771  0.00  0.00    -0.005 A 
ATOM      4  C3  UNL d   1       1.432  -0.503   1.522  0.00  0.00     0.006 A 
ATOM      5  C4  UNL d   1       0.132  -0.033   1.329  0.00  0.00    -0.005 A 
ATOM      6  C5  UNL d   1      -0.783  -0.037   2.386  0.00  0.00    -0.074 A 
ATOM      7  C6  UNL d   1      -2.187   0.456   2.194  0.00  0.00     0.077 C 
ATOM      8  C7  UNL d   1      -0.380  -0.524   3.637  0.00  0.00    -0.001 A 
ENDROOT
TORSDOF 0
ENDMDL
