MODEL 1
REMARK minimizedAffinity 2.00849009
REMARK minimizedRMSD -1
REMARK  0 active torsions:
REMARK  status: ('A' for Active; 'I' for Inactive)
ROOT
ATOM      1  C   UNL d   1       1.496  -1.830   4.859  0.00  0.00     0.077 C 
ATOM      2  C1  UNL d   1       1.067  -1.221   3.557  0.00  0.00    -0.074 A 
ATOM      3  C2  UNL d   1       1.991  -0.988   2.534  0.00  0.00    -0.005 A 
ATOM      4  C3  UNL d   1       1.575  -0.429   1.325  0.00  0.00     0.006 A 
ATOM      5  C4  UNL d   1       0.234  -0.100   1.127  0.00  0.00    -0.005 A 
ATOM      6  C5  UNL d   1      -0.705  -0.328   2.139  0.00  0.00    -0.074 A 
ATOM      7  C6  UNL d   1      -2.152   0.012   1.939  0.00  0.00     0.077 C 
ATOM      8  C7  UNL d   1      -0.281  -0.895   3.348  0.00  0.00    -0.001 A 
ENDROOT
TORSDOF 0
ENDMDL
