MODEL 1
REMARK minimizedAffinity 4.13399124
REMARK minimizedRMSD -1
REMARK  0 active torsions:
REMARK  status: ('A' for Active; 'I' for Inactive)
ROOT
ATOM      1  C   UNL d   1       1.270  -1.724   5.571  0.00  0.00     0.077 C 
ATOM      2  C1  UNL d   1       1.055  -1.261   4.161  0.00  0.00    -0.074 A 
ATOM      3  C2  UNL d   1       2.123  -1.179   3.261  0.00  0.00    -0.005 A 
ATOM      4  C3  UNL d   1       1.907  -0.757   1.950  0.00  0.00     0.006 A 
ATOM      5  C4  UNL d   1       0.624  -0.412   1.525  0.00  0.00    -0.005 A 
ATOM      6  C5  UNL d   1      -0.457  -0.489   2.410  0.00  0.00    -0.074 A 
ATOM      7  C6  UNL d   1      -1.844  -0.132   1.967  0.00  0.00     0.077 C 
ATOM      8  C7  UNL d   1      -0.233  -0.921   3.724  0.00  0.00    -0.001 A 
ENDROOT
TORSDOF 0
ENDMDL
