MODEL 1
REMARK minimizedAffinity 3.58114481
REMARK minimizedRMSD -1
REMARK  0 active torsions:
REMARK  status: ('A' for Active; 'I' for Inactive)
ROOT
ATOM      1  C   UNL d   1       1.101   1.452   0.669  0.00  0.00     0.077 C 
ATOM      2  C1  UNL d   1      -0.185   0.692   0.537  0.00  0.00    -0.074 A 
ATOM      3  C2  UNL d   1      -0.666   0.304  -0.718  0.00  0.00    -0.005 A 
ATOM      4  C3  UNL d   1      -1.859  -0.411  -0.825  0.00  0.00     0.006 A 
ATOM      5  C4  UNL d   1      -2.582  -0.745   0.321  0.00  0.00    -0.005 A 
ATOM      6  C5  UNL d   1      -2.116  -0.367   1.584  0.00  0.00    -0.074 A 
ATOM      7  C6  UNL d   1      -2.876  -0.727   2.826  0.00  0.00     0.077 C 
ATOM      8  C7  UNL d   1      -0.913   0.345   1.683  0.00  0.00    -0.001 A 
ENDROOT
TORSDOF 0
ENDMDL
