MODEL 1
REMARK minimizedAffinity 1.55774188
REMARK minimizedRMSD -1
REMARK  0 active torsions:
REMARK  status: ('A' for Active; 'I' for Inactive)
ROOT
ATOM      1  C   UNL d   1       1.294  -0.600   2.211  0.00  0.00     0.077 C 
ATOM      2  C1  UNL d   1       0.084  -0.394   1.349  0.00  0.00    -0.074 A 
ATOM      3  C2  UNL d   1      -1.163  -0.113   1.915  0.00  0.00    -0.005 A 
ATOM      4  C3  UNL d   1      -2.277   0.086   1.099  0.00  0.00     0.006 A 
ATOM      5  C4  UNL d   1      -2.155   0.006  -0.288  0.00  0.00    -0.005 A 
ATOM      6  C5  UNL d   1      -0.915  -0.272  -0.873  0.00  0.00    -0.074 A 
ATOM      7  C6  UNL d   1      -0.765  -0.351  -2.363  0.00  0.00     0.077 C 
ATOM      8  C7  UNL d   1       0.201  -0.464  -0.047  0.00  0.00    -0.001 A 
ENDROOT
TORSDOF 0
ENDMDL
