MODEL 1
REMARK minimizedAffinity -2.14781857
REMARK minimizedRMSD -1
REMARK  0 active torsions:
REMARK  status: ('A' for Active; 'I' for Inactive)
ROOT
ATOM      1  C   UNL d   1       1.727  -1.625   4.460  0.00  0.00     0.077 C 
ATOM      2  C1  UNL d   1       0.234  -1.548   4.332  0.00  0.00    -0.074 A 
ATOM      3  C2  UNL d   1      -0.598  -2.308   5.160  0.00  0.00    -0.005 A 
ATOM      4  C3  UNL d   1      -1.985  -2.219   5.036  0.00  0.00     0.006 A 
ATOM      5  C4  UNL d   1      -2.552  -1.370   4.085  0.00  0.00    -0.005 A 
ATOM      6  C5  UNL d   1      -1.735  -0.601   3.249  0.00  0.00    -0.074 A 
ATOM      7  C6  UNL d   1      -2.329   0.324   2.228  0.00  0.00     0.077 C 
ATOM      8  C7  UNL d   1      -0.343  -0.691   3.385  0.00  0.00    -0.001 A 
ENDROOT
TORSDOF 0
ENDMDL
