MODEL 1
REMARK minimizedAffinity 2.31496787
REMARK minimizedRMSD -1
REMARK  0 active torsions:
REMARK  status: ('A' for Active; 'I' for Inactive)
ROOT
ATOM      1  C   UNL d   1      -3.145   0.375  -0.759  0.00  0.00     0.077 C 
ATOM      2  C1  UNL d   1      -2.188   0.073   0.355  0.00  0.00    -0.074 A 
ATOM      3  C2  UNL d   1      -2.636  -0.050   1.675  0.00  0.00    -0.005 A 
ATOM      4  C3  UNL d   1      -1.735  -0.340   2.699  0.00  0.00     0.006 A 
ATOM      5  C4  UNL d   1      -0.379  -0.510   2.415  0.00  0.00    -0.005 A 
ATOM      6  C5  UNL d   1       0.087  -0.391   1.102  0.00  0.00    -0.074 A 
ATOM      7  C6  UNL d   1       1.540  -0.580   0.779  0.00  0.00     0.077 C 
ATOM      8  C7  UNL d   1      -0.825  -0.106   0.077  0.00  0.00    -0.001 A 
ENDROOT
TORSDOF 0
ENDMDL
