MODEL 1
REMARK minimizedAffinity -2.43257594
REMARK minimizedRMSD -1
REMARK  0 active torsions:
REMARK  status: ('A' for Active; 'I' for Inactive)
ROOT
ATOM      1  C   UNL d   1       2.352   2.277  -0.937  0.00  0.00     0.023 A 
ATOM      2  C1  UNL d   1       1.040   2.751  -0.954  0.00  0.00     0.003 A 
ATOM      3  C2  UNL d   1      -0.004   1.937  -0.510  0.00  0.00     0.048 A 
ATOM      4  C3  UNL d   1       0.271   0.650  -0.050  0.00  0.00     0.023 A 
ATOM      5  C4  UNL d   1       1.582   0.171  -0.031  0.00  0.00     0.048 A 
ATOM      6  C5  UNL d   1       2.622   0.988  -0.476  0.00  0.00     0.003 A 
ATOM      7  I   UNL d   1      -1.282  -0.564   0.612  0.00  0.00    -0.146 I 
ENDROOT
TORSDOF 0
ENDMDL
