MODEL 1
REMARK minimizedAffinity 3.09525657
REMARK minimizedRMSD -1
REMARK  0 active torsions:
REMARK  status: ('A' for Active; 'I' for Inactive)
ROOT
ATOM      1  C   UNL d   1       0.730   2.128   0.112  0.00  0.00     0.023 A 
ATOM      2  C1  UNL d   1       1.088   0.784   0.222  0.00  0.00     0.003 A 
ATOM      3  C2  UNL d   1       0.303  -0.089   0.979  0.00  0.00     0.048 A 
ATOM      4  C3  UNL d   1      -0.839   0.389   1.621  0.00  0.00     0.023 A 
ATOM      5  C4  UNL d   1      -1.201   1.732   1.512  0.00  0.00     0.048 A 
ATOM      6  C5  UNL d   1      -0.413   2.601   0.756  0.00  0.00     0.003 A 
ATOM      7  I   UNL d   1      -2.009  -0.908   2.747  0.00  0.00    -0.146 I 
ENDROOT
TORSDOF 0
ENDMDL
