MODEL 1
REMARK minimizedAffinity 12.781271
REMARK minimizedRMSD -1
REMARK  0 active torsions:
REMARK  status: ('A' for Active; 'I' for Inactive)
ROOT
ATOM      1  C   UNL d   1       1.184  -1.919  -1.280  0.00  0.00     0.023 A 
ATOM      2  C1  UNL d   1       0.956  -0.900  -2.205  0.00  0.00     0.003 A 
ATOM      3  C2  UNL d   1       1.038   0.436  -1.808  0.00  0.00     0.048 A 
ATOM      4  C3  UNL d   1       1.349   0.746  -0.484  0.00  0.00     0.023 A 
ATOM      5  C4  UNL d   1       1.579  -0.271   0.444  0.00  0.00     0.048 A 
ATOM      6  C5  UNL d   1       1.495  -1.605   0.043  0.00  0.00     0.003 A 
ATOM      7  I   UNL d   1       1.473   2.734   0.109  0.00  0.00    -0.146 I 
ENDROOT
TORSDOF 0
ENDMDL
