MODEL 1
REMARK minimizedAffinity 5.44455528
REMARK minimizedRMSD -1
REMARK  0 active torsions:
REMARK  status: ('A' for Active; 'I' for Inactive)
ROOT
ATOM      1  C   UNL d   1       0.658   3.507  -1.063  0.00  0.00     0.023 A 
ATOM      2  C1  UNL d   1       1.309   2.748  -0.091  0.00  0.00     0.003 A 
ATOM      3  C2  UNL d   1       0.580   2.167   0.948  0.00  0.00     0.048 A 
ATOM      4  C3  UNL d   1      -0.802   2.348   1.008  0.00  0.00     0.023 A 
ATOM      5  C4  UNL d   1      -1.458   3.106   0.037  0.00  0.00     0.048 A 
ATOM      6  C5  UNL d   1      -0.724   3.686  -0.999  0.00  0.00     0.003 A 
ATOM      7  I   UNL d   1      -1.890   1.483   2.553  0.00  0.00    -0.146 I 
ENDROOT
TORSDOF 0
ENDMDL
