MODEL 1
REMARK minimizedAffinity 4.85701036
REMARK minimizedRMSD -1
REMARK  0 active torsions:
REMARK  status: ('A' for Active; 'I' for Inactive)
ROOT
ATOM      1  C   UNL d   1       3.998   2.169   0.842  0.00  0.00     0.023 A 
ATOM      2  C1  UNL d   1       3.304   1.084   0.305  0.00  0.00     0.003 A 
ATOM      3  C2  UNL d   1       1.935   1.187   0.048  0.00  0.00     0.048 A 
ATOM      4  C3  UNL d   1       1.267   2.378   0.329  0.00  0.00     0.023 A 
ATOM      5  C4  UNL d   1       1.957   3.467   0.866  0.00  0.00     0.048 A 
ATOM      6  C5  UNL d   1       3.325   3.358   1.122  0.00  0.00     0.003 A 
ATOM      7  I   UNL d   1      -0.771   2.534  -0.052  0.00  0.00    -0.146 I 
ENDROOT
TORSDOF 0
ENDMDL
