MODEL 1
REMARK minimizedAffinity 2.80857944
REMARK minimizedRMSD -1
REMARK  0 active torsions:
REMARK  status: ('A' for Active; 'I' for Inactive)
ROOT
ATOM      1  C   UNL d   1       1.215   3.890   0.306  0.00  0.00     0.023 A 
ATOM      2  C1  UNL d   1       0.035   3.150   0.384  0.00  0.00     0.003 A 
ATOM      3  C2  UNL d   1       0.085   1.756   0.440  0.00  0.00     0.048 A 
ATOM      4  C3  UNL d   1       1.320   1.107   0.419  0.00  0.00     0.023 A 
ATOM      5  C4  UNL d   1       2.503   1.843   0.341  0.00  0.00     0.048 A 
ATOM      6  C5  UNL d   1       2.448   3.237   0.284  0.00  0.00     0.003 A 
ATOM      7  I   UNL d   1       1.397  -0.968   0.502  0.00  0.00    -0.146 I 
ENDROOT
TORSDOF 0
ENDMDL
