MODEL 1
REMARK minimizedAffinity 7.82646322
REMARK minimizedRMSD -1
REMARK  0 active torsions:
REMARK  status: ('A' for Active; 'I' for Inactive)
ROOT
ATOM      1  C   UNL d   1       3.080   1.420   1.710  0.00  0.00     0.023 A 
ATOM      2  C1  UNL d   1       4.088   1.443   0.746  0.00  0.00     0.003 A 
ATOM      3  C2  UNL d   1       3.759   1.543  -0.608  0.00  0.00     0.048 A 
ATOM      4  C3  UNL d   1       2.421   1.621  -0.990  0.00  0.00     0.023 A 
ATOM      5  C4  UNL d   1       1.409   1.600  -0.029  0.00  0.00     0.048 A 
ATOM      6  C5  UNL d   1       1.742   1.499   1.323  0.00  0.00     0.003 A 
ATOM      7  I   UNL d   1       1.929   1.770  -3.004  0.00  0.00    -0.146 I 
ENDROOT
TORSDOF 0
ENDMDL
