MODEL 1
REMARK minimizedAffinity 2.16759133
REMARK minimizedRMSD -1
REMARK  0 active torsions:
REMARK  status: ('A' for Active; 'I' for Inactive)
ROOT
ATOM      1  C   UNL d   1       4.185   2.348   3.822  0.00  0.00     0.023 A 
ATOM      2  C1  UNL d   1       4.944   3.219   3.040  0.00  0.00     0.003 A 
ATOM      3  C2  UNL d   1       4.563   3.489   1.724  0.00  0.00     0.048 A 
ATOM      4  C3  UNL d   1       3.421   2.887   1.197  0.00  0.00     0.023 A 
ATOM      5  C4  UNL d   1       2.658   2.016   1.977  0.00  0.00     0.048 A 
ATOM      6  C5  UNL d   1       3.043   1.748   3.291  0.00  0.00     0.003 A 
ATOM      7  I   UNL d   1       2.851   3.288  -0.761  0.00  0.00    -0.146 I 
ENDROOT
TORSDOF 0
ENDMDL
