MODEL 1
REMARK minimizedAffinity -0.79033643
REMARK minimizedRMSD -1
REMARK  0 active torsions:
REMARK  status: ('A' for Active; 'I' for Inactive)
ROOT
ATOM      1  C   UNL d   1      -1.178   3.531   0.522  0.00  0.00     0.023 A 
ATOM      2  C1  UNL d   1      -1.088   2.519   1.479  0.00  0.00     0.003 A 
ATOM      3  C2  UNL d   1       0.154   2.173   2.016  0.00  0.00     0.048 A 
ATOM      4  C3  UNL d   1       1.301   2.842   1.593  0.00  0.00     0.023 A 
ATOM      5  C4  UNL d   1       1.216   3.856   0.637  0.00  0.00     0.048 A 
ATOM      6  C5  UNL d   1      -0.027   4.198   0.102  0.00  0.00     0.003 A 
ATOM      7  I   UNL d   1       3.150   2.329   2.391  0.00  0.00    -0.146 I 
ENDROOT
TORSDOF 0
ENDMDL
