MODEL 1
REMARK minimizedAffinity 4.41626501
REMARK minimizedRMSD -1
REMARK  0 active torsions:
REMARK  status: ('A' for Active; 'I' for Inactive)
ROOT
ATOM      1  C   UNL d   1       1.711   1.039  -0.638  0.00  0.00     0.023 A 
ATOM      2  C1  UNL d   1       1.719   0.098   0.392  0.00  0.00     0.003 A 
ATOM      3  C2  UNL d   1       1.013   0.346   1.571  0.00  0.00     0.048 A 
ATOM      4  C3  UNL d   1       0.300   1.536   1.713  0.00  0.00     0.023 A 
ATOM      5  C4  UNL d   1       0.289   2.480   0.684  0.00  0.00     0.048 A 
ATOM      6  C5  UNL d   1       0.997   2.228  -0.492  0.00  0.00     0.003 A 
ATOM      7  I   UNL d   1      -0.752   1.907   3.466  0.00  0.00    -0.146 I 
ENDROOT
TORSDOF 0
ENDMDL
