MODEL 1
REMARK minimizedAffinity 9.64692116
REMARK minimizedRMSD -1
REMARK  0 active torsions:
REMARK  status: ('A' for Active; 'I' for Inactive)
ROOT
ATOM      1  C   UNL d   1       4.907   4.224  -5.987  0.00  0.00     0.023 A 
ATOM      2  C1  UNL d   1       5.455   4.709  -4.800  0.00  0.00     0.003 A 
ATOM      3  C2  UNL d   1       5.339   3.969  -3.622  0.00  0.00     0.048 A 
ATOM      4  C3  UNL d   1       4.673   2.743  -3.638  0.00  0.00     0.023 A 
ATOM      5  C4  UNL d   1       4.124   2.253  -4.824  0.00  0.00     0.048 A 
ATOM      6  C5  UNL d   1       4.242   2.997  -5.999  0.00  0.00     0.003 A 
ATOM      7  I   UNL d   1       4.499   1.639  -1.886  0.00  0.00    -0.146 I 
ENDROOT
TORSDOF 0
ENDMDL
