MODEL 1
REMARK minimizedAffinity 3.3131001
REMARK minimizedRMSD -1
REMARK  0 active torsions:
REMARK  status: ('A' for Active; 'I' for Inactive)
ROOT
ATOM      1  C   UNL d   1       3.694   1.912   0.999  0.00  0.00     0.023 A 
ATOM      2  C1  UNL d   1       3.102   3.138   1.303  0.00  0.00     0.003 A 
ATOM      3  C2  UNL d   1       1.727   3.312   1.135  0.00  0.00     0.048 A 
ATOM      4  C3  UNL d   1       0.949   2.255   0.663  0.00  0.00     0.023 A 
ATOM      5  C4  UNL d   1       1.537   1.026   0.359  0.00  0.00     0.048 A 
ATOM      6  C5  UNL d   1       2.913   0.858   0.528  0.00  0.00     0.003 A 
ATOM      7  I   UNL d   1      -1.098   2.511   0.412  0.00  0.00    -0.146 I 
ENDROOT
TORSDOF 0
ENDMDL
