MODEL 1
REMARK minimizedAffinity 5.09104538
REMARK minimizedRMSD -1
REMARK  0 active torsions:
REMARK  status: ('A' for Active; 'I' for Inactive)
ROOT
ATOM      1  C   UNL d   1       3.413   2.517   0.449  0.00  0.00     0.023 A 
ATOM      2  C1  UNL d   1       2.699   3.687   0.712  0.00  0.00     0.003 A 
ATOM      3  C2  UNL d   1       1.303   3.664   0.737  0.00  0.00     0.048 A 
ATOM      4  C3  UNL d   1       0.627   2.468   0.499  0.00  0.00     0.023 A 
ATOM      5  C4  UNL d   1       1.337   1.295   0.236  0.00  0.00     0.048 A 
ATOM      6  C5  UNL d   1       2.732   1.323   0.211  0.00  0.00     0.003 A 
ATOM      7  I   UNL d   1      -1.451   2.432   0.535  0.00  0.00    -0.146 I 
ENDROOT
TORSDOF 0
ENDMDL
