MODEL 1
REMARK minimizedAffinity -2.19653893
REMARK minimizedRMSD -1
REMARK  0 active torsions:
REMARK  status: ('A' for Active; 'I' for Inactive)
ROOT
ATOM      1  N1  IND d   1      -0.124  -0.543  -1.417  0.00  0.00    -0.196 N 
ATOM      2  C2  IND d   1       0.764  -1.563  -1.222  0.00  0.00     0.054 A 
ATOM      3  C3  IND d   1       1.171  -1.593   0.067  0.00  0.00    -0.031 A 
ATOM      4  C4  IND d   1       0.429  -0.127   2.050  0.00  0.00     0.051 A 
ATOM      5  C5  IND d   1      -0.337   0.962   2.357  0.00  0.00    -0.031 A 
ATOM      6  C6  IND d   1      -1.089   1.616   1.403  0.00  0.00     0.015 A 
ATOM      7  C7  IND d   1      -1.112   1.197   0.103  0.00  0.00    -0.016 A 
ATOM      8  C8  IND d   1      -0.329   0.096  -0.214  0.00  0.00    -0.047 A 
ATOM      9  C9  IND d   1       0.469  -0.546   0.741  0.00  0.00    -0.096 A 
ATOM     10  HN1 IND d   1      -0.494  -0.336  -2.165  0.00  0.00     0.298 HD
ENDROOT
TORSDOF 0
ENDMDL
