MODEL 1
REMARK minimizedAffinity -3.21276999
REMARK minimizedRMSD -1
REMARK  0 active torsions:
REMARK  status: ('A' for Active; 'I' for Inactive)
ROOT
ATOM      1  N1  IND d   1       0.782  -0.802  -0.463  0.00  0.00    -0.196 N 
ATOM      2  C2  IND d   1       1.320  -0.151  -1.538  0.00  0.00     0.054 A 
ATOM      3  C3  IND d   1       1.067   1.175  -1.460  0.00  0.00    -0.031 A 
ATOM      4  C4  IND d   1      -0.120   2.507   0.396  0.00  0.00     0.051 A 
ATOM      5  C5  IND d   1      -0.814   2.345   1.563  0.00  0.00    -0.031 A 
ATOM      6  C6  IND d   1      -1.012   1.101   2.126  0.00  0.00     0.015 A 
ATOM      7  C7  IND d   1      -0.513  -0.031   1.548  0.00  0.00    -0.016 A 
ATOM      8  C8  IND d   1       0.186   0.129   0.359  0.00  0.00    -0.047 A 
ATOM      9  C9  IND d   1       0.354   1.384  -0.240  0.00  0.00    -0.096 A 
ATOM     10  HN1 IND d   1       0.812  -1.650  -0.324  0.00  0.00     0.298 HD
ENDROOT
TORSDOF 0
ENDMDL
