MODEL 1
REMARK minimizedAffinity -3.36971569
REMARK minimizedRMSD -1
REMARK  0 active torsions:
REMARK  status: ('A' for Active; 'I' for Inactive)
ROOT
ATOM      1  N1  IND d   1       1.126  -0.415  -0.743  0.00  0.00    -0.196 N 
ATOM      2  C2  IND d   1       1.037   0.530  -1.726  0.00  0.00     0.054 A 
ATOM      3  C3  IND d   1       0.179   1.509  -1.362  0.00  0.00    -0.031 A 
ATOM      4  C4  IND d   1      -1.113   1.813   0.844  0.00  0.00     0.051 A 
ATOM      5  C5  IND d   1      -1.381   1.189   2.030  0.00  0.00    -0.031 A 
ATOM      6  C6  IND d   1      -0.814  -0.024   2.360  0.00  0.00     0.015 A 
ATOM      7  C7  IND d   1       0.056  -0.657   1.518  0.00  0.00    -0.016 A 
ATOM      8  C8  IND d   1       0.325  -0.030   0.309  0.00  0.00    -0.047 A 
ATOM      9  C9  IND d   1      -0.281   1.181  -0.050  0.00  0.00    -0.096 A 
ATOM     10  HN1 IND d   1       1.603  -1.130  -0.776  0.00  0.00     0.298 HD
ENDROOT
TORSDOF 0
ENDMDL
