MODEL 1
REMARK minimizedAffinity 0.982480049
REMARK minimizedRMSD -1
REMARK  0 active torsions:
REMARK  status: ('A' for Active; 'I' for Inactive)
ROOT
ATOM      1  N1  IND d   1       0.612  -0.052  -1.440  0.00  0.00    -0.196 N 
ATOM      2  C2  IND d   1       1.022   0.130  -0.148  0.00  0.00     0.054 A 
ATOM      3  C3  IND d   1       1.401  -1.049   0.395  0.00  0.00    -0.031 A 
ATOM      4  C4  IND d   1       1.529  -3.382  -0.684  0.00  0.00     0.051 A 
ATOM      5  C5  IND d   1       1.225  -4.055  -1.834  0.00  0.00    -0.031 A 
ATOM      6  C6  IND d   1       0.693  -3.415  -2.935  0.00  0.00     0.015 A 
ATOM      7  C7  IND d   1       0.455  -2.069  -2.930  0.00  0.00    -0.016 A 
ATOM      8  C8  IND d   1       0.756  -1.384  -1.761  0.00  0.00    -0.047 A 
ATOM      9  C9  IND d   1       1.256  -2.036  -0.627  0.00  0.00    -0.096 A 
ATOM     10  HN1 IND d   1       0.315   0.562  -1.963  0.00  0.00     0.298 HD
ENDROOT
TORSDOF 0
ENDMDL
