MODEL 1
REMARK minimizedAffinity 0.662007928
REMARK minimizedRMSD -1
REMARK  0 active torsions:
REMARK  status: ('A' for Active; 'I' for Inactive)
ROOT
ATOM      1  N1  IND d   1       0.170  -2.161  -3.275  0.00  0.00    -0.196 N 
ATOM      2  C2  IND d   1       0.565  -3.427  -2.943  0.00  0.00     0.054 A 
ATOM      3  C3  IND d   1       0.910  -3.484  -1.637  0.00  0.00    -0.031 A 
ATOM      4  C4  IND d   1       0.807  -1.647   0.164  0.00  0.00     0.051 A 
ATOM      5  C5  IND d   1       0.547  -0.316   0.331  0.00  0.00    -0.031 A 
ATOM      6  C6  IND d   1       0.136   0.484  -0.716  0.00  0.00     0.015 A 
ATOM      7  C7  IND d   1      -0.041  -0.023  -1.972  0.00  0.00    -0.016 A 
ATOM      8  C8  IND d   1       0.230  -1.372  -2.147  0.00  0.00    -0.047 A 
ATOM      9  C9  IND d   1       0.688  -2.180  -1.098  0.00  0.00    -0.096 A 
ATOM     10  HN1 IND d   1      -0.075  -1.901  -4.058  0.00  0.00     0.298 HD
ENDROOT
TORSDOF 0
ENDMDL
