MODEL 1
REMARK minimizedAffinity -1.11391926
REMARK minimizedRMSD -1
REMARK  0 active torsions:
REMARK  status: ('A' for Active; 'I' for Inactive)
ROOT
ATOM      1  N1  IND d   1      -1.061   2.072   1.075  0.00  0.00    -0.196 N 
ATOM      2  C2  IND d   1      -1.382   1.111   1.993  0.00  0.00     0.054 A 
ATOM      3  C3  IND d   1      -0.830  -0.073   1.647  0.00  0.00    -0.031 A 
ATOM      4  C4  IND d   1       0.721  -0.640  -0.329  0.00  0.00     0.051 A 
ATOM      5  C5  IND d   1       1.268  -0.099  -1.458  0.00  0.00    -0.031 A 
ATOM      6  C6  IND d   1       1.065   1.221  -1.807  0.00  0.00     0.015 A 
ATOM      7  C7  IND d   1       0.313   2.055  -1.029  0.00  0.00    -0.016 A 
ATOM      8  C8  IND d   1      -0.250   1.508   0.115  0.00  0.00    -0.047 A 
ATOM      9  C9  IND d   1      -0.082   0.158   0.452  0.00  0.00    -0.096 A 
ATOM     10  HN1 IND d   1      -1.321   2.891   1.094  0.00  0.00     0.298 HD
ENDROOT
TORSDOF 0
ENDMDL
