MODEL 1
REMARK minimizedAffinity -0.626607776
REMARK minimizedRMSD -1
REMARK  0 active torsions:
REMARK  status: ('A' for Active; 'I' for Inactive)
ROOT
ATOM      1  N1  IND d   1       0.576  -1.873  -0.073  0.00  0.00    -0.196 N 
ATOM      2  C2  IND d   1       1.189  -1.542  -1.249  0.00  0.00     0.054 A 
ATOM      3  C3  IND d   1       1.012  -0.229  -1.518  0.00  0.00    -0.031 A 
ATOM      4  C4  IND d   1      -0.163   1.583  -0.118  0.00  0.00     0.051 A 
ATOM      5  C5  IND d   1      -0.907   1.755   1.016  0.00  0.00    -0.031 A 
ATOM      6  C6  IND d   1      -1.198   0.706   1.863  0.00  0.00     0.015 A 
ATOM      7  C7  IND d   1      -0.744  -0.559   1.613  0.00  0.00    -0.016 A 
ATOM      8  C8  IND d   1       0.005  -0.738   0.459  0.00  0.00    -0.047 A 
ATOM      9  C9  IND d   1       0.268   0.315  -0.427  0.00  0.00    -0.096 A 
ATOM     10  HN1 IND d   1       0.551  -2.659   0.276  0.00  0.00     0.298 HD
ENDROOT
TORSDOF 0
ENDMDL
