MODEL 1
REMARK minimizedAffinity 4.24341631
REMARK minimizedRMSD -1
REMARK  0 active torsions:
REMARK  status: ('A' for Active; 'I' for Inactive)
ROOT
ATOM      1  N1  IND d   1       1.933  -0.820   0.120  0.00  0.00    -0.196 N 
ATOM      2  C2  IND d   1       1.235  -1.318   1.184  0.00  0.00     0.054 A 
ATOM      3  C3  IND d   1       0.095  -0.616   1.369  0.00  0.00    -0.031 A 
ATOM      4  C4  IND d   1      -0.873   1.326  -0.017  0.00  0.00     0.051 A 
ATOM      5  C5  IND d   1      -0.579   2.154  -1.063  0.00  0.00    -0.031 A 
ATOM      6  C6  IND d   1       0.591   2.030  -1.784  0.00  0.00     0.015 A 
ATOM      7  C7  IND d   1       1.508   1.060  -1.493  0.00  0.00    -0.016 A 
ATOM      8  C8  IND d   1       1.215   0.221  -0.427  0.00  0.00    -0.047 A 
ATOM      9  C9  IND d   1       0.050   0.370   0.336  0.00  0.00    -0.096 A 
ATOM     10  HN1 IND d   1       2.693  -1.108  -0.161  0.00  0.00     0.298 HD
ENDROOT
TORSDOF 0
ENDMDL
