MODEL 1
REMARK minimizedAffinity 0.640887022
REMARK minimizedRMSD -1
REMARK  0 active torsions:
REMARK  status: ('A' for Active; 'I' for Inactive)
ROOT
ATOM      1  N1  IND d   1       1.382   0.708  -1.695  0.00  0.00    -0.196 N 
ATOM      2  C2  IND d   1       0.864   1.887  -2.151  0.00  0.00     0.054 A 
ATOM      3  C3  IND d   1      -0.156   2.290  -1.360  0.00  0.00    -0.031 A 
ATOM      4  C4  IND d   1      -1.075   1.221   0.794  0.00  0.00     0.051 A 
ATOM      5  C5  IND d   1      -0.949   0.115   1.586  0.00  0.00    -0.031 A 
ATOM      6  C6  IND d   1      -0.017  -0.869   1.322  0.00  0.00     0.015 A 
ATOM      7  C7  IND d   1       0.833  -0.777   0.257  0.00  0.00    -0.016 A 
ATOM      8  C8  IND d   1       0.702   0.342  -0.555  0.00  0.00    -0.047 A 
ATOM      9  C9  IND d   1      -0.269   1.322  -0.316  0.00  0.00    -0.096 A 
ATOM     10  HN1 IND d   1       2.025   0.268  -2.059  0.00  0.00     0.298 HD
ENDROOT
TORSDOF 0
ENDMDL
