MODEL 1
REMARK minimizedAffinity -1.79674304
REMARK minimizedRMSD -1
REMARK  0 active torsions:
REMARK  status: ('A' for Active; 'I' for Inactive)
ROOT
ATOM      1  N1  IND d   1       1.626   0.157  -1.591  0.00  0.00    -0.196 N 
ATOM      2  C2  IND d   1       1.649  -1.162  -1.233  0.00  0.00     0.054 A 
ATOM      3  C3  IND d   1       0.891  -1.364  -0.132  0.00  0.00    -0.031 A 
ATOM      4  C4  IND d   1      -0.557   0.307   1.186  0.00  0.00     0.051 A 
ATOM      5  C5  IND d   1      -0.870   1.636   1.262  0.00  0.00    -0.031 A 
ATOM      6  C6  IND d   1      -0.358   2.557   0.371  0.00  0.00     0.015 A 
ATOM      7  C7  IND d   1       0.479   2.181  -0.640  0.00  0.00    -0.016 A 
ATOM      8  C8  IND d   1       0.805   0.834  -0.716  0.00  0.00    -0.047 A 
ATOM      9  C9  IND d   1       0.323  -0.099   0.211  0.00  0.00    -0.096 A 
ATOM     10  HN1 IND d   1       2.053   0.505  -2.251  0.00  0.00     0.298 HD
ENDROOT
TORSDOF 0
ENDMDL
