MODEL 1
REMARK minimizedAffinity -1.52735651
REMARK minimizedRMSD -1
REMARK  0 active torsions:
REMARK  status: ('A' for Active; 'I' for Inactive)
ROOT
ATOM      1  N1  IND d   1       0.396  -2.384  -0.604  0.00  0.00    -0.196 N 
ATOM      2  C2  IND d   1       0.760  -2.065  -1.882  0.00  0.00     0.054 A 
ATOM      3  C3  IND d   1       0.511  -0.759  -2.129  0.00  0.00    -0.031 A 
ATOM      4  C4  IND d   1      -0.393   1.062  -0.550  0.00  0.00     0.051 A 
ATOM      5  C5  IND d   1      -0.900   1.243   0.706  0.00  0.00    -0.031 A 
ATOM      6  C6  IND d   1      -1.001   0.204   1.609  0.00  0.00     0.015 A 
ATOM      7  C7  IND d   1      -0.586  -1.058   1.291  0.00  0.00    -0.016 A 
ATOM      8  C8  IND d   1      -0.076  -1.248   0.015  0.00  0.00    -0.047 A 
ATOM      9  C9  IND d   1      -0.011  -0.206  -0.920  0.00  0.00    -0.096 A 
ATOM     10  HN1 IND d   1       0.453  -3.164  -0.246  0.00  0.00     0.298 HD
ENDROOT
TORSDOF 0
ENDMDL
