MODEL 1
REMARK minimizedAffinity -2.00248075
REMARK minimizedRMSD -1
REMARK  0 active torsions:
REMARK  status: ('A' for Active; 'I' for Inactive)
ROOT
ATOM      1  N1  IND d   1      -0.603   0.575  -0.161  0.00  0.00    -0.196 N 
ATOM      2  C2  IND d   1      -0.268   0.325   1.141  0.00  0.00     0.054 A 
ATOM      3  C3  IND d   1       0.232  -0.924   1.267  0.00  0.00    -0.031 A 
ATOM      4  C4  IND d   1       0.686  -2.695  -0.546  0.00  0.00     0.051 A 
ATOM      5  C5  IND d   1       0.511  -2.941  -1.879  0.00  0.00    -0.031 A 
ATOM      6  C6  IND d   1      -0.053  -2.008  -2.725  0.00  0.00     0.015 A 
ATOM      7  C7  IND d   1      -0.455  -0.784  -2.269  0.00  0.00    -0.016 A 
ATOM      8  C8  IND d   1      -0.285  -0.533  -0.915  0.00  0.00    -0.047 A 
ATOM      9  C9  IND d   1       0.248  -1.492  -0.044  0.00  0.00    -0.096 A 
ATOM     10  HN1 IND d   1      -0.953   1.301  -0.458  0.00  0.00     0.298 HD
ENDROOT
TORSDOF 0
ENDMDL
