MODEL 1
REMARK minimizedAffinity -2.54201961
REMARK minimizedRMSD -1
REMARK  0 active torsions:
REMARK  status: ('A' for Active; 'I' for Inactive)
ROOT
ATOM      1  N1  IND d   1       1.084  -0.201  -1.101  0.00  0.00    -0.196 N 
ATOM      2  C2  IND d   1       0.840  -1.496  -1.466  0.00  0.00     0.054 A 
ATOM      3  C3  IND d   1      -0.095  -2.045  -0.658  0.00  0.00    -0.031 A 
ATOM      4  C4  IND d   1      -1.433  -0.970   1.261  0.00  0.00     0.051 A 
ATOM      5  C5  IND d   1      -1.535   0.182   1.989  0.00  0.00    -0.031 A 
ATOM      6  C6  IND d   1      -0.756   1.288   1.718  0.00  0.00     0.015 A 
ATOM      7  C7  IND d   1       0.151   1.287   0.696  0.00  0.00    -0.016 A 
ATOM      8  C8  IND d   1       0.262   0.117  -0.041  0.00  0.00    -0.047 A 
ATOM      9  C9  IND d   1      -0.496  -1.023   0.256  0.00  0.00    -0.096 A 
ATOM     10  HN1 IND d   1       1.654   0.326  -1.470  0.00  0.00     0.298 HD
ENDROOT
TORSDOF 0
ENDMDL
