MODEL 1
REMARK minimizedAffinity -1.02383685
REMARK minimizedRMSD -1
REMARK  0 active torsions:
REMARK  status: ('A' for Active; 'I' for Inactive)
ROOT
ATOM      1  N1  IND d   1       0.004   0.165  -1.450  0.00  0.00    -0.196 N 
ATOM      2  C2  IND d   1       0.431   0.365  -0.167  0.00  0.00     0.054 A 
ATOM      3  C3  IND d   1       0.897  -0.789   0.360  0.00  0.00    -0.031 A 
ATOM      4  C4  IND d   1       1.149  -3.104  -0.740  0.00  0.00     0.051 A 
ATOM      5  C5  IND d   1       0.862  -3.788  -1.887  0.00  0.00    -0.031 A 
ATOM      6  C6  IND d   1       0.264  -3.176  -2.971  0.00  0.00     0.015 A 
ATOM      7  C7  IND d   1      -0.059  -1.849  -2.951  0.00  0.00    -0.016 A 
ATOM      8  C8  IND d   1       0.224  -1.153  -1.784  0.00  0.00    -0.047 A 
ATOM      9  C9  IND d   1       0.791  -1.778  -0.666  0.00  0.00    -0.096 A 
ATOM     10  HN1 IND d   1      -0.344   0.762  -1.962  0.00  0.00     0.298 HD
ENDROOT
TORSDOF 0
ENDMDL
