MODEL 1
REMARK minimizedAffinity -3.93905473
REMARK minimizedRMSD -1
REMARK  0 active torsions:
REMARK  status: ('A' for Active; 'I' for Inactive)
ROOT
ATOM      1  N1  IND d   1       1.356  -0.245  -0.804  0.00  0.00    -0.196 N 
ATOM      2  C2  IND d   1       1.125   0.931  -1.462  0.00  0.00     0.054 A 
ATOM      3  C3  IND d   1       0.181   1.652  -0.817  0.00  0.00    -0.031 A 
ATOM      4  C4  IND d   1      -1.043   1.143   1.389  0.00  0.00     0.051 A 
ATOM      5  C5  IND d   1      -1.193   0.171   2.339  0.00  0.00    -0.031 A 
ATOM      6  C6  IND d   1      -0.485  -1.011   2.289  0.00  0.00     0.015 A 
ATOM      7  C7  IND d   1       0.413  -1.263   1.291  0.00  0.00    -0.016 A 
ATOM      8  C8  IND d   1       0.562  -0.282   0.321  0.00  0.00    -0.047 A 
ATOM      9  C9  IND d   1      -0.185   0.903   0.342  0.00  0.00    -0.096 A 
ATOM     10  HN1 IND d   1       1.906  -0.859  -1.052  0.00  0.00     0.298 HD
ENDROOT
TORSDOF 0
ENDMDL
