MODEL 1
REMARK minimizedAffinity -0.295494676
REMARK minimizedRMSD -1
REMARK  0 active torsions:
REMARK  status: ('A' for Active; 'I' for Inactive)
ROOT
ATOM      1  N1  IND d   1       0.324  -0.122  -1.533  0.00  0.00    -0.196 N 
ATOM      2  C2  IND d   1       0.548  -1.465  -1.413  0.00  0.00     0.054 A 
ATOM      3  C3  IND d   1       0.337  -1.865  -0.139  0.00  0.00    -0.031 A 
ATOM      4  C4  IND d   1      -0.480  -0.505   1.889  0.00  0.00     0.051 A 
ATOM      5  C5  IND d   1      -0.783   0.769   2.280  0.00  0.00    -0.031 A 
ATOM      6  C6  IND d   1      -0.735   1.832   1.401  0.00  0.00     0.015 A 
ATOM      7  C7  IND d   1      -0.390   1.658   0.091  0.00  0.00    -0.016 A 
ATOM      8  C8  IND d   1      -0.075   0.367  -0.308  0.00  0.00    -0.047 A 
ATOM      9  C9  IND d   1      -0.081  -0.709   0.589  0.00  0.00    -0.096 A 
ATOM     10  HN1 IND d   1       0.416   0.340  -2.252  0.00  0.00     0.298 HD
ENDROOT
TORSDOF 0
ENDMDL
