MODEL 1
REMARK minimizedAffinity -3.53878856
REMARK minimizedRMSD -1
REMARK  0 active torsions:
REMARK  status: ('A' for Active; 'I' for Inactive)
ROOT
ATOM      1  N1  IND d   1       0.833   0.111  -0.853  0.00  0.00    -0.196 N 
ATOM      2  C2  IND d   1       0.751  -1.158  -0.353  0.00  0.00     0.054 A 
ATOM      3  C3  IND d   1      -0.065  -1.188   0.724  0.00  0.00    -0.031 A 
ATOM      4  C4  IND d   1      -1.452   0.707   1.779  0.00  0.00     0.051 A 
ATOM      5  C5  IND d   1      -1.677   2.052   1.694  0.00  0.00    -0.031 A 
ATOM      6  C6  IND d   1      -1.068   2.835   0.735  0.00  0.00     0.015 A 
ATOM      7  C7  IND d   1      -0.214   2.296  -0.187  0.00  0.00    -0.016 A 
ATOM      8  C8  IND d   1       0.022   0.932  -0.099  0.00  0.00    -0.047 A 
ATOM      9  C9  IND d   1      -0.560   0.140   0.899  0.00  0.00    -0.096 A 
ATOM     10  HN1 IND d   1       1.309   0.356  -1.525  0.00  0.00     0.298 HD
ENDROOT
TORSDOF 0
ENDMDL
