MODEL 1
REMARK minimizedAffinity -6.2756176
REMARK minimizedRMSD -1
REMARK  0 active torsions:
REMARK  status: ('A' for Active; 'I' for Inactive)
ROOT
ATOM      1  O1  BZF d   1      -0.495   0.102   0.229  0.00  0.00    -0.204 OA
ATOM      2  C2  BZF d   1      -0.126   0.115  -1.102  0.00  0.00     0.174 A 
ATOM      3  C3  BZF d   1       1.134  -0.342  -1.254  0.00  0.00    -0.012 A 
ATOM      4  C3A BZF d   1       1.547  -0.746   0.055  0.00  0.00    -0.107 A 
ATOM      5  C4  BZF d   1       2.695  -1.297   0.549  0.00  0.00     0.055 A 
ATOM      6  C5  BZF d   1       2.806  -1.504   1.887  0.00  0.00    -0.016 A 
ATOM      7  C6  BZF d   1       1.792  -1.168   2.760  0.00  0.00     0.022 A 
ATOM      8  C7  BZF d   1       0.633  -0.624   2.317  0.00  0.00     0.029 A 
ATOM      9  C7A BZF d   1       0.505  -0.444   0.961  0.00  0.00     0.058 A 
ENDROOT
TORSDOF 0
ENDMDL
