MODEL 1
REMARK minimizedAffinity -5.98434353
REMARK minimizedRMSD -1
REMARK  0 active torsions:
REMARK  status: ('A' for Active; 'I' for Inactive)
ROOT
ATOM      1  O1  BZF d   1       0.466   0.021  -0.959  0.00  0.00    -0.204 OA
ATOM      2  C2  BZF d   1      -0.721   0.600  -0.550  0.00  0.00     0.174 A 
ATOM      3  C3  BZF d   1      -0.952   0.345   0.754  0.00  0.00    -0.012 A 
ATOM      4  C3A BZF d   1       0.204  -0.364   1.210  0.00  0.00    -0.107 A 
ATOM      5  C4  BZF d   1       0.574  -0.877   2.421  0.00  0.00     0.055 A 
ATOM      6  C5  BZF d   1       1.735  -1.577   2.515  0.00  0.00    -0.016 A 
ATOM      7  C6  BZF d   1       2.546  -1.787   1.419  0.00  0.00     0.022 A 
ATOM      8  C7  BZF d   1       2.224  -1.294   0.199  0.00  0.00     0.029 A 
ATOM      9  C7A BZF d   1       1.067  -0.558   0.108  0.00  0.00     0.058 A 
ENDROOT
TORSDOF 0
ENDMDL
