MODEL 1
REMARK minimizedAffinity -6.00905657
REMARK minimizedRMSD -1
REMARK  0 active torsions:
REMARK  status: ('A' for Active; 'I' for Inactive)
ROOT
ATOM      1  O1  BZF d   1       0.383  -0.546  -0.985  0.00  0.00    -0.204 OA
ATOM      2  C2  BZF d   1      -0.875  -0.017  -0.771  0.00  0.00     0.174 A 
ATOM      3  C3  BZF d   1      -1.215  -0.103   0.531  0.00  0.00    -0.012 A 
ATOM      4  C3A BZF d   1      -0.063  -0.641   1.187  0.00  0.00    -0.107 A 
ATOM      5  C4  BZF d   1       0.222  -0.943   2.488  0.00  0.00     0.055 A 
ATOM      6  C5  BZF d   1       1.414  -1.523   2.785  0.00  0.00    -0.016 A 
ATOM      7  C6  BZF d   1       2.342  -1.819   1.808  0.00  0.00     0.022 A 
ATOM      8  C7  BZF d   1       2.107  -1.532   0.504  0.00  0.00     0.029 A 
ATOM      9  C7A BZF d   1       0.917  -0.916   0.205  0.00  0.00     0.058 A 
ENDROOT
TORSDOF 0
ENDMDL
