MODEL 1
REMARK minimizedAffinity -4.91787386
REMARK minimizedRMSD -1
REMARK  0 active torsions:
REMARK  status: ('A' for Active; 'I' for Inactive)
ROOT
ATOM      1  O1  BZF d   1       1.116  -1.117  -1.274  0.00  0.00    -0.204 OA
ATOM      2  C2  BZF d   1       0.139  -0.174  -1.527  0.00  0.00     0.174 A 
ATOM      3  C3  BZF d   1      -0.351   0.328  -0.375  0.00  0.00    -0.012 A 
ATOM      4  C3A BZF d   1       0.429  -0.277   0.661  0.00  0.00    -0.107 A 
ATOM      5  C4  BZF d   1       0.430  -0.165   2.022  0.00  0.00     0.055 A 
ATOM      6  C5  BZF d   1       1.271  -0.948   2.748  0.00  0.00    -0.016 A 
ATOM      7  C6  BZF d   1       2.119  -1.855   2.147  0.00  0.00     0.022 A 
ATOM      8  C7  BZF d   1       2.158  -1.997   0.800  0.00  0.00     0.029 A 
ATOM      9  C7A BZF d   1       1.333  -1.184   0.061  0.00  0.00     0.058 A 
ENDROOT
TORSDOF 0
ENDMDL
