MODEL 1
REMARK minimizedAffinity -5.69356489
REMARK minimizedRMSD -1
REMARK  0 active torsions:
REMARK  status: ('A' for Active; 'I' for Inactive)
ROOT
ATOM      1  O1  BZF d   1       0.322  -0.297  -0.863  0.00  0.00    -0.204 OA
ATOM      2  C2  BZF d   1      -0.869   0.306  -0.508  0.00  0.00     0.174 A 
ATOM      3  C3  BZF d   1      -1.094   0.179   0.815  0.00  0.00    -0.012 A 
ATOM      4  C3A BZF d   1       0.072  -0.469   1.334  0.00  0.00    -0.107 A 
ATOM      5  C4  BZF d   1       0.451  -0.855   2.588  0.00  0.00     0.055 A 
ATOM      6  C5  BZF d   1       1.620  -1.530   2.745  0.00  0.00    -0.016 A 
ATOM      7  C6  BZF d   1       2.430  -1.839   1.672  0.00  0.00     0.022 A 
ATOM      8  C7  BZF d   1       2.098  -1.473   0.411  0.00  0.00     0.029 A 
ATOM      9  C7A BZF d   1       0.934  -0.762   0.252  0.00  0.00     0.058 A 
ENDROOT
TORSDOF 0
ENDMDL
