MODEL 1
REMARK minimizedAffinity -6.80498314
REMARK minimizedRMSD -1
REMARK  0 active torsions:
REMARK  status: ('A' for Active; 'I' for Inactive)
ROOT
ATOM      1  O1  BZF d   1       1.082  -0.931  -1.024  0.00  0.00    -0.204 OA
ATOM      2  C2  BZF d   1       0.002  -0.098  -1.244  0.00  0.00     0.174 A 
ATOM      3  C3  BZF d   1      -0.588   0.239  -0.079  0.00  0.00    -0.012 A 
ATOM      4  C3A BZF d   1       0.227  -0.350   0.940  0.00  0.00    -0.107 A 
ATOM      5  C4  BZF d   1       0.167  -0.355   2.304  0.00  0.00     0.055 A 
ATOM      6  C5  BZF d   1       1.075  -1.086   3.002  0.00  0.00    -0.016 A 
ATOM      7  C6  BZF d   1       2.052  -1.827   2.369  0.00  0.00     0.022 A 
ATOM      8  C7  BZF d   1       2.155  -1.848   1.018  0.00  0.00     0.029 A 
ATOM      9  C7A BZF d   1       1.259  -1.084   0.311  0.00  0.00     0.058 A 
ENDROOT
TORSDOF 0
ENDMDL
