MODEL 1
REMARK minimizedAffinity -5.05218697
REMARK minimizedRMSD -1
REMARK  0 active torsions:
REMARK  status: ('A' for Active; 'I' for Inactive)
ROOT
ATOM      1  O1  BZF d   1       0.920  -1.345  -1.099  0.00  0.00    -0.204 OA
ATOM      2  C2  BZF d   1      -0.157  -0.482  -1.155  0.00  0.00     0.174 A 
ATOM      3  C3  BZF d   1      -0.714  -0.332   0.064  0.00  0.00    -0.012 A 
ATOM      4  C3A BZF d   1       0.121  -1.079   0.954  0.00  0.00    -0.107 A 
ATOM      5  C4  BZF d   1       0.095  -1.302   2.301  0.00  0.00     0.055 A 
ATOM      6  C5  BZF d   1       1.013  -2.140   2.849  0.00  0.00    -0.016 A 
ATOM      7  C6  BZF d   1       1.967  -2.775   2.081  0.00  0.00     0.022 A 
ATOM      8  C7  BZF d   1       2.035  -2.582   0.742  0.00  0.00     0.029 A 
ATOM      9  C7A BZF d   1       1.129  -1.710   0.189  0.00  0.00     0.058 A 
ENDROOT
TORSDOF 0
ENDMDL
