MODEL 1
REMARK minimizedAffinity -4.14919138
REMARK minimizedRMSD -1
REMARK  0 active torsions:
REMARK  status: ('A' for Active; 'I' for Inactive)
ROOT
ATOM      1  O1  BZF d   1       1.922  -1.195  -0.442  0.00  0.00    -0.204 OA
ATOM      2  C2  BZF d   1       1.187  -0.977  -1.591  0.00  0.00     0.174 A 
ATOM      3  C3  BZF d   1      -0.074  -0.606  -1.289  0.00  0.00    -0.012 A 
ATOM      4  C3A BZF d   1      -0.104  -0.502   0.137  0.00  0.00    -0.107 A 
ATOM      5  C4  BZF d   1      -1.075  -0.156   1.033  0.00  0.00     0.055 A 
ATOM      6  C5  BZF d   1      -0.802  -0.225   2.362  0.00  0.00    -0.016 A 
ATOM      7  C6  BZF d   1       0.427  -0.640   2.831  0.00  0.00     0.022 A 
ATOM      8  C7  BZF d   1       1.424  -0.988   1.981  0.00  0.00     0.029 A 
ATOM      9  C7A BZF d   1       1.162  -0.888   0.636  0.00  0.00     0.058 A 
ENDROOT
TORSDOF 0
ENDMDL
