MODEL 1
REMARK minimizedAffinity -6.36411428
REMARK minimizedRMSD -1
REMARK  0 active torsions:
REMARK  status: ('A' for Active; 'I' for Inactive)
ROOT
ATOM      1  O1  BZF d   1       0.364  -0.450  -1.157  0.00  0.00    -0.204 OA
ATOM      2  C2  BZF d   1      -0.928  -0.086  -0.832  0.00  0.00     0.174 A 
ATOM      3  C3  BZF d   1      -1.148  -0.233   0.491  0.00  0.00    -0.012 A 
ATOM      4  C3A BZF d   1       0.111  -0.632   1.040  0.00  0.00    -0.107 A 
ATOM      5  C4  BZF d   1       0.536  -0.917   2.306  0.00  0.00     0.055 A 
ATOM      6  C5  BZF d   1       1.811  -1.347   2.494  0.00  0.00    -0.016 A 
ATOM      7  C6  BZF d   1       2.686  -1.509   1.440  0.00  0.00     0.022 A 
ATOM      8  C7  BZF d   1       2.312  -1.234   0.167  0.00  0.00     0.029 A 
ATOM      9  C7A BZF d   1       1.034  -0.768  -0.023  0.00  0.00     0.058 A 
ENDROOT
TORSDOF 0
ENDMDL
