MODEL 1
REMARK minimizedAffinity -5.43094015
REMARK minimizedRMSD -1
REMARK  0 active torsions:
REMARK  status: ('A' for Active; 'I' for Inactive)
ROOT
ATOM      1  O1  BZF d   1       1.878  -1.615  -0.270  0.00  0.00    -0.204 OA
ATOM      2  C2  BZF d   1       2.687  -2.162   0.707  0.00  0.00     0.174 A 
ATOM      3  C3  BZF d   1       2.230  -1.848   1.937  0.00  0.00    -0.012 A 
ATOM      4  C3A BZF d   1       1.011  -1.133   1.714  0.00  0.00    -0.107 A 
ATOM      5  C4  BZF d   1       0.085  -0.572   2.547  0.00  0.00     0.055 A 
ATOM      6  C5  BZF d   1      -0.955   0.118   2.010  0.00  0.00    -0.016 A 
ATOM      7  C6  BZF d   1      -1.097   0.272   0.646  0.00  0.00     0.022 A 
ATOM      8  C7  BZF d   1      -0.207  -0.270  -0.220  0.00  0.00     0.029 A 
ATOM      9  C7A BZF d   1       0.827  -0.996   0.318  0.00  0.00     0.058 A 
ENDROOT
TORSDOF 0
ENDMDL
