MODEL 1
REMARK minimizedAffinity -6.13727045
REMARK minimizedRMSD -1
REMARK  0 active torsions:
REMARK  status: ('A' for Active; 'I' for Inactive)
ROOT
ATOM      1  O1  BZF d   1       0.094  -0.852   2.888  0.00  0.00    -0.204 OA
ATOM      2  C2  BZF d   1       1.450  -0.677   2.689  0.00  0.00     0.174 A 
ATOM      3  C3  BZF d   1       1.713  -0.409   1.394  0.00  0.00    -0.012 A 
ATOM      4  C3A BZF d   1       0.433  -0.325   0.759  0.00  0.00    -0.107 A 
ATOM      5  C4  BZF d   1       0.035  -0.067  -0.521  0.00  0.00     0.055 A 
ATOM      6  C5  BZF d   1      -1.287  -0.133  -0.827  0.00  0.00    -0.016 A 
ATOM      7  C6  BZF d   1      -2.237  -0.457   0.119  0.00  0.00     0.022 A 
ATOM      8  C7  BZF d   1      -1.891  -0.716   1.404  0.00  0.00     0.029 A 
ATOM      9  C7A BZF d   1      -0.558  -0.619   1.724  0.00  0.00     0.058 A 
ENDROOT
TORSDOF 0
ENDMDL
