MODEL 1
REMARK minimizedAffinity -2.69608974
REMARK minimizedRMSD -1
REMARK  0 active torsions:
REMARK  status: ('A' for Active; 'I' for Inactive)
ROOT
ATOM      1  C4' PXY d   1       0.792  -1.380  -1.183  0.00  0.00     0.077 C 
ATOM      2  C1' PXY d   1      -1.329   2.992   1.948  0.00  0.00     0.077 C 
ATOM      3  C1  PXY d   1      -0.763   1.844   1.135  0.00  0.00    -0.082 A 
ATOM      4  C2  PXY d   1      -1.071   1.737  -0.147  0.00  0.00     0.003 A 
ATOM      5  C3  PXY d   1      -0.593   0.687  -0.889  0.00  0.00     0.003 A 
ATOM      6  C4  PXY d   1       0.251  -0.232  -0.326  0.00  0.00    -0.082 A 
ATOM      7  C5  PXY d   1       0.578  -0.123   0.979  0.00  0.00     0.003 A 
ATOM      8  C6  PXY d   1       0.050   0.927   1.725  0.00  0.00     0.003 A 
ENDROOT
TORSDOF 0
ENDMDL
