MODEL 1
REMARK minimizedAffinity -3.03944063
REMARK minimizedRMSD -1
REMARK  0 active torsions:
REMARK  status: ('A' for Active; 'I' for Inactive)
ROOT
ATOM      1  C4' PXY d   1       1.129  -1.121  -1.094  0.00  0.00     0.077 C 
ATOM      2  C1' PXY d   1      -1.793   2.846   1.928  0.00  0.00     0.077 C 
ATOM      3  C1  PXY d   1      -1.016   1.807   1.143  0.00  0.00    -0.082 A 
ATOM      4  C2  PXY d   1      -1.355   1.545  -0.108  0.00  0.00     0.003 A 
ATOM      5  C3  PXY d   1      -0.684   0.586  -0.822  0.00  0.00     0.003 A 
ATOM      6  C4  PXY d   1       0.379  -0.074  -0.267  0.00  0.00    -0.082 A 
ATOM      7  C5  PXY d   1       0.738   0.196   1.006  0.00  0.00     0.003 A 
ATOM      8  C6  PXY d   1       0.018   1.143   1.728  0.00  0.00     0.003 A 
ENDROOT
TORSDOF 0
ENDMDL
