MODEL 1
REMARK minimizedAffinity -2.14230895
REMARK minimizedRMSD -1
REMARK  0 active torsions:
REMARK  status: ('A' for Active; 'I' for Inactive)
ROOT
ATOM      1  C4' PXY d   1       0.290  -2.014  -1.166  0.00  0.00     0.077 C 
ATOM      2  C1' PXY d   1      -1.376   2.534   1.990  0.00  0.00     0.077 C 
ATOM      3  C1  PXY d   1      -0.928   1.340   1.170  0.00  0.00    -0.082 A 
ATOM      4  C2  PXY d   1      -1.368   1.196  -0.070  0.00  0.00     0.003 A 
ATOM      5  C3  PXY d   1      -0.998   0.106  -0.815  0.00  0.00     0.003 A 
ATOM      6  C4  PXY d   1      -0.128  -0.820  -0.304  0.00  0.00    -0.082 A 
ATOM      7  C5  PXY d   1       0.333  -0.675   0.956  0.00  0.00     0.003 A 
ATOM      8  C6  PXY d   1      -0.087   0.417   1.710  0.00  0.00     0.003 A 
ENDROOT
TORSDOF 0
ENDMDL
