MODEL 1
REMARK minimizedAffinity -4.9227066
REMARK minimizedRMSD -1
REMARK  0 active torsions:
REMARK  status: ('A' for Active; 'I' for Inactive)
ROOT
ATOM      1  C4' PXY d   1       0.271  -2.101  -0.964  0.00  0.00     0.077 C 
ATOM      2  C1' PXY d   1      -1.159   2.812   1.726  0.00  0.00     0.077 C 
ATOM      3  C1  PXY d   1      -0.773   1.522   1.028  0.00  0.00    -0.082 A 
ATOM      4  C2  PXY d   1      -1.175   1.305  -0.213  0.00  0.00     0.003 A 
ATOM      5  C3  PXY d   1      -0.862   0.130  -0.848  0.00  0.00     0.003 A 
ATOM      6  C4  PXY d   1      -0.086  -0.809  -0.224  0.00  0.00    -0.082 A 
ATOM      7  C5  PXY d   1       0.336  -0.590   1.040  0.00  0.00     0.003 A 
ATOM      8  C6  PXY d   1      -0.026   0.591   1.681  0.00  0.00     0.003 A 
ENDROOT
TORSDOF 0
ENDMDL
