MODEL 1
REMARK minimizedAffinity -5.37179947
REMARK minimizedRMSD -1
REMARK  0 active torsions:
REMARK  status: ('A' for Active; 'I' for Inactive)
ROOT
ATOM      1  C4' PXY d   1       0.588  -0.399   2.336  0.00  0.00     0.077 C 
ATOM      2  C1' PXY d   1      -1.597   3.605  -1.215  0.00  0.00     0.077 C 
ATOM      3  C1  PXY d   1      -1.027   2.546  -0.292  0.00  0.00    -0.082 A 
ATOM      4  C2  PXY d   1      -0.980   2.770   1.011  0.00  0.00     0.003 A 
ATOM      5  C3  PXY d   1      -0.438   1.836   1.856  0.00  0.00     0.003 A 
ATOM      6  C4  PXY d   1       0.012   0.638   1.368  0.00  0.00    -0.082 A 
ATOM      7  C5  PXY d   1      -0.042   0.398   0.041  0.00  0.00     0.003 A 
ATOM      8  C6  PXY d   1      -0.558   1.375  -0.805  0.00  0.00     0.003 A 
ENDROOT
TORSDOF 0
ENDMDL
