MODEL 1
REMARK minimizedAffinity -5.13296795
REMARK minimizedRMSD -1
REMARK  0 active torsions:
REMARK  status: ('A' for Active; 'I' for Inactive)
ROOT
ATOM      1  C4' PXY d   1       0.781  -1.536  -1.160  0.00  0.00     0.077 C 
ATOM      2  C1' PXY d   1      -1.056   3.300   1.419  0.00  0.00     0.077 C 
ATOM      3  C1  PXY d   1      -0.581   2.035   0.732  0.00  0.00    -0.082 A 
ATOM      4  C2  PXY d   1      -0.253   0.979   1.459  0.00  0.00     0.003 A 
ATOM      5  C3  PXY d   1       0.209  -0.162   0.856  0.00  0.00     0.003 A 
ATOM      6  C4  PXY d   1       0.287  -0.242  -0.509  0.00  0.00    -0.082 A 
ATOM      7  C5  PXY d   1      -0.056   0.828  -1.258  0.00  0.00     0.003 A 
ATOM      8  C6  PXY d   1      -0.484   1.991  -0.625  0.00  0.00     0.003 A 
ENDROOT
TORSDOF 0
ENDMDL
