MODEL 1
REMARK minimizedAffinity -5.43298006
REMARK minimizedRMSD -1
REMARK  0 active torsions:
REMARK  status: ('A' for Active; 'I' for Inactive)
ROOT
ATOM      1  C4' PXY d   1       0.468  -1.618  -0.737  0.00  0.00     0.077 C 
ATOM      2  C1' PXY d   1      -1.195   3.384   1.637  0.00  0.00     0.077 C 
ATOM      3  C1  PXY d   1      -0.751   2.071   1.024  0.00  0.00    -0.082 A 
ATOM      4  C2  PXY d   1      -0.910   1.867  -0.273  0.00  0.00     0.003 A 
ATOM      5  C3  PXY d   1      -0.543   0.673  -0.838  0.00  0.00     0.003 A 
ATOM      6  C4  PXY d   1       0.042  -0.303  -0.077  0.00  0.00    -0.082 A 
ATOM      7  C5  PXY d   1       0.218  -0.099   1.246  0.00  0.00     0.003 A 
ATOM      8  C6  PXY d   1      -0.199   1.104   1.808  0.00  0.00     0.003 A 
ENDROOT
TORSDOF 0
ENDMDL
