MODEL 1
REMARK minimizedAffinity -4.21893072
REMARK minimizedRMSD -1
REMARK  0 active torsions:
REMARK  status: ('A' for Active; 'I' for Inactive)
ROOT
ATOM      1  C4' PXY d   1       0.362  -0.440   2.327  0.00  0.00     0.077 C 
ATOM      2  C1' PXY d   1      -1.361   3.702  -1.319  0.00  0.00     0.077 C 
ATOM      3  C1  PXY d   1      -0.905   2.625  -0.355  0.00  0.00    -0.082 A 
ATOM      4  C2  PXY d   1      -0.633   1.412  -0.809  0.00  0.00     0.003 A 
ATOM      5  C3  PXY d   1      -0.250   0.418   0.054  0.00  0.00     0.003 A 
ATOM      6  C4  PXY d   1      -0.092   0.681   1.388  0.00  0.00    -0.082 A 
ATOM      7  C5  PXY d   1      -0.357   1.919   1.858  0.00  0.00     0.003 A 
ATOM      8  C6  PXY d   1      -0.784   2.904   0.972  0.00  0.00     0.003 A 
ENDROOT
TORSDOF 0
ENDMDL
