MODEL 1
REMARK minimizedAffinity -4.38974857
REMARK minimizedRMSD -1
REMARK  0 active torsions:
REMARK  status: ('A' for Active; 'I' for Inactive)
ROOT
ATOM      1  C4' PXY d   1      -1.378   2.323   2.469  0.00  0.00     0.077 C 
ATOM      2  C1' PXY d   1       1.236   0.192  -2.226  0.00  0.00     0.077 C 
ATOM      3  C1  PXY d   1       0.554   0.763  -0.999  0.00  0.00    -0.082 A 
ATOM      4  C2  PXY d   1       0.387   0.002   0.071  0.00  0.00     0.003 A 
ATOM      5  C3  PXY d   1      -0.256   0.492   1.178  0.00  0.00     0.003 A 
ATOM      6  C4  PXY d   1      -0.686   1.792   1.210  0.00  0.00    -0.082 A 
ATOM      7  C5  PXY d   1      -0.511   2.578   0.127  0.00  0.00     0.003 A 
ATOM      8  C6  PXY d   1       0.108   2.049  -1.002  0.00  0.00     0.003 A 
ENDROOT
TORSDOF 0
ENDMDL
