MODEL 1
REMARK minimizedAffinity -5.43863249
REMARK minimizedRMSD -1
REMARK  0 active torsions:
REMARK  status: ('A' for Active; 'I' for Inactive)
ROOT
ATOM      1  C4' PXY d   1      -1.057   3.551   1.531  0.00  0.00     0.077 C 
ATOM      2  C1' PXY d   1       0.301  -1.420  -1.088  0.00  0.00     0.077 C 
ATOM      3  C1  PXY d   1      -0.051  -0.110  -0.412  0.00  0.00    -0.082 A 
ATOM      4  C2  PXY d   1      -0.141  -0.059   0.908  0.00  0.00     0.003 A 
ATOM      5  C3  PXY d   1      -0.489   1.110   1.534  0.00  0.00     0.003 A 
ATOM      6  C4  PXY d   1      -0.695   2.252   0.806  0.00  0.00    -0.082 A 
ATOM      7  C5  PXY d   1      -0.595   2.210  -0.540  0.00  0.00     0.003 A 
ATOM      8  C6  PXY d   1      -0.281   1.003  -1.159  0.00  0.00     0.003 A 
ENDROOT
TORSDOF 0
ENDMDL
