MODEL 1
REMARK minimizedAffinity -4.1681366
REMARK minimizedRMSD -1
REMARK  0 active torsions:
REMARK  status: ('A' for Active; 'I' for Inactive)
ROOT
ATOM      1  C4' PXY d   1       0.586  -1.429   0.214  0.00  0.00     0.077 C 
ATOM      2  C1' PXY d   1      -1.402   3.996   0.380  0.00  0.00     0.077 C 
ATOM      3  C1  PXY d   1      -0.876   2.575   0.348  0.00  0.00    -0.082 A 
ATOM      4  C2  PXY d   1      -0.633   1.993  -0.815  0.00  0.00     0.003 A 
ATOM      5  C3  PXY d   1      -0.188   0.697  -0.863  0.00  0.00     0.003 A 
ATOM      6  C4  PXY d   1       0.063   0.008   0.294  0.00  0.00    -0.082 A 
ATOM      7  C5  PXY d   1      -0.172   0.599   1.485  0.00  0.00     0.003 A 
ATOM      8  C6  PXY d   1      -0.663   1.900   1.511  0.00  0.00     0.003 A 
ENDROOT
TORSDOF 0
ENDMDL
