MODEL 1
REMARK minimizedAffinity -2.35483241
REMARK minimizedRMSD -1
REMARK  0 active torsions:
REMARK  status: ('A' for Active; 'I' for Inactive)
ROOT
ATOM      1  C   UNL d   1       0.634  -0.443  -0.469  0.00  0.00     0.172 C 
ATOM      2  N   UNL d   1       0.964  -0.195  -1.852  0.00  0.00    -0.070 N 
ATOM      3  C1  UNL d   1       0.174  -0.500  -2.928  0.00  0.00    -0.004 A 
ATOM      4  C2  UNL d   1       0.842  -0.107  -4.068  0.00  0.00    -0.047 A 
ATOM      5  C3  UNL d   1       2.078   0.452  -3.663  0.00  0.00    -0.047 A 
ATOM      6  C4  UNL d   1       2.127   0.385  -2.286  0.00  0.00    -0.004 A 
ENDROOT
TORSDOF 0
ENDMDL
