MODEL 1
REMARK minimizedAffinity -3.04725409
REMARK minimizedRMSD -1
REMARK  0 active torsions:
REMARK  status: ('A' for Active; 'I' for Inactive)
ROOT
ATOM      1  C   UNL d   1      -0.993   1.351   2.405  0.00  0.00     0.172 C 
ATOM      2  N   UNL d   1      -0.539   0.623   1.243  0.00  0.00    -0.070 N 
ATOM      3  C1  UNL d   1       0.764   0.315   0.953  0.00  0.00    -0.004 A 
ATOM      4  C2  UNL d   1       0.778  -0.382  -0.235  0.00  0.00    -0.047 A 
ATOM      5  C3  UNL d   1      -0.562  -0.496  -0.675  0.00  0.00    -0.047 A 
ATOM      6  C4  UNL d   1      -1.356   0.135   0.259  0.00  0.00    -0.004 A 
ENDROOT
TORSDOF 0
ENDMDL
