MODEL 1
REMARK minimizedAffinity -3.2059474
REMARK minimizedRMSD -1
REMARK  0 active torsions:
REMARK  status: ('A' for Active; 'I' for Inactive)
ROOT
ATOM      1  C   UNL d   1      -1.958  -0.276  -0.226  0.00  0.00     0.172 C 
ATOM      2  N   UNL d   1      -1.353   0.234   0.982  0.00  0.00    -0.070 N 
ATOM      3  C1  UNL d   1      -1.971   0.342   2.200  0.00  0.00    -0.004 A 
ATOM      4  C2  UNL d   1      -1.061   0.871   3.089  0.00  0.00    -0.047 A 
ATOM      5  C3  UNL d   1       0.145   1.090   2.381  0.00  0.00    -0.047 A 
ATOM      6  C4  UNL d   1      -0.064   0.687   1.079  0.00  0.00    -0.004 A 
ENDROOT
TORSDOF 0
ENDMDL
