MODEL 1
REMARK minimizedAffinity -1.62622392
REMARK minimizedRMSD -1
REMARK  0 active torsions:
REMARK  status: ('A' for Active; 'I' for Inactive)
ROOT
ATOM      1  C   UNL d   1      -0.414   1.120   2.185  0.00  0.00     0.172 C 
ATOM      2  N   UNL d   1       0.104   0.418   1.034  0.00  0.00    -0.070 N 
ATOM      3  C1  UNL d   1      -0.570   0.199  -0.138  0.00  0.00    -0.004 A 
ATOM      4  C2  UNL d   1       0.265  -0.502  -0.980  0.00  0.00    -0.047 A 
ATOM      5  C3  UNL d   1       1.483  -0.713  -0.290  0.00  0.00    -0.047 A 
ATOM      6  C4  UNL d   1       1.356  -0.133   0.954  0.00  0.00    -0.004 A 
ENDROOT
TORSDOF 0
ENDMDL
