MODEL 1
REMARK minimizedAffinity -1.99605072
REMARK minimizedRMSD -1
REMARK  0 active torsions:
REMARK  status: ('A' for Active; 'I' for Inactive)
ROOT
ATOM      1  C   UNL d   1       0.426  -0.431  -1.424  0.00  0.00     0.172 C 
ATOM      2  N   UNL d   1      -0.181   0.011  -0.190  0.00  0.00    -0.070 N 
ATOM      3  C1  UNL d   1       0.476   0.602   0.856  0.00  0.00    -0.004 A 
ATOM      4  C2  UNL d   1      -0.452   0.872   1.838  0.00  0.00    -0.047 A 
ATOM      5  C3  UNL d   1      -1.710   0.426   1.367  0.00  0.00    -0.047 A 
ATOM      6  C4  UNL d   1      -1.513  -0.102   0.109  0.00  0.00    -0.004 A 
ENDROOT
TORSDOF 0
ENDMDL
