MODEL 1
REMARK minimizedAffinity -2.33651257
REMARK minimizedRMSD -1
REMARK  0 active torsions:
REMARK  status: ('A' for Active; 'I' for Inactive)
ROOT
ATOM      1  C   UNL d   1      -0.325   1.409   2.434  0.00  0.00     0.172 C 
ATOM      2  N   UNL d   1       0.148   0.588   1.345  0.00  0.00    -0.070 N 
ATOM      3  C1  UNL d   1      -0.519   0.356   0.172  0.00  0.00    -0.004 A 
ATOM      4  C2  UNL d   1       0.264  -0.474  -0.602  0.00  0.00    -0.047 A 
ATOM      5  C3  UNL d   1       1.442  -0.751   0.132  0.00  0.00    -0.047 A 
ATOM      6  C4  UNL d   1       1.344  -0.081   1.334  0.00  0.00    -0.004 A 
ENDROOT
TORSDOF 0
ENDMDL
