MODEL 1
REMARK minimizedAffinity -3.04024434
REMARK minimizedRMSD -1
REMARK  0 active torsions:
REMARK  status: ('A' for Active; 'I' for Inactive)
ROOT
ATOM      1  C   UNL d   1      -2.465  -0.270   3.025  0.00  0.00     0.172 C 
ATOM      2  N   UNL d   1      -1.433   0.502   2.373  0.00  0.00    -0.070 N 
ATOM      3  C1  UNL d   1      -0.953   0.285   1.109  0.00  0.00    -0.004 A 
ATOM      4  C2  UNL d   1       0.018   1.231   0.859  0.00  0.00    -0.047 A 
ATOM      5  C3  UNL d   1       0.125   2.044   2.012  0.00  0.00    -0.047 A 
ATOM      6  C4  UNL d   1      -0.785   1.571   2.934  0.00  0.00    -0.004 A 
ENDROOT
TORSDOF 0
ENDMDL
