MODEL 1
REMARK minimizedAffinity -3.61152983
REMARK minimizedRMSD -1
REMARK  0 active torsions:
REMARK  status: ('A' for Active; 'I' for Inactive)
ROOT
ATOM      1  C   UNL d   1      -0.543   1.145   2.540  0.00  0.00     0.172 C 
ATOM      2  N   UNL d   1      -0.066   0.244   1.518  0.00  0.00    -0.070 N 
ATOM      3  C1  UNL d   1       1.101  -0.471   1.565  0.00  0.00    -0.004 A 
ATOM      4  C2  UNL d   1       1.192  -1.207   0.404  0.00  0.00    -0.047 A 
ATOM      5  C3  UNL d   1       0.041  -0.923  -0.369  0.00  0.00    -0.047 A 
ATOM      6  C4  UNL d   1      -0.720  -0.022   0.344  0.00  0.00    -0.004 A 
ENDROOT
TORSDOF 0
ENDMDL
