MODEL 1
REMARK minimizedAffinity -3.54193401
REMARK minimizedRMSD -1
REMARK  0 active torsions:
REMARK  status: ('A' for Active; 'I' for Inactive)
ROOT
ATOM      1  C   UNL d   1      -0.786   1.198   2.687  0.00  0.00     0.172 C 
ATOM      2  N   UNL d   1      -0.915   0.490   1.436  0.00  0.00    -0.070 N 
ATOM      3  C1  UNL d   1       0.108   0.197   0.575  0.00  0.00    -0.004 A 
ATOM      4  C2  UNL d   1      -0.424  -0.485  -0.498  0.00  0.00    -0.047 A 
ATOM      5  C3  UNL d   1      -1.817  -0.605  -0.275  0.00  0.00    -0.047 A 
ATOM      6  C4  UNL d   1      -2.093   0.007   0.930  0.00  0.00    -0.004 A 
ENDROOT
TORSDOF 0
ENDMDL
