MODEL 1
REMARK minimizedAffinity 4.83448553
REMARK minimizedRMSD -1
REMARK  0 active torsions:
REMARK  status: ('A' for Active; 'I' for Inactive)
ROOT
ATOM      1  C   UNL d   1      -0.552  -0.137   0.911  0.00  0.00    -0.002 A 
ATOM      2  C1  UNL d   1       0.204   0.042   2.060  0.00  0.00     0.010 A 
ATOM      3  C2  UNL d   1       1.310  -0.771   2.316  0.00  0.00     0.041 A 
ATOM      4  C3  UNL d   1       1.647  -1.775   1.388  0.00  0.00    -0.075 A 
ATOM      5  S   UNL d   1       2.959  -2.889   1.491  0.00  0.00     0.015 SA
ATOM      6  C4  UNL d   1       2.547  -3.628   0.012  0.00  0.00     0.022 A 
ATOM      7  C5  UNL d   1       1.438  -3.052  -0.561  0.00  0.00     0.026 A 
ATOM      8  C6  UNL d   1       0.901  -1.974   0.223  0.00  0.00    -0.082 A 
ATOM      9  C7  UNL d   1      -0.215  -1.134  -0.008  0.00  0.00     0.045 A 
ENDROOT
TORSDOF 0
ENDMDL
