MODEL 1
REMARK minimizedAffinity 6.10644674
REMARK minimizedRMSD -1
REMARK  0 active torsions:
REMARK  status: ('A' for Active; 'I' for Inactive)
ROOT
ATOM      1  C   UNL d   1       2.081  -2.559  -0.121  0.00  0.00    -0.002 A 
ATOM      2  C1  UNL d   1       1.917  -2.943   1.203  0.00  0.00     0.010 A 
ATOM      3  C2  UNL d   1       0.818  -2.497   1.940  0.00  0.00     0.041 A 
ATOM      4  C3  UNL d   1      -0.122  -1.652   1.319  0.00  0.00    -0.075 A 
ATOM      5  S   UNL d   1      -1.546  -0.983   2.025  0.00  0.00     0.015 SA
ATOM      6  C4  UNL d   1      -1.970  -0.173   0.587  0.00  0.00     0.022 A 
ATOM      7  C5  UNL d   1      -1.058  -0.396  -0.418  0.00  0.00     0.026 A 
ATOM      8  C6  UNL d   1       0.021  -1.253  -0.013  0.00  0.00    -0.082 A 
ATOM      9  C7  UNL d   1       1.146  -1.721  -0.734  0.00  0.00     0.045 A 
ENDROOT
TORSDOF 0
ENDMDL
