MODEL 1
REMARK minimizedAffinity 23.6745739
REMARK minimizedRMSD -1
REMARK  0 active torsions:
REMARK  status: ('A' for Active; 'I' for Inactive)
ROOT
ATOM      1  C   UNL d   1      -6.000  -0.721   0.930  0.00  0.00    -0.002 A 
ATOM      2  C1  UNL d   1      -5.037   0.268   0.789  0.00  0.00     0.010 A 
ATOM      3  C2  UNL d   1      -3.682  -0.064   0.721  0.00  0.00     0.041 A 
ATOM      4  C3  UNL d   1      -3.308  -1.420   0.795  0.00  0.00    -0.075 A 
ATOM      5  S   UNL d   1      -1.710  -2.063   0.731  0.00  0.00     0.015 SA
ATOM      6  C4  UNL d   1      -2.267  -3.666   0.888  0.00  0.00     0.022 A 
ATOM      7  C5  UNL d   1      -3.637  -3.727   0.988  0.00  0.00     0.026 A 
ATOM      8  C6  UNL d   1      -4.260  -2.435   0.935  0.00  0.00    -0.082 A 
ATOM      9  C7  UNL d   1      -5.625  -2.066   1.002  0.00  0.00     0.045 A 
ENDROOT
TORSDOF 0
ENDMDL
