MODEL 1
REMARK minimizedAffinity -0.40292719
REMARK minimizedRMSD -1
REMARK  0 active torsions:
REMARK  status: ('A' for Active; 'I' for Inactive)
ROOT
ATOM      1  C   UNL d   1      -0.481  -0.225   1.592  0.00  0.00    -0.002 A 
ATOM      2  C1  UNL d   1      -0.648  -1.281   2.476  0.00  0.00     0.010 A 
ATOM      3  C2  UNL d   1       0.060  -2.472   2.302  0.00  0.00     0.041 A 
ATOM      4  C3  UNL d   1       0.948  -2.584   1.214  0.00  0.00    -0.075 A 
ATOM      5  S   UNL d   1       1.922  -3.946   0.803  0.00  0.00     0.015 SA
ATOM      6  C4  UNL d   1       2.584  -3.158  -0.555  0.00  0.00     0.022 A 
ATOM      7  C5  UNL d   1       2.085  -1.886  -0.706  0.00  0.00     0.026 A 
ATOM      8  C6  UNL d   1       1.135  -1.534   0.311  0.00  0.00    -0.082 A 
ATOM      9  C7  UNL d   1       0.402  -0.339   0.514  0.00  0.00     0.045 A 
ENDROOT
TORSDOF 0
ENDMDL
