MODEL 1
REMARK minimizedAffinity 6.82643986
REMARK minimizedRMSD -1
REMARK  0 active torsions:
REMARK  status: ('A' for Active; 'I' for Inactive)
ROOT
ATOM      1  C   UNL d   1       0.109   0.318   1.533  0.00  0.00    -0.002 A 
ATOM      2  C1  UNL d   1      -1.029  -0.348   1.965  0.00  0.00     0.010 A 
ATOM      3  C2  UNL d   1      -1.103  -1.741   1.904  0.00  0.00     0.041 A 
ATOM      4  C3  UNL d   1      -0.002  -2.461   1.400  0.00  0.00    -0.075 A 
ATOM      5  S   UNL d   1       0.133  -4.171   1.233  0.00  0.00     0.015 SA
ATOM      6  C4  UNL d   1       1.706  -4.058   0.585  0.00  0.00     0.022 A 
ATOM      7  C5  UNL d   1       2.133  -2.755   0.492  0.00  0.00     0.026 A 
ATOM      8  C6  UNL d   1       1.156  -1.813   0.960  0.00  0.00    -0.082 A 
ATOM      9  C7  UNL d   1       1.199  -0.399   1.033  0.00  0.00     0.045 A 
ENDROOT
TORSDOF 0
ENDMDL
