MODEL 1
REMARK minimizedAffinity -5.10638714
REMARK minimizedRMSD -1
REMARK  1 active torsions:
REMARK  status: ('A' for Active; 'I' for Inactive)
REMARK    1  A    between atoms: C1_2  and  C2_3 
ROOT
ATOM      1  C2  UNL d   1      -0.272   0.933   0.400  0.00  0.00    -0.077 A 
ATOM      2  C3  UNL d   1      -0.156   1.570  -0.844  0.00  0.00     0.002 A 
ATOM      3  C4  UNL d   1      -0.792   2.791  -1.074  0.00  0.00     0.002 A 
ATOM      4  C5  UNL d   1      -1.545   3.388  -0.065  0.00  0.00    -0.004 A 
ATOM      5  C6  UNL d   1      -1.669   2.761   1.174  0.00  0.00     0.002 A 
ATOM      6  C7  UNL d   1      -1.035   1.540   1.406  0.00  0.00     0.002 A 
ENDROOT
BRANCH   1   7
ATOM      7  C1  UNL d   1       0.453  -0.360   0.667  0.00  0.00     0.055 C 
ATOM      8  C   UNL d   1       1.452  -0.209   1.805  0.00  0.00     0.019 C 
ENDBRANCH   1   7
TORSDOF 1
ENDMDL
