MODEL 1
REMARK minimizedAffinity -3.73020244
REMARK minimizedRMSD -1
REMARK  1 active torsions:
REMARK  status: ('A' for Active; 'I' for Inactive)
REMARK    1  A    between atoms: C1_2  and  C2_3 
ROOT
ATOM      1  C2  UNL d   1       0.046   0.496   0.032  0.00  0.00    -0.077 A 
ATOM      2  C3  UNL d   1      -1.222   0.992  -0.301  0.00  0.00     0.002 A 
ATOM      3  C4  UNL d   1      -1.883   1.874   0.557  0.00  0.00     0.002 A 
ATOM      4  C5  UNL d   1      -1.281   2.270   1.750  0.00  0.00    -0.004 A 
ATOM      5  C6  UNL d   1      -0.021   1.781   2.090  0.00  0.00     0.002 A 
ATOM      6  C7  UNL d   1       0.640   0.898   1.235  0.00  0.00     0.002 A 
ENDROOT
BRANCH   1   7
ATOM      7  C1  UNL d   1       0.781  -0.416  -0.915  0.00  0.00     0.055 C 
ATOM      8  C   UNL d   1       0.024  -1.719  -1.129  0.00  0.00     0.019 C 
ENDBRANCH   1   7
TORSDOF 1
ENDMDL
