MODEL 1
REMARK minimizedAffinity -5.49068642
REMARK minimizedRMSD -1
REMARK  1 active torsions:
REMARK  status: ('A' for Active; 'I' for Inactive)
REMARK    1  A    between atoms: C1_2  and  C2_3 
ROOT
ATOM      1  C2  UNL d   1      -0.141   0.643   0.023  0.00  0.00    -0.077 A 
ATOM      2  C3  UNL d   1      -0.297   1.741  -0.835  0.00  0.00     0.002 A 
ATOM      3  C4  UNL d   1      -0.678   2.985  -0.328  0.00  0.00     0.002 A 
ATOM      4  C5  UNL d   1      -0.901   3.144   1.038  0.00  0.00    -0.004 A 
ATOM      5  C6  UNL d   1      -0.750   2.057   1.900  0.00  0.00     0.002 A 
ATOM      6  C7  UNL d   1      -0.371   0.813   1.394  0.00  0.00     0.002 A 
ENDROOT
BRANCH   1   7
ATOM      7  C1  UNL d   1       0.317  -0.687  -0.515  0.00  0.00     0.055 C 
ATOM      8  C   UNL d   1       0.897  -0.548  -1.915  0.00  0.00     0.019 C 
ENDBRANCH   1   7
TORSDOF 1
ENDMDL
