MODEL 1
REMARK minimizedAffinity -4.55151892
REMARK minimizedRMSD -1
REMARK  1 active torsions:
REMARK  status: ('A' for Active; 'I' for Inactive)
REMARK    1  A    between atoms: C1_2  and  C2_3 
ROOT
ATOM      1  C2  UNL d   1      -0.426   0.690   0.024  0.00  0.00    -0.077 A 
ATOM      2  C3  UNL d   1      -0.668   1.450   1.176  0.00  0.00     0.002 A 
ATOM      3  C4  UNL d   1      -1.097   2.775   1.072  0.00  0.00     0.002 A 
ATOM      4  C5  UNL d   1      -1.292   3.349  -0.183  0.00  0.00    -0.004 A 
ATOM      5  C6  UNL d   1      -1.052   2.602  -1.335  0.00  0.00     0.002 A 
ATOM      6  C7  UNL d   1      -0.622   1.278  -1.233  0.00  0.00     0.002 A 
ENDROOT
BRANCH   1   7
ATOM      7  C1  UNL d   1      -0.011  -0.754   0.135  0.00  0.00     0.055 C 
ATOM      8  C   UNL d   1       0.371  -1.326  -1.223  0.00  0.00     0.019 C 
ENDBRANCH   1   7
TORSDOF 1
ENDMDL
