MODEL 1
REMARK minimizedAffinity -6.11731815
REMARK minimizedRMSD -1
REMARK  1 active torsions:
REMARK  status: ('A' for Active; 'I' for Inactive)
REMARK    1  A    between atoms: C1_2  and  C2_3 
ROOT
ATOM      1  C2  UNL d   1       0.054   1.274   0.427  0.00  0.00    -0.077 A 
ATOM      2  C3  UNL d   1       0.021   2.175  -0.647  0.00  0.00     0.002 A 
ATOM      3  C4  UNL d   1      -0.545   3.441  -0.489  0.00  0.00     0.002 A 
ATOM      4  C5  UNL d   1      -1.078   3.820   0.741  0.00  0.00    -0.004 A 
ATOM      5  C6  UNL d   1      -1.052   2.930   1.815  0.00  0.00     0.002 A 
ATOM      6  C7  UNL d   1      -0.487   1.664   1.659  0.00  0.00     0.002 A 
ENDROOT
BRANCH   1   7
ATOM      7  C1  UNL d   1       0.709  -0.074   0.272  0.00  0.00     0.055 C 
ATOM      8  C   UNL d   1       1.023  -0.373  -1.186  0.00  0.00     0.019 C 
ENDBRANCH   1   7
TORSDOF 1
ENDMDL
