MODEL 1
REMARK minimizedAffinity -5.94125652
REMARK minimizedRMSD -1
REMARK  1 active torsions:
REMARK  status: ('A' for Active; 'I' for Inactive)
REMARK    1  A    between atoms: C1_2  and  C2_3 
ROOT
ATOM      1  C2  UNL d   1      -0.331   0.885   0.681  0.00  0.00    -0.077 A 
ATOM      2  C3  UNL d   1      -0.544   1.461  -0.580  0.00  0.00     0.002 A 
ATOM      3  C4  UNL d   1      -0.984   2.781  -0.688  0.00  0.00     0.002 A 
ATOM      4  C5  UNL d   1      -1.212   3.538   0.459  0.00  0.00    -0.004 A 
ATOM      5  C6  UNL d   1      -1.005   2.974   1.718  0.00  0.00     0.002 A 
ATOM      6  C7  UNL d   1      -0.566   1.654   1.828  0.00  0.00     0.002 A 
ENDROOT
BRANCH   1   7
ATOM      7  C1  UNL d   1       0.191  -0.523   0.799  0.00  0.00     0.055 C 
ATOM      8  C   UNL d   1       0.327  -1.179  -0.567  0.00  0.00     0.019 C 
ENDBRANCH   1   7
TORSDOF 1
ENDMDL
