MODEL 1
REMARK minimizedAffinity -4.65199184
REMARK minimizedRMSD -1
REMARK  1 active torsions:
REMARK  status: ('A' for Active; 'I' for Inactive)
REMARK    1  A    between atoms: C1_2  and  C2_3 
ROOT
ATOM      1  C2  UNL d   1      -0.441   1.348   0.824  0.00  0.00    -0.077 A 
ATOM      2  C3  UNL d   1      -0.570   1.156  -0.559  0.00  0.00     0.002 A 
ATOM      3  C4  UNL d   1      -0.876   2.231  -1.396  0.00  0.00     0.002 A 
ATOM      4  C5  UNL d   1      -1.049   3.506  -0.860  0.00  0.00    -0.004 A 
ATOM      5  C6  UNL d   1      -0.925   3.707   0.514  0.00  0.00     0.002 A 
ATOM      6  C7  UNL d   1      -0.621   2.633   1.352  0.00  0.00     0.002 A 
ENDROOT
BRANCH   1   7
ATOM      7  C1  UNL d   1      -0.064   0.199   1.722  0.00  0.00     0.055 C 
ATOM      8  C   UNL d   1       1.115  -0.581   1.158  0.00  0.00     0.019 C 
ENDBRANCH   1   7
TORSDOF 1
ENDMDL
