MODEL 1
REMARK minimizedAffinity 14.7090511
REMARK minimizedRMSD -1
REMARK  0 active torsions:
REMARK  status: ('A' for Active; 'I' for Inactive)
ROOT
ATOM      1  C   UNL d   1       0.030  -3.290   1.201  0.00  0.00    -0.002 A 
ATOM      2  C1  UNL d   1      -1.070  -2.452   1.319  0.00  0.00     0.010 A 
ATOM      3  C2  UNL d   1      -0.902  -1.068   1.403  0.00  0.00     0.041 A 
ATOM      4  C3  UNL d   1       0.402  -0.536   1.364  0.00  0.00    -0.075 A 
ATOM      5  S   UNL d   1       0.849   1.127   1.450  0.00  0.00     0.015 SA
ATOM      6  C4  UNL d   1       2.510   0.763   1.331  0.00  0.00     0.022 A 
ATOM      7  C5  UNL d   1       2.736  -0.589   1.228  0.00  0.00     0.026 A 
ATOM      8  C6  UNL d   1       1.525  -1.360   1.245  0.00  0.00    -0.082 A 
ATOM      9  C7  UNL d   1       1.322  -2.759   1.163  0.00  0.00     0.045 A 
ENDROOT
TORSDOF 0
ENDMDL
