MODEL 1
REMARK minimizedAffinity 20.8756428
REMARK minimizedRMSD -1
REMARK  0 active torsions:
REMARK  status: ('A' for Active; 'I' for Inactive)
ROOT
ATOM      1  C   UNL d   1      -4.878  -0.382  -2.244  0.00  0.00    -0.002 A 
ATOM      2  C1  UNL d   1      -5.496   0.578  -1.455  0.00  0.00     0.010 A 
ATOM      3  C2  UNL d   1      -5.875   1.807  -1.999  0.00  0.00     0.041 A 
ATOM      4  C3  UNL d   1      -5.621   2.057  -3.362  0.00  0.00    -0.075 A 
ATOM      5  S   UNL d   1      -5.998   3.490  -4.244  0.00  0.00     0.015 SA
ATOM      6  C4  UNL d   1      -5.347   2.861  -5.688  0.00  0.00     0.022 A 
ATOM      7  C5  UNL d   1      -4.850   1.590  -5.520  0.00  0.00     0.026 A 
ATOM      8  C6  UNL d   1      -5.000   1.106  -4.176  0.00  0.00    -0.082 A 
ATOM      9  C7  UNL d   1      -4.628  -0.131  -3.596  0.00  0.00     0.045 A 
ENDROOT
TORSDOF 0
ENDMDL
