MODEL 1
REMARK minimizedAffinity 21.3704643
REMARK minimizedRMSD -1
REMARK  0 active torsions:
REMARK  status: ('A' for Active; 'I' for Inactive)
ROOT
ATOM      1  C   UNL d   1      -4.483  -5.913  -5.003  0.00  0.00    -0.002 A 
ATOM      2  C1  UNL d   1      -5.470  -5.598  -5.927  0.00  0.00     0.010 A 
ATOM      3  C2  UNL d   1      -5.995  -4.306  -5.992  0.00  0.00     0.041 A 
ATOM      4  C3  UNL d   1      -5.505  -3.326  -5.107  0.00  0.00    -0.075 A 
ATOM      5  S   UNL d   1      -5.998  -1.677  -5.006  0.00  0.00     0.015 SA
ATOM      6  C4  UNL d   1      -4.910  -1.351  -3.736  0.00  0.00     0.022 A 
ATOM      7  C5  UNL d   1      -4.180  -2.462  -3.384  0.00  0.00     0.026 A 
ATOM      8  C6  UNL d   1      -4.511  -3.618  -4.169  0.00  0.00    -0.082 A 
ATOM      9  C7  UNL d   1      -4.000  -4.938  -4.127  0.00  0.00     0.045 A 
ENDROOT
TORSDOF 0
ENDMDL
