MODEL 1
REMARK minimizedAffinity 20.5498466
REMARK minimizedRMSD -1
REMARK  0 active torsions:
REMARK  status: ('A' for Active; 'I' for Inactive)
ROOT
ATOM      1  C   UNL d   1       0.078  -2.696   4.923  0.00  0.00    -0.002 A 
ATOM      2  C1  UNL d   1       0.407  -1.850   5.973  0.00  0.00     0.010 A 
ATOM      3  C2  UNL d   1       0.985  -0.603   5.726  0.00  0.00     0.041 A 
ATOM      4  C3  UNL d   1       1.228  -0.217   4.393  0.00  0.00    -0.075 A 
ATOM      5  S   UNL d   1       1.927   1.263   3.851  0.00  0.00     0.015 SA
ATOM      6  C4  UNL d   1       1.803   0.808   2.213  0.00  0.00     0.022 A 
ATOM      7  C5  UNL d   1       1.246  -0.440   2.065  0.00  0.00     0.026 A 
ATOM      8  C6  UNL d   1       0.904  -1.051   3.319  0.00  0.00    -0.082 A 
ATOM      9  C7  UNL d   1       0.320  -2.309   3.602  0.00  0.00     0.045 A 
ENDROOT
TORSDOF 0
ENDMDL
