MODEL 1
REMARK minimizedAffinity 17.3373508
REMARK minimizedRMSD -1
REMARK  0 active torsions:
REMARK  status: ('A' for Active; 'I' for Inactive)
ROOT
ATOM      1  C   UNL d   1      -1.631   1.971   1.109  0.00  0.00    -0.002 A 
ATOM      2  C1  UNL d   1      -2.210   1.333   0.021  0.00  0.00     0.010 A 
ATOM      3  C2  UNL d   1      -3.561   1.522  -0.277  0.00  0.00     0.041 A 
ATOM      4  C3  UNL d   1      -4.327   2.374   0.544  0.00  0.00    -0.075 A 
ATOM      5  S   UNL d   1      -5.999   2.756   0.371  0.00  0.00     0.015 SA
ATOM      6  C4  UNL d   1      -5.984   3.777   1.736  0.00  0.00     0.022 A 
ATOM      7  C5  UNL d   1      -4.741   3.835   2.321  0.00  0.00     0.026 A 
ATOM      8  C6  UNL d   1      -3.766   3.028   1.644  0.00  0.00    -0.082 A 
ATOM      9  C7  UNL d   1      -2.394   2.815   1.920  0.00  0.00     0.045 A 
ENDROOT
TORSDOF 0
ENDMDL
