MODEL 1
REMARK minimizedAffinity -4.89951372
REMARK minimizedRMSD -1
REMARK  2 active torsions:
REMARK  status: ('A' for Active; 'I' for Inactive)
REMARK    1  A    between atoms: C2'_3  and  C1'_4 
REMARK    2  A    between atoms: C1'_4  and  C1_5 
ROOT
ATOM      1  C1  I4B d   1      -0.521  -0.292   0.337  0.00  0.00    -0.075 A 
ATOM      2  C2  I4B d   1      -1.797  -0.585   0.750  0.00  0.00     0.003 A 
ATOM      3  C3  I4B d   1      -2.164  -0.412   2.107  0.00  0.00     0.002 A 
ATOM      4  C4  I4B d   1      -1.216   0.005   3.019  0.00  0.00    -0.004 A 
ATOM      5  C5  I4B d   1       0.070   0.323   2.594  0.00  0.00     0.002 A 
ATOM      6  C6  I4B d   1       0.417   0.186   1.242  0.00  0.00     0.003 A 
ENDROOT
BRANCH   1   7
ATOM      7  C1' I4B d   1      -0.158  -0.518  -1.097  0.00  0.00     0.060 C 
BRANCH   7   8
ATOM      8  C2' I4B d   1       0.771   0.599  -1.525  0.00  0.00    -0.013 C 
ATOM      9  C4' I4B d   1       1.463   0.267  -2.821  0.00  0.00     0.013 C 
ATOM     10  C3' I4B d   1      -0.040   1.854  -1.650  0.00  0.00     0.013 C 
ENDBRANCH   7   8
ENDBRANCH   1   7
TORSDOF 2
ENDMDL
