MODEL 1
REMARK minimizedAffinity -1.60554397
REMARK minimizedRMSD -1
REMARK  2 active torsions:
REMARK  status: ('A' for Active; 'I' for Inactive)
REMARK    1  A    between atoms: C2'_3  and  C1'_4 
REMARK    2  A    between atoms: C1'_4  and  C1_5 
ROOT
ATOM      1  C1  I4B d   1      -0.420   0.328   0.590  0.00  0.00    -0.075 A 
ATOM      2  C2  I4B d   1      -0.206   0.374   1.945  0.00  0.00     0.003 A 
ATOM      3  C3  I4B d   1       0.824   1.188   2.476  0.00  0.00     0.002 A 
ATOM      4  C4  I4B d   1       1.643   1.894   1.619  0.00  0.00    -0.004 A 
ATOM      5  C5  I4B d   1       1.410   1.864   0.247  0.00  0.00     0.002 A 
ATOM      6  C6  I4B d   1       0.365   1.086  -0.271  0.00  0.00     0.003 A 
ENDROOT
BRANCH   1   7
ATOM      7  C1' I4B d   1      -1.495  -0.567   0.060  0.00  0.00     0.060 C 
BRANCH   7   8
ATOM      8  C2' I4B d   1      -1.994  -1.425   1.205  0.00  0.00    -0.013 C 
ATOM      9  C4' I4B d   1      -3.474  -1.682   1.088  0.00  0.00     0.013 C 
ATOM     10  C3' I4B d   1      -1.219  -2.708   1.195  0.00  0.00     0.013 C 
ENDBRANCH   7   8
ENDBRANCH   1   7
TORSDOF 2
ENDMDL
