MODEL 1
REMARK minimizedAffinity -0.754028201
REMARK minimizedRMSD -1
REMARK  2 active torsions:
REMARK  status: ('A' for Active; 'I' for Inactive)
REMARK    1  A    between atoms: C2'_3  and  C1'_4 
REMARK    2  A    between atoms: C1'_4  and  C1_5 
ROOT
ATOM      1  C1  I4B d   1       0.197   0.171   1.241  0.00  0.00    -0.075 A 
ATOM      2  C2  I4B d   1      -0.162   0.576   2.502  0.00  0.00     0.003 A 
ATOM      3  C3  I4B d   1      -0.768  -0.337   3.399  0.00  0.00     0.002 A 
ATOM      4  C4  I4B d   1      -1.040  -1.623   2.979  0.00  0.00    -0.004 A 
ATOM      5  C5  I4B d   1      -0.654  -2.039   1.708  0.00  0.00     0.002 A 
ATOM      6  C6  I4B d   1      -0.021  -1.140   0.837  0.00  0.00     0.003 A 
ENDROOT
BRANCH   1   7
ATOM      7  C1' I4B d   1       0.804   1.170   0.308  0.00  0.00     0.060 C 
BRANCH   7   8
ATOM      8  C2' I4B d   1      -0.030   1.196  -0.956  0.00  0.00    -0.013 C 
ATOM      9  C4' I4B d   1       0.446   0.165  -1.945  0.00  0.00     0.013 C 
ATOM     10  C3' I4B d   1      -1.460   0.959  -0.572  0.00  0.00     0.013 C 
ENDBRANCH   7   8
ENDBRANCH   1   7
TORSDOF 2
ENDMDL
