MODEL 1
REMARK minimizedAffinity 3.4997766
REMARK minimizedRMSD -1
REMARK  2 active torsions:
REMARK  status: ('A' for Active; 'I' for Inactive)
REMARK    1  A    between atoms: C2'_3  and  C1'_4 
REMARK    2  A    between atoms: C1'_4  and  C1_5 
ROOT
ATOM      1  C1  I4B d   1      -1.656   0.959   1.045  0.00  0.00    -0.075 A 
ATOM      2  C2  I4B d   1      -0.774   0.988   2.096  0.00  0.00     0.003 A 
ATOM      3  C3  I4B d   1       0.610   0.792   1.871  0.00  0.00     0.002 A 
ATOM      4  C4  I4B d   1       1.060   0.521   0.595  0.00  0.00    -0.004 A 
ATOM      5  C5  I4B d   1       0.167   0.515  -0.473  0.00  0.00     0.002 A 
ATOM      6  C6  I4B d   1      -1.198   0.747  -0.249  0.00  0.00     0.003 A 
ENDROOT
BRANCH   1   7
ATOM      7  C1' I4B d   1      -3.115   1.137   1.323  0.00  0.00     0.060 C 
BRANCH   7   8
ATOM      8  C2' I4B d   1      -3.257   1.726   2.712  0.00  0.00    -0.013 C 
ATOM      9  C4' I4B d   1      -4.344   2.767   2.753  0.00  0.00     0.013 C 
ATOM     10  C3' I4B d   1      -3.545   0.604   3.663  0.00  0.00     0.013 C 
ENDBRANCH   7   8
ENDBRANCH   1   7
TORSDOF 2
ENDMDL
