MODEL 1
REMARK minimizedAffinity -5.31022263
REMARK minimizedRMSD -1
REMARK  2 active torsions:
REMARK  status: ('A' for Active; 'I' for Inactive)
REMARK    1  A    between atoms: C2'_3  and  C1'_4 
REMARK    2  A    between atoms: C1'_4  and  C1_5 
ROOT
ATOM      1  C1  I4B d   1      -1.071  -0.487   1.253  0.00  0.00    -0.075 A 
ATOM      2  C2  I4B d   1      -0.958  -0.512   2.621  0.00  0.00     0.003 A 
ATOM      3  C3  I4B d   1      -1.989   0.024   3.431  0.00  0.00     0.002 A 
ATOM      4  C4  I4B d   1      -3.083   0.616   2.835  0.00  0.00    -0.004 A 
ATOM      5  C5  I4B d   1      -3.207   0.619   1.448  0.00  0.00     0.002 A 
ATOM      6  C6  I4B d   1      -2.200   0.054   0.652  0.00  0.00     0.003 A 
ENDROOT
BRANCH   1   7
ATOM      7  C1' I4B d   1       0.051  -1.032   0.427  0.00  0.00     0.060 C 
BRANCH   7   8
ATOM      8  C2' I4B d   1       0.807   0.140  -0.165  0.00  0.00    -0.013 C 
ATOM      9  C4' I4B d   1      -0.021   0.856  -1.199  0.00  0.00     0.013 C 
ATOM     10  C3' I4B d   1       1.186   1.061   0.956  0.00  0.00     0.013 C 
ENDBRANCH   7   8
ENDBRANCH   1   7
TORSDOF 2
ENDMDL
