MODEL 1
REMARK minimizedAffinity -1.58902109
REMARK minimizedRMSD -1
REMARK  2 active torsions:
REMARK  status: ('A' for Active; 'I' for Inactive)
REMARK    1  A    between atoms: C2'_3  and  C1'_4 
REMARK    2  A    between atoms: C1'_4  and  C1_5 
ROOT
ATOM      1  C1  I4B d   1       0.266   0.662  -1.016  0.00  0.00    -0.075 A 
ATOM      2  C2  I4B d   1      -1.074   0.733  -0.725  0.00  0.00     0.003 A 
ATOM      3  C3  I4B d   1      -1.513   0.702   0.621  0.00  0.00     0.002 A 
ATOM      4  C4  I4B d   1      -0.588   0.550   1.634  0.00  0.00    -0.004 A 
ATOM      5  C5  I4B d   1       0.771   0.501   1.338  0.00  0.00     0.002 A 
ATOM      6  C6  I4B d   1       1.202   0.570   0.006  0.00  0.00     0.003 A 
ENDROOT
BRANCH   1   7
ATOM      7  C1' I4B d   1       0.692   0.664  -2.450  0.00  0.00     0.060 C 
BRANCH   7   8
ATOM      8  C2' I4B d   1       1.367  -0.662  -2.738  0.00  0.00    -0.013 C 
ATOM      9  C4' I4B d   1       0.610  -1.445  -3.778  0.00  0.00     0.013 C 
ATOM     10  C3' I4B d   1       2.770  -0.379  -3.188  0.00  0.00     0.013 C 
ENDBRANCH   7   8
ENDBRANCH   1   7
TORSDOF 2
ENDMDL
