MODEL 1
REMARK minimizedAffinity -2.7737577
REMARK minimizedRMSD -1
REMARK  2 active torsions:
REMARK  status: ('A' for Active; 'I' for Inactive)
REMARK    1  A    between atoms: C2'_3  and  C1'_4 
REMARK    2  A    between atoms: C1'_4  and  C1_5 
ROOT
ATOM      1  C1  I4B d   1      -0.334  -0.374   0.956  0.00  0.00    -0.075 A 
ATOM      2  C2  I4B d   1      -1.559  -0.727   1.464  0.00  0.00     0.003 A 
ATOM      3  C3  I4B d   1      -1.954  -0.281   2.748  0.00  0.00     0.002 A 
ATOM      4  C4  I4B d   1      -1.078   0.470   3.506  0.00  0.00    -0.004 A 
ATOM      5  C5  I4B d   1       0.154   0.847   2.980  0.00  0.00     0.002 A 
ATOM      6  C6  I4B d   1       0.524   0.432   1.692  0.00  0.00     0.003 A 
ENDROOT
BRANCH   1   7
ATOM      7  C1' I4B d   1       0.064  -0.891  -0.390  0.00  0.00     0.060 C 
BRANCH   7   8
ATOM      8  C2' I4B d   1       0.593   0.275  -1.200  0.00  0.00    -0.013 C 
ATOM      9  C4' I4B d   1       1.071  -0.175  -2.555  0.00  0.00     0.013 C 
ATOM     10  C3' I4B d   1      -0.504   1.290  -1.322  0.00  0.00     0.013 C 
ENDBRANCH   7   8
ENDBRANCH   1   7
TORSDOF 2
ENDMDL
