MODEL 1
REMARK minimizedAffinity -1.36028636
REMARK minimizedRMSD -1
REMARK  2 active torsions:
REMARK  status: ('A' for Active; 'I' for Inactive)
REMARK    1  A    between atoms: C2'_3  and  C1'_4 
REMARK    2  A    between atoms: C1'_4  and  C1_5 
ROOT
ATOM      1  C1  I4B d   1      -0.149   0.137  -0.082  0.00  0.00    -0.075 A 
ATOM      2  C2  I4B d   1      -1.311  -0.381   0.433  0.00  0.00     0.003 A 
ATOM      3  C3  I4B d   1      -1.427  -0.630   1.822  0.00  0.00     0.002 A 
ATOM      4  C4  I4B d   1      -0.346  -0.394   2.647  0.00  0.00    -0.004 A 
ATOM      5  C5  I4B d   1       0.823   0.153   2.127  0.00  0.00     0.002 A 
ATOM      6  C6  I4B d   1       0.919   0.433   0.756  0.00  0.00     0.003 A 
ENDROOT
BRANCH   1   7
ATOM      7  C1' I4B d   1      -0.050   0.357  -1.558  0.00  0.00     0.060 C 
BRANCH   7   8
ATOM      8  C2' I4B d   1       0.564  -0.884  -2.174  0.00  0.00    -0.013 C 
ATOM      9  C4' I4B d   1      -0.469  -1.694  -2.912  0.00  0.00     0.013 C 
ATOM     10  C3' I4B d   1       1.668  -0.449  -3.091  0.00  0.00     0.013 C 
ENDBRANCH   7   8
ENDBRANCH   1   7
TORSDOF 2
ENDMDL
