MODEL 1
REMARK minimizedAffinity -4.44915009
REMARK minimizedRMSD -1
REMARK  2 active torsions:
REMARK  status: ('A' for Active; 'I' for Inactive)
REMARK    1  A    between atoms: C2'_3  and  C1'_4 
REMARK    2  A    between atoms: C1'_4  and  C1_5 
ROOT
ATOM      1  C1  I4B d   1       0.178  -0.108   1.221  0.00  0.00    -0.075 A 
ATOM      2  C2  I4B d   1      -1.092  -0.481   0.859  0.00  0.00     0.003 A 
ATOM      3  C3  I4B d   1      -2.125  -0.526   1.827  0.00  0.00     0.002 A 
ATOM      4  C4  I4B d   1      -1.833  -0.242   3.145  0.00  0.00    -0.004 A 
ATOM      5  C5  I4B d   1      -0.550   0.158   3.506  0.00  0.00     0.002 A 
ATOM      6  C6  I4B d   1       0.460   0.238   2.536  0.00  0.00     0.003 A 
ENDROOT
BRANCH   1   7
ATOM      7  C1' I4B d   1       1.252  -0.102   0.179  0.00  0.00     0.060 C 
BRANCH   7   8
ATOM      8  C2' I4B d   1       0.600   0.171  -1.161  0.00  0.00    -0.013 C 
ATOM      9  C4' I4B d   1       0.036   1.566  -1.219  0.00  0.00     0.013 C 
ATOM     10  C3' I4B d   1       1.632  -0.041  -2.229  0.00  0.00     0.013 C 
ENDBRANCH   7   8
ENDBRANCH   1   7
TORSDOF 2
ENDMDL
