MODEL 1
REMARK minimizedAffinity -3.07317853
REMARK minimizedRMSD -1
REMARK  2 active torsions:
REMARK  status: ('A' for Active; 'I' for Inactive)
REMARK    1  A    between atoms: C2'_3  and  C1'_4 
REMARK    2  A    between atoms: C1'_4  and  C1_5 
ROOT
ATOM      1  C1  I4B d   1      -0.031   0.207   0.483  0.00  0.00    -0.075 A 
ATOM      2  C2  I4B d   1      -1.154  -0.575   0.379  0.00  0.00     0.003 A 
ATOM      3  C3  I4B d   1      -1.789  -1.069   1.544  0.00  0.00     0.002 A 
ATOM      4  C4  I4B d   1      -1.242  -0.802   2.782  0.00  0.00    -0.004 A 
ATOM      5  C5  I4B d   1      -0.116   0.010   2.887  0.00  0.00     0.002 A 
ATOM      6  C6  I4B d   1       0.487   0.528   1.731  0.00  0.00     0.003 A 
ENDROOT
BRANCH   1   7
ATOM      7  C1' I4B d   1       0.633   0.685  -0.769  0.00  0.00     0.060 C 
BRANCH   7   8
ATOM      8  C2' I4B d   1       1.286  -0.508  -1.436  0.00  0.00    -0.013 C 
ATOM      9  C4' I4B d   1       2.227  -0.074  -2.530  0.00  0.00     0.013 C 
ATOM     10  C3' I4B d   1       2.007  -1.292  -0.381  0.00  0.00     0.013 C 
ENDBRANCH   7   8
ENDBRANCH   1   7
TORSDOF 2
ENDMDL
