MODEL 1
REMARK minimizedAffinity -4.08231211
REMARK minimizedRMSD -1
REMARK  2 active torsions:
REMARK  status: ('A' for Active; 'I' for Inactive)
REMARK    1  A    between atoms: C2'_3  and  C1'_4 
REMARK    2  A    between atoms: C1'_4  and  C1_5 
ROOT
ATOM      1  C1  I4B d   1      -0.585   0.092   0.303  0.00  0.00    -0.075 A 
ATOM      2  C2  I4B d   1       0.372   0.021   1.285  0.00  0.00     0.003 A 
ATOM      3  C3  I4B d   1       0.005  -0.293   2.616  0.00  0.00     0.002 A 
ATOM      4  C4  I4B d   1      -1.327  -0.479   2.928  0.00  0.00    -0.004 A 
ATOM      5  C5  I4B d   1      -2.292  -0.429   1.927  0.00  0.00     0.002 A 
ATOM      6  C6  I4B d   1      -1.918  -0.154   0.603  0.00  0.00     0.003 A 
ENDROOT
BRANCH   1   7
ATOM      7  C1' I4B d   1      -0.166   0.459  -1.086  0.00  0.00     0.060 C 
BRANCH   7   8
ATOM      8  C2' I4B d   1       0.619  -0.704  -1.659  0.00  0.00    -0.013 C 
ATOM      9  C4' I4B d   1      -0.287  -1.679  -2.363  0.00  0.00     0.013 C 
ATOM     10  C3' I4B d   1       1.650  -0.148  -2.596  0.00  0.00     0.013 C 
ENDBRANCH   7   8
ENDBRANCH   1   7
TORSDOF 2
ENDMDL
