MODEL 1
REMARK minimizedAffinity -3.46478105
REMARK minimizedRMSD -1
REMARK  2 active torsions:
REMARK  status: ('A' for Active; 'I' for Inactive)
REMARK    1  A    between atoms: C2'_3  and  C1'_4 
REMARK    2  A    between atoms: C1'_4  and  C1_5 
ROOT
ATOM      1  C1  I4B d   1       0.838  -0.314  -2.342  0.00  0.00    -0.075 A 
ATOM      2  C2  I4B d   1       2.161  -0.246  -2.700  0.00  0.00     0.003 A 
ATOM      3  C3  I4B d   1       2.692  -1.158  -3.644  0.00  0.00     0.002 A 
ATOM      4  C4  I4B d   1       1.882  -2.147  -4.164  0.00  0.00    -0.004 A 
ATOM      5  C5  I4B d   1       0.535  -2.200  -3.817  0.00  0.00     0.002 A 
ATOM      6  C6  I4B d   1       0.006  -1.270  -2.910  0.00  0.00     0.003 A 
ENDROOT
BRANCH   1   7
ATOM      7  C1' I4B d   1       0.319   0.644  -1.318  0.00  0.00     0.060 C 
BRANCH   7   8
ATOM      8  C2' I4B d   1      -0.232  -0.163  -0.160  0.00  0.00    -0.013 C 
ATOM      9  C4' I4B d   1       0.635  -0.025   1.063  0.00  0.00     0.013 C 
ATOM     10  C3' I4B d   1      -1.630   0.309   0.111  0.00  0.00     0.013 C 
ENDBRANCH   7   8
ENDBRANCH   1   7
TORSDOF 2
ENDMDL
