MODEL 1
REMARK minimizedAffinity -0.872862518
REMARK minimizedRMSD -1
REMARK  0 active torsions:
REMARK  status: ('A' for Active; 'I' for Inactive)
ROOT
ATOM      1  C   UNL d   1       5.969  -3.012   4.020  0.00  0.00     0.020 A 
ATOM      2  C1  UNL d   1       5.935  -2.891   5.408  0.00  0.00     0.020 A 
ATOM      3  C2  UNL d   1       5.921  -1.626   5.999  0.00  0.00     0.034 A 
ATOM      4  C3  UNL d   1       5.940  -0.476   5.202  0.00  0.00     0.017 A 
ATOM      5  C4  UNL d   1       5.974  -0.598   3.808  0.00  0.00     0.017 A 
ATOM      6  C5  UNL d   1       5.988  -1.868   3.221  0.00  0.00     0.034 A 
ATOM      7 Cl   UNL d   1       6.000   0.774   2.758  0.00  0.00    -0.070 Cl
ATOM      8 Cl1  UNL d   1       5.921   1.056   6.000  0.00  0.00    -0.070 Cl
ENDROOT
TORSDOF 0
ENDMDL
