MODEL 1
REMARK minimizedAffinity -0.981115341
REMARK minimizedRMSD -1
REMARK  0 active torsions:
REMARK  status: ('A' for Active; 'I' for Inactive)
ROOT
ATOM      1  C   UNL d   1       5.994   0.629   3.862  0.00  0.00     0.020 A 
ATOM      2  C1  UNL d   1       5.994   0.958   5.217  0.00  0.00     0.020 A 
ATOM      3  C2  UNL d   1       5.996   2.297   5.610  0.00  0.00     0.034 A 
ATOM      4  C3  UNL d   1       5.998   3.314   4.648  0.00  0.00     0.017 A 
ATOM      5  C4  UNL d   1       5.998   2.983   3.288  0.00  0.00     0.017 A 
ATOM      6  C5  UNL d   1       5.996   1.640   2.899  0.00  0.00     0.034 A 
ATOM      7 Cl   UNL d   1       6.000   4.182   2.043  0.00  0.00    -0.070 Cl
ATOM      8 Cl1  UNL d   1       5.999   4.949   5.206  0.00  0.00    -0.070 Cl
ENDROOT
TORSDOF 0
ENDMDL
