MODEL 1
REMARK minimizedAffinity 1.31650949
REMARK minimizedRMSD -1
REMARK  0 active torsions:
REMARK  status: ('A' for Active; 'I' for Inactive)
ROOT
ATOM      1  C   UNL d   1       5.231  -0.727   4.869  0.00  0.00     0.020 A 
ATOM      2  C1  UNL d   1       5.771  -0.111   5.998  0.00  0.00     0.020 A 
ATOM      3  C2  UNL d   1       6.000   1.266   5.999  0.00  0.00     0.034 A 
ATOM      4  C3  UNL d   1       5.689   2.032   4.870  0.00  0.00     0.017 A 
ATOM      5  C4  UNL d   1       5.147   1.413   3.738  0.00  0.00     0.017 A 
ATOM      6  C5  UNL d   1       4.919   0.033   3.742  0.00  0.00     0.034 A 
ATOM      7 Cl   UNL d   1       4.738   2.292   2.307  0.00  0.00    -0.070 Cl
ATOM      8 Cl1  UNL d   1       5.998   3.731   4.941  0.00  0.00    -0.070 Cl
ENDROOT
TORSDOF 0
ENDMDL
