MODEL 1
REMARK minimizedAffinity 2.41561985
REMARK minimizedRMSD -1
REMARK  0 active torsions:
REMARK  status: ('A' for Active; 'I' for Inactive)
ROOT
ATOM      1  C   UNL d   1       5.462   0.004   4.988  0.00  0.00     0.020 A 
ATOM      2  C1  UNL d   1       5.998   1.121   5.627  0.00  0.00     0.020 A 
ATOM      3  C2  UNL d   1       5.931   2.375   5.016  0.00  0.00     0.034 A 
ATOM      4  C3  UNL d   1       5.326   2.515   3.761  0.00  0.00     0.017 A 
ATOM      5  C4  UNL d   1       4.787   1.393   3.121  0.00  0.00     0.017 A 
ATOM      6  C5  UNL d   1       4.858   0.140   3.738  0.00  0.00     0.034 A 
ATOM      7 Cl   UNL d   1       4.025   1.486   1.572  0.00  0.00    -0.070 Cl
ATOM      8 Cl1  UNL d   1       5.277   4.095   3.064  0.00  0.00    -0.070 Cl
ENDROOT
TORSDOF 0
ENDMDL
