MODEL 1
REMARK minimizedAffinity 0.721665442
REMARK minimizedRMSD -1
REMARK  0 active torsions:
REMARK  status: ('A' for Active; 'I' for Inactive)
ROOT
ATOM      1  C   UNL d   1       6.000   0.008   5.999  0.00  0.00     0.020 A 
ATOM      2  C1  UNL d   1       5.631  -1.007   5.117  0.00  0.00     0.020 A 
ATOM      3  C2  UNL d   1       5.252  -0.693   3.811  0.00  0.00     0.034 A 
ATOM      4  C3  UNL d   1       5.241   0.640   3.382  0.00  0.00     0.017 A 
ATOM      5  C4  UNL d   1       5.611   1.658   4.268  0.00  0.00     0.017 A 
ATOM      6  C5  UNL d   1       5.990   1.338   5.575  0.00  0.00     0.034 A 
ATOM      7 Cl   UNL d   1       5.622   3.325   3.812  0.00  0.00    -0.070 Cl
ATOM      8 Cl1  UNL d   1       4.761   0.955   1.752  0.00  0.00    -0.070 Cl
ENDROOT
TORSDOF 0
ENDMDL
