MODEL 1
REMARK minimizedAffinity 5.47244501
REMARK minimizedRMSD -1
REMARK  0 active torsions:
REMARK  status: ('A' for Active; 'I' for Inactive)
ROOT
ATOM      1  C   UNL d   1       5.304   1.547   4.149  0.00  0.00     0.020 A 
ATOM      2  C1  UNL d   1       5.792   1.418   5.448  0.00  0.00     0.020 A 
ATOM      3  C2  UNL d   1       5.999   0.149   5.994  0.00  0.00     0.034 A 
ATOM      4  C3  UNL d   1       5.718  -0.996   5.240  0.00  0.00     0.017 A 
ATOM      5  C4  UNL d   1       5.228  -0.865   3.935  0.00  0.00     0.017 A 
ATOM      6  C5  UNL d   1       5.022   0.408   3.394  0.00  0.00     0.034 A 
ATOM      7 Cl   UNL d   1       4.858  -2.232   2.943  0.00  0.00    -0.070 Cl
ATOM      8 Cl1  UNL d   1       5.999  -2.533   5.977  0.00  0.00    -0.070 Cl
ENDROOT
TORSDOF 0
ENDMDL
