MODEL 1
REMARK minimizedAffinity -1.35762846
REMARK minimizedRMSD -1
REMARK  0 active torsions:
REMARK  status: ('A' for Active; 'I' for Inactive)
ROOT
ATOM      1  C   UNL d   1       5.987   4.020   2.496  0.00  0.00     0.020 A 
ATOM      2  C1  UNL d   1       5.961   4.493   3.808  0.00  0.00     0.020 A 
ATOM      3  C2  UNL d   1       5.947   3.592   4.875  0.00  0.00     0.034 A 
ATOM      4  C3  UNL d   1       5.958   2.214   4.633  0.00  0.00     0.017 A 
ATOM      5  C4  UNL d   1       5.984   1.740   3.316  0.00  0.00     0.017 A 
ATOM      6  C5  UNL d   1       5.998   2.646   2.251  0.00  0.00     0.034 A 
ATOM      7 Cl   UNL d   1       5.999   0.053   2.938  0.00  0.00    -0.070 Cl
ATOM      8 Cl1  UNL d   1       5.940   1.157   6.000  0.00  0.00    -0.070 Cl
ENDROOT
TORSDOF 0
ENDMDL
