MODEL 1
REMARK minimizedAffinity -0.519103885
REMARK minimizedRMSD -1
REMARK  0 active torsions:
REMARK  status: ('A' for Active; 'I' for Inactive)
ROOT
ATOM      1  C   UNL d   1       5.799   0.699   5.758  0.00  0.00     0.020 A 
ATOM      2  C1  UNL d   1       5.326   0.274   4.518  0.00  0.00     0.020 A 
ATOM      3  C2  UNL d   1       5.053   1.209   3.517  0.00  0.00     0.034 A 
ATOM      4  C3  UNL d   1       5.253   2.573   3.755  0.00  0.00     0.017 A 
ATOM      5  C4  UNL d   1       5.728   2.999   5.000  0.00  0.00     0.017 A 
ATOM      6  C5  UNL d   1       5.999   2.059   5.999  0.00  0.00     0.034 A 
ATOM      7 Cl   UNL d   1       5.999   4.666   5.368  0.00  0.00    -0.070 Cl
ATOM      8 Cl1  UNL d   1       4.895   3.674   2.471  0.00  0.00    -0.070 Cl
ENDROOT
TORSDOF 0
ENDMDL
