MODEL 1
REMARK minimizedAffinity 0.379280746
REMARK minimizedRMSD -1
REMARK  0 active torsions:
REMARK  status: ('A' for Active; 'I' for Inactive)
ROOT
ATOM      1  C   UNL d   1       5.995  -0.598   5.985  0.00  0.00     0.020 A 
ATOM      2  C1  UNL d   1       5.994  -1.481   4.906  0.00  0.00     0.020 A 
ATOM      3  C2  UNL d   1       5.994  -0.987   3.600  0.00  0.00     0.034 A 
ATOM      4  C3  UNL d   1       5.995   0.393   3.369  0.00  0.00     0.017 A 
ATOM      5  C4  UNL d   1       5.996   1.279   4.453  0.00  0.00     0.017 A 
ATOM      6  C5  UNL d   1       5.997   0.779   5.759  0.00  0.00     0.034 A 
ATOM      7 Cl   UNL d   1       5.998   2.995   4.247  0.00  0.00    -0.070 Cl
ATOM      8 Cl1  UNL d   1       5.996   0.934   1.728  0.00  0.00    -0.070 Cl
ENDROOT
TORSDOF 0
ENDMDL
