MODEL 1
REMARK minimizedAffinity -0.664669931
REMARK minimizedRMSD -1
REMARK  0 active torsions:
REMARK  status: ('A' for Active; 'I' for Inactive)
ROOT
ATOM      1  C   UNL d   1       5.411   3.950   4.568  0.00  0.00     0.020 A 
ATOM      2  C1  UNL d   1       6.000   3.223   5.602  0.00  0.00     0.020 A 
ATOM      3  C2  UNL d   1       5.997   1.827   5.563  0.00  0.00     0.034 A 
ATOM      4  C3  UNL d   1       5.405   1.154   4.488  0.00  0.00     0.017 A 
ATOM      5  C4  UNL d   1       4.814   1.885   3.451  0.00  0.00     0.017 A 
ATOM      6  C5  UNL d   1       4.820   3.282   3.495  0.00  0.00     0.034 A 
ATOM      7 Cl   UNL d   1       4.064   1.125   2.092  0.00  0.00    -0.070 Cl
ATOM      8 Cl1  UNL d   1       5.439  -0.574   4.505  0.00  0.00    -0.070 Cl
ENDROOT
TORSDOF 0
ENDMDL
