MODEL 1
REMARK minimizedAffinity -0.188526705
REMARK minimizedRMSD -1
REMARK  0 active torsions:
REMARK  status: ('A' for Active; 'I' for Inactive)
ROOT
ATOM      1  C   UNL d   1       5.994  -0.070   6.000  0.00  0.00     0.020 A 
ATOM      2  C1  UNL d   1       5.524  -1.172   5.286  0.00  0.00     0.020 A 
ATOM      3  C2  UNL d   1       5.060  -1.011   3.979  0.00  0.00     0.034 A 
ATOM      4  C3  UNL d   1       5.065   0.254   3.381  0.00  0.00     0.017 A 
ATOM      5  C4  UNL d   1       5.536   1.360   4.099  0.00  0.00     0.017 A 
ATOM      6  C5  UNL d   1       5.999   1.193   5.407  0.00  0.00     0.034 A 
ATOM      7 Cl   UNL d   1       5.572   2.953   3.428  0.00  0.00    -0.070 Cl
ATOM      8 Cl1  UNL d   1       4.477   0.380   1.761  0.00  0.00    -0.070 Cl
ENDROOT
TORSDOF 0
ENDMDL
