MODEL 1
REMARK minimizedAffinity -0.281166345
REMARK minimizedRMSD -1
REMARK  0 active torsions:
REMARK  status: ('A' for Active; 'I' for Inactive)
ROOT
ATOM      1  C   UNL d   1       5.944  -0.387   4.787  0.00  0.00     0.020 A 
ATOM      2  C1  UNL d   1       5.948   0.350   5.971  0.00  0.00     0.020 A 
ATOM      3  C2  UNL d   1       5.965   1.746   5.924  0.00  0.00     0.034 A 
ATOM      4  C3  UNL d   1       5.979   2.408   4.691  0.00  0.00     0.017 A 
ATOM      5  C4  UNL d   1       5.975   1.667   3.504  0.00  0.00     0.017 A 
ATOM      6  C5  UNL d   1       5.958   0.270   3.557  0.00  0.00     0.034 A 
ATOM      7 Cl   UNL d   1       5.991   2.414   1.945  0.00  0.00    -0.070 Cl
ATOM      8 Cl1  UNL d   1       6.000   4.136   4.708  0.00  0.00    -0.070 Cl
ENDROOT
TORSDOF 0
ENDMDL
