MODEL 1
REMARK minimizedAffinity -2.8342948
REMARK minimizedRMSD -1
REMARK  0 active torsions:
REMARK  status: ('A' for Active; 'I' for Inactive)
ROOT
ATOM      1  C   UNL d   1       5.912  -3.201   5.403  0.00  0.00     0.020 A 
ATOM      2  C1  UNL d   1       5.912  -3.321   4.014  0.00  0.00     0.020 A 
ATOM      3  C2  UNL d   1       5.939  -2.176   3.215  0.00  0.00     0.034 A 
ATOM      4  C3  UNL d   1       5.966  -0.906   3.804  0.00  0.00     0.017 A 
ATOM      5  C4  UNL d   1       5.966  -0.788   5.199  0.00  0.00     0.017 A 
ATOM      6  C5  UNL d   1       5.939  -1.937   5.994  0.00  0.00     0.034 A 
ATOM      7 Cl   UNL d   1       5.999   0.744   5.998  0.00  0.00    -0.070 Cl
ATOM      8 Cl1  UNL d   1       5.999   0.466   2.755  0.00  0.00    -0.070 Cl
ENDROOT
TORSDOF 0
ENDMDL
