MODEL 1
REMARK minimizedAffinity 0.038998846
REMARK minimizedRMSD -1
REMARK  0 active torsions:
REMARK  status: ('A' for Active; 'I' for Inactive)
ROOT
ATOM      1  C   UNL d   1       5.998   2.105   5.862  0.00  0.00     0.020 A 
ATOM      2  C1  UNL d   1       5.996   2.817   4.663  0.00  0.00     0.020 A 
ATOM      3  C2  UNL d   1       5.996   2.134   3.445  0.00  0.00     0.034 A 
ATOM      4  C3  UNL d   1       5.997   0.735   3.423  0.00  0.00     0.017 A 
ATOM      5  C4  UNL d   1       5.998   0.021   4.627  0.00  0.00     0.017 A 
ATOM      6  C5  UNL d   1       5.998   0.710   5.843  0.00  0.00     0.034 A 
ATOM      7 Cl   UNL d   1       5.999  -1.707   4.679  0.00  0.00    -0.070 Cl
ATOM      8 Cl1  UNL d   1       5.996  -0.044   1.881  0.00  0.00    -0.070 Cl
ENDROOT
TORSDOF 0
ENDMDL
