MODEL 1
REMARK minimizedAffinity 3.81683326
REMARK minimizedRMSD -1
REMARK  0 active torsions:
REMARK  status: ('A' for Active; 'I' for Inactive)
ROOT
ATOM      1  C   UNL d   1       5.998   5.990   3.056  0.00  0.00     0.020 A 
ATOM      2  C1  UNL d   1       5.998   5.535   1.738  0.00  0.00     0.020 A 
ATOM      3  C2  UNL d   1       5.998   4.165   1.472  0.00  0.00     0.034 A 
ATOM      4  C3  UNL d   1       5.999   3.243   2.525  0.00  0.00     0.017 A 
ATOM      5  C4  UNL d   1       5.999   3.700   3.848  0.00  0.00     0.017 A 
ATOM      6  C5  UNL d   1       5.998   5.074   4.109  0.00  0.00     0.034 A 
ATOM      7 Cl   UNL d   1       6.000   2.624   5.200  0.00  0.00    -0.070 Cl
ATOM      8 Cl1  UNL d   1       6.000   1.563   2.123  0.00  0.00    -0.070 Cl
ENDROOT
TORSDOF 0
ENDMDL
