MODEL 1
REMARK minimizedAffinity 0.114087828
REMARK minimizedRMSD -1
REMARK  0 active torsions:
REMARK  status: ('A' for Active; 'I' for Inactive)
ROOT
ATOM      1  C   UNL d   1       5.935  -0.982   5.998  0.00  0.00     0.020 A 
ATOM      2  C1  UNL d   1       5.935  -1.814   4.880  0.00  0.00     0.020 A 
ATOM      3  C2  UNL d   1       5.954  -1.261   3.598  0.00  0.00     0.034 A 
ATOM      4  C3  UNL d   1       5.975   0.129   3.431  0.00  0.00     0.017 A 
ATOM      5  C4  UNL d   1       5.975   0.964   4.555  0.00  0.00     0.017 A 
ATOM      6  C5  UNL d   1       5.955   0.404   5.836  0.00  0.00     0.034 A 
ATOM      7 Cl   UNL d   1       6.000   2.687   4.429  0.00  0.00    -0.070 Cl
ATOM      8 Cl1  UNL d   1       5.999   0.744   1.817  0.00  0.00    -0.070 Cl
ENDROOT
TORSDOF 0
ENDMDL
