MODEL 1
REMARK minimizedAffinity 4.0964694
REMARK minimizedRMSD -1
REMARK  0 active torsions:
REMARK  status: ('A' for Active; 'I' for Inactive)
ROOT
ATOM      1  C   UNL d   1       5.976   2.012   4.927  0.00  0.00     0.020 A 
ATOM      2  C1  UNL d   1       5.971   2.014   3.532  0.00  0.00     0.020 A 
ATOM      3  C2  UNL d   1       5.975   3.224   2.836  0.00  0.00     0.034 A 
ATOM      4  C3  UNL d   1       5.984   4.437   3.533  0.00  0.00     0.017 A 
ATOM      5  C4  UNL d   1       5.988   4.435   4.933  0.00  0.00     0.017 A 
ATOM      6  C5  UNL d   1       5.984   3.220   5.625  0.00  0.00     0.034 A 
ATOM      7 Cl   UNL d   1       5.999   5.892   5.862  0.00  0.00    -0.070 Cl
ATOM      8 Cl1  UNL d   1       5.989   5.896   2.607  0.00  0.00    -0.070 Cl
ENDROOT
TORSDOF 0
ENDMDL
