MODEL 1
REMARK minimizedAffinity 6.10773277
REMARK minimizedRMSD -1
REMARK  0 active torsions:
REMARK  status: ('A' for Active; 'I' for Inactive)
ROOT
ATOM      1  C   UNL d   1       5.995   1.942   4.217  0.00  0.00     0.020 A 
ATOM      2  C1  UNL d   1       5.997   1.730   2.839  0.00  0.00     0.020 A 
ATOM      3  C2  UNL d   1       5.998   2.819   1.965  0.00  0.00     0.034 A 
ATOM      4  C3  UNL d   1       5.997   4.125   2.468  0.00  0.00     0.017 A 
ATOM      5  C4  UNL d   1       5.995   4.337   3.852  0.00  0.00     0.017 A 
ATOM      6  C5  UNL d   1       5.994   3.242   4.722  0.00  0.00     0.034 A 
ATOM      7 Cl   UNL d   1       5.993   5.919   4.547  0.00  0.00    -0.070 Cl
ATOM      8 Cl1  UNL d   1       5.998   5.425   1.330  0.00  0.00    -0.070 Cl
ENDROOT
TORSDOF 0
ENDMDL
