MODEL 1
REMARK minimizedAffinity -0.71298629
REMARK minimizedRMSD -1
REMARK  0 active torsions:
REMARK  status: ('A' for Active; 'I' for Inactive)
ROOT
ATOM      1  C   UNL d   1       0.243   1.875   1.401  0.00  0.00     0.023 A 
ATOM      2  C1  UNL d   1       0.012   1.843   0.026  0.00  0.00     0.003 A 
ATOM      3  C2  UNL d   1      -0.048   0.620  -0.645  0.00  0.00     0.048 A 
ATOM      4  C3  UNL d   1       0.123  -0.568   0.066  0.00  0.00     0.023 A 
ATOM      5  C4  UNL d   1       0.354  -0.540   1.442  0.00  0.00     0.048 A 
ATOM      6  C5  UNL d   1       0.414   0.685   2.108  0.00  0.00     0.003 A 
ATOM      7  I   UNL d   1       0.034  -2.390  -0.930  0.00  0.00    -0.146 I 
ENDROOT
TORSDOF 0
ENDMDL
