MODEL 1
REMARK minimizedAffinity -3.25042319
REMARK minimizedRMSD -1
REMARK  0 active torsions:
REMARK  status: ('A' for Active; 'I' for Inactive)
ROOT
ATOM      1  C   UNL d   1      -1.148   2.189   1.943  0.00  0.00     0.023 A 
ATOM      2  C1  UNL d   1      -0.417   1.134   2.489  0.00  0.00     0.003 A 
ATOM      3  C2  UNL d   1       0.107   0.141   1.658  0.00  0.00     0.048 A 
ATOM      4  C3  UNL d   1      -0.104   0.210   0.282  0.00  0.00     0.023 A 
ATOM      5  C4  UNL d   1      -0.835   1.263  -0.270  0.00  0.00     0.048 A 
ATOM      6  C5  UNL d   1      -1.357   2.253   0.565  0.00  0.00     0.003 A 
ATOM      7  I   UNL d   1       0.674  -1.267  -0.957  0.00  0.00    -0.146 I 
ENDROOT
TORSDOF 0
ENDMDL
