MODEL 1
REMARK minimizedAffinity -2.31023312
REMARK minimizedRMSD -1
REMARK  0 active torsions:
REMARK  status: ('A' for Active; 'I' for Inactive)
ROOT
ATOM      1  C   UNL d   1       0.595   0.329   0.595  0.00  0.00     0.023 A 
ATOM      2  C1  UNL d   1      -0.379  -0.505   1.144  0.00  0.00     0.003 A 
ATOM      3  C2  UNL d   1      -0.799  -1.643   0.451  0.00  0.00     0.048 A 
ATOM      4  C3  UNL d   1      -0.239  -1.940  -0.791  0.00  0.00     0.023 A 
ATOM      5  C4  UNL d   1       0.736  -1.109  -1.345  0.00  0.00     0.048 A 
ATOM      6  C5  UNL d   1       1.151   0.027  -0.648  0.00  0.00     0.003 A 
ATOM      7  I   UNL d   1      -0.862  -3.632  -1.825  0.00  0.00    -0.146 I 
ENDROOT
TORSDOF 0
ENDMDL
