MODEL 1
REMARK minimizedAffinity 8.84452629
REMARK minimizedRMSD -1
REMARK  1 active torsions:
REMARK  status: ('A' for Active; 'I' for Inactive)
REMARK    1  A    between atoms: C1_2  and  C2_3 
ROOT
ATOM      1  C2  UNL d   1       4.633  -0.186   0.595  0.00  0.00    -0.077 A 
ATOM      2  C3  UNL d   1       3.630  -1.165   0.558  0.00  0.00     0.002 A 
ATOM      3  C4  UNL d   1       2.378  -0.873   0.014  0.00  0.00     0.002 A 
ATOM      4  C5  UNL d   1       2.119   0.395  -0.502  0.00  0.00    -0.004 A 
ATOM      5  C6  UNL d   1       3.110   1.376  -0.468  0.00  0.00     0.002 A 
ATOM      6  C7  UNL d   1       4.361   1.086   0.077  0.00  0.00     0.002 A 
ENDROOT
BRANCH   1   7
ATOM      7  C1  UNL d   1       6.000  -0.514   1.137  0.00  0.00     0.055 C 
ATOM      8  C   UNL d   1       5.998  -1.845   1.875  0.00  0.00     0.019 C 
ENDBRANCH   1   7
TORSDOF 1
ENDMDL
