MODEL 1
REMARK minimizedAffinity 9.4957037
REMARK minimizedRMSD -1
REMARK  1 active torsions:
REMARK  status: ('A' for Active; 'I' for Inactive)
REMARK    1  A    between atoms: C1_2  and  C2_3 
ROOT
ATOM      1  C2  UNL d   1      -5.679   5.228   3.518  0.00  0.00    -0.077 A 
ATOM      2  C3  UNL d   1      -5.981   5.872   4.726  0.00  0.00     0.002 A 
ATOM      3  C4  UNL d   1      -5.803   5.210   5.942  0.00  0.00     0.002 A 
ATOM      4  C5  UNL d   1      -5.318   3.904   5.963  0.00  0.00    -0.004 A 
ATOM      5  C6  UNL d   1      -5.017   3.255   4.766  0.00  0.00     0.002 A 
ATOM      6  C7  UNL d   1      -5.195   3.914   3.549  0.00  0.00     0.002 A 
ENDROOT
BRANCH   1   7
ATOM      7  C1  UNL d   1      -5.823   5.957   2.207  0.00  0.00     0.055 C 
ATOM      8  C   UNL d   1      -5.434   5.069   1.034  0.00  0.00     0.019 C 
ENDBRANCH   1   7
TORSDOF 1
ENDMDL
