MODEL 1
REMARK minimizedAffinity 8.9092598
REMARK minimizedRMSD -1
REMARK  1 active torsions:
REMARK  status: ('A' for Active; 'I' for Inactive)
REMARK    1  A    between atoms: C1_2  and  C2_3 
ROOT
ATOM      1  C2  UNL d   1       3.243   1.459   0.875  0.00  0.00    -0.077 A 
ATOM      2  C3  UNL d   1       3.766   0.161   0.957  0.00  0.00     0.002 A 
ATOM      3  C4  UNL d   1       3.292  -0.846   0.113  0.00  0.00     0.002 A 
ATOM      4  C5  UNL d   1       2.297  -0.564  -0.820  0.00  0.00    -0.004 A 
ATOM      5  C6  UNL d   1       1.769   0.724  -0.908  0.00  0.00     0.002 A 
ATOM      6  C7  UNL d   1       2.240   1.731  -0.065  0.00  0.00     0.002 A 
ENDROOT
BRANCH   1   7
ATOM      7  C1  UNL d   1       3.787   2.558   1.750  0.00  0.00     0.055 C 
ATOM      8  C   UNL d   1       2.923   2.760   2.987  0.00  0.00     0.019 C 
ENDBRANCH   1   7
TORSDOF 1
ENDMDL
