MODEL 1
REMARK minimizedAffinity 8.11733723
REMARK minimizedRMSD -1
REMARK  1 active torsions:
REMARK  status: ('A' for Active; 'I' for Inactive)
REMARK    1  A    between atoms: C1_2  and  C2_3 
ROOT
ATOM      1  C2  UNL d   1      -5.966   4.775   2.842  0.00  0.00    -0.077 A 
ATOM      2  C3  UNL d   1      -5.963   5.944   3.616  0.00  0.00     0.002 A 
ATOM      3  C4  UNL d   1      -5.979   5.869   5.010  0.00  0.00     0.002 A 
ATOM      4  C5  UNL d   1      -5.992   4.627   5.642  0.00  0.00    -0.004 A 
ATOM      5  C6  UNL d   1      -5.997   3.459   4.881  0.00  0.00     0.002 A 
ATOM      6  C7  UNL d   1      -5.983   3.532   3.488  0.00  0.00     0.002 A 
ENDROOT
BRANCH   1   7
ATOM      7  C1  UNL d   1      -5.900   4.854   1.339  0.00  0.00     0.055 C 
ATOM      8  C   UNL d   1      -5.745   3.473   0.719  0.00  0.00     0.019 C 
ENDBRANCH   1   7
TORSDOF 1
ENDMDL
