MODEL 1
REMARK minimizedAffinity 9.18464184
REMARK minimizedRMSD -1
REMARK  1 active torsions:
REMARK  status: ('A' for Active; 'I' for Inactive)
REMARK    1  A    between atoms: C1_2  and  C2_3 
ROOT
ATOM      1  C2  UNL d   1      -5.022   4.334   3.619  0.00  0.00    -0.077 A 
ATOM      2  C3  UNL d   1      -5.999   4.427   4.619  0.00  0.00     0.002 A 
ATOM      3  C4  UNL d   1      -5.732   5.114   5.805  0.00  0.00     0.002 A 
ATOM      4  C5  UNL d   1      -4.491   5.716   6.000  0.00  0.00    -0.004 A 
ATOM      5  C6  UNL d   1      -3.511   5.627   5.012  0.00  0.00     0.002 A 
ATOM      6  C7  UNL d   1      -3.776   4.940   3.826  0.00  0.00     0.002 A 
ENDROOT
BRANCH   1   7
ATOM      7  C1  UNL d   1      -5.324   3.636   2.319  0.00  0.00     0.055 C 
ATOM      8  C   UNL d   1      -4.077   2.988   1.735  0.00  0.00     0.019 C 
ENDBRANCH   1   7
TORSDOF 1
ENDMDL
