MODEL 1
REMARK minimizedAffinity 1.04653347
REMARK minimizedRMSD -1
REMARK  1 active torsions:
REMARK  status: ('A' for Active; 'I' for Inactive)
REMARK    1  A    between atoms: C1_2  and  C2_3 
ROOT
ATOM      1  C2  UNL d   1      -5.824   4.176   3.012  0.00  0.00    -0.077 A 
ATOM      2  C3  UNL d   1      -5.819   5.550   3.294  0.00  0.00     0.002 A 
ATOM      3  C4  UNL d   1      -5.905   6.000   4.613  0.00  0.00     0.002 A 
ATOM      4  C5  UNL d   1      -5.992   5.084   5.659  0.00  0.00    -0.004 A 
ATOM      5  C6  UNL d   1      -6.000   3.716   5.389  0.00  0.00     0.002 A 
ATOM      6  C7  UNL d   1      -5.916   3.264   4.071  0.00  0.00     0.002 A 
ENDROOT
BRANCH   1   7
ATOM      7  C1  UNL d   1      -5.683   3.688   1.594  0.00  0.00     0.055 C 
ATOM      8  C   UNL d   1      -5.257   2.228   1.551  0.00  0.00     0.019 C 
ENDBRANCH   1   7
TORSDOF 1
ENDMDL
