MODEL 1
REMARK minimizedAffinity 4.61441326
REMARK minimizedRMSD -1
REMARK  0 active torsions:
REMARK  status: ('A' for Active; 'I' for Inactive)
ROOT
ATOM      1  O1  BZF d   1      -1.256   1.270  -0.870  0.00  0.00    -0.204 OA
ATOM      2  C2  BZF d   1      -1.366   0.630  -2.090  0.00  0.00     0.174 A 
ATOM      3  C3  BZF d   1      -0.686  -0.535  -2.081  0.00  0.00    -0.012 A 
ATOM      4  C3A BZF d   1      -0.193  -0.673  -0.745  0.00  0.00    -0.107 A 
ATOM      5  C4  BZF d   1       0.543  -1.632  -0.111  0.00  0.00     0.055 A 
ATOM      6  C5  BZF d   1       0.920  -1.431   1.179  0.00  0.00    -0.016 A 
ATOM      7  C6  BZF d   1       0.584  -0.280   1.862  0.00  0.00     0.022 A 
ATOM      8  C7  BZF d   1      -0.150   0.697   1.277  0.00  0.00     0.029 A 
ATOM      9  C7A BZF d   1      -0.560   0.482  -0.016  0.00  0.00     0.058 A 
ENDROOT
TORSDOF 0
ENDMDL
