MODEL 1
REMARK minimizedAffinity -3.86968255
REMARK minimizedRMSD -1
REMARK  0 active torsions:
REMARK  status: ('A' for Active; 'I' for Inactive)
ROOT
ATOM      1  O1  BZF d   1      -6.000  -3.954   4.238  0.00  0.00    -0.204 OA
ATOM      2  C2  BZF d   1      -5.829  -3.890   5.607  0.00  0.00     0.174 A 
ATOM      3  C3  BZF d   1      -5.580  -2.624   6.000  0.00  0.00    -0.012 A 
ATOM      4  C3A BZF d   1      -5.687  -1.834   4.812  0.00  0.00    -0.107 A 
ATOM      5  C4  BZF d   1      -5.561  -0.498   4.558  0.00  0.00     0.055 A 
ATOM      6  C5  BZF d   1      -5.652  -0.057   3.276  0.00  0.00    -0.016 A 
ATOM      7  C6  BZF d   1      -5.863  -0.924   2.224  0.00  0.00     0.022 A 
ATOM      8  C7  BZF d   1      -5.999  -2.257   2.426  0.00  0.00     0.029 A 
ATOM      9  C7A BZF d   1      -5.941  -2.702   3.724  0.00  0.00     0.058 A 
ENDROOT
TORSDOF 0
ENDMDL
