MODEL 1
REMARK minimizedAffinity -0.26289171
REMARK minimizedRMSD -1
REMARK  0 active torsions:
REMARK  status: ('A' for Active; 'I' for Inactive)
ROOT
ATOM      1  O1  BZF d   1       0.292  -1.030  -0.072  0.00  0.00    -0.204 OA
ATOM      2  C2  BZF d   1       0.197  -0.587  -1.377  0.00  0.00     0.174 A 
ATOM      3  C3  BZF d   1       0.261   0.759  -1.431  0.00  0.00    -0.012 A 
ATOM      4  C3A BZF d   1       0.497   1.179  -0.083  0.00  0.00    -0.107 A 
ATOM      5  C4  BZF d   1       0.671   2.400   0.503  0.00  0.00     0.055 A 
ATOM      6  C5  BZF d   1       0.808   2.471   1.853  0.00  0.00    -0.016 A 
ATOM      7  C6  BZF d   1       0.772   1.343   2.647  0.00  0.00     0.022 A 
ATOM      8  C7  BZF d   1       0.607   0.109   2.110  0.00  0.00     0.029 A 
ATOM      9  C7A BZF d   1       0.501   0.031   0.743  0.00  0.00     0.058 A 
ENDROOT
TORSDOF 0
ENDMDL
