MODEL 1
REMARK minimizedAffinity 0.782663763
REMARK minimizedRMSD -1
REMARK  0 active torsions:
REMARK  status: ('A' for Active; 'I' for Inactive)
ROOT
ATOM      1  O1  BZF d   1       0.435  -0.280   0.775  0.00  0.00    -0.204 OA
ATOM      2  C2  BZF d   1       0.650  -0.628   2.094  0.00  0.00     0.174 A 
ATOM      3  C3  BZF d   1       0.952   0.459   2.833  0.00  0.00    -0.012 A 
ATOM      4  C3A BZF d   1       0.832   1.568   1.936  0.00  0.00    -0.107 A 
ATOM      5  C4  BZF d   1       0.991   2.916   2.084  0.00  0.00     0.055 A 
ATOM      6  C5  BZF d   1       0.872   3.719   0.994  0.00  0.00    -0.016 A 
ATOM      7  C6  BZF d   1       0.600   3.207  -0.258  0.00  0.00     0.022 A 
ATOM      8  C7  BZF d   1       0.429   1.877  -0.453  0.00  0.00     0.029 A 
ATOM      9  C7A BZF d   1       0.516   1.067   0.653  0.00  0.00     0.058 A 
ENDROOT
TORSDOF 0
ENDMDL
