MODEL 1
REMARK minimizedAffinity -1.20070589
REMARK minimizedRMSD -1
REMARK  0 active torsions:
REMARK  status: ('A' for Active; 'I' for Inactive)
ROOT
ATOM      1  O1  BZF d   1       2.032   5.904   1.080  0.00  0.00    -0.204 OA
ATOM      2  C2  BZF d   1       1.089   5.659   0.101  0.00  0.00     0.174 A 
ATOM      3  C3  BZF d   1       0.572   4.420   0.233  0.00  0.00    -0.012 A 
ATOM      4  C3A BZF d   1       1.167   3.890   1.422  0.00  0.00    -0.107 A 
ATOM      5  C4  BZF d   1       1.040   2.704   2.086  0.00  0.00     0.055 A 
ATOM      6  C5  BZF d   1       1.816   2.471   3.177  0.00  0.00    -0.016 A 
ATOM      7  C6  BZF d   1       2.733   3.399   3.627  0.00  0.00     0.022 A 
ATOM      8  C7  BZF d   1       2.891   4.592   3.004  0.00  0.00     0.029 A 
ATOM      9  C7A BZF d   1       2.084   4.843   1.921  0.00  0.00     0.058 A 
ENDROOT
TORSDOF 0
ENDMDL
