MODEL 1
REMARK minimizedAffinity -0.195851728
REMARK minimizedRMSD -1
REMARK  0 active torsions:
REMARK  status: ('A' for Active; 'I' for Inactive)
ROOT
ATOM      1  O1  BZF d   1      -0.644   0.767  -0.993  0.00  0.00    -0.204 OA
ATOM      2  C2  BZF d   1      -0.013  -0.275  -1.644  0.00  0.00     0.174 A 
ATOM      3  C3  BZF d   1       0.920  -0.840  -0.851  0.00  0.00    -0.012 A 
ATOM      4  C3A BZF d   1       0.804  -0.166   0.405  0.00  0.00    -0.107 A 
ATOM      5  C4  BZF d   1       1.451  -0.292   1.602  0.00  0.00     0.055 A 
ATOM      6  C5  BZF d   1       1.151   0.570   2.609  0.00  0.00    -0.016 A 
ATOM      7  C6  BZF d   1       0.215   1.571   2.453  0.00  0.00     0.022 A 
ATOM      8  C7  BZF d   1      -0.456   1.732   1.286  0.00  0.00     0.029 A 
ATOM      9  C7A BZF d   1      -0.179   0.842   0.277  0.00  0.00     0.058 A 
ENDROOT
TORSDOF 0
ENDMDL
