MODEL 1
REMARK minimizedAffinity -3.35230255
REMARK minimizedRMSD -1
REMARK  0 active torsions:
REMARK  status: ('A' for Active; 'I' for Inactive)
ROOT
ATOM      1  O1  BZF d   1       0.904   1.563   2.656  0.00  0.00    -0.204 OA
ATOM      2  C2  BZF d   1       0.011   0.946   1.801  0.00  0.00     0.174 A 
ATOM      3  C3  BZF d   1      -0.264   1.738   0.744  0.00  0.00    -0.012 A 
ATOM      4  C3A BZF d   1       0.575   2.885   0.905  0.00  0.00    -0.107 A 
ATOM      5  C4  BZF d   1       0.768   4.018   0.167  0.00  0.00     0.055 A 
ATOM      6  C5  BZF d   1       1.607   4.978   0.639  0.00  0.00    -0.016 A 
ATOM      7  C6  BZF d   1       2.263   4.841   1.844  0.00  0.00     0.022 A 
ATOM      8  C7  BZF d   1       2.107   3.733   2.609  0.00  0.00     0.029 A 
ATOM      9  C7A BZF d   1       1.286   2.746   2.120  0.00  0.00     0.058 A 
ENDROOT
TORSDOF 0
ENDMDL
