MODEL 1
REMARK minimizedAffinity -3.04931951
REMARK minimizedRMSD -1
REMARK  0 active torsions:
REMARK  status: ('A' for Active; 'I' for Inactive)
ROOT
ATOM      1  O1  BZF d   1       2.448   3.990   1.013  0.00  0.00    -0.204 OA
ATOM      2  C2  BZF d   1       1.905   4.533  -0.135  0.00  0.00     0.174 A 
ATOM      3  C3  BZF d   1       0.749   3.918  -0.456  0.00  0.00    -0.012 A 
ATOM      4  C3A BZF d   1       0.510   2.989   0.606  0.00  0.00    -0.107 A 
ATOM      5  C4  BZF d   1      -0.491   2.097   0.865  0.00  0.00     0.055 A 
ATOM      6  C5  BZF d   1      -0.388   1.287   1.952  0.00  0.00    -0.016 A 
ATOM      7  C6  BZF d   1       0.702   1.339   2.796  0.00  0.00     0.022 A 
ATOM      8  C7  BZF d   1       1.717   2.212   2.583  0.00  0.00     0.029 A 
ATOM      9  C7A BZF d   1       1.600   3.054   1.504  0.00  0.00     0.058 A 
ENDROOT
TORSDOF 0
ENDMDL
