MODEL 1
REMARK minimizedAffinity 2.45148158
REMARK minimizedRMSD -1
REMARK  0 active torsions:
REMARK  status: ('A' for Active; 'I' for Inactive)
ROOT
ATOM      1  O1  BZF d   1       0.462   3.095   0.597  0.00  0.00    -0.204 OA
ATOM      2  C2  BZF d   1       0.393   2.909  -0.770  0.00  0.00     0.174 A 
ATOM      3  C3  BZF d   1       0.584   1.612  -1.087  0.00  0.00    -0.012 A 
ATOM      4  C3A BZF d   1       0.693   0.931   0.167  0.00  0.00    -0.107 A 
ATOM      5  C4  BZF d   1       0.875  -0.378   0.511  0.00  0.00     0.055 A 
ATOM      6  C5  BZF d   1       1.013  -0.702   1.824  0.00  0.00    -0.016 A 
ATOM      7  C6  BZF d   1       0.978   0.255   2.816  0.00  0.00     0.022 A 
ATOM      8  C7  BZF d   1       0.794   1.566   2.523  0.00  0.00     0.029 A 
ATOM      9  C7A BZF d   1       0.622   1.893   1.201  0.00  0.00     0.058 A 
ENDROOT
TORSDOF 0
ENDMDL
