MODEL 1
REMARK minimizedAffinity -4.73295593
REMARK minimizedRMSD -1
REMARK  1 active torsions:
REMARK  status: ('A' for Active; 'I' for Inactive)
REMARK    1  A    between atoms: C1_2  and  C2_3 
ROOT
ATOM      1  C2  UNL d   1       1.061  -1.205   1.727  0.00  0.00    -0.073 A 
ATOM      2  C3  UNL d   1       0.126  -1.044   2.756  0.00  0.00    -0.002 A 
ATOM      3  C4  UNL d   1      -1.095  -0.415   2.508  0.00  0.00     0.004 A 
ATOM      4  C5  UNL d   1      -1.396   0.053   1.230  0.00  0.00    -0.004 A 
ATOM      5  C6  UNL d   1      -0.480  -0.109   0.185  0.00  0.00    -0.075 A 
ATOM      6  C7  UNL d   1      -0.788   0.391  -1.196  0.00  0.00     0.076 C 
ATOM      7  C8  UNL d   1       0.745  -0.739   0.443  0.00  0.00     0.001 A 
ENDROOT
BRANCH   1   8
ATOM      8  C1  UNL d   1       2.377  -1.889   1.989  0.00  0.00     0.053 C 
ATOM      9  C   UNL d   1       3.097  -2.253   0.699  0.00  0.00     0.018 C 
ENDBRANCH   1   8
TORSDOF 1
ENDMDL
