MODEL 1
REMARK minimizedAffinity -4.80597687
REMARK minimizedRMSD -1
REMARK  1 active torsions:
REMARK  status: ('A' for Active; 'I' for Inactive)
REMARK    1  A    between atoms: C1_2  and  C2_3 
ROOT
ATOM      1  C2  UNL d   1      -0.503   0.065  -0.004  0.00  0.00    -0.073 A 
ATOM      2  C3  UNL d   1      -1.775   0.108   0.579  0.00  0.00    -0.002 A 
ATOM      3  C4  UNL d   1      -1.921  -0.010   1.962  0.00  0.00     0.004 A 
ATOM      4  C5  UNL d   1      -0.799  -0.165   2.775  0.00  0.00    -0.004 A 
ATOM      5  C6  UNL d   1       0.481  -0.199   2.213  0.00  0.00    -0.075 A 
ATOM      6  C7  UNL d   1       1.698  -0.367   3.075  0.00  0.00     0.076 C 
ATOM      7  C8  UNL d   1       0.619  -0.082   0.823  0.00  0.00     0.001 A 
ENDROOT
BRANCH   1   8
ATOM      8  C1  UNL d   1      -0.340   0.198  -1.496  0.00  0.00     0.053 C 
ATOM      9  C   UNL d   1      -1.092   1.400  -2.046  0.00  0.00     0.018 C 
ENDBRANCH   1   8
TORSDOF 1
ENDMDL
