MODEL 1
REMARK minimizedAffinity -4.23644829
REMARK minimizedRMSD -1
REMARK  1 active torsions:
REMARK  status: ('A' for Active; 'I' for Inactive)
REMARK    1  A    between atoms: C1_2  and  C2_3 
ROOT
ATOM      1  C2  UNL d   1      -0.003   0.276   0.226  0.00  0.00    -0.073 A 
ATOM      2  C3  UNL d   1       0.933  -0.504   0.914  0.00  0.00    -0.002 A 
ATOM      3  C4  UNL d   1       0.594  -1.104   2.128  0.00  0.00     0.004 A 
ATOM      4  C5  UNL d   1      -0.684  -0.937   2.661  0.00  0.00    -0.004 A 
ATOM      5  C6  UNL d   1      -1.637  -0.171   1.983  0.00  0.00    -0.075 A 
ATOM      6  C7  UNL d   1      -3.015   0.021   2.544  0.00  0.00     0.076 C 
ATOM      7  C8  UNL d   1      -1.288   0.431   0.766  0.00  0.00     0.001 A 
ENDROOT
BRANCH   1   8
ATOM      8  C1  UNL d   1       0.356   0.921  -1.088  0.00  0.00     0.053 C 
ATOM      9  C   UNL d   1      -0.716   1.891  -1.558  0.00  0.00     0.018 C 
ENDBRANCH   1   8
TORSDOF 1
ENDMDL
