MODEL 1
REMARK minimizedAffinity -0.825565994
REMARK minimizedRMSD -1
REMARK  0 active torsions:
REMARK  status: ('A' for Active; 'I' for Inactive)
ROOT
ATOM      1  C4' PXY d   1       4.637  -0.723  -4.924  0.00  0.00     0.077 C 
ATOM      2  C1' PXY d   1      -1.142  -0.620  -4.994  0.00  0.00     0.077 C 
ATOM      3  C1  PXY d   1       0.374  -0.648  -4.962  0.00  0.00    -0.082 A 
ATOM      4  C2  PXY d   1       1.058  -0.181  -5.995  0.00  0.00     0.003 A 
ATOM      5  C3  PXY d   1       2.428  -0.227  -5.997  0.00  0.00     0.003 A 
ATOM      6  C4  PXY d   1       3.106  -0.707  -4.908  0.00  0.00    -0.082 A 
ATOM      7  C5  PXY d   1       2.416  -1.175  -3.847  0.00  0.00     0.003 A 
ATOM      8  C6  PXY d   1       1.025  -1.157  -3.882  0.00  0.00     0.003 A 
ENDROOT
TORSDOF 0
ENDMDL
