MODEL 1
REMARK minimizedAffinity 2.7065382
REMARK minimizedRMSD -1
REMARK  0 active torsions:
REMARK  status: ('A' for Active; 'I' for Inactive)
ROOT
ATOM      1  C4' PXY d   1      -1.062  -0.962  -4.854  0.00  0.00     0.077 C 
ATOM      2  C1' PXY d   1       4.712  -0.864  -5.109  0.00  0.00     0.077 C 
ATOM      3  C1  PXY d   1       3.198  -0.900  -5.035  0.00  0.00    -0.082 A 
ATOM      4  C2  PXY d   1       2.483  -0.328  -5.989  0.00  0.00     0.003 A 
ATOM      5  C3  PXY d   1       1.113  -0.324  -5.921  0.00  0.00     0.003 A 
ATOM      6  C4  PXY d   1       0.469  -0.958  -4.893  0.00  0.00    -0.082 A 
ATOM      7  C5  PXY d   1       1.192  -1.553  -3.921  0.00  0.00     0.003 A 
ATOM      8  C6  PXY d   1       2.581  -1.511  -3.987  0.00  0.00     0.003 A 
ENDROOT
TORSDOF 0
ENDMDL
