MODEL 1
REMARK minimizedAffinity 5.33265114
REMARK minimizedRMSD -1
REMARK  0 active torsions:
REMARK  status: ('A' for Active; 'I' for Inactive)
ROOT
ATOM      1  C4' PXY d   1       4.247  -0.716  -5.339  0.00  0.00     0.077 C 
ATOM      2  C1' PXY d   1      -1.479  -0.861  -4.563  0.00  0.00     0.077 C 
ATOM      3  C1  PXY d   1       0.024  -0.825  -4.754  0.00  0.00    -0.082 A 
ATOM      4  C2  PXY d   1       0.537  -0.176  -5.787  0.00  0.00     0.003 A 
ATOM      5  C3  PXY d   1       1.893  -0.161  -5.992  0.00  0.00     0.003 A 
ATOM      6  C4  PXY d   1       2.735  -0.771  -5.102  0.00  0.00    -0.082 A 
ATOM      7  C5  PXY d   1       2.220  -1.425  -4.040  0.00  0.00     0.003 A 
ATOM      8  C6  PXY d   1       0.839  -1.464  -3.872  0.00  0.00     0.003 A 
ENDROOT
TORSDOF 0
ENDMDL
