MODEL 1
REMARK minimizedAffinity 10.8425436
REMARK minimizedRMSD -1
REMARK  0 active torsions:
REMARK  status: ('A' for Active; 'I' for Inactive)
ROOT
ATOM      1  C4' PXY d   1      -1.893  -1.850   2.656  0.00  0.00     0.077 C 
ATOM      2  C1' PXY d   1       3.464  -0.675   4.483  0.00  0.00     0.077 C 
ATOM      3  C1  PXY d   1       2.064  -0.986   3.992  0.00  0.00    -0.082 A 
ATOM      4  C2  PXY d   1       1.022  -0.429   4.589  0.00  0.00     0.003 A 
ATOM      5  C3  PXY d   1      -0.252  -0.725   4.178  0.00  0.00     0.003 A 
ATOM      6  C4  PXY d   1      -0.461  -1.557   3.112  0.00  0.00    -0.082 A 
ATOM      7  C5  PXY d   1       0.597  -2.121   2.491  0.00  0.00     0.003 A 
ATOM      8  C6  PXY d   1       1.881  -1.841   2.949  0.00  0.00     0.003 A 
ENDROOT
TORSDOF 0
ENDMDL
