MODEL 1
REMARK minimizedAffinity 4.80086899
REMARK minimizedRMSD -1
REMARK  0 active torsions:
REMARK  status: ('A' for Active; 'I' for Inactive)
ROOT
ATOM      1  C4' PXY d   1       4.281  -0.682  -4.954  0.00  0.00     0.077 C 
ATOM      2  C1' PXY d   1      -1.494  -0.907  -4.869  0.00  0.00     0.077 C 
ATOM      3  C1  PXY d   1       0.021  -0.847  -4.878  0.00  0.00    -0.082 A 
ATOM      4  C2  PXY d   1       0.652  -0.428  -5.963  0.00  0.00     0.003 A 
ATOM      5  C3  PXY d   1       2.023  -0.398  -6.000  0.00  0.00     0.003 A 
ATOM      6  C4  PXY d   1       2.753  -0.750  -4.896  0.00  0.00    -0.082 A 
ATOM      7  C5  PXY d   1       2.116  -1.168  -3.782  0.00  0.00     0.003 A 
ATOM      8  C6  PXY d   1       0.725  -1.230  -3.779  0.00  0.00     0.003 A 
ENDROOT
TORSDOF 0
ENDMDL
