MODEL 1
REMARK minimizedAffinity -0.610819042
REMARK minimizedRMSD -1
REMARK  0 active torsions:
REMARK  status: ('A' for Active; 'I' for Inactive)
ROOT
ATOM      1  C4' PXY d   1      -1.426  -0.765  -4.877  0.00  0.00     0.077 C 
ATOM      2  C1' PXY d   1       4.340  -0.854  -5.276  0.00  0.00     0.077 C 
ATOM      3  C1  PXY d   1       2.828  -0.843  -5.166  0.00  0.00    -0.082 A 
ATOM      4  C2  PXY d   1       2.117  -0.101  -6.000  0.00  0.00     0.003 A 
ATOM      5  C3  PXY d   1       0.751  -0.053  -5.893  0.00  0.00     0.003 A 
ATOM      6  C4  PXY d   1       0.102  -0.815  -4.958  0.00  0.00    -0.082 A 
ATOM      7  C5  PXY d   1       0.819  -1.582  -4.111  0.00  0.00     0.003 A 
ATOM      8  C6  PXY d   1       2.208  -1.585  -4.209  0.00  0.00     0.003 A 
ENDROOT
TORSDOF 0
ENDMDL
