MODEL 1
REMARK minimizedAffinity 8.77700806
REMARK minimizedRMSD -1
REMARK  0 active torsions:
REMARK  status: ('A' for Active; 'I' for Inactive)
ROOT
ATOM      1  C4' PXY d   1       3.860   0.119  -6.000  0.00  0.00     0.077 C 
ATOM      2  C1' PXY d   1      -1.882  -0.310  -5.487  0.00  0.00     0.077 C 
ATOM      3  C1  PXY d   1      -0.377  -0.185  -5.625  0.00  0.00    -0.082 A 
ATOM      4  C2  PXY d   1       0.346  -1.257  -5.904  0.00  0.00     0.003 A 
ATOM      5  C3  PXY d   1       1.711  -1.168  -6.000  0.00  0.00     0.003 A 
ATOM      6  C4  PXY d   1       2.337   0.042  -5.861  0.00  0.00    -0.082 A 
ATOM      7  C5  PXY d   1       1.606   1.142  -5.587  0.00  0.00     0.003 A 
ATOM      8  C6  PXY d   1       0.225   1.023  -5.452  0.00  0.00     0.003 A 
ENDROOT
TORSDOF 0
ENDMDL
