MODEL 1
REMARK minimizedAffinity 10.1119642
REMARK minimizedRMSD -1
REMARK  0 active torsions:
REMARK  status: ('A' for Active; 'I' for Inactive)
ROOT
ATOM      1  C4' PXY d   1       4.502  -0.593  -5.218  0.00  0.00     0.077 C 
ATOM      2  C1' PXY d   1      -1.234  -1.216  -4.873  0.00  0.00     0.077 C 
ATOM      3  C1  PXY d   1       0.271  -1.055  -4.951  0.00  0.00    -0.082 A 
ATOM      4  C2  PXY d   1       0.800  -0.294  -5.896  0.00  0.00     0.003 A 
ATOM      5  C3  PXY d   1       2.161  -0.164  -6.000  0.00  0.00     0.003 A 
ATOM      6  C4  PXY d   1       2.987  -0.776  -5.096  0.00  0.00    -0.082 A 
ATOM      7  C5  PXY d   1       2.454  -1.545  -4.123  0.00  0.00     0.003 A 
ATOM      8  C6  PXY d   1       1.072  -1.698  -4.059  0.00  0.00     0.003 A 
ENDROOT
TORSDOF 0
ENDMDL
