MODEL 1
REMARK minimizedAffinity 3.68657327
REMARK minimizedRMSD -1
REMARK  0 active torsions:
REMARK  status: ('A' for Active; 'I' for Inactive)
ROOT
ATOM      1  C4' PXY d   1      -2.757  -1.576   1.959  0.00  0.00     0.077 C 
ATOM      2  C1' PXY d   1       2.592  -1.760   4.143  0.00  0.00     0.077 C 
ATOM      3  C1  PXY d   1       1.189  -1.725   3.568  0.00  0.00    -0.082 A 
ATOM      4  C2  PXY d   1       0.724  -0.601   3.048  0.00  0.00     0.003 A 
ATOM      5  C3  PXY d   1      -0.554  -0.543   2.553  0.00  0.00     0.003 A 
ATOM      6  C4  PXY d   1      -1.344  -1.661   2.542  0.00  0.00    -0.082 A 
ATOM      7  C5  PXY d   1      -0.872  -2.814   3.062  0.00  0.00     0.003 A 
ATOM      8  C6  PXY d   1       0.412  -2.841   3.597  0.00  0.00     0.003 A 
ENDROOT
TORSDOF 0
ENDMDL
