MODEL 1
REMARK minimizedAffinity -4.58009768
REMARK minimizedRMSD -1
REMARK  0 active torsions:
REMARK  status: ('A' for Active; 'I' for Inactive)
ROOT
ATOM      1  C   UNL d   1      -0.365   0.016  -0.737  0.00  0.00     0.078 C 
ATOM      2  C1  UNL d   1       0.096  -0.187   0.676  0.00  0.00    -0.077 A 
ATOM      3  C2  UNL d   1      -0.784  -0.646   1.663  0.00  0.00    -0.001 A 
ATOM      4  C3  UNL d   1      -0.344  -0.821   2.976  0.00  0.00     0.003 A 
ATOM      5  C4  UNL d   1       0.978  -0.537   3.314  0.00  0.00    -0.005 A 
ATOM      6  C5  UNL d   1       1.860  -0.077   2.339  0.00  0.00     0.003 A 
ATOM      7  C6  UNL d   1       1.422   0.098   1.026  0.00  0.00    -0.001 A 
ENDROOT
TORSDOF 0
ENDMDL
