MODEL 1
REMARK minimizedAffinity -4.93465567
REMARK minimizedRMSD -1
REMARK  0 active torsions:
REMARK  status: ('A' for Active; 'I' for Inactive)
ROOT
ATOM      1  C   UNL d   1       1.119  -0.736   2.929  0.00  0.00     0.078 C 
ATOM      2  C1  UNL d   1       0.565  -0.407   1.575  0.00  0.00    -0.077 A 
ATOM      3  C2  UNL d   1       1.387  -0.401   0.442  0.00  0.00    -0.001 A 
ATOM      4  C3  UNL d   1       0.859  -0.084  -0.811  0.00  0.00     0.003 A 
ATOM      5  C4  UNL d   1      -0.492   0.231  -0.942  0.00  0.00    -0.005 A 
ATOM      6  C5  UNL d   1      -1.317   0.229   0.181  0.00  0.00     0.003 A 
ATOM      7  C6  UNL d   1      -0.791  -0.088   1.434  0.00  0.00    -0.001 A 
ENDROOT
TORSDOF 0
ENDMDL
