MODEL 1
REMARK minimizedAffinity -4.47024107
REMARK minimizedRMSD -1
REMARK  0 active torsions:
REMARK  status: ('A' for Active; 'I' for Inactive)
ROOT
ATOM      1  C   UNL d   1      -0.559   0.095  -0.935  0.00  0.00     0.078 C 
ATOM      2  C1  UNL d   1       0.036  -0.316   0.379  0.00  0.00    -0.077 A 
ATOM      3  C2  UNL d   1      -0.775  -0.753   1.433  0.00  0.00    -0.001 A 
ATOM      4  C3  UNL d   1      -0.209  -1.124   2.653  0.00  0.00     0.003 A 
ATOM      5  C4  UNL d   1       1.172  -1.060   2.832  0.00  0.00    -0.005 A 
ATOM      6  C5  UNL d   1       1.987  -0.625   1.789  0.00  0.00     0.003 A 
ATOM      7  C6  UNL d   1       1.422  -0.254   0.568  0.00  0.00    -0.001 A 
ENDROOT
TORSDOF 0
ENDMDL
