MODEL 1
REMARK minimizedAffinity -3.38547969
REMARK minimizedRMSD -1
REMARK  0 active torsions:
REMARK  status: ('A' for Active; 'I' for Inactive)
ROOT
ATOM      1  C   UNL d   1       2.448  -0.902  -0.857  0.00  0.00     0.078 C 
ATOM      2  C1  UNL d   1       1.291  -0.569   0.037  0.00  0.00    -0.077 A 
ATOM      3  C2  UNL d   1       1.480  -0.332   1.404  0.00  0.00    -0.001 A 
ATOM      4  C3  UNL d   1       0.392  -0.032   2.225  0.00  0.00     0.003 A 
ATOM      5  C4  UNL d   1      -0.893   0.032   1.689  0.00  0.00    -0.005 A 
ATOM      6  C5  UNL d   1      -1.091  -0.204   0.331  0.00  0.00     0.003 A 
ATOM      7  C6  UNL d   1      -0.004  -0.504  -0.492  0.00  0.00    -0.001 A 
ENDROOT
TORSDOF 0
ENDMDL
