MODEL 1
REMARK minimizedAffinity -4.32158995
REMARK minimizedRMSD -1
REMARK  0 active torsions:
REMARK  status: ('A' for Active; 'I' for Inactive)
ROOT
ATOM      1  C   UNL d   1       1.576  -0.484   3.067  0.00  0.00     0.078 C 
ATOM      2  C1  UNL d   1       0.762  -0.238   1.832  0.00  0.00    -0.077 A 
ATOM      3  C2  UNL d   1       1.374  -0.102   0.580  0.00  0.00    -0.001 A 
ATOM      4  C3  UNL d   1       0.604   0.136  -0.560  0.00  0.00     0.003 A 
ATOM      5  C4  UNL d   1      -0.781   0.242  -0.459  0.00  0.00    -0.005 A 
ATOM      6  C5  UNL d   1      -1.399   0.109   0.783  0.00  0.00     0.003 A 
ATOM      7  C6  UNL d   1      -0.631  -0.129   1.924  0.00  0.00    -0.001 A 
ENDROOT
TORSDOF 0
ENDMDL
