MODEL 1
REMARK minimizedAffinity -3.75952411
REMARK minimizedRMSD -1
REMARK  0 active torsions:
REMARK  status: ('A' for Active; 'I' for Inactive)
ROOT
ATOM      1  C   UNL d   1      -0.593   0.754  -0.912  0.00  0.00     0.078 C 
ATOM      2  C1  UNL d   1      -0.028   0.167   0.346  0.00  0.00    -0.077 A 
ATOM      3  C2  UNL d   1      -0.748  -0.776   1.089  0.00  0.00    -0.001 A 
ATOM      4  C3  UNL d   1      -0.213  -1.307   2.264  0.00  0.00     0.003 A 
ATOM      5  C4  UNL d   1       1.043  -0.900   2.707  0.00  0.00    -0.005 A 
ATOM      6  C5  UNL d   1       1.767   0.039   1.976  0.00  0.00     0.003 A 
ATOM      7  C6  UNL d   1       1.234   0.572   0.801  0.00  0.00    -0.001 A 
ENDROOT
TORSDOF 0
ENDMDL
