MODEL 1
REMARK minimizedAffinity -4.47010899
REMARK minimizedRMSD -1
REMARK  0 active torsions:
REMARK  status: ('A' for Active; 'I' for Inactive)
ROOT
ATOM      1  C   UNL d   1      -0.046   0.088  -0.269  0.00  0.00     0.078 C 
ATOM      2  C1  UNL d   1       0.741  -0.736   0.705  0.00  0.00    -0.077 A 
ATOM      3  C2  UNL d   1       2.106  -0.976   0.508  0.00  0.00    -0.001 A 
ATOM      4  C3  UNL d   1       2.825  -1.754   1.418  0.00  0.00     0.003 A 
ATOM      5  C4  UNL d   1       2.186  -2.298   2.530  0.00  0.00    -0.005 A 
ATOM      6  C5  UNL d   1       0.828  -2.066   2.734  0.00  0.00     0.003 A 
ATOM      7  C6  UNL d   1       0.107  -1.289   1.825  0.00  0.00    -0.001 A 
ENDROOT
TORSDOF 0
ENDMDL
