MODEL 1
REMARK minimizedAffinity -5.68874788
REMARK minimizedRMSD -1
REMARK  0 active torsions:
REMARK  status: ('A' for Active; 'I' for Inactive)
ROOT
ATOM      1  C   UNL d   1      -0.758   0.118  -1.352  0.00  0.00     0.078 C 
ATOM      2  C1  UNL d   1      -0.104  -0.188  -0.037  0.00  0.00    -0.077 A 
ATOM      3  C2  UNL d   1      -0.810  -0.066   1.166  0.00  0.00    -0.001 A 
ATOM      4  C3  UNL d   1      -0.186  -0.345   2.382  0.00  0.00     0.003 A 
ATOM      5  C4  UNL d   1       1.149  -0.746   2.408  0.00  0.00    -0.005 A 
ATOM      6  C5  UNL d   1       1.860  -0.868   1.217  0.00  0.00     0.003 A 
ATOM      7  C6  UNL d   1       1.237  -0.589  -0.001  0.00  0.00    -0.001 A 
ENDROOT
TORSDOF 0
ENDMDL
