MODEL 1
REMARK minimizedAffinity -3.8040309
REMARK minimizedRMSD -1
REMARK  0 active torsions:
REMARK  status: ('A' for Active; 'I' for Inactive)
ROOT
ATOM      1  C   UNL d   1       1.095  -0.963   3.003  0.00  0.00     0.078 C 
ATOM      2  C1  UNL d   1       0.665  -0.682   1.594  0.00  0.00    -0.077 A 
ATOM      3  C2  UNL d   1       1.535  -0.896   0.518  0.00  0.00    -0.001 A 
ATOM      4  C3  UNL d   1       1.125  -0.621  -0.787  0.00  0.00     0.003 A 
ATOM      5  C4  UNL d   1      -0.157  -0.129  -1.029  0.00  0.00    -0.005 A 
ATOM      6  C5  UNL d   1      -1.029   0.089   0.036  0.00  0.00     0.003 A 
ATOM      7  C6  UNL d   1      -0.620  -0.185   1.342  0.00  0.00    -0.001 A 
ENDROOT
TORSDOF 0
ENDMDL
