MODEL 1
REMARK minimizedAffinity -3.42074633
REMARK minimizedRMSD -1
REMARK  0 active torsions:
REMARK  status: ('A' for Active; 'I' for Inactive)
ROOT
ATOM      1  C4' PXY d   1       2.942   2.185   0.037  0.00  0.00     0.077 C 
ATOM      2  C1' PXY d   1       0.271  -2.866  -0.840  0.00  0.00     0.077 C 
ATOM      3  C1  PXY d   1       0.961  -1.535  -0.614  0.00  0.00    -0.082 A 
ATOM      4  C2  PXY d   1       2.282  -1.471  -0.635  0.00  0.00     0.003 A 
ATOM      5  C3  PXY d   1       2.923  -0.282  -0.400  0.00  0.00     0.003 A 
ATOM      6  C4  PXY d   1       2.203   0.865  -0.196  0.00  0.00    -0.082 A 
ATOM      7  C5  PXY d   1       0.854   0.810  -0.184  0.00  0.00     0.003 A 
ATOM      8  C6  PXY d   1       0.223  -0.415  -0.383  0.00  0.00     0.003 A 
ENDROOT
TORSDOF 0
ENDMDL
