MODEL 1
REMARK minimizedAffinity -1.45243514
REMARK minimizedRMSD -1
REMARK  0 active torsions:
REMARK  status: ('A' for Active; 'I' for Inactive)
ROOT
ATOM      1  C4' PXY d   1      -0.776   2.118   0.369  0.00  0.00     0.077 C 
ATOM      2  C1' PXY d   1       3.688  -1.532   0.775  0.00  0.00     0.077 C 
ATOM      3  C1  PXY d   1       2.515  -0.580   0.657  0.00  0.00    -0.082 A 
ATOM      4  C2  PXY d   1       2.512   0.544   1.354  0.00  0.00     0.003 A 
ATOM      5  C3  PXY d   1       1.444   1.402   1.284  0.00  0.00     0.003 A 
ATOM      6  C4  PXY d   1       0.392   1.131   0.450  0.00  0.00    -0.082 A 
ATOM      7  C5  PXY d   1       0.393  -0.009  -0.273  0.00  0.00     0.003 A 
ATOM      8  C6  PXY d   1       1.467  -0.886  -0.156  0.00  0.00     0.003 A 
ENDROOT
TORSDOF 0
ENDMDL
