MODEL 1
REMARK minimizedAffinity -4.20706558
REMARK minimizedRMSD -1
REMARK  0 active torsions:
REMARK  status: ('A' for Active; 'I' for Inactive)
ROOT
ATOM      1  C4' PXY d   1      -1.001  -1.236  -2.903  0.00  0.00     0.077 C 
ATOM      2  C1' PXY d   1       2.223   1.153   1.258  0.00  0.00     0.077 C 
ATOM      3  C1  PXY d   1       1.370   0.537   0.167  0.00  0.00    -0.082 A 
ATOM      4  C2  PXY d   1       1.383  -0.774  -0.012  0.00  0.00     0.003 A 
ATOM      5  C3  PXY d   1       0.642  -1.345  -1.015  0.00  0.00     0.003 A 
ATOM      6  C4  PXY d   1      -0.163  -0.571  -1.808  0.00  0.00    -0.082 A 
ATOM      7  C5  PXY d   1      -0.190   0.766  -1.625  0.00  0.00     0.003 A 
ATOM      8  C6  PXY d   1       0.602   1.330  -0.628  0.00  0.00     0.003 A 
ENDROOT
TORSDOF 0
ENDMDL
