MODEL 1
REMARK minimizedAffinity 1.15504003
REMARK minimizedRMSD -1
REMARK  0 active torsions:
REMARK  status: ('A' for Active; 'I' for Inactive)
ROOT
ATOM      1  C4' PXY d   1      -1.845  -3.067  -5.235  0.00  0.00     0.077 C 
ATOM      2  C1' PXY d   1      -0.192  -0.512  -0.321  0.00  0.00     0.077 C 
ATOM      3  C1  PXY d   1      -0.634  -1.172  -1.612  0.00  0.00    -0.082 A 
ATOM      4  C2  PXY d   1      -0.522  -2.483  -1.748  0.00  0.00     0.003 A 
ATOM      5  C3  PXY d   1      -0.886  -3.093  -2.921  0.00  0.00     0.003 A 
ATOM      6  C4  PXY d   1      -1.421  -2.359  -3.946  0.00  0.00    -0.082 A 
ATOM      7  C5  PXY d   1      -1.548  -1.022  -3.811  0.00  0.00     0.003 A 
ATOM      8  C6  PXY d   1      -1.134  -0.417  -2.628  0.00  0.00     0.003 A 
ENDROOT
TORSDOF 0
ENDMDL
