MODEL 1
REMARK minimizedAffinity -2.93453503
REMARK minimizedRMSD -1
REMARK  0 active torsions:
REMARK  status: ('A' for Active; 'I' for Inactive)
ROOT
ATOM      1  C4' PXY d   1       2.556  -2.158  -1.213  0.00  0.00     0.077 C 
ATOM      2  C1' PXY d   1      -1.784   1.000   0.935  0.00  0.00     0.077 C 
ATOM      3  C1  PXY d   1      -0.638   0.176   0.381  0.00  0.00    -0.082 A 
ATOM      4  C2  PXY d   1      -0.645  -0.182  -0.893  0.00  0.00     0.003 A 
ATOM      5  C3  PXY d   1       0.367  -0.953  -1.403  0.00  0.00     0.003 A 
ATOM      6  C4  PXY d   1       1.425  -1.318  -0.613  0.00  0.00    -0.082 A 
ATOM      7  C5  PXY d   1       1.445  -0.948   0.685  0.00  0.00     0.003 A 
ATOM      8  C6  PXY d   1       0.387  -0.200   1.193  0.00  0.00     0.003 A 
ENDROOT
TORSDOF 0
ENDMDL
