MODEL 1
REMARK minimizedAffinity 5.10242558
REMARK minimizedRMSD -1
REMARK  0 active torsions:
REMARK  status: ('A' for Active; 'I' for Inactive)
ROOT
ATOM      1  C4' PXY d   1       3.039  -1.282  -0.640  0.00  0.00     0.077 C 
ATOM      2  C1' PXY d   1      -1.703   1.808   0.538  0.00  0.00     0.077 C 
ATOM      3  C1  PXY d   1      -0.453   1.008   0.227  0.00  0.00    -0.082 A 
ATOM      4  C2  PXY d   1      -0.563  -0.236  -0.207  0.00  0.00     0.003 A 
ATOM      5  C3  PXY d   1       0.557  -0.984  -0.463  0.00  0.00     0.003 A 
ATOM      6  C4  PXY d   1       1.804  -0.435  -0.323  0.00  0.00    -0.082 A 
ATOM      7  C5  PXY d   1       1.925   0.838   0.110  0.00  0.00     0.003 A 
ATOM      8  C6  PXY d   1       0.776   1.567   0.403  0.00  0.00     0.003 A 
ENDROOT
TORSDOF 0
ENDMDL
