MODEL 1
REMARK minimizedAffinity -3.52925229
REMARK minimizedRMSD -1
REMARK  0 active torsions:
REMARK  status: ('A' for Active; 'I' for Inactive)
ROOT
ATOM      1  C4' PXY d   1       3.662  -2.300  -2.482  0.00  0.00     0.077 C 
ATOM      2  C1' PXY d   1       1.433   0.549   2.028  0.00  0.00     0.077 C 
ATOM      3  C1  PXY d   1       2.026  -0.189   0.843  0.00  0.00    -0.082 A 
ATOM      4  C2  PXY d   1       1.275  -1.033   0.155  0.00  0.00     0.003 A 
ATOM      5  C3  PXY d   1       1.804  -1.732  -0.899  0.00  0.00     0.003 A 
ATOM      6  C4  PXY d   1       3.102  -1.526  -1.285  0.00  0.00    -0.082 A 
ATOM      7  C5  PXY d   1       3.872  -0.658  -0.594  0.00  0.00     0.003 A 
ATOM      8  C6  PXY d   1       3.327   0.011   0.498  0.00  0.00     0.003 A 
ENDROOT
TORSDOF 0
ENDMDL
