MODEL 1
REMARK minimizedAffinity 7.20831776
REMARK minimizedRMSD -1
REMARK  0 active torsions:
REMARK  status: ('A' for Active; 'I' for Inactive)
ROOT
ATOM      1  C   UNL d   1      -4.081   0.592   0.586  0.00  0.00     0.172 C 
ATOM      2  N   UNL d   1      -3.053   0.199   1.521  0.00  0.00    -0.070 N 
ATOM      3  C1  UNL d   1      -2.231  -0.890   1.393  0.00  0.00    -0.004 A 
ATOM      4  C2  UNL d   1      -1.393  -0.916   2.487  0.00  0.00    -0.047 A 
ATOM      5  C3  UNL d   1      -1.722   0.194   3.300  0.00  0.00    -0.047 A 
ATOM      6  C4  UNL d   1      -2.753   0.867   2.679  0.00  0.00    -0.004 A 
ENDROOT
TORSDOF 0
ENDMDL
