MODEL 1
REMARK minimizedAffinity 9.58861065
REMARK minimizedRMSD -1
REMARK  0 active torsions:
REMARK  status: ('A' for Active; 'I' for Inactive)
ROOT
ATOM      1  C   UNL d   1      -0.919  -0.809   2.517  0.00  0.00     0.172 C 
ATOM      2  N   UNL d   1      -1.627  -0.002   3.483  0.00  0.00    -0.070 N 
ATOM      3  C1  UNL d   1      -2.447   1.055   3.192  0.00  0.00    -0.004 A 
ATOM      4  C2  UNL d   1      -2.928   1.556   4.383  0.00  0.00    -0.047 A 
ATOM      5  C3  UNL d   1      -2.377   0.773   5.425  0.00  0.00    -0.047 A 
ATOM      6  C4  UNL d   1      -1.575  -0.184   4.840  0.00  0.00    -0.004 A 
ENDROOT
TORSDOF 0
ENDMDL
