MODEL 1
REMARK minimizedAffinity 1.29796076
REMARK minimizedRMSD -1
REMARK  0 active torsions:
REMARK  status: ('A' for Active; 'I' for Inactive)
ROOT
ATOM      1  C   UNL d   1       5.626   5.823  -1.504  0.00  0.00     0.172 C 
ATOM      2  N   UNL d   1       5.330   5.005  -0.351  0.00  0.00    -0.070 N 
ATOM      3  C1  UNL d   1       6.000   3.867   0.013  0.00  0.00    -0.004 A 
ATOM      4  C2  UNL d   1       5.416   3.384   1.164  0.00  0.00    -0.047 A 
ATOM      5  C3  UNL d   1       4.358   4.261   1.502  0.00  0.00    -0.047 A 
ATOM      6  C4  UNL d   1       4.327   5.255   0.547  0.00  0.00    -0.004 A 
ENDROOT
TORSDOF 0
ENDMDL
