MODEL 1
REMARK minimizedAffinity 6.53255272
REMARK minimizedRMSD -1
REMARK  0 active torsions:
REMARK  status: ('A' for Active; 'I' for Inactive)
ROOT
ATOM      1  C   UNL d   1      -4.890   5.863   6.000  0.00  0.00     0.172 C 
ATOM      2  N   UNL d   1      -4.591   4.467   5.781  0.00  0.00    -0.070 N 
ATOM      3  C1  UNL d   1      -3.399   3.967   5.328  0.00  0.00    -0.004 A 
ATOM      4  C2  UNL d   1      -3.517   2.596   5.256  0.00  0.00    -0.047 A 
ATOM      5  C3  UNL d   1      -4.824   2.260   5.681  0.00  0.00    -0.047 A 
ATOM      6  C4  UNL d   1      -5.468   3.437   6.000  0.00  0.00    -0.004 A 
ENDROOT
TORSDOF 0
ENDMDL
