MODEL 1
REMARK minimizedAffinity 9.89869213
REMARK minimizedRMSD -1
REMARK  0 active torsions:
REMARK  status: ('A' for Active; 'I' for Inactive)
ROOT
ATOM      1  C   UNL d   1      -5.220   5.903   5.998  0.00  0.00     0.172 C 
ATOM      2  N   UNL d   1      -4.981   4.483   5.894  0.00  0.00    -0.070 N 
ATOM      3  C1  UNL d   1      -5.933   3.504   5.997  0.00  0.00    -0.004 A 
ATOM      4  C2  UNL d   1      -5.306   2.287   5.842  0.00  0.00    -0.047 A 
ATOM      5  C3  UNL d   1      -3.929   2.543   5.640  0.00  0.00    -0.047 A 
ATOM      6  C4  UNL d   1      -3.756   3.910   5.677  0.00  0.00    -0.004 A 
ENDROOT
TORSDOF 0
ENDMDL
