MODEL 1
REMARK minimizedAffinity 3.2052443
REMARK minimizedRMSD -1
REMARK  0 active torsions:
REMARK  status: ('A' for Active; 'I' for Inactive)
ROOT
ATOM      1  C   UNL d   1       1.190  -1.738   3.419  0.00  0.00     0.172 C 
ATOM      2  N   UNL d   1       0.144  -0.795   3.737  0.00  0.00    -0.070 N 
ATOM      3  C1  UNL d   1      -0.106  -0.267   4.976  0.00  0.00    -0.004 A 
ATOM      4  C2  UNL d   1      -1.180   0.589   4.861  0.00  0.00    -0.047 A 
ATOM      5  C3  UNL d   1      -1.590   0.574   3.506  0.00  0.00    -0.047 A 
ATOM      6  C4  UNL d   1      -0.753  -0.290   2.833  0.00  0.00    -0.004 A 
ENDROOT
TORSDOF 0
ENDMDL
