MODEL 1
REMARK minimizedAffinity 7.03465557
REMARK minimizedRMSD -1
REMARK  0 active torsions:
REMARK  status: ('A' for Active; 'I' for Inactive)
ROOT
ATOM      1  C   UNL d   1      -2.631   1.133   3.966  0.00  0.00     0.172 C 
ATOM      2  N   UNL d   1      -3.136   0.239   2.950  0.00  0.00    -0.070 N 
ATOM      3  C1  UNL d   1      -2.415  -0.737   2.315  0.00  0.00    -0.004 A 
ATOM      4  C2  UNL d   1      -3.254  -1.366   1.421  0.00  0.00    -0.047 A 
ATOM      5  C3  UNL d   1      -4.522  -0.747   1.522  0.00  0.00    -0.047 A 
ATOM      6  C4  UNL d   1      -4.421   0.243   2.476  0.00  0.00    -0.004 A 
ENDROOT
TORSDOF 0
ENDMDL
