MODEL 1
REMARK minimizedAffinity 0.0552505255
REMARK minimizedRMSD -1
REMARK  0 active torsions:
REMARK  status: ('A' for Active; 'I' for Inactive)
ROOT
ATOM      1  C   UNL d   1       6.000  -5.999  -0.416  0.00  0.00     0.172 C 
ATOM      2  N   UNL d   1       5.236  -4.777  -0.505  0.00  0.00    -0.070 N 
ATOM      3  C1  UNL d   1       5.753  -3.526  -0.716  0.00  0.00    -0.004 A 
ATOM      4  C2  UNL d   1       4.704  -2.633  -0.737  0.00  0.00    -0.047 A 
ATOM      5  C3  UNL d   1       3.515  -3.373  -0.531  0.00  0.00    -0.047 A 
ATOM      6  C4  UNL d   1       3.874  -4.697  -0.390  0.00  0.00    -0.004 A 
ENDROOT
TORSDOF 0
ENDMDL
