MODEL 1
REMARK minimizedAffinity 8.73115158
REMARK minimizedRMSD -1
REMARK  0 active torsions:
REMARK  status: ('A' for Active; 'I' for Inactive)
ROOT
ATOM      1  C   UNL d   1       2.646  -4.872  -1.147  0.00  0.00     0.172 C 
ATOM      2  N   UNL d   1       4.011  -4.762  -0.686  0.00  0.00    -0.070 N 
ATOM      3  C1  UNL d   1       4.757  -3.614  -0.669  0.00  0.00    -0.004 A 
ATOM      4  C2  UNL d   1       5.999  -3.926  -0.160  0.00  0.00    -0.047 A 
ATOM      5  C3  UNL d   1       6.000  -5.310   0.137  0.00  0.00    -0.047 A 
ATOM      6  C4  UNL d   1       4.757  -5.803  -0.199  0.00  0.00    -0.004 A 
ENDROOT
TORSDOF 0
ENDMDL
