MODEL 1
REMARK minimizedAffinity 7.14846373
REMARK minimizedRMSD -1
REMARK  0 active torsions:
REMARK  status: ('A' for Active; 'I' for Inactive)
ROOT
ATOM      1  C   UNL d   1      -2.181  -2.120   1.390  0.00  0.00     0.172 C 
ATOM      2  N   UNL d   1      -2.904  -1.764   0.192  0.00  0.00    -0.070 N 
ATOM      3  C1  UNL d   1      -2.368  -1.663  -1.064  0.00  0.00    -0.004 A 
ATOM      4  C2  UNL d   1      -3.381  -1.304  -1.928  0.00  0.00    -0.047 A 
ATOM      5  C3  UNL d   1      -4.566  -1.184  -1.164  0.00  0.00    -0.047 A 
ATOM      6  C4  UNL d   1      -4.242  -1.474   0.145  0.00  0.00    -0.004 A 
ENDROOT
TORSDOF 0
ENDMDL
