MODEL 1
REMARK minimizedAffinity 5.79487228
REMARK minimizedRMSD -1
REMARK  0 active torsions:
REMARK  status: ('A' for Active; 'I' for Inactive)
ROOT
ATOM      1  C   UNL d   1      -2.790   1.036   4.348  0.00  0.00     0.172 C 
ATOM      2  N   UNL d   1      -2.458   0.116   3.285  0.00  0.00    -0.070 N 
ATOM      3  C1  UNL d   1      -1.198  -0.133   2.810  0.00  0.00    -0.004 A 
ATOM      4  C2  UNL d   1      -1.304  -1.067   1.802  0.00  0.00    -0.047 A 
ATOM      5  C3  UNL d   1      -2.675  -1.391   1.667  0.00  0.00    -0.047 A 
ATOM      6  C4  UNL d   1      -3.367  -0.644   2.597  0.00  0.00    -0.004 A 
ENDROOT
TORSDOF 0
ENDMDL
