MODEL 1
REMARK minimizedAffinity 3.68397784
REMARK minimizedRMSD -1
REMARK  0 active torsions:
REMARK  status: ('A' for Active; 'I' for Inactive)
ROOT
ATOM      1  C   UNL d   1      -1.887  -1.658   1.442  0.00  0.00     0.172 C 
ATOM      2  N   UNL d   1      -2.556  -0.587   2.142  0.00  0.00    -0.070 N 
ATOM      3  C1  UNL d   1      -3.877  -0.250   2.011  0.00  0.00    -0.004 A 
ATOM      4  C2  UNL d   1      -4.124   0.820   2.844  0.00  0.00    -0.047 A 
ATOM      5  C3  UNL d   1      -2.909   1.139   3.496  0.00  0.00    -0.047 A 
ATOM      6  C4  UNL d   1      -1.955   0.252   3.043  0.00  0.00    -0.004 A 
ENDROOT
TORSDOF 0
ENDMDL
