MODEL 1
REMARK minimizedAffinity 3.88459396
REMARK minimizedRMSD -1
REMARK  0 active torsions:
REMARK  status: ('A' for Active; 'I' for Inactive)
ROOT
ATOM      1  C   UNL d   1      -5.727   5.673   5.992  0.00  0.00     0.172 C 
ATOM      2  N   UNL d   1      -5.549   4.372   5.392  0.00  0.00    -0.070 N 
ATOM      3  C1  UNL d   1      -5.999   3.996   4.154  0.00  0.00    -0.004 A 
ATOM      4  C2  UNL d   1      -5.629   2.684   3.951  0.00  0.00    -0.047 A 
ATOM      5  C3  UNL d   1      -4.934   2.257   5.108  0.00  0.00    -0.047 A 
ATOM      6  C4  UNL d   1      -4.899   3.322   5.983  0.00  0.00    -0.004 A 
ENDROOT
TORSDOF 0
ENDMDL
