MODEL 1
REMARK minimizedAffinity 11.0708237
REMARK minimizedRMSD -1
REMARK  0 active torsions:
REMARK  status: ('A' for Active; 'I' for Inactive)
ROOT
ATOM      1  C   UNL d   1       0.721   2.114  -2.518  0.00  0.00     0.172 C 
ATOM      2  N   UNL d   1       1.424   1.599  -1.367  0.00  0.00    -0.070 N 
ATOM      3  C1  UNL d   1       2.742   1.227  -1.336  0.00  0.00    -0.004 A 
ATOM      4  C2  UNL d   1       3.028   0.793  -0.060  0.00  0.00    -0.047 A 
ATOM      5  C3  UNL d   1       1.842   0.907   0.703  0.00  0.00    -0.047 A 
ATOM      6  C4  UNL d   1       0.864   1.409  -0.131  0.00  0.00    -0.004 A 
ENDROOT
TORSDOF 0
ENDMDL
