MODEL 1
REMARK minimizedAffinity -0.891919553
REMARK minimizedRMSD -1
REMARK  0 active torsions:
REMARK  status: ('A' for Active; 'I' for Inactive)
ROOT
ATOM      1  C   UNL d   1      -5.598   1.507   5.981  0.00  0.00     0.172 C 
ATOM      2  N   UNL d   1      -4.940   1.183   4.737  0.00  0.00    -0.070 N 
ATOM      3  C1  UNL d   1      -5.564   0.814   3.576  0.00  0.00    -0.004 A 
ATOM      4  C2  UNL d   1      -4.591   0.593   2.625  0.00  0.00    -0.047 A 
ATOM      5  C3  UNL d   1      -3.338   0.837   3.236  0.00  0.00    -0.047 A 
ATOM      6  C4  UNL d   1      -3.583   1.201   4.543  0.00  0.00    -0.004 A 
ENDROOT
TORSDOF 0
ENDMDL
