MODEL 1
REMARK minimizedAffinity 4.55719185
REMARK minimizedRMSD -1
REMARK  0 active torsions:
REMARK  status: ('A' for Active; 'I' for Inactive)
ROOT
ATOM      1  C   UNL d   1       2.913   1.862   0.734  0.00  0.00     0.172 C 
ATOM      2  N   UNL d   1       4.036   2.704   1.073  0.00  0.00    -0.070 N 
ATOM      3  C1  UNL d   1       4.149   3.466   2.205  0.00  0.00    -0.004 A 
ATOM      4  C2  UNL d   1       5.362   4.119   2.155  0.00  0.00    -0.047 A 
ATOM      5  C3  UNL d   1       6.000   3.736   0.951  0.00  0.00    -0.047 A 
ATOM      6  C4  UNL d   1       5.157   2.860   0.301  0.00  0.00    -0.004 A 
ENDROOT
TORSDOF 0
ENDMDL
