MODEL 1
REMARK minimizedAffinity 4.96284389
REMARK minimizedRMSD -1
REMARK  0 active torsions:
REMARK  status: ('A' for Active; 'I' for Inactive)
ROOT
ATOM      1  C   UNL d   1       3.090   1.250   0.754  0.00  0.00     0.172 C 
ATOM      2  N   UNL d   1       4.186   2.184   0.856  0.00  0.00    -0.070 N 
ATOM      3  C1  UNL d   1       5.133   2.413  -0.107  0.00  0.00    -0.004 A 
ATOM      4  C2  UNL d   1       6.000   3.370   0.373  0.00  0.00    -0.047 A 
ATOM      5  C3  UNL d   1       5.560   3.729   1.669  0.00  0.00    -0.047 A 
ATOM      6  C4  UNL d   1       4.435   2.979   1.943  0.00  0.00    -0.004 A 
ENDROOT
TORSDOF 0
ENDMDL
