MODEL 1
REMARK minimizedAffinity 3.79803276
REMARK minimizedRMSD -1
REMARK  0 active torsions:
REMARK  status: ('A' for Active; 'I' for Inactive)
ROOT
ATOM      1  C   UNL d   1      -0.318   4.943  -4.904  0.00  0.00     0.172 C 
ATOM      2  N   UNL d   1      -1.737   5.082  -5.133  0.00  0.00    -0.070 N 
ATOM      3  C1  UNL d   1      -2.559   5.993  -4.524  0.00  0.00    -0.004 A 
ATOM      4  C2  UNL d   1      -3.834   5.803  -5.011  0.00  0.00    -0.047 A 
ATOM      5  C3  UNL d   1      -3.777   4.740  -5.944  0.00  0.00    -0.047 A 
ATOM      6  C4  UNL d   1      -2.467   4.312  -6.000  0.00  0.00    -0.004 A 
ENDROOT
TORSDOF 0
ENDMDL
