MODEL 1
REMARK minimizedAffinity -2.58384418
REMARK minimizedRMSD -1
REMARK  1 active torsions:
REMARK  status: ('A' for Active; 'I' for Inactive)
REMARK    1  A    between atoms: C1_2  and  C2_3 
ROOT
ATOM      1  C2  UNL d   1      -0.113  -0.305   0.638  0.00  0.00    -0.073 A 
ATOM      2  C3  UNL d   1      -0.187  -1.702   0.614  0.00  0.00    -0.002 A 
ATOM      3  C4  UNL d   1       0.245  -2.411  -0.507  0.00  0.00     0.004 A 
ATOM      4  C5  UNL d   1       0.762  -1.733  -1.610  0.00  0.00    -0.004 A 
ATOM      5  C6  UNL d   1       0.855  -0.338  -1.601  0.00  0.00    -0.075 A 
ATOM      6  C7  UNL d   1       1.406   0.407  -2.781  0.00  0.00     0.076 C 
ATOM      7  C8  UNL d   1       0.416   0.368  -0.472  0.00  0.00     0.001 A 
ENDROOT
BRANCH   1   8
ATOM      8  C1  UNL d   1      -0.574   0.466   1.849  0.00  0.00     0.053 C 
ATOM      9  C   UNL d   1      -2.083   0.646   1.870  0.00  0.00     0.018 C 
ENDBRANCH   1   8
TORSDOF 1
ENDMDL
