MODEL 1
REMARK minimizedAffinity -4.57077599
REMARK minimizedRMSD -1
REMARK  1 active torsions:
REMARK  status: ('A' for Active; 'I' for Inactive)
REMARK    1  A    between atoms: C1_2  and  C2_3 
ROOT
ATOM      1  C2  UNL d   1      -0.057   0.186  -0.184  0.00  0.00    -0.073 A 
ATOM      2  C3  UNL d   1       0.347   1.511   0.016  0.00  0.00    -0.002 A 
ATOM      3  C4  UNL d   1       1.222   2.124  -0.880  0.00  0.00     0.004 A 
ATOM      4  C5  UNL d   1       1.697   1.423  -1.989  0.00  0.00    -0.004 A 
ATOM      5  C6  UNL d   1       1.296   0.102  -2.213  0.00  0.00    -0.075 A 
ATOM      6  C7  UNL d   1       1.800  -0.666  -3.399  0.00  0.00     0.076 C 
ATOM      7  C8  UNL d   1       0.419  -0.508  -1.306  0.00  0.00     0.001 A 
ENDROOT
BRANCH   1   8
ATOM      8  C1  UNL d   1      -1.007  -0.479   0.778  0.00  0.00     0.053 C 
ATOM      9  C   UNL d   1      -2.354   0.226   0.827  0.00  0.00     0.018 C 
ENDBRANCH   1   8
TORSDOF 1
ENDMDL
