MODEL 1
REMARK minimizedAffinity -4.03551769
REMARK minimizedRMSD -1
REMARK  1 active torsions:
REMARK  status: ('A' for Active; 'I' for Inactive)
REMARK    1  A    between atoms: C1_2  and  C2_3 
ROOT
ATOM      1  C2  UNL d   1      -0.151   0.654   0.071  0.00  0.00    -0.073 A 
ATOM      2  C3  UNL d   1       0.024  -0.518   0.816  0.00  0.00    -0.002 A 
ATOM      3  C4  UNL d   1      -0.849  -0.826   1.860  0.00  0.00     0.004 A 
ATOM      4  C5  UNL d   1      -1.907   0.029   2.166  0.00  0.00    -0.004 A 
ATOM      5  C6  UNL d   1      -2.106   1.199   1.425  0.00  0.00    -0.075 A 
ATOM      6  C7  UNL d   1      -3.238   2.130   1.742  0.00  0.00     0.076 C 
ATOM      7  C8  UNL d   1      -1.223   1.503   0.380  0.00  0.00     0.001 A 
ENDROOT
BRANCH   1   8
ATOM      8  C1  UNL d   1       0.785   0.988  -1.062  0.00  0.00     0.053 C 
ATOM      9  C   UNL d   1       0.780  -0.084  -2.140  0.00  0.00     0.018 C 
ENDBRANCH   1   8
TORSDOF 1
ENDMDL
