MODEL 1
REMARK minimizedAffinity -5.75946188
REMARK minimizedRMSD -1
REMARK  1 active torsions:
REMARK  status: ('A' for Active; 'I' for Inactive)
REMARK    1  A    between atoms: C1_2  and  C2_3 
ROOT
ATOM      1  C2  UNL d   1       0.664  -0.079  -1.524  0.00  0.00    -0.073 A 
ATOM      2  C3  UNL d   1       1.698   0.296  -2.390  0.00  0.00    -0.002 A 
ATOM      3  C4  UNL d   1       2.598  -0.658  -2.867  0.00  0.00     0.004 A 
ATOM      4  C5  UNL d   1       2.469  -1.995  -2.490  0.00  0.00    -0.004 A 
ATOM      5  C6  UNL d   1       1.436  -2.390  -1.635  0.00  0.00    -0.075 A 
ATOM      6  C7  UNL d   1       1.286  -3.824  -1.218  0.00  0.00     0.076 C 
ATOM      7  C8  UNL d   1       0.538  -1.426  -1.158  0.00  0.00     0.001 A 
ENDROOT
BRANCH   1   8
ATOM      8  C1  UNL d   1      -0.314   0.947  -1.011  0.00  0.00     0.053 C 
ATOM      9  C   UNL d   1       0.077   1.470   0.362  0.00  0.00     0.018 C 
ENDBRANCH   1   8
TORSDOF 1
ENDMDL
