MODEL 1
REMARK minimizedAffinity -5.58571196
REMARK minimizedRMSD -1
REMARK  1 active torsions:
REMARK  status: ('A' for Active; 'I' for Inactive)
REMARK    1  A    between atoms: C1_2  and  C2_3 
ROOT
ATOM      1  C2  UNL d   1       0.058   0.045   0.016  0.00  0.00    -0.073 A 
ATOM      2  C3  UNL d   1       0.605   1.140  -0.663  0.00  0.00    -0.002 A 
ATOM      3  C4  UNL d   1       1.475   0.941  -1.736  0.00  0.00     0.004 A 
ATOM      4  C5  UNL d   1       1.802  -0.352  -2.144  0.00  0.00    -0.004 A 
ATOM      5  C6  UNL d   1       1.257  -1.459  -1.485  0.00  0.00    -0.075 A 
ATOM      6  C7  UNL d   1       1.600  -2.856  -1.911  0.00  0.00     0.076 C 
ATOM      7  C8  UNL d   1       0.386  -1.251  -0.407  0.00  0.00     0.001 A 
ENDROOT
BRANCH   1   8
ATOM      8  C1  UNL d   1      -0.887   0.255   1.171  0.00  0.00     0.053 C 
ATOM      9  C   UNL d   1      -2.307   0.531   0.702  0.00  0.00     0.018 C 
ENDBRANCH   1   8
TORSDOF 1
ENDMDL
