MODEL 1
REMARK minimizedAffinity -2.49801111
REMARK minimizedRMSD -1
REMARK  1 active torsions:
REMARK  status: ('A' for Active; 'I' for Inactive)
REMARK    1  A    between atoms: C1_2  and  C2_3 
ROOT
ATOM      1  C2  UNL d   1       0.233   0.077   0.450  0.00  0.00    -0.073 A 
ATOM      2  C3  UNL d   1      -0.237  -1.218   0.695  0.00  0.00    -0.002 A 
ATOM      3  C4  UNL d   1      -0.164  -2.195  -0.299  0.00  0.00     0.004 A 
ATOM      4  C5  UNL d   1       0.383  -1.889  -1.545  0.00  0.00    -0.004 A 
ATOM      5  C6  UNL d   1       0.869  -0.604  -1.805  0.00  0.00    -0.075 A 
ATOM      6  C7  UNL d   1       1.459  -0.258  -3.141  0.00  0.00     0.076 C 
ATOM      7  C8  UNL d   1       0.790   0.372  -0.803  0.00  0.00     0.001 A 
ENDROOT
BRANCH   1   8
ATOM      8  C1  UNL d   1       0.163   1.133   1.522  0.00  0.00     0.053 C 
ATOM      9  C   UNL d   1       1.212   2.216   1.326  0.00  0.00     0.018 C 
ENDBRANCH   1   8
TORSDOF 1
ENDMDL
