MODEL 1
REMARK minimizedAffinity -4.62798977
REMARK minimizedRMSD -1
REMARK  1 active torsions:
REMARK  status: ('A' for Active; 'I' for Inactive)
REMARK    1  A    between atoms: C1_2  and  C2_3 
ROOT
ATOM      1  C2  UNL d   1      -0.619   0.382   0.393  0.00  0.00    -0.073 A 
ATOM      2  C3  UNL d   1      -1.326  -0.373  -0.549  0.00  0.00    -0.002 A 
ATOM      3  C4  UNL d   1      -0.758  -0.664  -1.790  0.00  0.00     0.004 A 
ATOM      4  C5  UNL d   1       0.524  -0.210  -2.098  0.00  0.00    -0.004 A 
ATOM      5  C6  UNL d   1       1.252   0.536  -1.166  0.00  0.00    -0.075 A 
ATOM      6  C7  UNL d   1       2.631   1.034  -1.483  0.00  0.00     0.076 C 
ATOM      7  C8  UNL d   1       0.673   0.827   0.077  0.00  0.00     0.001 A 
ENDROOT
BRANCH   1   8
ATOM      8  C1  UNL d   1      -1.226   0.694   1.737  0.00  0.00     0.053 C 
ATOM      9  C   UNL d   1      -2.723   0.428   1.761  0.00  0.00     0.018 C 
ENDBRANCH   1   8
TORSDOF 1
ENDMDL
