MODEL 1
REMARK minimizedAffinity -4.05460358
REMARK minimizedRMSD -1
REMARK  1 active torsions:
REMARK  status: ('A' for Active; 'I' for Inactive)
REMARK    1  A    between atoms: C1_2  and  C2_3 
ROOT
ATOM      1  C2  UNL d   1       0.025   0.132   0.225  0.00  0.00    -0.073 A 
ATOM      2  C3  UNL d   1       0.499   1.427   0.462  0.00  0.00    -0.002 A 
ATOM      3  C4  UNL d   1       1.329   2.055  -0.468  0.00  0.00     0.004 A 
ATOM      4  C5  UNL d   1       1.687   1.398  -1.645  0.00  0.00    -0.004 A 
ATOM      5  C6  UNL d   1       1.214   0.108  -1.906  0.00  0.00    -0.075 A 
ATOM      6  C7  UNL d   1       1.592  -0.613  -3.166  0.00  0.00     0.076 C 
ATOM      7  C8  UNL d   1       0.383  -0.517  -0.966  0.00  0.00     0.001 A 
ENDROOT
BRANCH   1   8
ATOM      8  C1  UNL d   1      -0.876  -0.548   1.223  0.00  0.00     0.053 C 
ATOM      9  C   UNL d   1      -1.792   0.439   1.929  0.00  0.00     0.018 C 
ENDBRANCH   1   8
TORSDOF 1
ENDMDL
