MODEL 1
REMARK minimizedAffinity -4.81441927
REMARK minimizedRMSD -1
REMARK  1 active torsions:
REMARK  status: ('A' for Active; 'I' for Inactive)
REMARK    1  A    between atoms: C1_2  and  C2_3 
ROOT
ATOM      1  C2  UNL d   1      -0.162  -0.098   0.060  0.00  0.00    -0.073 A 
ATOM      2  C3  UNL d   1       0.570   0.993   0.542  0.00  0.00    -0.002 A 
ATOM      3  C4  UNL d   1       1.495   1.639  -0.278  0.00  0.00     0.004 A 
ATOM      4  C5  UNL d   1       1.692   1.208  -1.590  0.00  0.00    -0.004 A 
ATOM      5  C6  UNL d   1       0.961   0.128  -2.095  0.00  0.00    -0.075 A 
ATOM      6  C7  UNL d   1       1.163  -0.350  -3.503  0.00  0.00     0.076 C 
ATOM      7  C8  UNL d   1       0.036  -0.518  -1.263  0.00  0.00     0.001 A 
ENDROOT
BRANCH   1   8
ATOM      8  C1  UNL d   1      -1.167  -0.795   0.940  0.00  0.00     0.053 C 
ATOM      9  C   UNL d   1      -2.510  -0.083   0.948  0.00  0.00     0.018 C 
ENDBRANCH   1   8
TORSDOF 1
ENDMDL
