MODEL 1
REMARK minimizedAffinity -4.16452932
REMARK minimizedRMSD -1
REMARK  1 active torsions:
REMARK  status: ('A' for Active; 'I' for Inactive)
REMARK    1  A    between atoms: C1_2  and  C2_3 
ROOT
ATOM      1  C2  UNL d   1       1.207   0.640  -1.485  0.00  0.00    -0.073 A 
ATOM      2  C3  UNL d   1       2.134   0.617  -2.533  0.00  0.00    -0.002 A 
ATOM      3  C4  UNL d   1       2.572  -0.599  -3.059  0.00  0.00     0.004 A 
ATOM      4  C5  UNL d   1       2.083  -1.802  -2.550  0.00  0.00    -0.004 A 
ATOM      5  C6  UNL d   1       1.147  -1.799  -1.511  0.00  0.00    -0.075 A 
ATOM      6  C7  UNL d   1       0.613  -3.084  -0.950  0.00  0.00     0.076 C 
ATOM      7  C8  UNL d   1       0.714  -0.574  -0.985  0.00  0.00     0.001 A 
ENDROOT
BRANCH   1   8
ATOM      8  C1  UNL d   1       0.726   1.951  -0.917  0.00  0.00     0.053 C 
ATOM      9  C   UNL d   1       0.483   1.867   0.582  0.00  0.00     0.018 C 
ENDBRANCH   1   8
TORSDOF 1
ENDMDL
