MODEL 1
REMARK minimizedAffinity -2.71821404
REMARK minimizedRMSD -1
REMARK  1 active torsions:
REMARK  status: ('A' for Active; 'I' for Inactive)
REMARK    1  A    between atoms: C1_2  and  C2_3 
ROOT
ATOM      1  C2  UNL d   1      -0.578   0.105   1.046  0.00  0.00    -0.073 A 
ATOM      2  C3  UNL d   1      -0.424  -1.267   1.271  0.00  0.00    -0.002 A 
ATOM      3  C4  UNL d   1       0.212  -2.070   0.323  0.00  0.00     0.004 A 
ATOM      4  C5  UNL d   1       0.704  -1.509  -0.855  0.00  0.00    -0.004 A 
ATOM      5  C6  UNL d   1       0.570  -0.137  -1.093  0.00  0.00    -0.075 A 
ATOM      6  C7  UNL d   1       1.093   0.482  -2.356  0.00  0.00     0.076 C 
ATOM      7  C8  UNL d   1      -0.071   0.662  -0.137  0.00  0.00     0.001 A 
ENDROOT
BRANCH   1   8
ATOM      8  C1  UNL d   1      -1.258   0.977   2.070  0.00  0.00     0.053 C 
ATOM      9  C   UNL d   1      -2.773   0.870   1.995  0.00  0.00     0.018 C 
ENDBRANCH   1   8
TORSDOF 1
ENDMDL
