MODEL 1
REMARK minimizedAffinity -5.52845335
REMARK minimizedRMSD -1
REMARK  1 active torsions:
REMARK  status: ('A' for Active; 'I' for Inactive)
REMARK    1  A    between atoms: C1_2  and  C2_3 
ROOT
ATOM      1  C2  UNL d   1       0.253   0.179  -0.101  0.00  0.00    -0.073 A 
ATOM      2  C3  UNL d   1       0.794   1.061  -1.044  0.00  0.00    -0.002 A 
ATOM      3  C4  UNL d   1       1.468   0.570  -2.162  0.00  0.00     0.004 A 
ATOM      4  C5  UNL d   1       1.603  -0.805  -2.353  0.00  0.00    -0.004 A 
ATOM      5  C6  UNL d   1       1.060  -1.702  -1.429  0.00  0.00    -0.075 A 
ATOM      6  C7  UNL d   1       1.198  -3.184  -1.618  0.00  0.00     0.076 C 
ATOM      7  C8  UNL d   1       0.386  -1.201  -0.306  0.00  0.00     0.001 A 
ENDROOT
BRANCH   1   8
ATOM      8  C1  UNL d   1      -0.482   0.705   1.105  0.00  0.00     0.053 C 
ATOM      9  C   UNL d   1      -1.775  -0.053   1.360  0.00  0.00     0.018 C 
ENDBRANCH   1   8
TORSDOF 1
ENDMDL
