MODEL 1
REMARK minimizedAffinity -4.55239487
REMARK minimizedRMSD -1
REMARK  0 active torsions:
REMARK  status: ('A' for Active; 'I' for Inactive)
ROOT
ATOM      1  C1  BNZ d   1      -0.019   0.039  -0.046  0.00  0.00     0.000 A 
ATOM      2  C2  BNZ d   1      -1.166   0.471   0.565  0.00  0.00     0.000 A 
ATOM      3  C3  BNZ d   1      -1.152   0.882   1.869  0.00  0.00     0.000 A 
ATOM      4  C4  BNZ d   1      -0.002   0.821   2.571  0.00  0.00     0.000 A 
ATOM      5  C5  BNZ d   1       1.160   0.378   1.972  0.00  0.00     0.000 A 
ATOM      6  C6  BNZ d   1       1.151   0.003   0.648  0.00  0.00     0.000 A 
ENDROOT
TORSDOF 0
ENDMDL
