MODEL 1
REMARK minimizedAffinity -4.76296806
REMARK minimizedRMSD -1
REMARK  0 active torsions:
REMARK  status: ('A' for Active; 'I' for Inactive)
ROOT
ATOM      1  C1  BNZ d   1      -1.466   0.263  -5.622  0.00  0.00     0.000 A 
ATOM      2  C2  BNZ d   1      -1.916  -1.026  -5.513  0.00  0.00     0.000 A 
ATOM      3  C3  BNZ d   1      -1.392  -1.872  -4.576  0.00  0.00     0.000 A 
ATOM      4  C4  BNZ d   1      -0.394  -1.442  -3.778  0.00  0.00     0.000 A 
ATOM      5  C5  BNZ d   1       0.077  -0.148  -3.882  0.00  0.00     0.000 A 
ATOM      6  C6  BNZ d   1      -0.479   0.713  -4.800  0.00  0.00     0.000 A 
ENDROOT
TORSDOF 0
ENDMDL
