MODEL 1
REMARK minimizedAffinity -4.27832651
REMARK minimizedRMSD -1
REMARK  0 active torsions:
REMARK  status: ('A' for Active; 'I' for Inactive)
ROOT
ATOM      1  C1  BNZ d   1       1.111   0.283  -1.736  0.00  0.00     0.000 A 
ATOM      2  C2  BNZ d   1       1.455   0.814  -2.950  0.00  0.00     0.000 A 
ATOM      3  C3  BNZ d   1       0.643   0.655  -4.038  0.00  0.00     0.000 A 
ATOM      4  C4  BNZ d   1      -0.490  -0.067  -3.921  0.00  0.00     0.000 A 
ATOM      5  C5  BNZ d   1      -0.845  -0.617  -2.705  0.00  0.00     0.000 A 
ATOM      6  C6  BNZ d   1      -0.045  -0.422  -1.603  0.00  0.00     0.000 A 
ENDROOT
TORSDOF 0
ENDMDL
