MODEL 1
REMARK minimizedAffinity -4.37002945
REMARK minimizedRMSD -1
REMARK  0 active torsions:
REMARK  status: ('A' for Active; 'I' for Inactive)
ROOT
ATOM      1  C1  BNZ d   1       0.646  -0.008   2.788  0.00  0.00     0.000 A 
ATOM      2  C2  BNZ d   1      -0.561   0.571   3.075  0.00  0.00     0.000 A 
ATOM      3  C3  BNZ d   1      -1.436   0.896   2.077  0.00  0.00     0.000 A 
ATOM      4  C4  BNZ d   1      -1.087   0.680   0.792  0.00  0.00     0.000 A 
ATOM      5  C5  BNZ d   1       0.130   0.105   0.486  0.00  0.00     0.000 A 
ATOM      6  C6  BNZ d   1       0.992  -0.257   1.496  0.00  0.00     0.000 A 
ENDROOT
TORSDOF 0
ENDMDL
