MODEL 1
REMARK minimizedAffinity -5.43201637
REMARK minimizedRMSD -1
REMARK  0 active torsions:
REMARK  status: ('A' for Active; 'I' for Inactive)
ROOT
ATOM      1  C1  BNZ d   1       1.093   0.387   3.655  0.00  0.00     0.000 A 
ATOM      2  C2  BNZ d   1      -0.070   1.092   3.815  0.00  0.00     0.000 A 
ATOM      3  C3  BNZ d   1      -0.836   1.433   2.736  0.00  0.00     0.000 A 
ATOM      4  C4  BNZ d   1      -0.419   1.105   1.496  0.00  0.00     0.000 A 
ATOM      5  C5  BNZ d   1       0.756   0.402   1.318  0.00  0.00     0.000 A 
ATOM      6  C6  BNZ d   1       1.505   0.026   2.409  0.00  0.00     0.000 A 
ENDROOT
TORSDOF 0
ENDMDL
