MODEL 1
REMARK minimizedAffinity -2.36059451
REMARK minimizedRMSD -1
REMARK  0 active torsions:
REMARK  status: ('A' for Active; 'I' for Inactive)
ROOT
ATOM      1  C1  BNZ d   1       1.184  -0.334  -1.463  0.00  0.00     0.000 A 
ATOM      2  C2  BNZ d   1       2.155   0.168  -2.288  0.00  0.00     0.000 A 
ATOM      3  C3  BNZ d   1       1.944   0.274  -3.634  0.00  0.00     0.000 A 
ATOM      4  C4  BNZ d   1       0.780  -0.158  -4.159  0.00  0.00     0.000 A 
ATOM      5  C5  BNZ d   1      -0.206  -0.676  -3.342  0.00  0.00     0.000 A 
ATOM      6  C6  BNZ d   1      -0.005  -0.745  -1.982  0.00  0.00     0.000 A 
ENDROOT
TORSDOF 0
ENDMDL
