MODEL 1
REMARK minimizedAffinity -3.04462862
REMARK minimizedRMSD -1
REMARK  0 active torsions:
REMARK  status: ('A' for Active; 'I' for Inactive)
ROOT
ATOM      1  C1  BNZ d   1       1.882  -0.181  -2.646  0.00  0.00     0.000 A 
ATOM      2  C2  BNZ d   1       0.621  -0.706  -2.551  0.00  0.00     0.000 A 
ATOM      3  C3  BNZ d   1      -0.392  -0.241  -3.343  0.00  0.00     0.000 A 
ATOM      4  C4  BNZ d   1      -0.152   0.774  -4.198  0.00  0.00     0.000 A 
ATOM      5  C5  BNZ d   1       1.112   1.320  -4.298  0.00  0.00     0.000 A 
ATOM      6  C6  BNZ d   1       2.138   0.824  -3.527  0.00  0.00     0.000 A 
ENDROOT
TORSDOF 0
ENDMDL
