MODEL 1
REMARK minimizedAffinity -3.82871795
REMARK minimizedRMSD -1
REMARK  0 active torsions:
REMARK  status: ('A' for Active; 'I' for Inactive)
ROOT
ATOM      1  C1  BNZ d   1      -0.853   0.587   2.162  0.00  0.00     0.000 A 
ATOM      2  C2  BNZ d   1      -0.794  -0.322   1.140  0.00  0.00     0.000 A 
ATOM      3  C3  BNZ d   1       0.063  -0.142   0.091  0.00  0.00     0.000 A 
ATOM      4  C4  BNZ d   1       0.831   0.966   0.045  0.00  0.00     0.000 A 
ATOM      5  C5  BNZ d   1       0.776   1.897   1.063  0.00  0.00     0.000 A 
ATOM      6  C6  BNZ d   1      -0.059   1.693   2.137  0.00  0.00     0.000 A 
ENDROOT
TORSDOF 0
ENDMDL
