MODEL 1
REMARK minimizedAffinity -0.628984034
REMARK minimizedRMSD -1
REMARK  0 active torsions:
REMARK  status: ('A' for Active; 'I' for Inactive)
ROOT
ATOM      1  C1  BNZ d   1       0.080  -0.415   0.379  0.00  0.00     0.000 A 
ATOM      2  C2  BNZ d   1      -1.176  -0.594  -0.135  0.00  0.00     0.000 A 
ATOM      3  C3  BNZ d   1      -2.285  -0.272   0.598  0.00  0.00     0.000 A 
ATOM      4  C4  BNZ d   1      -2.136   0.189   1.856  0.00  0.00     0.000 A 
ATOM      5  C5  BNZ d   1      -0.876   0.367   2.392  0.00  0.00     0.000 A 
ATOM      6  C6  BNZ d   1       0.238   0.079   1.637  0.00  0.00     0.000 A 
ENDROOT
TORSDOF 0
ENDMDL
