MODEL 1
REMARK minimizedAffinity 7.1192317
REMARK minimizedRMSD -1
REMARK  3 active torsions:
REMARK  status: ('A' for Active; 'I' for Inactive)
REMARK    1  A    between atoms: C3'_2  and  C2'_3 
REMARK    2  A    between atoms: C2'_3  and  C1'_4 
REMARK    3  A    between atoms: C1'_4  and  C1_5 
ROOT
ATOM      1  C1  N4B d   1       4.489   5.848  -2.377  0.00  0.00    -0.075 A 
ATOM      2  C2  N4B d   1       3.407   5.763  -3.280  0.00  0.00     0.002 A 
ATOM      3  C3  N4B d   1       3.639   5.776  -4.634  0.00  0.00     0.002 A 
ATOM      4  C4  N4B d   1       4.938   5.891  -5.105  0.00  0.00    -0.004 A 
ATOM      5  C5  N4B d   1       5.980   5.947  -4.226  0.00  0.00     0.002 A 
ATOM      6  C6  N4B d   1       5.762   5.932  -2.864  0.00  0.00     0.002 A 
ENDROOT
BRANCH   1   7
ATOM      7  C1' N4B d   1       4.278   5.925  -0.890  0.00  0.00     0.057 C 
BRANCH   7   8
ATOM      8  C2' N4B d   1       3.039   5.116  -0.517  0.00  0.00     0.009 C 
BRANCH   8   9
ATOM      9  C3' N4B d   1       1.782   5.671  -1.166  0.00  0.00     0.004 C 
ATOM     10  C4' N4B d   1       0.600   5.661  -0.244  0.00  0.00     0.003 C 
ENDBRANCH   8   9
ENDBRANCH   7   8
ENDBRANCH   1   7
TORSDOF 3
ENDMDL
