MODEL 1
REMARK minimizedAffinity 2.95660043
REMARK minimizedRMSD -1
REMARK  3 active torsions:
REMARK  status: ('A' for Active; 'I' for Inactive)
REMARK    1  A    between atoms: C3'_2  and  C2'_3 
REMARK    2  A    between atoms: C2'_3  and  C1'_4 
REMARK    3  A    between atoms: C1'_4  and  C1_5 
ROOT
ATOM      1  C1  N4B d   1       2.384  -3.580   5.729  0.00  0.00    -0.075 A 
ATOM      2  C2  N4B d   1       0.997  -3.361   5.881  0.00  0.00     0.002 A 
ATOM      3  C3  N4B d   1       0.142  -4.429   5.999  0.00  0.00     0.002 A 
ATOM      4  C4  N4B d   1       0.647  -5.720   5.950  0.00  0.00    -0.004 A 
ATOM      5  C5  N4B d   1       1.990  -5.923   5.829  0.00  0.00     0.002 A 
ATOM      6  C6  N4B d   1       2.862  -4.858   5.713  0.00  0.00     0.002 A 
ENDROOT
BRANCH   1   7
ATOM      7  C1' N4B d   1       3.348  -2.446   5.510  0.00  0.00     0.057 C 
BRANCH   7   8
ATOM      8  C2' N4B d   1       3.113  -1.850   4.125  0.00  0.00     0.009 C 
BRANCH   8   9
ATOM      9  C3' N4B d   1       2.029  -0.786   4.141  0.00  0.00     0.004 C 
ATOM     10  C4' N4B d   1       2.080   0.112   2.941  0.00  0.00     0.003 C 
ENDBRANCH   8   9
ENDBRANCH   7   8
ENDBRANCH   1   7
TORSDOF 3
ENDMDL
