MODEL 1
REMARK minimizedAffinity 14.7951822
REMARK minimizedRMSD -1
REMARK  2 active torsions:
REMARK  status: ('A' for Active; 'I' for Inactive)
REMARK    1  A    between atoms: C2'_3  and  C1'_4 
REMARK    2  A    between atoms: C1'_4  and  C1_5 
ROOT
ATOM      1  C1  I4B d   1       0.461   1.075   1.994  0.00  0.00    -0.075 A 
ATOM      2  C2  I4B d   1       0.057   0.986   0.685  0.00  0.00     0.003 A 
ATOM      3  C3  I4B d   1       0.287  -0.201  -0.053  0.00  0.00     0.002 A 
ATOM      4  C4  I4B d   1       0.963  -1.248   0.538  0.00  0.00    -0.004 A 
ATOM      5  C5  I4B d   1       1.351  -1.165   1.872  0.00  0.00     0.002 A 
ATOM      6  C6  I4B d   1       1.088  -0.001   2.609  0.00  0.00     0.003 A 
ENDROOT
BRANCH   1   7
ATOM      7  C1' I4B d   1       0.232   2.355   2.734  0.00  0.00     0.060 C 
BRANCH   7   8
ATOM      8  C2' I4B d   1       1.486   3.196   2.609  0.00  0.00    -0.013 C 
ATOM      9  C4' I4B d   1       1.179   4.549   2.023  0.00  0.00     0.013 C 
ATOM     10  C3' I4B d   1       2.097   3.322   3.973  0.00  0.00     0.013 C 
ENDBRANCH   7   8
ENDBRANCH   1   7
TORSDOF 2
ENDMDL
