MODEL 1
REMARK minimizedAffinity 11.3379869
REMARK minimizedRMSD -1
REMARK  2 active torsions:
REMARK  status: ('A' for Active; 'I' for Inactive)
REMARK    1  A    between atoms: C2'_3  and  C1'_4 
REMARK    2  A    between atoms: C1'_4  and  C1_5 
ROOT
ATOM      1  C1  I4B d   1       0.874   2.980   1.458  0.00  0.00    -0.075 A 
ATOM      2  C2  I4B d   1       1.404   2.290   2.519  0.00  0.00     0.003 A 
ATOM      3  C3  I4B d   1       2.198   2.960   3.481  0.00  0.00     0.002 A 
ATOM      4  C4  I4B d   1       2.476   4.302   3.316  0.00  0.00    -0.004 A 
ATOM      5  C5  I4B d   1       1.919   5.005   2.252  0.00  0.00     0.002 A 
ATOM      6  C6  I4B d   1       1.103   4.343   1.323  0.00  0.00     0.003 A 
ENDROOT
BRANCH   1   7
ATOM      7  C1' I4B d   1       0.068   2.234   0.442  0.00  0.00     0.060 C 
BRANCH   7   8
ATOM      8  C2' I4B d   1      -0.088   0.807   0.927  0.00  0.00    -0.013 C 
ATOM      9  C4' I4B d   1      -1.522   0.355   0.840  0.00  0.00     0.013 C 
ATOM     10  C3' I4B d   1       0.806  -0.065   0.096  0.00  0.00     0.013 C 
ENDBRANCH   7   8
ENDBRANCH   1   7
TORSDOF 2
ENDMDL
