MODEL 1
REMARK minimizedAffinity 14.146533
REMARK minimizedRMSD -1
REMARK  2 active torsions:
REMARK  status: ('A' for Active; 'I' for Inactive)
REMARK    1  A    between atoms: C2'_3  and  C1'_4 
REMARK    2  A    between atoms: C1'_4  and  C1_5 
ROOT
ATOM      1  C1  I4B d   1       0.116   1.418   1.767  0.00  0.00    -0.075 A 
ATOM      2  C2  I4B d   1      -0.709   1.623   0.690  0.00  0.00     0.003 A 
ATOM      3  C3  I4B d   1      -0.808   0.644  -0.329  0.00  0.00     0.002 A 
ATOM      4  C4  I4B d   1      -0.031  -0.494  -0.256  0.00  0.00    -0.004 A 
ATOM      5  C5  I4B d   1       0.788  -0.711   0.848  0.00  0.00     0.002 A 
ATOM      6  C6  I4B d   1       0.853   0.245   1.873  0.00  0.00     0.003 A 
ENDROOT
BRANCH   1   7
ATOM      7  C1' I4B d   1       0.221   2.486   2.809  0.00  0.00     0.060 C 
BRANCH   7   8
ATOM      8  C2' I4B d   1       1.606   3.095   2.715  0.00  0.00    -0.013 C 
ATOM      9  C4' I4B d   1       1.536   4.557   2.363  0.00  0.00     0.013 C 
ATOM     10  C3' I4B d   1       2.293   2.887   4.032  0.00  0.00     0.013 C 
ENDBRANCH   7   8
ENDBRANCH   1   7
TORSDOF 2
ENDMDL
