MODEL 1
REMARK minimizedAffinity -3.33172965
REMARK minimizedRMSD -1
REMARK  2 active torsions:
REMARK  status: ('A' for Active; 'I' for Inactive)
REMARK    1  A    between atoms: C2'_3  and  C1'_4 
REMARK    2  A    between atoms: C1'_4  and  C1_5 
ROOT
ATOM      1  C1  I4B d   1       0.220  -0.363  -0.534  0.00  0.00    -0.075 A 
ATOM      2  C2  I4B d   1      -0.636   0.658  -0.861  0.00  0.00     0.003 A 
ATOM      3  C3  I4B d   1      -1.015   1.611   0.115  0.00  0.00     0.002 A 
ATOM      4  C4  I4B d   1      -0.558   1.476   1.410  0.00  0.00    -0.004 A 
ATOM      5  C5  I4B d   1       0.328   0.453   1.735  0.00  0.00     0.002 A 
ATOM      6  C6  I4B d   1       0.729  -0.466   0.754  0.00  0.00     0.003 A 
ENDROOT
BRANCH   1   7
ATOM      7  C1' I4B d   1       0.573  -1.371  -1.581  0.00  0.00     0.060 C 
BRANCH   7   8
ATOM      8  C2' I4B d   1      -0.153  -2.660  -1.253  0.00  0.00    -0.013 C 
ATOM      9  C4' I4B d   1      -0.917  -3.175  -2.444  0.00  0.00     0.013 C 
ATOM     10  C3' I4B d   1       0.865  -3.659  -0.790  0.00  0.00     0.013 C 
ENDBRANCH   7   8
ENDBRANCH   1   7
TORSDOF 2
ENDMDL
