MODEL 1
REMARK minimizedAffinity 0.172870025
REMARK minimizedRMSD -1
REMARK  2 active torsions:
REMARK  status: ('A' for Active; 'I' for Inactive)
REMARK    1  A    between atoms: C2'_3  and  C1'_4 
REMARK    2  A    between atoms: C1'_4  and  C1_5 
ROOT
ATOM      1  C1  I4B d   1       1.129   1.497   1.548  0.00  0.00    -0.075 A 
ATOM      2  C2  I4B d   1       0.667   2.334   0.563  0.00  0.00     0.003 A 
ATOM      3  C3  I4B d   1       0.390   1.829  -0.730  0.00  0.00     0.002 A 
ATOM      4  C4  I4B d   1       0.635   0.499  -1.007  0.00  0.00    -0.004 A 
ATOM      5  C5  I4B d   1       1.081  -0.353  -0.001  0.00  0.00     0.002 A 
ATOM      6  C6  I4B d   1       1.318   0.146   1.288  0.00  0.00     0.003 A 
ENDROOT
BRANCH   1   7
ATOM      7  C1' I4B d   1       1.443   2.072   2.893  0.00  0.00     0.060 C 
BRANCH   7   8
ATOM      8  C2' I4B d   1       2.766   2.803   2.791  0.00  0.00    -0.013 C 
ATOM      9  C4' I4B d   1       3.057   3.582   4.047  0.00  0.00     0.013 C 
ATOM     10  C3' I4B d   1       3.837   1.787   2.524  0.00  0.00     0.013 C 
ENDBRANCH   7   8
ENDBRANCH   1   7
TORSDOF 2
ENDMDL
