MODEL 1
REMARK minimizedAffinity -0.216791019
REMARK minimizedRMSD -1
REMARK  2 active torsions:
REMARK  status: ('A' for Active; 'I' for Inactive)
REMARK    1  A    between atoms: C2'_3  and  C1'_4 
REMARK    2  A    between atoms: C1'_4  and  C1_5 
ROOT
ATOM      1  C1  I4B d   1       0.324   2.377   0.057  0.00  0.00    -0.075 A 
ATOM      2  C2  I4B d   1       0.280   3.055  -1.135  0.00  0.00     0.003 A 
ATOM      3  C3  I4B d   1       0.574   4.440  -1.179  0.00  0.00     0.002 A 
ATOM      4  C4  I4B d   1       0.856   5.112  -0.008  0.00  0.00    -0.004 A 
ATOM      5  C5  I4B d   1       0.922   4.418   1.197  0.00  0.00     0.002 A 
ATOM      6  C6  I4B d   1       0.667   3.040   1.228  0.00  0.00     0.003 A 
ENDROOT
BRANCH   1   7
ATOM      7  C1' I4B d   1      -0.025   0.922   0.072  0.00  0.00     0.060 C 
BRANCH   7   8
ATOM      8  C2' I4B d   1       1.268   0.133   0.098  0.00  0.00    -0.013 C 
ATOM      9  C4' I4B d   1       1.551  -0.405   1.476  0.00  0.00     0.013 C 
ATOM     10  C3' I4B d   1       1.153  -0.977  -0.903  0.00  0.00     0.013 C 
ENDBRANCH   7   8
ENDBRANCH   1   7
TORSDOF 2
ENDMDL
