MODEL 1
REMARK minimizedAffinity -0.47453934
REMARK minimizedRMSD -1
REMARK  2 active torsions:
REMARK  status: ('A' for Active; 'I' for Inactive)
REMARK    1  A    between atoms: C2'_3  and  C1'_4 
REMARK    2  A    between atoms: C1'_4  and  C1_5 
ROOT
ATOM      1  C1  I4B d   1       0.560   0.275   0.746  0.00  0.00    -0.075 A 
ATOM      2  C2  I4B d   1       1.093  -0.853   1.317  0.00  0.00     0.003 A 
ATOM      3  C3  I4B d   1       1.443  -0.861   2.689  0.00  0.00     0.002 A 
ATOM      4  C4  I4B d   1       1.290   0.289   3.436  0.00  0.00    -0.004 A 
ATOM      5  C5  I4B d   1       0.727   1.425   2.861  0.00  0.00     0.002 A 
ATOM      6  C6  I4B d   1       0.348   1.415   1.511  0.00  0.00     0.003 A 
ENDROOT
BRANCH   1   7
ATOM      7  C1' I4B d   1       0.232   0.259  -0.713  0.00  0.00     0.060 C 
BRANCH   7   8
ATOM      8  C2' I4B d   1      -0.931   1.202  -0.942  0.00  0.00    -0.013 C 
ATOM      9  C4' I4B d   1      -0.460   2.530  -1.475  0.00  0.00     0.013 C 
ATOM     10  C3' I4B d   1      -1.882   0.543  -1.895  0.00  0.00     0.013 C 
ENDBRANCH   7   8
ENDBRANCH   1   7
TORSDOF 2
ENDMDL
