MODEL 1
REMARK minimizedAffinity 3.5877378
REMARK minimizedRMSD -1
REMARK  2 active torsions:
REMARK  status: ('A' for Active; 'I' for Inactive)
REMARK    1  A    between atoms: C2'_3  and  C1'_4 
REMARK    2  A    between atoms: C1'_4  and  C1_5 
ROOT
ATOM      1  C1  I4B d   1       0.834   2.874   0.749  0.00  0.00    -0.075 A 
ATOM      2  C2  I4B d   1       1.680   3.075   1.812  0.00  0.00     0.003 A 
ATOM      3  C3  I4B d   1       2.469   4.248   1.881  0.00  0.00     0.002 A 
ATOM      4  C4  I4B d   1       2.420   5.163   0.849  0.00  0.00    -0.004 A 
ATOM      5  C5  I4B d   1       1.545   4.968  -0.216  0.00  0.00     0.002 A 
ATOM      6  C6  I4B d   1       0.738   3.822  -0.260  0.00  0.00     0.003 A 
ENDROOT
BRANCH   1   7
ATOM      7  C1' I4B d   1       0.039   1.608   0.691  0.00  0.00     0.060 C 
BRANCH   7   8
ATOM      8  C2' I4B d   1       0.720   0.673  -0.287  0.00  0.00    -0.013 C 
ATOM      9  C4' I4B d   1       1.331  -0.507   0.421  0.00  0.00     0.013 C 
ATOM     10  C3' I4B d   1      -0.301   0.231  -1.293  0.00  0.00     0.013 C 
ENDBRANCH   7   8
ENDBRANCH   1   7
TORSDOF 2
ENDMDL
