MODEL 1
REMARK minimizedAffinity 4.83725357
REMARK minimizedRMSD -1
REMARK  2 active torsions:
REMARK  status: ('A' for Active; 'I' for Inactive)
REMARK    1  A    between atoms: C2'_3  and  C1'_4 
REMARK    2  A    between atoms: C1'_4  and  C1_5 
ROOT
ATOM      1  C1  I4B d   1       0.647   1.505   0.818  0.00  0.00    -0.075 A 
ATOM      2  C2  I4B d   1       1.343   0.372   1.160  0.00  0.00     0.003 A 
ATOM      3  C3  I4B d   1       1.432  -0.711   0.252  0.00  0.00     0.002 A 
ATOM      4  C4  I4B d   1       0.774  -0.639  -0.958  0.00  0.00    -0.004 A 
ATOM      5  C5  I4B d   1       0.088   0.519  -1.313  0.00  0.00     0.002 A 
ATOM      6  C6  I4B d   1       0.034   1.603  -0.424  0.00  0.00     0.003 A 
ENDROOT
BRANCH   1   7
ATOM      7  C1' I4B d   1       0.545   2.616   1.814  0.00  0.00     0.060 C 
BRANCH   7   8
ATOM      8  C2' I4B d   1       1.795   3.464   1.697  0.00  0.00    -0.013 C 
ATOM      9  C4' I4B d   1       1.535   4.711   0.894  0.00  0.00     0.013 C 
ATOM     10  C3' I4B d   1       2.258   3.800   3.083  0.00  0.00     0.013 C 
ENDBRANCH   7   8
ENDBRANCH   1   7
TORSDOF 2
ENDMDL
