MODEL 1
REMARK minimizedAffinity 0.786224604
REMARK minimizedRMSD -1
REMARK  0 active torsions:
REMARK  status: ('A' for Active; 'I' for Inactive)
ROOT
ATOM      1  C   UNL d   1       5.197  -5.524  -6.000  0.00  0.00     0.020 A 
ATOM      2  C1  UNL d   1       5.983  -5.217  -4.890  0.00  0.00     0.020 A 
ATOM      3  C2  UNL d   1       5.402  -5.148  -3.621  0.00  0.00     0.034 A 
ATOM      4  C3  UNL d   1       4.032  -5.386  -3.460  0.00  0.00     0.017 A 
ATOM      5  C4  UNL d   1       3.245  -5.694  -4.576  0.00  0.00     0.017 A 
ATOM      6  C5  UNL d   1       3.831  -5.762  -5.843  0.00  0.00     0.034 A 
ATOM      7 Cl   UNL d   1       1.548  -6.000  -4.456  0.00  0.00    -0.070 Cl
ATOM      8 Cl1  UNL d   1       3.381  -5.284  -1.863  0.00  0.00    -0.070 Cl
ENDROOT
TORSDOF 0
ENDMDL
