MODEL 1
REMARK minimizedAffinity 3.77109909
REMARK minimizedRMSD -1
REMARK  0 active torsions:
REMARK  status: ('A' for Active; 'I' for Inactive)
ROOT
ATOM      1  C   UNL d   1      -1.972   2.416  -4.941  0.00  0.00     0.020 A 
ATOM      2  C1  UNL d   1      -1.911   3.594  -5.684  0.00  0.00     0.020 A 
ATOM      3  C2  UNL d   1      -3.084   4.283  -6.000  0.00  0.00     0.034 A 
ATOM      4  C3  UNL d   1      -4.324   3.794  -5.572  0.00  0.00     0.017 A 
ATOM      5  C4  UNL d   1      -4.384   2.611  -4.826  0.00  0.00     0.017 A 
ATOM      6  C5  UNL d   1      -3.206   1.926  -4.513  0.00  0.00     0.034 A 
ATOM      7 Cl   UNL d   1      -5.877   1.946  -4.263  0.00  0.00    -0.070 Cl
ATOM      8 Cl1  UNL d   1      -5.734   4.697  -5.998  0.00  0.00    -0.070 Cl
ENDROOT
TORSDOF 0
ENDMDL
