MODEL 1
REMARK minimizedAffinity 2.28826547
REMARK minimizedRMSD -1
REMARK  0 active torsions:
REMARK  status: ('A' for Active; 'I' for Inactive)
ROOT
ATOM      1  C   UNL d   1       2.812  -5.442  -2.127  0.00  0.00     0.020 A 
ATOM      2  C1  UNL d   1       4.120  -4.960  -2.126  0.00  0.00     0.020 A 
ATOM      3  C2  UNL d   1       4.802  -4.792  -3.333  0.00  0.00     0.034 A 
ATOM      4  C3  UNL d   1       4.177  -5.106  -4.545  0.00  0.00     0.017 A 
ATOM      5  C4  UNL d   1       2.864  -5.590  -4.544  0.00  0.00     0.017 A 
ATOM      6  C5  UNL d   1       2.185  -5.756  -3.333  0.00  0.00     0.034 A 
ATOM      7 Cl   UNL d   1       2.026  -5.999  -6.000  0.00  0.00    -0.070 Cl
ATOM      8 Cl1  UNL d   1       5.081  -4.873  -5.999  0.00  0.00    -0.070 Cl
ENDROOT
TORSDOF 0
ENDMDL
