MODEL 1
REMARK minimizedAffinity 7.71228504
REMARK minimizedRMSD -1
REMARK  0 active torsions:
REMARK  status: ('A' for Active; 'I' for Inactive)
ROOT
ATOM      1  C   UNL d   1       3.988  -5.193  -6.000  0.00  0.00     0.020 A 
ATOM      2  C1  UNL d   1       2.717  -5.745  -5.844  0.00  0.00     0.020 A 
ATOM      3  C2  UNL d   1       2.213  -5.986  -4.564  0.00  0.00     0.034 A 
ATOM      4  C3  UNL d   1       2.980  -5.675  -3.435  0.00  0.00     0.017 A 
ATOM      5  C4  UNL d   1       4.256  -5.122  -3.593  0.00  0.00     0.017 A 
ATOM      6  C5  UNL d   1       4.756  -4.882  -4.877  0.00  0.00     0.034 A 
ATOM      7 Cl   UNL d   1       5.261  -4.712  -2.248  0.00  0.00    -0.070 Cl
ATOM      8 Cl1  UNL d   1       2.293  -6.000  -1.884  0.00  0.00    -0.070 Cl
ENDROOT
TORSDOF 0
ENDMDL
