MODEL 1
REMARK minimizedAffinity 4.05923748
REMARK minimizedRMSD -1
REMARK  0 active torsions:
REMARK  status: ('A' for Active; 'I' for Inactive)
ROOT
ATOM      1  C   UNL d   1       3.739   2.269   1.696  0.00  0.00     0.020 A 
ATOM      2  C1  UNL d   1       2.626   1.517   1.321  0.00  0.00     0.020 A 
ATOM      3  C2  UNL d   1       1.560   2.130   0.659  0.00  0.00     0.034 A 
ATOM      4  C3  UNL d   1       1.605   3.499   0.370  0.00  0.00     0.017 A 
ATOM      5  C4  UNL d   1       2.722   4.253   0.747  0.00  0.00     0.017 A 
ATOM      6  C5  UNL d   1       3.787   3.634   1.409  0.00  0.00     0.034 A 
ATOM      7 Cl   UNL d   1       2.849   5.946   0.425  0.00  0.00    -0.070 Cl
ATOM      8 Cl1  UNL d   1       0.251   4.191  -0.451  0.00  0.00    -0.070 Cl
ENDROOT
TORSDOF 0
ENDMDL
