MODEL 1
REMARK minimizedAffinity 0.96634078
REMARK minimizedRMSD -1
REMARK  0 active torsions:
REMARK  status: ('A' for Active; 'I' for Inactive)
ROOT
ATOM      1  C   UNL d   1       2.411   2.015   1.072  0.00  0.00     0.020 A 
ATOM      2  C1  UNL d   1       2.576   2.360   2.413  0.00  0.00     0.020 A 
ATOM      3  C2  UNL d   1       1.499   2.873   3.139  0.00  0.00     0.034 A 
ATOM      4  C3  UNL d   1       0.253   3.042   2.525  0.00  0.00     0.017 A 
ATOM      5  C4  UNL d   1       0.088   2.695   1.179  0.00  0.00     0.017 A 
ATOM      6  C5  UNL d   1       1.170   2.182   0.456  0.00  0.00     0.034 A 
ATOM      7 Cl   UNL d   1      -1.419   2.875   0.352  0.00  0.00    -0.070 Cl
ATOM      8 Cl1  UNL d   1      -1.035   3.681   3.483  0.00  0.00    -0.070 Cl
ENDROOT
TORSDOF 0
ENDMDL
