MODEL 1
REMARK minimizedAffinity 2.64932942
REMARK minimizedRMSD -1
REMARK  0 active torsions:
REMARK  status: ('A' for Active; 'I' for Inactive)
ROOT
ATOM      1  C   UNL d   1       1.670   1.981   0.389  0.00  0.00     0.020 A 
ATOM      2  C1  UNL d   1       2.134   2.158   1.691  0.00  0.00     0.020 A 
ATOM      3  C2  UNL d   1       1.256   2.571   2.695  0.00  0.00     0.034 A 
ATOM      4  C3  UNL d   1      -0.091   2.810   2.398  0.00  0.00     0.017 A 
ATOM      5  C4  UNL d   1      -0.556   2.632   1.090  0.00  0.00     0.017 A 
ATOM      6  C5  UNL d   1       0.328   2.218   0.089  0.00  0.00     0.034 A 
ATOM      7 Cl   UNL d   1      -2.204   2.907   0.646  0.00  0.00    -0.070 Cl
ATOM      8 Cl1  UNL d   1      -1.121   3.319   3.689  0.00  0.00    -0.070 Cl
ENDROOT
TORSDOF 0
ENDMDL
