MODEL 1
REMARK minimizedAffinity 0.34434709
REMARK minimizedRMSD -1
REMARK  0 active torsions:
REMARK  status: ('A' for Active; 'I' for Inactive)
ROOT
ATOM      1  C   UNL d   1       5.998  -5.709  -4.803  0.00  0.00     0.020 A 
ATOM      2  C1  UNL d   1       5.308  -5.901  -6.000  0.00  0.00     0.020 A 
ATOM      3  C2  UNL d   1       3.914  -5.975  -5.998  0.00  0.00     0.034 A 
ATOM      4  C3  UNL d   1       3.204  -5.856  -4.797  0.00  0.00     0.017 A 
ATOM      5  C4  UNL d   1       3.897  -5.663  -3.597  0.00  0.00     0.017 A 
ATOM      6  C5  UNL d   1       5.294  -5.590  -3.604  0.00  0.00     0.034 A 
ATOM      7 Cl   UNL d   1       3.091  -5.508  -2.076  0.00  0.00    -0.070 Cl
ATOM      8 Cl1  UNL d   1       1.481  -5.957  -4.869  0.00  0.00    -0.070 Cl
ENDROOT
TORSDOF 0
ENDMDL
