MODEL 1
REMARK minimizedAffinity 4.17832088
REMARK minimizedRMSD -1
REMARK  0 active torsions:
REMARK  status: ('A' for Active; 'I' for Inactive)
ROOT
ATOM      1  C   UNL d   1       5.589   5.023   5.534  0.00  0.00     0.020 A 
ATOM      2  C1  UNL d   1       4.624   5.962   5.170  0.00  0.00     0.020 A 
ATOM      3  C2  UNL d   1       4.068   5.932   3.890  0.00  0.00     0.034 A 
ATOM      4  C3  UNL d   1       4.476   4.961   2.968  0.00  0.00     0.017 A 
ATOM      5  C4  UNL d   1       5.445   4.019   3.334  0.00  0.00     0.017 A 
ATOM      6  C5  UNL d   1       5.998   4.054   4.617  0.00  0.00     0.034 A 
ATOM      7 Cl   UNL d   1       5.998   2.791   2.251  0.00  0.00    -0.070 Cl
ATOM      8 Cl1  UNL d   1       3.746   4.983   1.402  0.00  0.00    -0.070 Cl
ENDROOT
TORSDOF 0
ENDMDL
