MODEL 1
REMARK minimizedAffinity 9.16311741
REMARK minimizedRMSD -1
REMARK  0 active torsions:
REMARK  status: ('A' for Active; 'I' for Inactive)
ROOT
ATOM      1  C   UNL d   1       3.018   1.452   1.625  0.00  0.00     0.020 A 
ATOM      2  C1  UNL d   1       2.102   1.820   0.640  0.00  0.00     0.020 A 
ATOM      3  C2  UNL d   1       2.107   3.121   0.132  0.00  0.00     0.034 A 
ATOM      4  C3  UNL d   1       3.031   4.059   0.608  0.00  0.00     0.017 A 
ATOM      5  C4  UNL d   1       3.950   3.689   1.597  0.00  0.00     0.017 A 
ATOM      6  C5  UNL d   1       3.940   2.385   2.102  0.00  0.00     0.034 A 
ATOM      7 Cl   UNL d   1       5.120   4.790   2.233  0.00  0.00    -0.070 Cl
ATOM      8 Cl1  UNL d   1       2.981   5.649  -0.065  0.00  0.00    -0.070 Cl
ENDROOT
TORSDOF 0
ENDMDL
