MODEL 1
REMARK minimizedAffinity 2.32437897
REMARK minimizedRMSD -1
REMARK  0 active torsions:
REMARK  status: ('A' for Active; 'I' for Inactive)
ROOT
ATOM      1  C   UNL d   1      -5.982   3.525  -5.670  0.00  0.00     0.020 A 
ATOM      2  C1  UNL d   1      -5.970   2.368  -4.891  0.00  0.00     0.020 A 
ATOM      3  C2  UNL d   1      -4.758   1.842  -4.441  0.00  0.00     0.034 A 
ATOM      4  C3  UNL d   1      -3.552   2.472  -4.770  0.00  0.00     0.017 A 
ATOM      5  C4  UNL d   1      -3.565   3.632  -5.552  0.00  0.00     0.017 A 
ATOM      6  C5  UNL d   1      -4.782   4.155  -6.000  0.00  0.00     0.034 A 
ATOM      7 Cl   UNL d   1      -2.117   4.465  -5.998  0.00  0.00    -0.070 Cl
ATOM      8 Cl1  UNL d   1      -2.090   1.766  -4.178  0.00  0.00    -0.070 Cl
ENDROOT
TORSDOF 0
ENDMDL
