MODEL 1
REMARK minimizedAffinity -2.46715355
REMARK minimizedRMSD -1
REMARK  0 active torsions:
REMARK  status: ('A' for Active; 'I' for Inactive)
ROOT
ATOM      1  C   UNL d   1       0.194   3.289   1.756  0.00  0.00     0.020 A 
ATOM      2  C1  UNL d   1       0.095   2.038   1.149  0.00  0.00     0.020 A 
ATOM      3  C2  UNL d   1       1.250   1.364   0.746  0.00  0.00     0.034 A 
ATOM      4  C3  UNL d   1       2.509   1.942   0.949  0.00  0.00     0.017 A 
ATOM      5  C4  UNL d   1       2.607   3.198   1.558  0.00  0.00     0.017 A 
ATOM      6  C5  UNL d   1       1.447   3.868   1.960  0.00  0.00     0.034 A 
ATOM      7 Cl   UNL d   1       4.124   3.975   1.842  0.00  0.00    -0.070 Cl
ATOM      8 Cl1  UNL d   1       3.895   1.053   0.426  0.00  0.00    -0.070 Cl
ENDROOT
TORSDOF 0
ENDMDL
