MODEL 1
REMARK minimizedAffinity 0.137867615
REMARK minimizedRMSD -1
REMARK  0 active torsions:
REMARK  status: ('A' for Active; 'I' for Inactive)
ROOT
ATOM      1  C   UNL d   1       5.077  -5.761  -5.992  0.00  0.00     0.020 A 
ATOM      2  C1  UNL d   1       5.998  -5.607  -4.956  0.00  0.00     0.020 A 
ATOM      3  C2  UNL d   1       5.550  -5.424  -3.646  0.00  0.00     0.034 A 
ATOM      4  C3  UNL d   1       4.178  -5.396  -3.369  0.00  0.00     0.017 A 
ATOM      5  C4  UNL d   1       3.256  -5.551  -4.409  0.00  0.00     0.017 A 
ATOM      6  C5  UNL d   1       3.709  -5.733  -5.719  0.00  0.00     0.034 A 
ATOM      7 Cl   UNL d   1       1.548  -5.526  -4.145  0.00  0.00    -0.070 Cl
ATOM      8 Cl1  UNL d   1       3.696  -5.167  -1.725  0.00  0.00    -0.070 Cl
ENDROOT
TORSDOF 0
ENDMDL
