MODEL 1
REMARK minimizedAffinity -0.162501127
REMARK minimizedRMSD -1
REMARK  0 active torsions:
REMARK  status: ('A' for Active; 'I' for Inactive)
ROOT
ATOM      1  C   UNL d   1       5.256  -5.623  -5.999  0.00  0.00     0.020 A 
ATOM      2  C1  UNL d   1       6.000  -5.052  -4.967  0.00  0.00     0.020 A 
ATOM      3  C2  UNL d   1       5.390  -4.761  -3.745  0.00  0.00     0.034 A 
ATOM      4  C3  UNL d   1       4.032  -5.041  -3.551  0.00  0.00     0.017 A 
ATOM      5  C4  UNL d   1       3.287  -5.615  -4.588  0.00  0.00     0.017 A 
ATOM      6  C5  UNL d   1       3.902  -5.903  -5.809  0.00  0.00     0.034 A 
ATOM      7 Cl   UNL d   1       1.607  -5.989  -4.424  0.00  0.00    -0.070 Cl
ATOM      8 Cl1  UNL d   1       3.344  -4.656  -2.014  0.00  0.00    -0.070 Cl
ENDROOT
TORSDOF 0
ENDMDL
