MODEL 1
REMARK minimizedAffinity 6.77805233
REMARK minimizedRMSD -1
REMARK  0 active torsions:
REMARK  status: ('A' for Active; 'I' for Inactive)
ROOT
ATOM      1  C   UNL d   1       3.377   5.999   0.374  0.00  0.00     0.020 A 
ATOM      2  C1  UNL d   1       4.750   5.756   0.396  0.00  0.00     0.020 A 
ATOM      3  C2  UNL d   1       5.228   4.465   0.633  0.00  0.00     0.034 A 
ATOM      4  C3  UNL d   1       4.331   3.412   0.848  0.00  0.00     0.017 A 
ATOM      5  C4  UNL d   1       2.954   3.656   0.825  0.00  0.00     0.017 A 
ATOM      6  C5  UNL d   1       2.481   4.951   0.588  0.00  0.00     0.034 A 
ATOM      7 Cl   UNL d   1       1.786   2.408   1.082  0.00  0.00    -0.070 Cl
ATOM      8 Cl1  UNL d   1       4.992   1.841   1.134  0.00  0.00    -0.070 Cl
ENDROOT
TORSDOF 0
ENDMDL
