MODEL 1
REMARK minimizedAffinity 2.89456987
REMARK minimizedRMSD -1
REMARK  0 active torsions:
REMARK  status: ('A' for Active; 'I' for Inactive)
ROOT
ATOM      1  C   UNL d   1       4.727  -5.578  -2.120  0.00  0.00     0.020 A 
ATOM      2  C1  UNL d   1       3.365  -5.877  -2.120  0.00  0.00     0.020 A 
ATOM      3  C2  UNL d   1       2.677  -5.996  -3.329  0.00  0.00     0.034 A 
ATOM      4  C3  UNL d   1       3.350  -5.817  -4.543  0.00  0.00     0.017 A 
ATOM      5  C4  UNL d   1       4.717  -5.518  -4.542  0.00  0.00     0.017 A 
ATOM      6  C5  UNL d   1       5.402  -5.400  -3.329  0.00  0.00     0.034 A 
ATOM      7 Cl   UNL d   1       5.615  -5.284  -6.000  0.00  0.00    -0.070 Cl
ATOM      8 Cl1  UNL d   1       2.435  -5.980  -6.000  0.00  0.00    -0.070 Cl
ENDROOT
TORSDOF 0
ENDMDL
