MODEL 1
REMARK minimizedAffinity 0.449848086
REMARK minimizedRMSD -1
REMARK  0 active torsions:
REMARK  status: ('A' for Active; 'I' for Inactive)
ROOT
ATOM      1  C   UNL d   1       5.265  -4.918  -5.877  0.00  0.00     0.020 A 
ATOM      2  C1  UNL d   1       5.914  -4.918  -4.644  0.00  0.00     0.020 A 
ATOM      3  C2  UNL d   1       5.212  -5.254  -3.485  0.00  0.00     0.034 A 
ATOM      4  C3  UNL d   1       3.856  -5.592  -3.557  0.00  0.00     0.017 A 
ATOM      5  C4  UNL d   1       3.205  -5.593  -4.796  0.00  0.00     0.017 A 
ATOM      6  C5  UNL d   1       3.913  -5.255  -5.953  0.00  0.00     0.034 A 
ATOM      7 Cl   UNL d   1       1.533  -5.999  -4.965  0.00  0.00    -0.070 Cl
ATOM      8 Cl1  UNL d   1       3.049  -5.998  -2.084  0.00  0.00    -0.070 Cl
ENDROOT
TORSDOF 0
ENDMDL
