MODEL 1
REMARK minimizedAffinity 5.08487606
REMARK minimizedRMSD -1
REMARK  0 active torsions:
REMARK  status: ('A' for Active; 'I' for Inactive)
ROOT
ATOM      1  C   UNL d   1       5.323  -5.668  -2.058  0.00  0.00     0.020 A 
ATOM      2  C1  UNL d   1       3.932  -5.718  -1.964  0.00  0.00     0.020 A 
ATOM      3  C2  UNL d   1       3.158  -5.818  -3.122  0.00  0.00     0.034 A 
ATOM      4  C3  UNL d   1       3.773  -5.868  -4.378  0.00  0.00     0.017 A 
ATOM      5  C4  UNL d   1       5.168  -5.818  -4.471  0.00  0.00     0.017 A 
ATOM      6  C5  UNL d   1       5.939  -5.718  -3.309  0.00  0.00     0.034 A 
ATOM      7 Cl   UNL d   1       5.999  -5.875  -5.986  0.00  0.00    -0.070 Cl
ATOM      8 Cl1  UNL d   1       2.753  -5.992  -5.767  0.00  0.00    -0.070 Cl
ENDROOT
TORSDOF 0
ENDMDL
