MODEL 1
REMARK minimizedAffinity -1.55092978
REMARK minimizedRMSD -1
REMARK  0 active torsions:
REMARK  status: ('A' for Active; 'I' for Inactive)
ROOT
ATOM      1  C   UNL d   1       3.880  -5.627  -5.999  0.00  0.00     0.020 A 
ATOM      2  C1  UNL d   1       5.267  -5.755  -5.932  0.00  0.00     0.020 A 
ATOM      3  C2  UNL d   1       5.901  -5.836  -4.691  0.00  0.00     0.034 A 
ATOM      4  C3  UNL d   1       5.149  -5.788  -3.511  0.00  0.00     0.017 A 
ATOM      5  C4  UNL d   1       3.757  -5.660  -3.580  0.00  0.00     0.017 A 
ATOM      6  C5  UNL d   1       3.127  -5.580  -4.826  0.00  0.00     0.034 A 
ATOM      7 Cl   UNL d   1       2.761  -5.595  -2.169  0.00  0.00    -0.070 Cl
ATOM      8 Cl1  UNL d   1       5.999  -5.894  -2.011  0.00  0.00    -0.070 Cl
ENDROOT
TORSDOF 0
ENDMDL
