MODEL 1
REMARK minimizedAffinity 1.47898626
REMARK minimizedRMSD -1
REMARK  0 active torsions:
REMARK  status: ('A' for Active; 'I' for Inactive)
ROOT
ATOM      1  C   UNL d   1       1.790  -6.000  -5.596  0.00  0.00     0.020 A 
ATOM      2  C1  UNL d   1       1.455  -5.625  -4.296  0.00  0.00     0.020 A 
ATOM      3  C2  UNL d   1       2.456  -5.247  -3.398  0.00  0.00     0.034 A 
ATOM      4  C3  UNL d   1       3.797  -5.243  -3.800  0.00  0.00     0.017 A 
ATOM      5  C4  UNL d   1       4.132  -5.620  -5.105  0.00  0.00     0.017 A 
ATOM      6  C5  UNL d   1       3.126  -5.997  -6.000  0.00  0.00     0.034 A 
ATOM      7 Cl   UNL d   1       5.764  -5.640  -5.674  0.00  0.00    -0.070 Cl
ATOM      8 Cl1  UNL d   1       4.983  -4.764  -2.637  0.00  0.00    -0.070 Cl
ENDROOT
TORSDOF 0
ENDMDL
