MODEL 1
REMARK minimizedAffinity 4.72742701
REMARK minimizedRMSD -1
REMARK  0 active torsions:
REMARK  status: ('A' for Active; 'I' for Inactive)
ROOT
ATOM      1  C   UNL d   1       4.007   0.666  -5.996  0.00  0.00     0.020 A 
ATOM      2  C1  UNL d   1       5.397   0.549  -5.990  0.00  0.00     0.020 A 
ATOM      3  C2  UNL d   1       5.991  -0.715  -5.986  0.00  0.00     0.034 A 
ATOM      4  C3  UNL d   1       5.196  -1.867  -5.988  0.00  0.00     0.017 A 
ATOM      5  C4  UNL d   1       3.801  -1.748  -5.994  0.00  0.00     0.017 A 
ATOM      6  C5  UNL d   1       3.211  -0.480  -5.998  0.00  0.00     0.034 A 
ATOM      7 Cl   UNL d   1       2.754  -3.123  -5.997  0.00  0.00    -0.070 Cl
ATOM      8 Cl1  UNL d   1       5.998  -3.397  -5.983  0.00  0.00    -0.070 Cl
ENDROOT
TORSDOF 0
ENDMDL
