MODEL 1
REMARK minimizedAffinity 6.3875432
REMARK minimizedRMSD -1
REMARK  0 active torsions:
REMARK  status: ('A' for Active; 'I' for Inactive)
ROOT
ATOM      1  C   UNL d   1       0.960  -1.525   0.665  0.00  0.00     0.020 A 
ATOM      2  C1  UNL d   1      -0.227  -1.918   0.050  0.00  0.00     0.020 A 
ATOM      3  C2  UNL d   1      -0.918  -1.023  -0.770  0.00  0.00     0.034 A 
ATOM      4  C3  UNL d   1      -0.422   0.269  -0.977  0.00  0.00     0.017 A 
ATOM      5  C4  UNL d   1       0.771   0.663  -0.359  0.00  0.00     0.017 A 
ATOM      6  C5  UNL d   1       1.458  -0.237   0.461  0.00  0.00     0.034 A 
ATOM      7 Cl   UNL d   1       1.445   2.240  -0.567  0.00  0.00    -0.070 Cl
ATOM      8 Cl1  UNL d   1      -1.328   1.323  -2.004  0.00  0.00    -0.070 Cl
ENDROOT
TORSDOF 0
ENDMDL
