MODEL 1
REMARK minimizedAffinity 8.81268787
REMARK minimizedRMSD -1
REMARK  0 active torsions:
REMARK  status: ('A' for Active; 'I' for Inactive)
ROOT
ATOM      1  C   UNL d   1      -1.676  -3.207  -0.257  0.00  0.00     0.020 A 
ATOM      2  C1  UNL d   1      -1.038  -1.978  -0.094  0.00  0.00     0.020 A 
ATOM      3  C2  UNL d   1       0.252  -1.925   0.438  0.00  0.00     0.034 A 
ATOM      4  C3  UNL d   1       0.908  -3.104   0.810  0.00  0.00     0.017 A 
ATOM      5  C4  UNL d   1       0.267  -4.338   0.647  0.00  0.00     0.017 A 
ATOM      6  C5  UNL d   1      -1.024  -4.384   0.113  0.00  0.00     0.034 A 
ATOM      7 Cl   UNL d   1       1.013  -5.835   1.082  0.00  0.00    -0.070 Cl
ATOM      8 Cl1  UNL d   1       2.502  -2.965   1.462  0.00  0.00    -0.070 Cl
ENDROOT
TORSDOF 0
ENDMDL
