MODEL 1
REMARK minimizedAffinity 3.85992718
REMARK minimizedRMSD -1
REMARK  0 active torsions:
REMARK  status: ('A' for Active; 'I' for Inactive)
ROOT
ATOM      1  C   UNL d   1       5.962  -2.072  -5.387  0.00  0.00     0.020 A 
ATOM      2  C1  UNL d   1       5.968  -2.249  -4.004  0.00  0.00     0.020 A 
ATOM      3  C2  UNL d   1       5.978  -1.138  -3.158  0.00  0.00     0.034 A 
ATOM      4  C3  UNL d   1       5.982   0.155  -3.694  0.00  0.00     0.017 A 
ATOM      5  C4  UNL d   1       5.975   0.331  -5.083  0.00  0.00     0.017 A 
ATOM      6  C5  UNL d   1       5.965  -0.785  -5.925  0.00  0.00     0.034 A 
ATOM      7 Cl   UNL d   1       5.979   1.895  -5.818  0.00  0.00    -0.070 Cl
ATOM      8 Cl1  UNL d   1       5.994   1.483  -2.589  0.00  0.00    -0.070 Cl
ENDROOT
TORSDOF 0
ENDMDL
