MODEL 1
REMARK minimizedAffinity 2.75588465
REMARK minimizedRMSD -1
REMARK  0 active torsions:
REMARK  status: ('A' for Active; 'I' for Inactive)
ROOT
ATOM      1  C   UNL d   1       5.967  -1.105  -5.586  0.00  0.00     0.020 A 
ATOM      2  C1  UNL d   1       6.000   0.227  -5.999  0.00  0.00     0.020 A 
ATOM      3  C2  UNL d   1       5.916   1.252  -5.055  0.00  0.00     0.034 A 
ATOM      4  C3  UNL d   1       5.798   0.949  -3.694  0.00  0.00     0.017 A 
ATOM      5  C4  UNL d   1       5.765  -0.388  -3.281  0.00  0.00     0.017 A 
ATOM      6  C5  UNL d   1       5.850  -1.411  -4.230  0.00  0.00     0.034 A 
ATOM      7 Cl   UNL d   1       5.622  -0.841  -1.619  0.00  0.00    -0.070 Cl
ATOM      8 Cl1  UNL d   1       5.698   2.267  -2.582  0.00  0.00    -0.070 Cl
ENDROOT
TORSDOF 0
ENDMDL
