MODEL 1
REMARK minimizedAffinity 6.35381651
REMARK minimizedRMSD -1
REMARK  0 active torsions:
REMARK  status: ('A' for Active; 'I' for Inactive)
ROOT
ATOM      1  C   UNL d   1       1.923  -2.214   0.387  0.00  0.00     0.020 A 
ATOM      2  C1  UNL d   1       0.601  -1.801   0.222  0.00  0.00     0.020 A 
ATOM      3  C2  UNL d   1      -0.445  -2.688   0.485  0.00  0.00     0.034 A 
ATOM      4  C3  UNL d   1      -0.171  -3.992   0.915  0.00  0.00     0.017 A 
ATOM      5  C4  UNL d   1       1.156  -4.404   1.081  0.00  0.00     0.017 A 
ATOM      6  C5  UNL d   1       2.199  -3.513   0.816  0.00  0.00     0.034 A 
ATOM      7 Cl   UNL d   1       1.572  -5.997   1.609  0.00  0.00    -0.070 Cl
ATOM      8 Cl1  UNL d   1      -1.514  -5.034   1.223  0.00  0.00    -0.070 Cl
ENDROOT
TORSDOF 0
ENDMDL
