MODEL 1
REMARK minimizedAffinity 11.6557856
REMARK minimizedRMSD -1
REMARK  0 active torsions:
REMARK  status: ('A' for Active; 'I' for Inactive)
ROOT
ATOM      1  C   UNL d   1      -3.340   4.262   2.198  0.00  0.00     0.020 A 
ATOM      2  C1  UNL d   1      -4.004   5.486   2.145  0.00  0.00     0.020 A 
ATOM      3  C2  UNL d   1      -4.616   6.000   3.291  0.00  0.00     0.034 A 
ATOM      4  C3  UNL d   1      -4.565   5.288   4.495  0.00  0.00     0.017 A 
ATOM      5  C4  UNL d   1      -3.898   4.058   4.547  0.00  0.00     0.017 A 
ATOM      6  C5  UNL d   1      -3.287   3.549   3.397  0.00  0.00     0.034 A 
ATOM      7 Cl   UNL d   1      -3.792   3.122   5.996  0.00  0.00    -0.070 Cl
ATOM      8 Cl1  UNL d   1      -5.342   5.982   5.872  0.00  0.00    -0.070 Cl
ENDROOT
TORSDOF 0
ENDMDL
