MODEL 1
REMARK minimizedAffinity 8.92179489
REMARK minimizedRMSD -1
REMARK  0 active torsions:
REMARK  status: ('A' for Active; 'I' for Inactive)
ROOT
ATOM      1  C   UNL d   1       5.999   1.871  -5.700  0.00  0.00     0.020 A 
ATOM      2  C1  UNL d   1       5.603   0.741  -4.986  0.00  0.00     0.020 A 
ATOM      3  C2  UNL d   1       4.276   0.609  -4.569  0.00  0.00     0.034 A 
ATOM      4  C3  UNL d   1       3.342   1.607  -4.868  0.00  0.00     0.017 A 
ATOM      5  C4  UNL d   1       3.741   2.740  -5.585  0.00  0.00     0.017 A 
ATOM      6  C5  UNL d   1       5.070   2.868  -6.000  0.00  0.00     0.034 A 
ATOM      7 Cl   UNL d   1       2.645   4.014  -5.991  0.00  0.00    -0.070 Cl
ATOM      8 Cl1  UNL d   1       1.718   1.377  -4.322  0.00  0.00    -0.070 Cl
ENDROOT
TORSDOF 0
ENDMDL
