MODEL 1
REMARK minimizedAffinity 12.8083487
REMARK minimizedRMSD -1
REMARK  0 active torsions:
REMARK  status: ('A' for Active; 'I' for Inactive)
ROOT
ATOM      1  C   UNL d   1      -5.733   5.192   5.802  0.00  0.00     0.020 A 
ATOM      2  C1  UNL d   1      -4.600   5.998   5.696  0.00  0.00     0.020 A 
ATOM      3  C2  UNL d   1      -3.713   5.820   4.632  0.00  0.00     0.034 A 
ATOM      4  C3  UNL d   1      -3.957   4.832   3.671  0.00  0.00     0.017 A 
ATOM      5  C4  UNL d   1      -5.094   4.024   3.778  0.00  0.00     0.017 A 
ATOM      6  C5  UNL d   1      -5.979   4.207   4.845  0.00  0.00     0.034 A 
ATOM      7 Cl   UNL d   1      -5.462   2.785   2.630  0.00  0.00    -0.070 Cl
ATOM      8 Cl1  UNL d   1      -2.818   4.667   2.382  0.00  0.00    -0.070 Cl
ENDROOT
TORSDOF 0
ENDMDL
