MODEL 1
REMARK minimizedAffinity 5.23719883
REMARK minimizedRMSD -1
REMARK  0 active torsions:
REMARK  status: ('A' for Active; 'I' for Inactive)
ROOT
ATOM      1  C   UNL d   1       5.812   0.823  -5.439  0.00  0.00     0.020 A 
ATOM      2  C1  UNL d   1       5.998   0.440  -4.112  0.00  0.00     0.020 A 
ATOM      3  C2  UNL d   1       4.907   0.029  -3.344  0.00  0.00     0.034 A 
ATOM      4  C3  UNL d   1       3.624   0.000  -3.903  0.00  0.00     0.017 A 
ATOM      5  C4  UNL d   1       3.438   0.385  -5.235  0.00  0.00     0.017 A 
ATOM      6  C5  UNL d   1       4.534   0.796  -6.000  0.00  0.00     0.034 A 
ATOM      7 Cl   UNL d   1       1.885   0.376  -5.995  0.00  0.00    -0.070 Cl
ATOM      8 Cl1  UNL d   1       2.320  -0.519  -2.895  0.00  0.00    -0.070 Cl
ENDROOT
TORSDOF 0
ENDMDL
