MODEL 1
REMARK minimizedAffinity 1.94550014
REMARK minimizedRMSD -1
REMARK  0 active torsions:
REMARK  status: ('A' for Active; 'I' for Inactive)
ROOT
ATOM      1  C   UNL d   1       0.883   1.989  -1.188  0.00  0.00     0.020 A 
ATOM      2  C1  UNL d   1       1.163   1.705  -2.524  0.00  0.00     0.020 A 
ATOM      3  C2  UNL d   1       1.274   0.379  -2.947  0.00  0.00     0.034 A 
ATOM      4  C3  UNL d   1       1.106  -0.668  -2.034  0.00  0.00     0.017 A 
ATOM      5  C4  UNL d   1       0.825  -0.382  -0.693  0.00  0.00     0.017 A 
ATOM      6  C5  UNL d   1       0.715   0.947  -0.274  0.00  0.00     0.034 A 
ATOM      7 Cl   UNL d   1       0.605  -1.621   0.492  0.00  0.00    -0.070 Cl
ATOM      8 Cl1  UNL d   1       1.257  -2.284  -2.627  0.00  0.00    -0.070 Cl
ENDROOT
TORSDOF 0
ENDMDL
