MODEL 1
REMARK minimizedAffinity -2.88232422
REMARK minimizedRMSD -1
REMARK  0 active torsions:
REMARK  status: ('A' for Active; 'I' for Inactive)
ROOT
ATOM      1  C   UNL d   1       1.283  -1.334  -2.440  0.00  0.00     0.020 A 
ATOM      2  C1  UNL d   1       1.205  -1.354  -1.048  0.00  0.00     0.020 A 
ATOM      3  C2  UNL d   1       1.137  -0.154  -0.335  0.00  0.00     0.034 A 
ATOM      4  C3  UNL d   1       1.147   1.069  -1.015  0.00  0.00     0.017 A 
ATOM      5  C4  UNL d   1       1.226   1.088  -2.412  0.00  0.00     0.017 A 
ATOM      6  C5  UNL d   1       1.294  -0.116  -3.120  0.00  0.00     0.034 A 
ATOM      7 Cl   UNL d   1       1.244   2.558  -3.320  0.00  0.00    -0.070 Cl
ATOM      8 Cl1  UNL d   1       1.060   2.514  -0.070  0.00  0.00    -0.070 Cl
ENDROOT
TORSDOF 0
ENDMDL
