MODEL 1
REMARK minimizedAffinity -2.7711606
REMARK minimizedRMSD -1
REMARK  0 active torsions:
REMARK  status: ('A' for Active; 'I' for Inactive)
ROOT
ATOM      1  C   UNL d   1       1.425  -2.220  -3.441  0.00  0.00     0.020 A 
ATOM      2  C1  UNL d   1       1.451  -1.556  -4.666  0.00  0.00     0.020 A 
ATOM      3  C2  UNL d   1       1.378  -0.162  -4.706  0.00  0.00     0.034 A 
ATOM      4  C3  UNL d   1       1.279   0.573  -3.519  0.00  0.00     0.017 A 
ATOM      5  C4  UNL d   1       1.253  -0.095  -2.289  0.00  0.00     0.017 A 
ATOM      6  C5  UNL d   1       1.326  -1.491  -2.255  0.00  0.00     0.034 A 
ATOM      7 Cl   UNL d   1       1.132   0.742  -0.782  0.00  0.00    -0.070 Cl
ATOM      8 Cl1  UNL d   1       1.193   2.294  -3.643  0.00  0.00    -0.070 Cl
ENDROOT
TORSDOF 0
ENDMDL
