MODEL 1
REMARK minimizedAffinity 4.48844242
REMARK minimizedRMSD -1
REMARK  0 active torsions:
REMARK  status: ('A' for Active; 'I' for Inactive)
ROOT
ATOM      1  C   UNL d   1       1.418  -1.677  -3.697  0.00  0.00     0.020 A 
ATOM      2  C1  UNL d   1       1.391  -2.220  -2.413  0.00  0.00     0.020 A 
ATOM      3  C2  UNL d   1       1.219  -1.386  -1.306  0.00  0.00     0.034 A 
ATOM      4  C3  UNL d   1       1.075  -0.005  -1.481  0.00  0.00     0.017 A 
ATOM      5  C4  UNL d   1       1.103   0.539  -2.770  0.00  0.00     0.017 A 
ATOM      6  C5  UNL d   1       1.275  -0.300  -3.875  0.00  0.00     0.034 A 
ATOM      7 Cl   UNL d   1       0.932   2.234  -3.064  0.00  0.00    -0.070 Cl
ATOM      8 Cl1  UNL d   1       0.867   0.966  -0.067  0.00  0.00    -0.070 Cl
ENDROOT
TORSDOF 0
ENDMDL
