MODEL 1
REMARK minimizedAffinity 1.39372206
REMARK minimizedRMSD -1
REMARK  0 active torsions:
REMARK  status: ('A' for Active; 'I' for Inactive)
ROOT
ATOM      1  C   UNL d   1       1.548  -1.660  -3.453  0.00  0.00     0.020 A 
ATOM      2  C1  UNL d   1       1.699  -0.406  -4.043  0.00  0.00     0.020 A 
ATOM      3  C2  UNL d   1       1.455   0.750  -3.299  0.00  0.00     0.034 A 
ATOM      4  C3  UNL d   1       1.059   0.655  -1.960  0.00  0.00     0.017 A 
ATOM      5  C4  UNL d   1       0.907  -0.604  -1.368  0.00  0.00     0.017 A 
ATOM      6  C5  UNL d   1       1.152  -1.759  -2.118  0.00  0.00     0.034 A 
ATOM      7 Cl   UNL d   1       0.421  -0.802   0.279  0.00  0.00    -0.070 Cl
ATOM      8 Cl1  UNL d   1       0.775   2.126  -1.099  0.00  0.00    -0.070 Cl
ENDROOT
TORSDOF 0
ENDMDL
