MODEL 1
REMARK minimizedAffinity 3.72021222
REMARK minimizedRMSD -1
REMARK  0 active torsions:
REMARK  status: ('A' for Active; 'I' for Inactive)
ROOT
ATOM      1  C   UNL d   1       1.277  -1.075  -2.692  0.00  0.00     0.020 A 
ATOM      2  C1  UNL d   1       1.004  -1.046  -1.325  0.00  0.00     0.020 A 
ATOM      3  C2  UNL d   1       0.825   0.177  -0.675  0.00  0.00     0.034 A 
ATOM      4  C3  UNL d   1       0.919   1.376  -1.392  0.00  0.00     0.017 A 
ATOM      5  C4  UNL d   1       1.193   1.345  -2.764  0.00  0.00     0.017 A 
ATOM      6  C5  UNL d   1       1.371   0.118  -3.410  0.00  0.00     0.034 A 
ATOM      7 Cl   UNL d   1       1.323   2.782  -3.715  0.00  0.00    -0.070 Cl
ATOM      8 Cl1  UNL d   1       0.686   2.851  -0.524  0.00  0.00    -0.070 Cl
ENDROOT
TORSDOF 0
ENDMDL
