MODEL 1
REMARK minimizedAffinity 3.89224696
REMARK minimizedRMSD -1
REMARK  0 active torsions:
REMARK  status: ('A' for Active; 'I' for Inactive)
ROOT
ATOM      1  C   UNL d   1       1.263  -1.952  -1.148  0.00  0.00     0.020 A 
ATOM      2  C1  UNL d   1       0.818  -1.175  -0.079  0.00  0.00     0.020 A 
ATOM      3  C2  UNL d   1       0.427   0.148  -0.292  0.00  0.00     0.034 A 
ATOM      4  C3  UNL d   1       0.478   0.699  -1.577  0.00  0.00     0.017 A 
ATOM      5  C4  UNL d   1       0.924  -0.081  -2.650  0.00  0.00     0.017 A 
ATOM      6  C5  UNL d   1       1.315  -1.405  -2.431  0.00  0.00     0.034 A 
ATOM      7 Cl   UNL d   1       1.016   0.530  -4.264  0.00  0.00    -0.070 Cl
ATOM      8 Cl1  UNL d   1      -0.022   2.342  -1.767  0.00  0.00    -0.070 Cl
ENDROOT
TORSDOF 0
ENDMDL
