MODEL 1
REMARK minimizedAffinity -3.36164832
REMARK minimizedRMSD -1
REMARK  2 active torsions:
REMARK  status: ('A' for Active; 'I' for Inactive)
REMARK    1  A    between atoms: C1_2  and  C2_3 
REMARK    2  A    between atoms: C2_3  and  C3_4 
ROOT
ATOM      1  C3  UNL d   1      -2.262   3.492  -3.382  0.00  0.00    -0.075 A 
ATOM      2  C4  UNL d   1      -1.863   3.836  -4.681  0.00  0.00     0.002 A 
ATOM      3  C5  UNL d   1      -2.186   5.084  -5.214  0.00  0.00     0.002 A 
ATOM      4  C6  UNL d   1      -2.918   5.999  -4.460  0.00  0.00    -0.004 A 
ATOM      5  C7  UNL d   1      -3.334   5.661  -3.174  0.00  0.00     0.002 A 
ATOM      6  C8  UNL d   1      -3.009   4.414  -2.637  0.00  0.00     0.002 A 
ENDROOT
BRANCH   1   7
ATOM      7  C2  UNL d   1      -1.891   2.153  -2.789  0.00  0.00     0.056 C 
BRANCH   7   8
ATOM      8  C1  UNL d   1      -2.963   1.073  -2.968  0.00  0.00     0.007 C 
ATOM      9  C   UNL d   1      -2.670  -0.199  -2.184  0.00  0.00     0.009 C 
ENDBRANCH   7   8
ENDBRANCH   1   7
TORSDOF 2
ENDMDL
