MODEL 1
REMARK minimizedAffinity -4.6756897
REMARK minimizedRMSD -1
REMARK  2 active torsions:
REMARK  status: ('A' for Active; 'I' for Inactive)
REMARK    1  A    between atoms: C1_2  and  C2_3 
REMARK    2  A    between atoms: C2_3  and  C3_4 
ROOT
ATOM      1  C3  UNL d   1      -0.419  -1.201   2.023  0.00  0.00    -0.075 A 
ATOM      2  C4  UNL d   1      -0.920  -0.581   3.176  0.00  0.00     0.002 A 
ATOM      3  C5  UNL d   1      -2.249  -0.159   3.234  0.00  0.00     0.002 A 
ATOM      4  C6  UNL d   1      -3.089  -0.343   2.138  0.00  0.00    -0.004 A 
ATOM      5  C7  UNL d   1      -2.597  -0.944   0.981  0.00  0.00     0.002 A 
ATOM      6  C8  UNL d   1      -1.269  -1.370   0.922  0.00  0.00     0.002 A 
ENDROOT
BRANCH   1   7
ATOM      7  C2  UNL d   1       1.010  -1.686   1.965  0.00  0.00     0.056 C 
BRANCH   7   8
ATOM      8  C1  UNL d   1       1.204  -2.959   1.134  0.00  0.00     0.007 C 
ATOM      9  C   UNL d   1       2.017  -2.730  -0.133  0.00  0.00     0.009 C 
ENDBRANCH   7   8
ENDBRANCH   1   7
TORSDOF 2
ENDMDL
