MODEL 1
REMARK minimizedAffinity 6.73244476
REMARK minimizedRMSD -1
REMARK  2 active torsions:
REMARK  status: ('A' for Active; 'I' for Inactive)
REMARK    1  A    between atoms: C1_2  and  C2_3 
REMARK    2  A    between atoms: C2_3  and  C3_4 
ROOT
ATOM      1  C3  UNL d   1      -3.506   4.194  -2.098  0.00  0.00    -0.075 A 
ATOM      2  C4  UNL d   1      -3.030   5.508  -2.217  0.00  0.00     0.002 A 
ATOM      3  C5  UNL d   1      -2.611   6.000  -3.454  0.00  0.00     0.002 A 
ATOM      4  C6  UNL d   1      -2.652   5.183  -4.582  0.00  0.00    -0.004 A 
ATOM      5  C7  UNL d   1      -3.108   3.871  -4.472  0.00  0.00     0.002 A 
ATOM      6  C8  UNL d   1      -3.532   3.378  -3.237  0.00  0.00     0.002 A 
ENDROOT
BRANCH   1   7
ATOM      7  C2  UNL d   1      -3.989   3.665  -0.768  0.00  0.00     0.056 C 
BRANCH   7   8
ATOM      8  C1  UNL d   1      -5.513   3.542  -0.662  0.00  0.00     0.007 C 
ATOM      9  C   UNL d   1      -5.999   3.323   0.764  0.00  0.00     0.009 C 
ENDBRANCH   7   8
ENDBRANCH   1   7
TORSDOF 2
ENDMDL
