MODEL 1
REMARK minimizedAffinity 5.64390945
REMARK minimizedRMSD -1
REMARK  2 active torsions:
REMARK  status: ('A' for Active; 'I' for Inactive)
REMARK    1  A    between atoms: C1_2  and  C2_3 
REMARK    2  A    between atoms: C2_3  and  C3_4 
ROOT
ATOM      1  C3  UNL d   1      -1.307  -1.087   0.375  0.00  0.00    -0.075 A 
ATOM      2  C4  UNL d   1      -1.980  -0.581   1.497  0.00  0.00     0.002 A 
ATOM      3  C5  UNL d   1      -1.373  -0.595   2.753  0.00  0.00     0.002 A 
ATOM      4  C6  UNL d   1      -0.093  -1.124   2.906  0.00  0.00    -0.004 A 
ATOM      5  C7  UNL d   1       0.578  -1.644   1.801  0.00  0.00     0.002 A 
ATOM      6  C8  UNL d   1      -0.025  -1.627   0.542  0.00  0.00     0.002 A 
ENDROOT
BRANCH   1   7
ATOM      7  C2  UNL d   1      -1.947  -1.047  -0.992  0.00  0.00     0.056 C 
BRANCH   7   8
ATOM      8  C1  UNL d   1      -2.208   0.368  -1.518  0.00  0.00     0.007 C 
ATOM      9  C   UNL d   1      -2.839   0.387  -2.903  0.00  0.00     0.009 C 
ENDBRANCH   7   8
ENDBRANCH   1   7
TORSDOF 2
ENDMDL
