MODEL 1
REMARK minimizedAffinity 3.07274961
REMARK minimizedRMSD -1
REMARK  2 active torsions:
REMARK  status: ('A' for Active; 'I' for Inactive)
REMARK    1  A    between atoms: C1_2  and  C2_3 
REMARK    2  A    between atoms: C2_3  and  C3_4 
ROOT
ATOM      1  C3  UNL d   1      -3.391   3.556  -2.504  0.00  0.00    -0.075 A 
ATOM      2  C4  UNL d   1      -2.619   3.436  -3.669  0.00  0.00     0.002 A 
ATOM      3  C5  UNL d   1      -2.623   4.448  -4.629  0.00  0.00     0.002 A 
ATOM      4  C6  UNL d   1      -3.405   5.585  -4.443  0.00  0.00    -0.004 A 
ATOM      5  C7  UNL d   1      -4.189   5.708  -3.298  0.00  0.00     0.002 A 
ATOM      6  C8  UNL d   1      -4.184   4.699  -2.333  0.00  0.00     0.002 A 
ENDROOT
BRANCH   1   7
ATOM      7  C2  UNL d   1      -3.369   2.478  -1.447  0.00  0.00     0.056 C 
BRANCH   7   8
ATOM      8  C1  UNL d   1      -1.960   2.058  -1.015  0.00  0.00     0.007 C 
ATOM      9  C   UNL d   1      -1.815   0.555  -0.817  0.00  0.00     0.009 C 
ENDBRANCH   7   8
ENDBRANCH   1   7
TORSDOF 2
ENDMDL
