MODEL 1
REMARK minimizedAffinity -1.89102221
REMARK minimizedRMSD -1
REMARK  2 active torsions:
REMARK  status: ('A' for Active; 'I' for Inactive)
REMARK    1  A    between atoms: C1_2  and  C2_3 
REMARK    2  A    between atoms: C2_3  and  C3_4 
ROOT
ATOM      1  C3  UNL d   1      -0.727  -1.331   1.062  0.00  0.00    -0.075 A 
ATOM      2  C4  UNL d   1       0.307  -2.119   0.535  0.00  0.00     0.002 A 
ATOM      3  C5  UNL d   1       1.337  -2.577   1.357  0.00  0.00     0.002 A 
ATOM      4  C6  UNL d   1       1.352  -2.246   2.710  0.00  0.00    -0.004 A 
ATOM      5  C7  UNL d   1       0.339  -1.451   3.241  0.00  0.00     0.002 A 
ATOM      6  C8  UNL d   1      -0.695  -0.994   2.422  0.00  0.00     0.002 A 
ENDROOT
BRANCH   1   7
ATOM      7  C2  UNL d   1      -1.861  -0.857   0.184  0.00  0.00     0.056 C 
BRANCH   7   8
ATOM      8  C1  UNL d   1      -1.610  -1.046  -1.315  0.00  0.00     0.007 C 
ATOM      9  C   UNL d   1      -2.171   0.086  -2.166  0.00  0.00     0.009 C 
ENDBRANCH   7   8
ENDBRANCH   1   7
TORSDOF 2
ENDMDL
