MODEL 1
REMARK minimizedAffinity -2.65419126
REMARK minimizedRMSD -1
REMARK  1 active torsions:
REMARK  status: ('A' for Active; 'I' for Inactive)
REMARK    1  A    between atoms: C1_2  and  C2_3 
ROOT
ATOM      1  C2  UNL d   1      -0.308   1.669   0.617  0.00  0.00    -0.077 A 
ATOM      2  C3  UNL d   1      -0.009   0.303   0.523  0.00  0.00     0.002 A 
ATOM      3  C4  UNL d   1       0.110  -0.310  -0.725  0.00  0.00     0.002 A 
ATOM      4  C5  UNL d   1      -0.063   0.436  -1.889  0.00  0.00    -0.004 A 
ATOM      5  C6  UNL d   1      -0.362   1.796  -1.806  0.00  0.00     0.002 A 
ATOM      6  C7  UNL d   1      -0.484   2.410  -0.559  0.00  0.00     0.002 A 
ENDROOT
BRANCH   1   7
ATOM      7  C1  UNL d   1      -0.389   2.343   1.962  0.00  0.00     0.055 C 
ATOM      8  C   UNL d   1      -1.378   3.498   1.944  0.00  0.00     0.019 C 
ENDBRANCH   1   7
TORSDOF 1
ENDMDL
