MODEL 1
REMARK minimizedAffinity -3.62160778
REMARK minimizedRMSD -1
REMARK  1 active torsions:
REMARK  status: ('A' for Active; 'I' for Inactive)
REMARK    1  A    between atoms: C1_2  and  C2_3 
ROOT
ATOM      1  C2  UNL d   1      -0.142   0.457   0.781  0.00  0.00    -0.077 A 
ATOM      2  C3  UNL d   1      -0.092   0.374  -0.618  0.00  0.00     0.002 A 
ATOM      3  C4  UNL d   1      -0.800   1.285  -1.404  0.00  0.00     0.002 A 
ATOM      4  C5  UNL d   1      -1.559   2.286  -0.802  0.00  0.00    -0.004 A 
ATOM      5  C6  UNL d   1      -1.616   2.375   0.588  0.00  0.00     0.002 A 
ATOM      6  C7  UNL d   1      -0.910   1.465   1.376  0.00  0.00     0.002 A 
ENDROOT
BRANCH   1   7
ATOM      7  C1  UNL d   1       0.660  -0.494   1.631  0.00  0.00     0.055 C 
ATOM      8  C   UNL d   1       2.133  -0.470   1.249  0.00  0.00     0.019 C 
ENDBRANCH   1   7
TORSDOF 1
ENDMDL
