MODEL 1
REMARK minimizedAffinity -1.97184658
REMARK minimizedRMSD -1
REMARK  1 active torsions:
REMARK  status: ('A' for Active; 'I' for Inactive)
REMARK    1  A    between atoms: C1_2  and  C2_3 
ROOT
ATOM      1  C2  UNL d   1      -0.385   1.728   0.731  0.00  0.00    -0.077 A 
ATOM      2  C3  UNL d   1       0.108   0.420   0.627  0.00  0.00     0.002 A 
ATOM      3  C4  UNL d   1       0.347  -0.147  -0.626  0.00  0.00     0.002 A 
ATOM      4  C5  UNL d   1       0.099   0.588  -1.784  0.00  0.00    -0.004 A 
ATOM      5  C6  UNL d   1      -0.393   1.889  -1.691  0.00  0.00     0.002 A 
ATOM      6  C7  UNL d   1      -0.634   2.457  -0.439  0.00  0.00     0.002 A 
ENDROOT
BRANCH   1   7
ATOM      7  C1  UNL d   1      -0.597   2.359   2.083  0.00  0.00     0.055 C 
ATOM      8  C   UNL d   1      -1.787   3.307   2.071  0.00  0.00     0.019 C 
ENDBRANCH   1   7
TORSDOF 1
ENDMDL
