MODEL 1
REMARK minimizedAffinity -3.76881433
REMARK minimizedRMSD -1
REMARK  1 active torsions:
REMARK  status: ('A' for Active; 'I' for Inactive)
REMARK    1  A    between atoms: C1_2  and  C2_3 
ROOT
ATOM      1  C2  UNL d   1      -1.241   0.992   0.065  0.00  0.00    -0.077 A 
ATOM      2  C3  UNL d   1      -0.940   1.702  -1.105  0.00  0.00     0.002 A 
ATOM      3  C4  UNL d   1       0.043   1.237  -1.980  0.00  0.00     0.002 A 
ATOM      4  C5  UNL d   1       0.729   0.058  -1.697  0.00  0.00    -0.004 A 
ATOM      5  C6  UNL d   1       0.438  -0.655  -0.534  0.00  0.00     0.002 A 
ATOM      6  C7  UNL d   1      -0.543  -0.190   0.343  0.00  0.00     0.002 A 
ENDROOT
BRANCH   1   7
ATOM      7  C1  UNL d   1      -2.335   1.466   0.986  0.00  0.00     0.055 C 
ATOM      8  C   UNL d   1      -3.451   0.437   1.096  0.00  0.00     0.019 C 
ENDBRANCH   1   7
TORSDOF 1
ENDMDL
