MODEL 1
REMARK minimizedAffinity 6.77706194
REMARK minimizedRMSD -1
REMARK  0 active torsions:
REMARK  status: ('A' for Active; 'I' for Inactive)
ROOT
ATOM      1  C   UNL d   1       0.150   4.731  -0.875  0.00  0.00    -0.002 A 
ATOM      2  C1  UNL d   1       1.122   5.021   0.073  0.00  0.00     0.010 A 
ATOM      3  C2  UNL d   1       1.210   4.277   1.251  0.00  0.00     0.041 A 
ATOM      4  C3  UNL d   1       0.297   3.224   1.461  0.00  0.00    -0.075 A 
ATOM      5  S   UNL d   1       0.216   2.177   2.828  0.00  0.00     0.015 SA
ATOM      6  C4  UNL d   1      -1.109   1.319   2.186  0.00  0.00     0.022 A 
ATOM      7  C5  UNL d   1      -1.494   1.807   0.960  0.00  0.00     0.026 A 
ATOM      8  C6  UNL d   1      -0.689   2.912   0.521  0.00  0.00    -0.082 A 
ATOM      9  C7  UNL d   1      -0.753   3.687  -0.662  0.00  0.00     0.045 A 
ENDROOT
TORSDOF 0
ENDMDL
