MODEL 1
REMARK minimizedAffinity 4.68357849
REMARK minimizedRMSD -1
REMARK  0 active torsions:
REMARK  status: ('A' for Active; 'I' for Inactive)
ROOT
ATOM      1  C   UNL d   1      -2.882   3.798   0.641  0.00  0.00    -0.002 A 
ATOM      2  C1  UNL d   1      -1.572   3.835   0.184  0.00  0.00     0.010 A 
ATOM      3  C2  UNL d   1      -0.659   2.850   0.566  0.00  0.00     0.041 A 
ATOM      4  C3  UNL d   1      -1.089   1.816   1.420  0.00  0.00    -0.075 A 
ATOM      5  S   UNL d   1      -0.146   0.501   2.018  0.00  0.00     0.015 SA
ATOM      6  C4  UNL d   1      -1.461  -0.141   2.893  0.00  0.00     0.022 A 
ATOM      7  C5  UNL d   1      -2.598   0.617   2.744  0.00  0.00     0.026 A 
ATOM      8  C6  UNL d   1      -2.403   1.756   1.892  0.00  0.00    -0.082 A 
ATOM      9  C7  UNL d   1      -3.305   2.770   1.489  0.00  0.00     0.045 A 
ENDROOT
TORSDOF 0
ENDMDL
