MODEL 1
REMARK minimizedAffinity 9.66806126
REMARK minimizedRMSD -1
REMARK  0 active torsions:
REMARK  status: ('A' for Active; 'I' for Inactive)
ROOT
ATOM      1  C   UNL d   1      -2.722  -3.725   4.948  0.00  0.00    -0.002 A 
ATOM      2  C1  UNL d   1      -1.365  -4.013   4.906  0.00  0.00     0.010 A 
ATOM      3  C2  UNL d   1      -0.480  -3.171   4.229  0.00  0.00     0.041 A 
ATOM      4  C3  UNL d   1      -0.987  -2.022   3.591  0.00  0.00    -0.075 A 
ATOM      5  S   UNL d   1      -0.092  -0.846   2.703  0.00  0.00     0.015 SA
ATOM      6  C4  UNL d   1      -1.489   0.068   2.360  0.00  0.00     0.022 A 
ATOM      7  C5  UNL d   1      -2.620  -0.496   2.901  0.00  0.00     0.026 A 
ATOM      8  C6  UNL d   1      -2.349  -1.710   3.620  0.00  0.00    -0.082 A 
ATOM      9  C7  UNL d   1      -3.220  -2.584   4.314  0.00  0.00     0.045 A 
ENDROOT
TORSDOF 0
ENDMDL
