MODEL 1
REMARK minimizedAffinity 9.66669655
REMARK minimizedRMSD -1
REMARK  0 active torsions:
REMARK  status: ('A' for Active; 'I' for Inactive)
ROOT
ATOM      1  C   UNL d   1       0.214   1.408   2.752  0.00  0.00    -0.002 A 
ATOM      2  C1  UNL d   1       1.135   0.417   2.444  0.00  0.00     0.010 A 
ATOM      3  C2  UNL d   1       1.476   0.151   1.117  0.00  0.00     0.041 A 
ATOM      4  C3  UNL d   1       0.870   0.906   0.093  0.00  0.00    -0.075 A 
ATOM      5  S   UNL d   1       1.134   0.757  -1.604  0.00  0.00     0.015 SA
ATOM      6  C4  UNL d   1       0.030   2.006  -1.961  0.00  0.00     0.022 A 
ATOM      7  C5  UNL d   1      -0.535   2.534  -0.825  0.00  0.00     0.026 A 
ATOM      8  C6  UNL d   1      -0.060   1.910   0.378  0.00  0.00    -0.082 A 
ATOM      9  C7  UNL d   1      -0.385   2.155   1.734  0.00  0.00     0.045 A 
ENDROOT
TORSDOF 0
ENDMDL
