MODEL 1
REMARK minimizedAffinity 9.83775234
REMARK minimizedRMSD -1
REMARK  0 active torsions:
REMARK  status: ('A' for Active; 'I' for Inactive)
ROOT
ATOM      1  C   UNL d   1      -0.326   2.428   3.617  0.00  0.00    -0.002 A 
ATOM      2  C1  UNL d   1      -1.216   2.614   2.569  0.00  0.00     0.010 A 
ATOM      3  C2  UNL d   1      -1.024   1.962   1.349  0.00  0.00     0.041 A 
ATOM      4  C3  UNL d   1       0.088   1.110   1.200  0.00  0.00    -0.075 A 
ATOM      5  S   UNL d   1       0.524   0.206  -0.203  0.00  0.00     0.015 SA
ATOM      6  C4  UNL d   1       1.902  -0.449   0.557  0.00  0.00     0.022 A 
ATOM      7  C5  UNL d   1       2.042   0.001   1.848  0.00  0.00     0.026 A 
ATOM      8  C6  UNL d   1       0.998   0.906   2.241  0.00  0.00    -0.082 A 
ATOM      9  C7  UNL d   1       0.776   1.582   3.464  0.00  0.00     0.045 A 
ENDROOT
TORSDOF 0
ENDMDL
