MODEL 1
REMARK minimizedAffinity 19.6315804
REMARK minimizedRMSD -1
REMARK  0 active torsions:
REMARK  status: ('A' for Active; 'I' for Inactive)
ROOT
ATOM      1  C   UNL d   1      -1.754   1.790   2.842  0.00  0.00    -0.002 A 
ATOM      2  C1  UNL d   1      -0.910   2.828   3.210  0.00  0.00     0.010 A 
ATOM      3  C2  UNL d   1       0.453   2.776   2.910  0.00  0.00     0.041 A 
ATOM      4  C3  UNL d   1       0.958   1.653   2.225  0.00  0.00    -0.075 A 
ATOM      5  S   UNL d   1       2.591   1.373   1.750  0.00  0.00     0.015 SA
ATOM      6  C4  UNL d   1       2.207  -0.131   1.047  0.00  0.00     0.022 A 
ATOM      7  C5  UNL d   1       0.870  -0.428   1.163  0.00  0.00     0.026 A 
ATOM      8  C6  UNL d   1       0.127   0.596   1.843  0.00  0.00    -0.082 A 
ATOM      9  C7  UNL d   1      -1.249   0.678   2.163  0.00  0.00     0.045 A 
ENDROOT
TORSDOF 0
ENDMDL
