MODEL 1
REMARK minimizedAffinity -5.16188145
REMARK minimizedRMSD -1
REMARK  1 active torsions:
REMARK  status: ('A' for Active; 'I' for Inactive)
REMARK    1  A    between atoms: C3_4  and  O_7 
ROOT
ATOM      1  C   UNL d   1      -0.752  -1.179   2.408  0.00  0.00    -0.033 A 
ATOM      2  C1  UNL d   1       0.130  -2.190   2.796  0.00  0.00     0.039 A 
ATOM      3  C2  UNL d   1       1.200  -2.540   1.970  0.00  0.00    -0.080 A 
ATOM      4  C3  UNL d   1       1.377  -1.872   0.761  0.00  0.00     0.150 A 
ATOM      5  C4  UNL d   1       0.504  -0.862   0.370  0.00  0.00    -0.007 A 
ATOM      6  C5  UNL d   1      -0.565  -0.515   1.196  0.00  0.00     0.039 A 
ENDROOT
BRANCH   4   7
ATOM      7  O   UNL d   1       2.403  -2.182  -0.080  0.00  0.00    -0.526 OA
ATOM      8  H5  UNL d   1       2.907  -2.918   0.307  0.00  0.00     0.418 HD
ENDBRANCH   4   7
TORSDOF 1
ENDMDL
