MODEL 1
REMARK minimizedAffinity -2.58707809
REMARK minimizedRMSD -1
REMARK  1 active torsions:
REMARK  status: ('A' for Active; 'I' for Inactive)
REMARK    1  A    between atoms: C3_4  and  O_7 
ROOT
ATOM      1  C   UNL d   1      -2.778   1.332  -2.284  0.00  0.00    -0.033 A 
ATOM      2  C1  UNL d   1      -2.598   0.967  -3.620  0.00  0.00     0.039 A 
ATOM      3  C2  UNL d   1      -1.807   1.753  -4.460  0.00  0.00    -0.080 A 
ATOM      4  C3  UNL d   1      -1.202   2.899  -3.953  0.00  0.00     0.150 A 
ATOM      5  C4  UNL d   1      -1.374   3.267  -2.622  0.00  0.00    -0.007 A 
ATOM      6  C5  UNL d   1      -2.164   2.481  -1.785  0.00  0.00     0.039 A 
ENDROOT
BRANCH   4   7
ATOM      7  O   UNL d   1      -0.425   3.701  -4.736  0.00  0.00    -0.526 OA
ATOM      8  H5  UNL d   1      -0.420   3.339  -5.637  0.00  0.00     0.418 HD
ENDBRANCH   4   7
TORSDOF 1
ENDMDL
