MODEL 1
REMARK minimizedAffinity -1.60684919
REMARK minimizedRMSD -1
REMARK  1 active torsions:
REMARK  status: ('A' for Active; 'I' for Inactive)
REMARK    1  A    between atoms: C3_4  and  O_7 
ROOT
ATOM      1  C   UNL d   1      -2.780   2.198  -2.721  0.00  0.00    -0.033 A 
ATOM      2  C1  UNL d   1      -1.428   2.103  -3.054  0.00  0.00     0.039 A 
ATOM      3  C2  UNL d   1      -0.533   1.484  -2.179  0.00  0.00    -0.080 A 
ATOM      4  C3  UNL d   1      -1.003   0.966  -0.975  0.00  0.00     0.150 A 
ATOM      5  C4  UNL d   1      -2.349   1.054  -0.638  0.00  0.00    -0.007 A 
ATOM      6  C5  UNL d   1      -3.241   1.673  -1.513  0.00  0.00     0.039 A 
ENDROOT
BRANCH   4   7
ATOM      7  O   UNL d   1      -0.167   0.358  -0.086  0.00  0.00    -0.526 OA
ATOM      8  H5  UNL d   1       0.738   0.395  -0.440  0.00  0.00     0.418 HD
ENDBRANCH   4   7
TORSDOF 1
ENDMDL
