MODEL 1
REMARK minimizedAffinity -3.0950861
REMARK minimizedRMSD -1
REMARK  1 active torsions:
REMARK  status: ('A' for Active; 'I' for Inactive)
REMARK    1  A    between atoms: C3_4  and  O_7 
ROOT
ATOM      1  C   UNL d   1      -2.534   1.601  -3.321  0.00  0.00    -0.033 A 
ATOM      2  C1  UNL d   1      -1.526   2.497  -2.959  0.00  0.00     0.039 A 
ATOM      3  C2  UNL d   1      -1.019   2.493  -1.658  0.00  0.00    -0.080 A 
ATOM      4  C3  UNL d   1      -1.528   1.589  -0.730  0.00  0.00     0.150 A 
ATOM      5  C4  UNL d   1      -2.530   0.691  -1.084  0.00  0.00    -0.007 A 
ATOM      6  C5  UNL d   1      -3.035   0.697  -2.383  0.00  0.00     0.039 A 
ENDROOT
BRANCH   4   7
ATOM      7  O   UNL d   1      -1.069   1.551   0.554  0.00  0.00    -0.526 OA
ATOM      8  H5  UNL d   1      -0.399   2.247   0.661  0.00  0.00     0.418 HD
ENDBRANCH   4   7
TORSDOF 1
ENDMDL
