MODEL 1
REMARK minimizedAffinity -3.6871922
REMARK minimizedRMSD -1
REMARK  1 active torsions:
REMARK  status: ('A' for Active; 'I' for Inactive)
REMARK    1  A    between atoms: C3_4  and  O_7 
ROOT
ATOM      1  C   UNL d   1       0.489   0.997  -0.351  0.00  0.00    -0.033 A 
ATOM      2  C1  UNL d   1       1.813   0.585  -0.517  0.00  0.00     0.039 A 
ATOM      3  C2  UNL d   1       2.212  -0.681  -0.085  0.00  0.00    -0.080 A 
ATOM      4  C3  UNL d   1       1.278  -1.526   0.509  0.00  0.00     0.150 A 
ATOM      5  C4  UNL d   1      -0.043  -1.124   0.674  0.00  0.00    -0.007 A 
ATOM      6  C5  UNL d   1      -0.440   0.141   0.243  0.00  0.00     0.039 A 
ENDROOT
BRANCH   4   7
ATOM      7  O   UNL d   1       1.622  -2.769   0.951  0.00  0.00    -0.526 OA
ATOM      8  H5  UNL d   1       2.572  -2.898   0.797  0.00  0.00     0.418 HD
ENDBRANCH   4   7
TORSDOF 1
ENDMDL
