MODEL 1
REMARK minimizedAffinity -3.41370511
REMARK minimizedRMSD -1
REMARK  1 active torsions:
REMARK  status: ('A' for Active; 'I' for Inactive)
REMARK    1  A    between atoms: C3_4  and  O_7 
ROOT
ATOM      1  C   UNL d   1       1.711  -0.265   0.048  0.00  0.00    -0.033 A 
ATOM      2  C1  UNL d   1       1.830  -1.199   1.080  0.00  0.00     0.039 A 
ATOM      3  C2  UNL d   1       0.839  -1.291   2.058  0.00  0.00    -0.080 A 
ATOM      4  C3  UNL d   1      -0.266  -0.445   1.994  0.00  0.00     0.150 A 
ATOM      5  C4  UNL d   1      -0.393   0.484   0.967  0.00  0.00    -0.007 A 
ATOM      6  C5  UNL d   1       0.599   0.576  -0.009  0.00  0.00     0.039 A 
ENDROOT
BRANCH   4   7
ATOM      7  O   UNL d   1      -1.256  -0.495   2.929  0.00  0.00    -0.526 OA
ATOM      8  H5  UNL d   1      -1.020  -1.164   3.593  0.00  0.00     0.418 HD
ENDBRANCH   4   7
TORSDOF 1
ENDMDL
