MODEL 1
REMARK minimizedAffinity -3.62678456
REMARK minimizedRMSD -1
REMARK  1 active torsions:
REMARK  status: ('A' for Active; 'I' for Inactive)
REMARK    1  A    between atoms: C3_4  and  O_7 
ROOT
ATOM      1  C   UNL d   1      -0.903  -1.418   2.971  0.00  0.00    -0.033 A 
ATOM      2  C1  UNL d   1       0.296  -2.060   3.287  0.00  0.00     0.039 A 
ATOM      3  C2  UNL d   1       1.391  -1.960   2.426  0.00  0.00    -0.080 A 
ATOM      4  C3  UNL d   1       1.274  -1.217   1.255  0.00  0.00     0.150 A 
ATOM      5  C4  UNL d   1       0.083  -0.573   0.936  0.00  0.00    -0.007 A 
ATOM      6  C5  UNL d   1      -1.009  -0.674   1.796  0.00  0.00     0.039 A 
ENDROOT
BRANCH   4   7
ATOM      7  O   UNL d   1       2.313  -1.096   0.381  0.00  0.00    -0.526 OA
ATOM      8  H5  UNL d   1       3.061  -1.617   0.718  0.00  0.00     0.418 HD
ENDBRANCH   4   7
TORSDOF 1
ENDMDL
