MODEL 1
REMARK minimizedAffinity -4.035285
REMARK minimizedRMSD -1
REMARK  1 active torsions:
REMARK  status: ('A' for Active; 'I' for Inactive)
REMARK    1  A    between atoms: C3_4  and  O_7 
ROOT
ATOM      1  C   UNL d   1      -1.240   0.329   1.319  0.00  0.00    -0.033 A 
ATOM      2  C1  UNL d   1      -0.213   0.404   0.376  0.00  0.00     0.039 A 
ATOM      3  C2  UNL d   1       0.876  -0.466   0.456  0.00  0.00    -0.080 A 
ATOM      4  C3  UNL d   1       0.925  -1.406   1.482  0.00  0.00     0.150 A 
ATOM      5  C4  UNL d   1      -0.096  -1.489   2.423  0.00  0.00    -0.007 A 
ATOM      6  C5  UNL d   1      -1.182  -0.618   2.342  0.00  0.00     0.039 A 
ENDROOT
BRANCH   4   7
ATOM      7  O   UNL d   1       1.970  -2.273   1.604  0.00  0.00    -0.526 OA
ATOM      8  H5  UNL d   1       2.614  -2.080   0.902  0.00  0.00     0.418 HD
ENDBRANCH   4   7
TORSDOF 1
ENDMDL
