MODEL 1
REMARK minimizedAffinity -1.23319685
REMARK minimizedRMSD -1
REMARK  1 active torsions:
REMARK  status: ('A' for Active; 'I' for Inactive)
REMARK    1  A    between atoms: C3_4  and  O_7 
ROOT
ATOM      1  C   UNL d   1       0.621   0.179  -0.096  0.00  0.00    -0.033 A 
ATOM      2  C1  UNL d   1      -0.665   0.545   0.308  0.00  0.00     0.039 A 
ATOM      3  C2  UNL d   1      -1.466   1.324  -0.529  0.00  0.00    -0.080 A 
ATOM      4  C3  UNL d   1      -0.971   1.729  -1.766  0.00  0.00     0.150 A 
ATOM      5  C4  UNL d   1       0.307   1.365  -2.176  0.00  0.00    -0.007 A 
ATOM      6  C5  UNL d   1       1.106   0.588  -1.339  0.00  0.00     0.039 A 
ENDROOT
BRANCH   4   7
ATOM      7  O   UNL d   1      -1.714   2.494  -2.615  0.00  0.00    -0.526 OA
ATOM      8  H5  UNL d   1      -2.564   2.692  -2.187  0.00  0.00     0.418 HD
ENDBRANCH   4   7
TORSDOF 1
ENDMDL
