MODEL 1
REMARK minimizedAffinity -3.74085617
REMARK minimizedRMSD -1
REMARK  1 active torsions:
REMARK  status: ('A' for Active; 'I' for Inactive)
REMARK    1  A    between atoms: C3_4  and  O_7 
ROOT
ATOM      1  C   UNL d   1       1.847  -0.836  -0.106  0.00  0.00    -0.033 A 
ATOM      2  C1  UNL d   1       1.923  -1.630   1.040  0.00  0.00     0.039 A 
ATOM      3  C2  UNL d   1       0.884  -1.612   1.974  0.00  0.00    -0.080 A 
ATOM      4  C3  UNL d   1      -0.223  -0.798   1.749  0.00  0.00     0.150 A 
ATOM      5  C4  UNL d   1      -0.306  -0.008   0.607  0.00  0.00    -0.007 A 
ATOM      6  C5  UNL d   1       0.732  -0.026  -0.323  0.00  0.00     0.039 A 
ENDROOT
BRANCH   4   7
ATOM      7  O   UNL d   1      -1.258  -0.744   2.634  0.00  0.00    -0.526 OA
ATOM      8  H5  UNL d   1      -1.049  -1.320   3.388  0.00  0.00     0.418 HD
ENDBRANCH   4   7
TORSDOF 1
ENDMDL
