MODEL 1
REMARK minimizedAffinity -2.24511743
REMARK minimizedRMSD -1
REMARK  1 active torsions:
REMARK  status: ('A' for Active; 'I' for Inactive)
REMARK    1  A    between atoms: C3_4  and  O_7 
ROOT
ATOM      1  C   UNL d   1       1.128  -5.308  -4.835  0.00  0.00    -0.033 A 
ATOM      2  C1  UNL d   1       0.499  -5.777  -5.990  0.00  0.00     0.039 A 
ATOM      3  C2  UNL d   1      -0.882  -5.987  -5.999  0.00  0.00    -0.080 A 
ATOM      4  C3  UNL d   1      -1.621  -5.722  -4.849  0.00  0.00     0.150 A 
ATOM      5  C4  UNL d   1      -1.001  -5.251  -3.697  0.00  0.00    -0.007 A 
ATOM      6  C5  UNL d   1       0.378  -5.043  -3.689  0.00  0.00     0.039 A 
ENDROOT
BRANCH   4   7
ATOM      7  O   UNL d   1      -2.969  -5.916  -4.809  0.00  0.00    -0.526 OA
ATOM      8  H5  UNL d   1      -3.255  -6.271  -5.667  0.00  0.00     0.418 HD
ENDBRANCH   4   7
TORSDOF 1
ENDMDL
