MODEL 1
REMARK minimizedAffinity -3.15135527
REMARK minimizedRMSD -1
REMARK  1 active torsions:
REMARK  status: ('A' for Active; 'I' for Inactive)
REMARK    1  A    between atoms: C3_4  and  O_7 
ROOT
ATOM      1  C   UNL d   1      -2.631   1.352  -1.988  0.00  0.00    -0.033 A 
ATOM      2  C1  UNL d   1      -2.874   1.166  -3.350  0.00  0.00     0.039 A 
ATOM      3  C2  UNL d   1      -2.084   1.819  -4.298  0.00  0.00    -0.080 A 
ATOM      4  C3  UNL d   1      -1.055   2.654  -3.871  0.00  0.00     0.150 A 
ATOM      5  C4  UNL d   1      -0.804   2.840  -2.515  0.00  0.00    -0.007 A 
ATOM      6  C5  UNL d   1      -1.595   2.188  -1.570  0.00  0.00     0.039 A 
ENDROOT
BRANCH   4   7
ATOM      7  O   UNL d   1      -0.260   3.316  -4.758  0.00  0.00    -0.526 OA
ATOM      8  H5  UNL d   1      -0.568   3.114  -5.657  0.00  0.00     0.418 HD
ENDBRANCH   4   7
TORSDOF 1
ENDMDL
