MODEL 1
REMARK minimizedAffinity 1.23295879
REMARK minimizedRMSD -1
REMARK  1 active torsions:
REMARK  status: ('A' for Active; 'I' for Inactive)
REMARK    1  A    between atoms: C3_4  and  O_7 
ROOT
ATOM      1  C   UNL d   1       1.650  -0.506   0.080  0.00  0.00    -0.033 A 
ATOM      2  C1  UNL d   1       1.961  -1.287   1.194  0.00  0.00     0.039 A 
ATOM      3  C2  UNL d   1       1.007  -1.493   2.192  0.00  0.00    -0.080 A 
ATOM      4  C3  UNL d   1      -0.252  -0.914   2.065  0.00  0.00     0.150 A 
ATOM      5  C4  UNL d   1      -0.570  -0.137   0.955  0.00  0.00    -0.007 A 
ATOM      6  C5  UNL d   1       0.384   0.068  -0.040  0.00  0.00     0.039 A 
ENDROOT
BRANCH   4   7
ATOM      7  O   UNL d   1      -1.214  -1.083   3.016  0.00  0.00    -0.526 OA
ATOM      8  H5  UNL d   1      -0.843  -1.618   3.737  0.00  0.00     0.418 HD
ENDBRANCH   4   7
TORSDOF 1
ENDMDL
