MODEL 1
REMARK minimizedAffinity 4.47519016
REMARK minimizedRMSD -1
REMARK  0 active torsions:
REMARK  status: ('A' for Active; 'I' for Inactive)
ROOT
ATOM      1  C   UNL d   1       0.390   1.529  -3.064  0.00  0.00     0.020 A 
ATOM      2  C1  UNL d   1      -0.392   1.295  -1.933  0.00  0.00     0.020 A 
ATOM      3  C2  UNL d   1      -0.317   2.162  -0.841  0.00  0.00     0.034 A 
ATOM      4  C3  UNL d   1       0.542   3.266  -0.876  0.00  0.00     0.017 A 
ATOM      5  C4  UNL d   1       1.327   3.500  -2.012  0.00  0.00     0.017 A 
ATOM      6  C5  UNL d   1       1.247   2.629  -3.103  0.00  0.00     0.034 A 
ATOM      7 Cl   UNL d   1       2.410   4.842  -2.129  0.00  0.00    -0.070 Cl
ATOM      8 Cl1  UNL d   1       0.584   4.296   0.510  0.00  0.00    -0.070 Cl
ENDROOT
TORSDOF 0
ENDMDL
