MODEL 1
REMARK minimizedAffinity 1.12010574
REMARK minimizedRMSD -1
REMARK  0 active torsions:
REMARK  status: ('A' for Active; 'I' for Inactive)
ROOT
ATOM      1  C   UNL d   1       5.648  -0.397   6.000  0.00  0.00     0.020 A 
ATOM      2  C1  UNL d   1       4.842  -1.153   5.150  0.00  0.00     0.020 A 
ATOM      3  C2  UNL d   1       4.380  -0.602   3.953  0.00  0.00     0.034 A 
ATOM      4  C3  UNL d   1       4.722   0.709   3.603  0.00  0.00     0.017 A 
ATOM      5  C4  UNL d   1       5.531   1.468   4.458  0.00  0.00     0.017 A 
ATOM      6  C5  UNL d   1       5.992   0.910   5.655  0.00  0.00     0.034 A 
ATOM      7 Cl   UNL d   1       5.996   3.092   4.094  0.00  0.00    -0.070 Cl
ATOM      8 Cl1  UNL d   1       4.115   1.327   2.108  0.00  0.00    -0.070 Cl
ENDROOT
TORSDOF 0
ENDMDL
