MODEL 1
REMARK minimizedAffinity 5.92833185
REMARK minimizedRMSD -1
REMARK  0 active torsions:
REMARK  status: ('A' for Active; 'I' for Inactive)
ROOT
ATOM      1  C   UNL d   1       4.713   3.383   3.343  0.00  0.00     0.020 A 
ATOM      2  C1  UNL d   1       4.386   2.609   2.230  0.00  0.00     0.020 A 
ATOM      3  C2  UNL d   1       4.555   1.224   2.270  0.00  0.00     0.034 A 
ATOM      4  C3  UNL d   1       5.052   0.608   3.424  0.00  0.00     0.017 A 
ATOM      5  C4  UNL d   1       5.381   1.386   4.540  0.00  0.00     0.017 A 
ATOM      6  C5  UNL d   1       5.210   2.773   4.495  0.00  0.00     0.034 A 
ATOM      7 Cl   UNL d   1       6.000   0.698   6.000  0.00  0.00    -0.070 Cl
ATOM      8 Cl1  UNL d   1       5.235  -1.110   3.403  0.00  0.00    -0.070 Cl
ENDROOT
TORSDOF 0
ENDMDL
