MODEL 1
REMARK minimizedAffinity 2.94760776
REMARK minimizedRMSD -1
REMARK  0 active torsions:
REMARK  status: ('A' for Active; 'I' for Inactive)
ROOT
ATOM      1  C   UNL d   1       3.860   1.010   2.029  0.00  0.00     0.020 A 
ATOM      2  C1  UNL d   1       3.859  -0.026   2.962  0.00  0.00     0.020 A 
ATOM      3  C2  UNL d   1       4.526   0.131   4.179  0.00  0.00     0.034 A 
ATOM      4  C3  UNL d   1       5.196   1.326   4.466  0.00  0.00     0.017 A 
ATOM      5  C4  UNL d   1       5.196   2.365   3.528  0.00  0.00     0.017 A 
ATOM      6  C5  UNL d   1       4.526   2.203   2.311  0.00  0.00     0.034 A 
ATOM      7 Cl   UNL d   1       6.000   3.868   3.811  0.00  0.00    -0.070 Cl
ATOM      8 Cl1  UNL d   1       5.999   1.451   5.991  0.00  0.00    -0.070 Cl
ENDROOT
TORSDOF 0
ENDMDL
