MODEL 1
REMARK minimizedAffinity 8.20032597
REMARK minimizedRMSD -1
REMARK  0 active torsions:
REMARK  status: ('A' for Active; 'I' for Inactive)
ROOT
ATOM      1  C   UNL d   1      -2.086  -1.122   3.075  0.00  0.00     0.020 A 
ATOM      2  C1  UNL d   1      -2.266  -2.007   2.013  0.00  0.00     0.020 A 
ATOM      3  C2  UNL d   1      -1.227  -2.857   1.629  0.00  0.00     0.034 A 
ATOM      4  C3  UNL d   1      -0.004  -2.825   2.308  0.00  0.00     0.017 A 
ATOM      5  C4  UNL d   1       0.176  -1.937   3.374  0.00  0.00     0.017 A 
ATOM      6  C5  UNL d   1      -0.867  -1.087   3.755  0.00  0.00     0.034 A 
ATOM      7 Cl   UNL d   1       1.657  -1.839   4.260  0.00  0.00    -0.070 Cl
ATOM      8 Cl1  UNL d   1       1.237  -3.905   1.779  0.00  0.00    -0.070 Cl
ENDROOT
TORSDOF 0
ENDMDL
