MODEL 1
REMARK minimizedAffinity 9.10518551
REMARK minimizedRMSD -1
REMARK  0 active torsions:
REMARK  status: ('A' for Active; 'I' for Inactive)
ROOT
ATOM      1  C   UNL d   1       4.726  -0.285   3.640  0.00  0.00     0.020 A 
ATOM      2  C1  UNL d   1       5.633   0.120   4.619  0.00  0.00     0.020 A 
ATOM      3  C2  UNL d   1       5.999   1.464   4.717  0.00  0.00     0.034 A 
ATOM      4  C3  UNL d   1       5.457   2.408   3.837  0.00  0.00     0.017 A 
ATOM      5  C4  UNL d   1       4.547   2.000   2.855  0.00  0.00     0.017 A 
ATOM      6  C5  UNL d   1       4.184   0.653   2.761  0.00  0.00     0.034 A 
ATOM      7 Cl   UNL d   1       3.836   3.106   1.733  0.00  0.00    -0.070 Cl
ATOM      8 Cl1  UNL d   1       5.954   4.053   4.016  0.00  0.00    -0.070 Cl
ENDROOT
TORSDOF 0
ENDMDL
