MODEL 1
REMARK minimizedAffinity -3.26830316
REMARK minimizedRMSD -1
REMARK  0 active torsions:
REMARK  status: ('A' for Active; 'I' for Inactive)
ROOT
ATOM      1  C   UNL d   1      -4.320   0.372  -0.102  0.00  0.00     0.020 A 
ATOM      2  C1  UNL d   1      -3.814  -0.775   0.509  0.00  0.00     0.020 A 
ATOM      3  C2  UNL d   1      -2.900  -0.662   1.558  0.00  0.00     0.034 A 
ATOM      4  C3  UNL d   1      -2.488   0.600   2.000  0.00  0.00     0.017 A 
ATOM      5  C4  UNL d   1      -2.996   1.751   1.386  0.00  0.00     0.017 A 
ATOM      6  C5  UNL d   1      -3.911   1.632   0.336  0.00  0.00     0.034 A 
ATOM      7 Cl   UNL d   1      -2.535   3.343   1.876  0.00  0.00    -0.070 Cl
ATOM      8 Cl1  UNL d   1      -1.355   0.666   3.303  0.00  0.00    -0.070 Cl
ENDROOT
TORSDOF 0
ENDMDL
