MODEL 1
REMARK minimizedAffinity 2.94955707
REMARK minimizedRMSD -1
REMARK  0 active torsions:
REMARK  status: ('A' for Active; 'I' for Inactive)
ROOT
ATOM      1  C   UNL d   1      -4.639   0.596  -0.973  0.00  0.00     0.020 A 
ATOM      2  C1  UNL d   1      -3.265   0.696  -0.757  0.00  0.00     0.020 A 
ATOM      3  C2  UNL d   1      -2.715   0.264   0.451  0.00  0.00     0.034 A 
ATOM      4  C3  UNL d   1      -3.539  -0.270   1.449  0.00  0.00     0.017 A 
ATOM      5  C4  UNL d   1      -4.918  -0.370   1.231  0.00  0.00     0.017 A 
ATOM      6  C5  UNL d   1      -5.464   0.064   0.019  0.00  0.00     0.034 A 
ATOM      7 Cl   UNL d   1      -5.999  -1.018   2.414  0.00  0.00    -0.070 Cl
ATOM      8 Cl1  UNL d   1      -2.792  -0.785   2.919  0.00  0.00    -0.070 Cl
ENDROOT
TORSDOF 0
ENDMDL
