MODEL 1
REMARK minimizedAffinity 7.63165188
REMARK minimizedRMSD -1
REMARK  0 active torsions:
REMARK  status: ('A' for Active; 'I' for Inactive)
ROOT
ATOM      1  C   UNL d   1      -3.798  -5.295   0.506  0.00  0.00     0.020 A 
ATOM      2  C1  UNL d   1      -3.986  -4.903  -0.818  0.00  0.00     0.020 A 
ATOM      3  C2  UNL d   1      -2.909  -4.416  -1.562  0.00  0.00     0.034 A 
ATOM      4  C3  UNL d   1      -1.639  -4.320  -0.982  0.00  0.00     0.017 A 
ATOM      5  C4  UNL d   1      -1.451  -4.714   0.348  0.00  0.00     0.017 A 
ATOM      6  C5  UNL d   1      -2.533  -5.201   1.088  0.00  0.00     0.034 A 
ATOM      7 Cl   UNL d   1       0.087  -4.625   1.132  0.00  0.00    -0.070 Cl
ATOM      8 Cl1  UNL d   1      -0.353  -3.709  -1.961  0.00  0.00    -0.070 Cl
ENDROOT
TORSDOF 0
ENDMDL
