MODEL 1
REMARK minimizedAffinity 0.207236946
REMARK minimizedRMSD -1
REMARK  0 active torsions:
REMARK  status: ('A' for Active; 'I' for Inactive)
ROOT
ATOM      1  C   UNL d   1      -2.495   3.149   0.679  0.00  0.00     0.020 A 
ATOM      2  C1  UNL d   1      -2.586   2.510  -0.558  0.00  0.00     0.020 A 
ATOM      3  C2  UNL d   1      -2.689   1.119  -0.619  0.00  0.00     0.034 A 
ATOM      4  C3  UNL d   1      -2.700   0.361   0.558  0.00  0.00     0.017 A 
ATOM      5  C4  UNL d   1      -2.608   1.003   1.798  0.00  0.00     0.017 A 
ATOM      6  C5  UNL d   1      -2.506   2.396   1.854  0.00  0.00     0.034 A 
ATOM      7 Cl   UNL d   1      -2.616   0.135   3.293  0.00  0.00    -0.070 Cl
ATOM      8 Cl1  UNL d   1      -2.830  -1.355   0.407  0.00  0.00    -0.070 Cl
ENDROOT
TORSDOF 0
ENDMDL
