MODEL 1
REMARK minimizedAffinity -1.94743085
REMARK minimizedRMSD -1
REMARK  0 active torsions:
REMARK  status: ('A' for Active; 'I' for Inactive)
ROOT
ATOM      1  C   UNL d   1      -0.615  -2.046  -0.495  0.00  0.00     0.020 A 
ATOM      2  C1  UNL d   1       0.295  -1.021  -0.237  0.00  0.00     0.020 A 
ATOM      3  C2  UNL d   1       1.438  -1.277   0.524  0.00  0.00     0.034 A 
ATOM      4  C3  UNL d   1       1.674  -2.560   1.029  0.00  0.00     0.017 A 
ATOM      5  C4  UNL d   1       0.760  -3.588   0.770  0.00  0.00     0.017 A 
ATOM      6  C5  UNL d   1      -0.382  -3.327   0.008  0.00  0.00     0.034 A 
ATOM      7 Cl   UNL d   1       0.983  -5.197   1.360  0.00  0.00    -0.070 Cl
ATOM      8 Cl1  UNL d   1       3.108  -2.805   1.962  0.00  0.00    -0.070 Cl
ENDROOT
TORSDOF 0
ENDMDL
