MODEL 1
REMARK minimizedAffinity -3.27980733
REMARK minimizedRMSD -1
REMARK  0 active torsions:
REMARK  status: ('A' for Active; 'I' for Inactive)
ROOT
ATOM      1  C   UNL d   1       5.449  -1.425   4.340  0.00  0.00     0.020 A 
ATOM      2  C1  UNL d   1       6.000  -0.193   4.687  0.00  0.00     0.020 A 
ATOM      3  C2  UNL d   1       5.497   0.981   4.121  0.00  0.00     0.034 A 
ATOM      4  C3  UNL d   1       4.440   0.924   3.206  0.00  0.00     0.017 A 
ATOM      5  C4  UNL d   1       3.888  -0.314   2.858  0.00  0.00     0.017 A 
ATOM      6  C5  UNL d   1       4.395  -1.486   3.427  0.00  0.00     0.034 A 
ATOM      7 Cl   UNL d   1       2.582  -0.464   1.735  0.00  0.00    -0.070 Cl
ATOM      8 Cl1  UNL d   1       3.867   2.415   2.546  0.00  0.00    -0.070 Cl
ENDROOT
TORSDOF 0
ENDMDL
