MODEL 1
REMARK minimizedAffinity 1.33930874
REMARK minimizedRMSD -1
REMARK  0 active torsions:
REMARK  status: ('A' for Active; 'I' for Inactive)
ROOT
ATOM      1  C   UNL d   1      -2.771   3.070   0.517  0.00  0.00     0.020 A 
ATOM      2  C1  UNL d   1      -3.244   2.100  -0.366  0.00  0.00     0.020 A 
ATOM      3  C2  UNL d   1      -3.520   0.811   0.095  0.00  0.00     0.034 A 
ATOM      4  C3  UNL d   1      -3.325   0.489   1.443  0.00  0.00     0.017 A 
ATOM      5  C4  UNL d   1      -2.850   1.463   2.329  0.00  0.00     0.017 A 
ATOM      6  C5  UNL d   1      -2.574   2.752   1.862  0.00  0.00     0.034 A 
ATOM      7 Cl   UNL d   1      -2.583   1.140   4.005  0.00  0.00    -0.070 Cl
ATOM      8 Cl1  UNL d   1      -3.688  -1.124   1.944  0.00  0.00    -0.070 Cl
ENDROOT
TORSDOF 0
ENDMDL
