MODEL 1
REMARK minimizedAffinity 0.535671651
REMARK minimizedRMSD -1
REMARK  0 active torsions:
REMARK  status: ('A' for Active; 'I' for Inactive)
ROOT
ATOM      1  C   UNL d   1       5.276  -0.173   4.808  0.00  0.00     0.020 A 
ATOM      2  C1  UNL d   1       5.636   1.169   4.685  0.00  0.00     0.020 A 
ATOM      3  C2  UNL d   1       5.068   1.955   3.681  0.00  0.00     0.034 A 
ATOM      4  C3  UNL d   1       4.137   1.401   2.795  0.00  0.00     0.017 A 
ATOM      5  C4  UNL d   1       3.776   0.054   2.919  0.00  0.00     0.017 A 
ATOM      6  C5  UNL d   1       4.348  -0.729   3.926  0.00  0.00     0.034 A 
ATOM      7 Cl   UNL d   1       2.634  -0.701   1.863  0.00  0.00    -0.070 Cl
ATOM      8 Cl1  UNL d   1       3.473   2.432   1.577  0.00  0.00    -0.070 Cl
ENDROOT
TORSDOF 0
ENDMDL
