MODEL 1
REMARK minimizedAffinity -0.470282108
REMARK minimizedRMSD -1
REMARK  0 active torsions:
REMARK  status: ('A' for Active; 'I' for Inactive)
ROOT
ATOM      1  C   UNL d   1       3.004  -0.689   2.577  0.00  0.00     0.020 A 
ATOM      2  C1  UNL d   1       3.594  -1.420   3.607  0.00  0.00     0.020 A 
ATOM      3  C2  UNL d   1       4.516  -0.807   4.459  0.00  0.00     0.034 A 
ATOM      4  C3  UNL d   1       4.850   0.540   4.282  0.00  0.00     0.017 A 
ATOM      5  C4  UNL d   1       4.257   1.273   3.248  0.00  0.00     0.017 A 
ATOM      6  C5  UNL d   1       3.335   0.655   2.398  0.00  0.00     0.034 A 
ATOM      7 Cl   UNL d   1       4.619   2.940   2.967  0.00  0.00    -0.070 Cl
ATOM      8 Cl1  UNL d   1       5.998   1.233   5.373  0.00  0.00    -0.070 Cl
ENDROOT
TORSDOF 0
ENDMDL
