MODEL 1
REMARK minimizedAffinity -2.4785974
REMARK minimizedRMSD -1
REMARK  0 active torsions:
REMARK  status: ('A' for Active; 'I' for Inactive)
ROOT
ATOM      1  C   UNL d   1       5.255  -0.107   5.313  0.00  0.00     0.020 A 
ATOM      2  C1  UNL d   1       5.499   1.263   5.230  0.00  0.00     0.020 A 
ATOM      3  C2  UNL d   1       4.977   2.002   4.167  0.00  0.00     0.034 A 
ATOM      4  C3  UNL d   1       4.209   1.372   3.181  0.00  0.00     0.017 A 
ATOM      5  C4  UNL d   1       3.965  -0.004   3.264  0.00  0.00     0.017 A 
ATOM      6  C5  UNL d   1       4.490  -0.739   4.331  0.00  0.00     0.034 A 
ATOM      7 Cl   UNL d   1       3.027  -0.852   2.086  0.00  0.00    -0.070 Cl
ATOM      8 Cl1  UNL d   1       3.596   2.348   1.894  0.00  0.00    -0.070 Cl
ENDROOT
TORSDOF 0
ENDMDL
