MODEL 1
REMARK minimizedAffinity 4.88636541
REMARK minimizedRMSD -1
REMARK  0 active torsions:
REMARK  status: ('A' for Active; 'I' for Inactive)
ROOT
ATOM      1  C   UNL d   1      -6.000  -0.982   2.387  0.00  0.00     0.020 A 
ATOM      2  C1  UNL d   1      -5.882  -1.154   3.766  0.00  0.00     0.020 A 
ATOM      3  C2  UNL d   1      -4.720  -0.745   4.423  0.00  0.00     0.034 A 
ATOM      4  C3  UNL d   1      -3.671  -0.163   3.702  0.00  0.00     0.017 A 
ATOM      5  C4  UNL d   1      -3.790   0.009   2.319  0.00  0.00     0.017 A 
ATOM      6  C5  UNL d   1      -4.956  -0.402   1.665  0.00  0.00     0.034 A 
ATOM      7 Cl   UNL d   1      -2.539   0.719   1.361  0.00  0.00    -0.070 Cl
ATOM      8 Cl1  UNL d   1      -2.263   0.319   4.580  0.00  0.00    -0.070 Cl
ENDROOT
TORSDOF 0
ENDMDL
