MODEL 1
REMARK minimizedAffinity 1.48682785
REMARK minimizedRMSD -1
REMARK  0 active torsions:
REMARK  status: ('A' for Active; 'I' for Inactive)
ROOT
ATOM      1  C   UNL d   1       4.759   0.047   4.272  0.00  0.00     0.020 A 
ATOM      2  C1  UNL d   1       5.718   0.645   5.089  0.00  0.00     0.020 A 
ATOM      3  C2  UNL d   1       6.000   2.006   4.954  0.00  0.00     0.034 A 
ATOM      4  C3  UNL d   1       5.322   2.774   3.999  0.00  0.00     0.017 A 
ATOM      5  C4  UNL d   1       4.360   2.172   3.180  0.00  0.00     0.017 A 
ATOM      6  C5  UNL d   1       4.082   0.809   3.320  0.00  0.00     0.034 A 
ATOM      7 Cl   UNL d   1       3.483   3.054   1.980  0.00  0.00    -0.070 Cl
ATOM      8 Cl1  UNL d   1       5.721   4.451   3.887  0.00  0.00    -0.070 Cl
ENDROOT
TORSDOF 0
ENDMDL
