MODEL 1
REMARK minimizedAffinity 8.03326225
REMARK minimizedRMSD -1
REMARK  0 active torsions:
REMARK  status: ('A' for Active; 'I' for Inactive)
ROOT
ATOM      1  C   UNL d   1      -3.387   4.199   0.379  0.00  0.00     0.020 A 
ATOM      2  C1  UNL d   1      -3.400   4.181   1.773  0.00  0.00     0.020 A 
ATOM      3  C2  UNL d   1      -3.275   2.970   2.457  0.00  0.00     0.034 A 
ATOM      4  C3  UNL d   1      -3.137   1.771   1.747  0.00  0.00     0.017 A 
ATOM      5  C4  UNL d   1      -3.124   1.790   0.348  0.00  0.00     0.017 A 
ATOM      6  C5  UNL d   1      -3.250   3.006  -0.332  0.00  0.00     0.034 A 
ATOM      7 Cl   UNL d   1      -2.958   0.353  -0.597  0.00  0.00    -0.070 Cl
ATOM      8 Cl1  UNL d   1      -2.987   0.311   2.658  0.00  0.00    -0.070 Cl
ENDROOT
TORSDOF 0
ENDMDL
