MODEL 1
REMARK minimizedAffinity 18.7284603
REMARK minimizedRMSD -1
REMARK  1 active torsions:
REMARK  status: ('A' for Active; 'I' for Inactive)
REMARK    1  A    between atoms: C1_2  and  C2_3 
ROOT
ATOM      1  C2  UNL d   1      -0.208  -1.230   1.197  0.00  0.00    -0.076 A 
ATOM      2  C3  UNL d   1      -0.085  -2.446   0.504  0.00  0.00     0.004 A 
ATOM      3  C4  UNL d   1       1.091  -3.191   0.566  0.00  0.00    -0.003 A 
ATOM      4  C5  UNL d   1       2.163  -2.733   1.323  0.00  0.00     0.000 A 
ATOM      5  C6  UNL d   1       2.052  -1.537   2.032  0.00  0.00     0.000 A 
ATOM      6  C7  UNL d   1       0.867  -0.782   1.993  0.00  0.00    -0.073 A 
ATOM      7  C8  UNL d   1       0.805   0.504   2.772  0.00  0.00     0.078 C 
ENDROOT
BRANCH   1   8
ATOM      8  C1  UNL d   1      -1.498  -0.451   1.070  0.00  0.00     0.053 C 
ATOM      9  C   UNL d   1      -1.432   0.615  -0.012  0.00  0.00     0.018 C 
ENDBRANCH   1   8
TORSDOF 1
ENDMDL
