MODEL 1
REMARK minimizedAffinity 10.5890856
REMARK minimizedRMSD -1
REMARK  1 active torsions:
REMARK  status: ('A' for Active; 'I' for Inactive)
REMARK    1  A    between atoms: C1_2  and  C2_3 
ROOT
ATOM      1  C2  UNL d   1      -0.809  -0.137   1.066  0.00  0.00    -0.076 A 
ATOM      2  C3  UNL d   1      -1.270  -1.465   1.023  0.00  0.00     0.004 A 
ATOM      3  C4  UNL d   1      -2.335  -1.829   0.202  0.00  0.00    -0.003 A 
ATOM      4  C5  UNL d   1      -2.957  -0.871  -0.591  0.00  0.00     0.000 A 
ATOM      5  C6  UNL d   1      -2.502   0.447  -0.575  0.00  0.00     0.000 A 
ATOM      6  C7  UNL d   1      -1.419   0.827   0.236  0.00  0.00    -0.073 A 
ATOM      7  C8  UNL d   1      -0.973   2.264   0.219  0.00  0.00     0.078 C 
ENDROOT
BRANCH   1   8
ATOM      8  C1  UNL d   1       0.333   0.203   1.997  0.00  0.00     0.053 C 
ATOM      9  C   UNL d   1       1.338  -0.931   2.125  0.00  0.00     0.018 C 
ENDBRANCH   1   8
TORSDOF 1
ENDMDL
