MODEL 1
REMARK minimizedAffinity -0.592829883
REMARK minimizedRMSD -1
REMARK  1 active torsions:
REMARK  status: ('A' for Active; 'I' for Inactive)
REMARK    1  A    between atoms: C1_2  and  C2_3 
ROOT
ATOM      1  C2  UNL d   1      -0.356  -1.656   1.324  0.00  0.00    -0.076 A 
ATOM      2  C3  UNL d   1      -0.707  -3.014   1.241  0.00  0.00     0.004 A 
ATOM      3  C4  UNL d   1      -1.742  -3.438   0.409  0.00  0.00    -0.003 A 
ATOM      4  C5  UNL d   1      -2.441  -2.510  -0.355  0.00  0.00     0.000 A 
ATOM      5  C6  UNL d   1      -2.095  -1.161  -0.298  0.00  0.00     0.000 A 
ATOM      6  C7  UNL d   1      -1.043  -0.719   0.523  0.00  0.00    -0.073 A 
ATOM      7  C8  UNL d   1      -0.716   0.749   0.550  0.00  0.00     0.078 C 
ENDROOT
BRANCH   1   8
ATOM      8  C1  UNL d   1       0.757  -1.252   2.265  0.00  0.00     0.053 C 
ATOM      9  C   UNL d   1       1.125  -2.358   3.241  0.00  0.00     0.018 C 
ENDBRANCH   1   8
TORSDOF 1
ENDMDL
