MODEL 1
REMARK minimizedAffinity 5.16779804
REMARK minimizedRMSD -1
REMARK  1 active torsions:
REMARK  status: ('A' for Active; 'I' for Inactive)
REMARK    1  A    between atoms: C1_2  and  C2_3 
ROOT
ATOM      1  C2  UNL d   1       2.269  -2.771   3.250  0.00  0.00    -0.076 A 
ATOM      2  C3  UNL d   1       2.122  -2.167   1.989  0.00  0.00     0.004 A 
ATOM      3  C4  UNL d   1       1.560  -0.897   1.863  0.00  0.00    -0.003 A 
ATOM      4  C5  UNL d   1       1.137  -0.211   2.996  0.00  0.00     0.000 A 
ATOM      5  C6  UNL d   1       1.292  -0.788   4.256  0.00  0.00     0.000 A 
ATOM      6  C7  UNL d   1       1.871  -2.060   4.402  0.00  0.00    -0.073 A 
ATOM      7  C8  UNL d   1       2.008  -2.637   5.785  0.00  0.00     0.078 C 
ENDROOT
BRANCH   1   8
ATOM      8  C1  UNL d   1       2.861  -4.161   3.322  0.00  0.00     0.053 C 
ATOM      9  C   UNL d   1       2.052  -5.180   2.534  0.00  0.00     0.018 C 
ENDBRANCH   1   8
TORSDOF 1
ENDMDL
