MODEL 1
REMARK minimizedAffinity 1.22295022
REMARK minimizedRMSD -1
REMARK  1 active torsions:
REMARK  status: ('A' for Active; 'I' for Inactive)
REMARK    1  A    between atoms: C1_2  and  C2_3 
ROOT
ATOM      1  C2  UNL d   1      -1.456  -2.148   0.419  0.00  0.00    -0.076 A 
ATOM      2  C3  UNL d   1      -0.319  -2.934   0.679  0.00  0.00     0.004 A 
ATOM      3  C4  UNL d   1       0.842  -2.367   1.201  0.00  0.00    -0.003 A 
ATOM      4  C5  UNL d   1       0.885  -1.004   1.473  0.00  0.00     0.000 A 
ATOM      5  C6  UNL d   1      -0.238  -0.212   1.238  0.00  0.00     0.000 A 
ATOM      6  C7  UNL d   1      -1.422  -0.771   0.727  0.00  0.00    -0.073 A 
ATOM      7  C8  UNL d   1      -2.602   0.131   0.488  0.00  0.00     0.078 C 
ENDROOT
BRANCH   1   8
ATOM      8  C1  UNL d   1      -2.677  -2.814  -0.173  0.00  0.00     0.053 C 
ATOM      9  C   UNL d   1      -2.664  -4.324   0.010  0.00  0.00     0.018 C 
ENDBRANCH   1   8
TORSDOF 1
ENDMDL
