MODEL 1
REMARK minimizedAffinity 8.37699795
REMARK minimizedRMSD -1
REMARK  1 active torsions:
REMARK  status: ('A' for Active; 'I' for Inactive)
REMARK    1  A    between atoms: C1_2  and  C2_3 
ROOT
ATOM      1  C2  UNL d   1      -1.398  -3.665  -1.188  0.00  0.00    -0.076 A 
ATOM      2  C3  UNL d   1      -1.196  -2.329  -1.578  0.00  0.00     0.004 A 
ATOM      3  C4  UNL d   1      -2.001  -1.307  -1.078  0.00  0.00    -0.003 A 
ATOM      4  C5  UNL d   1      -3.021  -1.604  -0.180  0.00  0.00     0.000 A 
ATOM      5  C6  UNL d   1      -3.224  -2.921   0.230  0.00  0.00     0.000 A 
ATOM      6  C7  UNL d   1      -2.411  -3.962  -0.251  0.00  0.00    -0.073 A 
ATOM      7  C8  UNL d   1      -2.678  -5.365   0.221  0.00  0.00     0.078 C 
ENDROOT
BRANCH   1   8
ATOM      8  C1  UNL d   1      -0.511  -4.735  -1.785  0.00  0.00     0.053 C 
ATOM      9  C   UNL d   1       0.815  -4.181  -2.284  0.00  0.00     0.018 C 
ENDBRANCH   1   8
TORSDOF 1
ENDMDL
