MODEL 1
REMARK minimizedAffinity 16.6450272
REMARK minimizedRMSD -1
REMARK  1 active torsions:
REMARK  status: ('A' for Active; 'I' for Inactive)
REMARK    1  A    between atoms: C1_2  and  C2_3 
ROOT
ATOM      1  C2  UNL d   1       4.875  -4.727  -2.098  0.00  0.00    -0.076 A 
ATOM      2  C3  UNL d   1       5.997  -4.434  -1.304  0.00  0.00     0.004 A 
ATOM      3  C4  UNL d   1       5.943  -3.448  -0.321  0.00  0.00    -0.003 A 
ATOM      4  C5  UNL d   1       4.765  -2.739  -0.115  0.00  0.00     0.000 A 
ATOM      5  C6  UNL d   1       3.636  -3.029  -0.881  0.00  0.00     0.000 A 
ATOM      6  C7  UNL d   1       3.670  -4.031  -1.866  0.00  0.00    -0.073 A 
ATOM      7  C8  UNL d   1       2.425  -4.297  -2.667  0.00  0.00     0.078 C 
ENDROOT
BRANCH   1   8
ATOM      8  C1  UNL d   1       5.001  -5.788  -3.168  0.00  0.00     0.053 C 
ATOM      9  C   UNL d   1       5.976  -5.394  -4.268  0.00  0.00     0.018 C 
ENDBRANCH   1   8
TORSDOF 1
ENDMDL
