MODEL 1
REMARK minimizedAffinity 8.56408119
REMARK minimizedRMSD -1
REMARK  0 active torsions:
REMARK  status: ('A' for Active; 'I' for Inactive)
ROOT
ATOM      1  C4' PXY d   1       3.053  -2.209   0.490  0.00  0.00     0.077 C 
ATOM      2  C1' PXY d   1       5.519   2.633  -1.482  0.00  0.00     0.077 C 
ATOM      3  C1  PXY d   1       4.861   1.369  -0.966  0.00  0.00    -0.082 A 
ATOM      4  C2  PXY d   1       5.566   0.511  -0.247  0.00  0.00     0.003 A 
ATOM      5  C3  PXY d   1       4.996  -0.653   0.201  0.00  0.00     0.003 A 
ATOM      6  C4  PXY d   1       3.674  -0.915  -0.044  0.00  0.00    -0.082 A 
ATOM      7  C5  PXY d   1       2.945  -0.039  -0.767  0.00  0.00     0.003 A 
ATOM      8  C6  PXY d   1       3.554   1.116  -1.248  0.00  0.00     0.003 A 
ENDROOT
TORSDOF 0
ENDMDL
