MODEL 1
REMARK minimizedAffinity 4.71337461
REMARK minimizedRMSD -1
REMARK  0 active torsions:
REMARK  status: ('A' for Active; 'I' for Inactive)
ROOT
ATOM      1  C4' PXY d   1       5.999   5.862  -1.146  0.00  0.00     0.077 C 
ATOM      2  C1' PXY d   1       4.294   0.399  -0.331  0.00  0.00     0.077 C 
ATOM      3  C1  PXY d   1       4.743   1.833  -0.532  0.00  0.00    -0.082 A 
ATOM      4  C2  PXY d   1       4.312   2.513  -1.582  0.00  0.00     0.003 A 
ATOM      5  C3  PXY d   1       4.734   3.800  -1.797  0.00  0.00     0.003 A 
ATOM      6  C4  PXY d   1       5.564   4.415  -0.898  0.00  0.00    -0.082 A 
ATOM      7  C5  PXY d   1       6.000   3.732   0.181  0.00  0.00     0.003 A 
ATOM      8  C6  PXY d   1       5.592   2.413   0.359  0.00  0.00     0.003 A 
ENDROOT
TORSDOF 0
ENDMDL
