MODEL 1
REMARK minimizedAffinity 7.84891129
REMARK minimizedRMSD -1
REMARK  0 active torsions:
REMARK  status: ('A' for Active; 'I' for Inactive)
ROOT
ATOM      1  C4' PXY d   1       5.236   2.917  -1.424  0.00  0.00     0.077 C 
ATOM      2  C1' PXY d   1       3.614  -2.244   0.612  0.00  0.00     0.077 C 
ATOM      3  C1  PXY d   1       4.051  -0.891   0.085  0.00  0.00    -0.082 A 
ATOM      4  C2  PXY d   1       3.145  -0.050  -0.386  0.00  0.00     0.003 A 
ATOM      5  C3  PXY d   1       3.525   1.165  -0.895  0.00  0.00     0.003 A 
ATOM      6  C4  PXY d   1       4.841   1.544  -0.873  0.00  0.00    -0.082 A 
ATOM      7  C5  PXY d   1       5.770   0.696  -0.384  0.00  0.00     0.003 A 
ATOM      8  C6  PXY d   1       5.368  -0.550   0.090  0.00  0.00     0.003 A 
ENDROOT
TORSDOF 0
ENDMDL
