MODEL 1
REMARK minimizedAffinity 7.41330481
REMARK minimizedRMSD -1
REMARK  0 active torsions:
REMARK  status: ('A' for Active; 'I' for Inactive)
ROOT
ATOM      1  C4' PXY d   1       4.436  -0.288  -0.724  0.00  0.00     0.077 C 
ATOM      2  C1' PXY d   1       0.361  -4.378  -1.005  0.00  0.00     0.077 C 
ATOM      3  C1  PXY d   1       1.425  -3.302  -0.920  0.00  0.00    -0.082 A 
ATOM      4  C2  PXY d   1       1.949  -2.810  -2.031  0.00  0.00     0.003 A 
ATOM      5  C3  PXY d   1       2.935  -1.860  -1.971  0.00  0.00     0.003 A 
ATOM      6  C4  PXY d   1       3.352  -1.369  -0.763  0.00  0.00    -0.082 A 
ATOM      7  C5  PXY d   1       2.815  -1.858   0.375  0.00  0.00     0.003 A 
ATOM      8  C6  PXY d   1       1.845  -2.853   0.294  0.00  0.00     0.003 A 
ENDROOT
TORSDOF 0
ENDMDL
