MODEL 1
REMARK minimizedAffinity 13.507246
REMARK minimizedRMSD -1
REMARK  0 active torsions:
REMARK  status: ('A' for Active; 'I' for Inactive)
ROOT
ATOM      1  C4' PXY d   1       3.176  -3.194   1.504  0.00  0.00     0.077 C 
ATOM      2  C1' PXY d   1       5.458   0.968  -1.794  0.00  0.00     0.077 C 
ATOM      3  C1  PXY d   1       4.872  -0.128  -0.927  0.00  0.00    -0.082 A 
ATOM      4  C2  PXY d   1       3.631  -0.535  -1.137  0.00  0.00     0.003 A 
ATOM      5  C3  PXY d   1       3.074  -1.502  -0.341  0.00  0.00     0.003 A 
ATOM      6  C4  PXY d   1       3.813  -2.097   0.646  0.00  0.00    -0.082 A 
ATOM      7  C5  PXY d   1       5.084  -1.695   0.860  0.00  0.00     0.003 A 
ATOM      8  C6  PXY d   1       5.617  -0.682   0.068  0.00  0.00     0.003 A 
ENDROOT
TORSDOF 0
ENDMDL
