MODEL 1
REMARK minimizedAffinity 13.2927475
REMARK minimizedRMSD -1
REMARK  0 active torsions:
REMARK  status: ('A' for Active; 'I' for Inactive)
ROOT
ATOM      1  C4' PXY d   1       1.187  -5.999   6.000  0.00  0.00     0.077 C 
ATOM      2  C1' PXY d   1       0.980  -1.324   2.607  0.00  0.00     0.077 C 
ATOM      3  C1  PXY d   1       1.021  -2.550   3.498  0.00  0.00    -0.082 A 
ATOM      4  C2  PXY d   1       2.133  -2.846   4.152  0.00  0.00     0.003 A 
ATOM      5  C3  PXY d   1       2.197  -3.968   4.938  0.00  0.00     0.003 A 
ATOM      6  C4  PXY d   1       1.097  -4.767   5.096  0.00  0.00    -0.082 A 
ATOM      7  C5  PXY d   1      -0.044  -4.466   4.440  0.00  0.00     0.003 A 
ATOM      8  C6  PXY d   1      -0.077  -3.345   3.616  0.00  0.00     0.003 A 
ENDROOT
TORSDOF 0
ENDMDL
