MODEL 1
REMARK minimizedAffinity 9.84806919
REMARK minimizedRMSD -1
REMARK  0 active torsions:
REMARK  status: ('A' for Active; 'I' for Inactive)
ROOT
ATOM      1  C4' PXY d   1       5.651   2.762  -1.572  0.00  0.00     0.077 C 
ATOM      2  C1' PXY d   1       3.416  -2.228   0.304  0.00  0.00     0.077 C 
ATOM      3  C1  PXY d   1       4.011  -0.919  -0.178  0.00  0.00    -0.082 A 
ATOM      4  C2  PXY d   1       3.263  -0.076  -0.870  0.00  0.00     0.003 A 
ATOM      5  C3  PXY d   1       3.794   1.097  -1.342  0.00  0.00     0.003 A 
ATOM      6  C4  PXY d   1       5.090   1.434  -1.057  0.00  0.00    -0.082 A 
ATOM      7  C5  PXY d   1       5.857   0.584  -0.343  0.00  0.00     0.003 A 
ATOM      8  C6  PXY d   1       5.311  -0.620   0.091  0.00  0.00     0.003 A 
ENDROOT
TORSDOF 0
ENDMDL
