MODEL 1
REMARK minimizedAffinity 9.52108669
REMARK minimizedRMSD -1
REMARK  0 active torsions:
REMARK  status: ('A' for Active; 'I' for Inactive)
ROOT
ATOM      1  C4' PXY d   1       5.994   5.992  -5.505  0.00  0.00     0.077 C 
ATOM      2  C1' PXY d   1       3.095   5.426  -0.536  0.00  0.00     0.077 C 
ATOM      3  C1  PXY d   1       3.864   5.582  -1.833  0.00  0.00    -0.082 A 
ATOM      4  C2  PXY d   1       3.233   5.450  -2.988  0.00  0.00     0.003 A 
ATOM      5  C3  PXY d   1       3.919   5.556  -4.170  0.00  0.00     0.003 A 
ATOM      6  C4  PXY d   1       5.256   5.853  -4.171  0.00  0.00    -0.082 A 
ATOM      7  C5  PXY d   1       5.905   6.000  -2.997  0.00  0.00     0.003 A 
ATOM      8  C6  PXY d   1       5.199   5.847  -1.807  0.00  0.00     0.003 A 
ENDROOT
TORSDOF 0
ENDMDL
