MODEL 1
REMARK minimizedAffinity 4.42569351
REMARK minimizedRMSD -1
REMARK  0 active torsions:
REMARK  status: ('A' for Active; 'I' for Inactive)
ROOT
ATOM      1  C4' PXY d   1       1.526  -3.337   2.766  0.00  0.00     0.077 C 
ATOM      2  C1' PXY d   1       3.775  -5.998  -1.846  0.00  0.00     0.077 C 
ATOM      3  C1  PXY d   1       3.182  -5.312  -0.632  0.00  0.00    -0.082 A 
ATOM      4  C2  PXY d   1       2.787  -4.052  -0.720  0.00  0.00     0.003 A 
ATOM      5  C3  PXY d   1       2.278  -3.407   0.377  0.00  0.00     0.003 A 
ATOM      6  C4  PXY d   1       2.122  -4.073   1.563  0.00  0.00    -0.082 A 
ATOM      7  C5  PXY d   1       2.513  -5.361   1.658  0.00  0.00     0.003 A 
ATOM      8  C6  PXY d   1       3.066  -5.987   0.544  0.00  0.00     0.003 A 
ENDROOT
TORSDOF 0
ENDMDL
