MODEL 1
REMARK minimizedAffinity 6.12846994
REMARK minimizedRMSD -1
REMARK  0 active torsions:
REMARK  status: ('A' for Active; 'I' for Inactive)
ROOT
ATOM      1  C4' PXY d   1       2.385  -2.641   3.021  0.00  0.00     0.077 C 
ATOM      2  C1' PXY d   1       2.650   2.861   1.270  0.00  0.00     0.077 C 
ATOM      3  C1  PXY d   1       2.575   1.422   1.740  0.00  0.00    -0.082 A 
ATOM      4  C2  PXY d   1       3.420   0.529   1.251  0.00  0.00     0.003 A 
ATOM      5  C3  PXY d   1       3.345  -0.783   1.642  0.00  0.00     0.003 A 
ATOM      6  C4  PXY d   1       2.430  -1.175   2.582  0.00  0.00    -0.082 A 
ATOM      7  C5  PXY d   1       1.571  -0.268   3.093  0.00  0.00     0.003 A 
ATOM      8  C6  PXY d   1       1.637   1.051   2.653  0.00  0.00     0.003 A 
ENDROOT
TORSDOF 0
ENDMDL
