MODEL 1
REMARK minimizedAffinity 3.72908115
REMARK minimizedRMSD -1
REMARK  0 active torsions:
REMARK  status: ('A' for Active; 'I' for Inactive)
ROOT
ATOM      1  C4' PXY d   1       5.983  -5.922  -5.567  0.00  0.00     0.077 C 
ATOM      2  C1' PXY d   1       3.027  -5.978  -0.600  0.00  0.00     0.077 C 
ATOM      3  C1  PXY d   1       3.792  -5.969  -1.909  0.00  0.00    -0.082 A 
ATOM      4  C2  PXY d   1       5.114  -5.923  -1.893  0.00  0.00     0.003 A 
ATOM      5  C3  PXY d   1       5.821  -5.882  -3.068  0.00  0.00     0.003 A 
ATOM      6  C4  PXY d   1       5.170  -5.942  -4.270  0.00  0.00    -0.082 A 
ATOM      7  C5  PXY d   1       3.821  -6.000  -4.295  0.00  0.00     0.003 A 
ATOM      8  C6  PXY d   1       3.121  -5.999  -3.092  0.00  0.00     0.003 A 
ENDROOT
TORSDOF 0
ENDMDL
