MODEL 1
REMARK minimizedAffinity -2.56959724
REMARK minimizedRMSD -1
REMARK  0 active torsions:
REMARK  status: ('A' for Active; 'I' for Inactive)
ROOT
ATOM      1  C4' PXY d   1       2.167  -5.978   0.070  0.00  0.00     0.077 C 
ATOM      2  C1' PXY d   1       4.508  -5.999  -5.215  0.00  0.00     0.077 C 
ATOM      3  C1  PXY d   1       3.883  -5.988  -3.834  0.00  0.00    -0.082 A 
ATOM      4  C2  PXY d   1       4.662  -5.977  -2.764  0.00  0.00     0.003 A 
ATOM      5  C3  PXY d   1       4.113  -5.999  -1.507  0.00  0.00     0.003 A 
ATOM      6  C4  PXY d   1       2.754  -5.980  -1.344  0.00  0.00    -0.082 A 
ATOM      7  C5  PXY d   1       1.953  -5.981  -2.431  0.00  0.00     0.003 A 
ATOM      8  C6  PXY d   1       2.530  -5.999  -3.698  0.00  0.00     0.003 A 
ENDROOT
TORSDOF 0
ENDMDL
