MODEL 1
REMARK minimizedAffinity 0.255316764
REMARK minimizedRMSD -1
REMARK  0 active torsions:
REMARK  status: ('A' for Active; 'I' for Inactive)
ROOT
ATOM      1  C4' PXY d   1       4.490   1.496  -4.131  0.00  0.00     0.077 C 
ATOM      2  C1' PXY d   1       5.999  -3.937  -5.402  0.00  0.00     0.077 C 
ATOM      3  C1  PXY d   1       5.596  -2.517  -5.059  0.00  0.00    -0.082 A 
ATOM      4  C2  PXY d   1       5.612  -1.587  -6.000  0.00  0.00     0.003 A 
ATOM      5  C3  PXY d   1       5.281  -0.290  -5.699  0.00  0.00     0.003 A 
ATOM      6  C4  PXY d   1       4.880   0.047  -4.434  0.00  0.00    -0.082 A 
ATOM      7  C5  PXY d   1       4.851  -0.899  -3.471  0.00  0.00     0.003 A 
ATOM      8  C6  PXY d   1       5.230  -2.200  -3.787  0.00  0.00     0.003 A 
ENDROOT
TORSDOF 0
ENDMDL
