MODEL 1
REMARK minimizedAffinity 2.65989804
REMARK minimizedRMSD -1
REMARK  0 active torsions:
REMARK  status: ('A' for Active; 'I' for Inactive)
ROOT
ATOM      1  C4' PXY d   1       2.825   0.482   2.069  0.00  0.00     0.077 C 
ATOM      2  C1' PXY d   1      -0.707   0.464  -2.506  0.00  0.00     0.077 C 
ATOM      3  C1  PXY d   1       0.219   0.455  -1.306  0.00  0.00    -0.082 A 
ATOM      4  C2  PXY d   1       0.252   1.502  -0.498  0.00  0.00     0.003 A 
ATOM      5  C3  PXY d   1       1.107   1.525   0.574  0.00  0.00     0.003 A 
ATOM      6  C4  PXY d   1       1.899   0.443   0.851  0.00  0.00    -0.082 A 
ATOM      7  C5  PXY d   1       1.864  -0.633   0.037  0.00  0.00     0.003 A 
ATOM      8  C6  PXY d   1       1.019  -0.620  -1.069  0.00  0.00     0.003 A 
ENDROOT
TORSDOF 0
ENDMDL
