MODEL 1
REMARK minimizedAffinity -4.32233858
REMARK minimizedRMSD -1
REMARK  1 active torsions:
REMARK  status: ('A' for Active; 'I' for Inactive)
REMARK    1  A    between atoms: C3_4  and  O_7 
ROOT
ATOM      1  C   UNL d   1       0.601  -0.157  -0.075  0.00  0.00    -0.033 A 
ATOM      2  C1  UNL d   1       0.124   0.237  -1.327  0.00  0.00     0.039 A 
ATOM      3  C2  UNL d   1      -1.249   0.254  -1.579  0.00  0.00    -0.080 A 
ATOM      4  C3  UNL d   1      -2.133  -0.125  -0.573  0.00  0.00     0.150 A 
ATOM      5  C4  UNL d   1      -1.665  -0.514   0.678  0.00  0.00    -0.007 A 
ATOM      6  C5  UNL d   1      -0.294  -0.531   0.928  0.00  0.00     0.039 A 
ENDROOT
BRANCH   4   7
ATOM      7  O   UNL d   1      -3.482  -0.129  -0.774  0.00  0.00    -0.526 OA
ATOM      8  H5  UNL d   1      -3.657   0.135  -1.692  0.00  0.00     0.418 HD
ENDBRANCH   4   7
TORSDOF 1
ENDMDL
