MODEL 1
REMARK minimizedAffinity -5.36972475
REMARK minimizedRMSD -1
REMARK  1 active torsions:
REMARK  status: ('A' for Active; 'I' for Inactive)
REMARK    1  A    between atoms: C3_4  and  O_7 
ROOT
ATOM      1  C   UNL d   1      -3.253  -1.909   0.338  0.00  0.00    -0.033 A 
ATOM      2  C1  UNL d   1      -2.246  -2.446   1.143  0.00  0.00     0.039 A 
ATOM      3  C2  UNL d   1      -0.973  -1.872   1.148  0.00  0.00    -0.080 A 
ATOM      4  C3  UNL d   1      -0.721  -0.762   0.346  0.00  0.00     0.150 A 
ATOM      5  C4  UNL d   1      -1.721  -0.220  -0.455  0.00  0.00    -0.007 A 
ATOM      6  C5  UNL d   1      -2.990  -0.795  -0.460  0.00  0.00     0.039 A 
ENDROOT
BRANCH   4   7
ATOM      7  O   UNL d   1       0.507  -0.171   0.314  0.00  0.00    -0.526 OA
ATOM      8  H5  UNL d   1       1.104  -0.670   0.895  0.00  0.00     0.418 HD
ENDBRANCH   4   7
TORSDOF 1
ENDMDL
