MODEL 1
REMARK minimizedAffinity -3.85653806
REMARK minimizedRMSD -1
REMARK  1 active torsions:
REMARK  status: ('A' for Active; 'I' for Inactive)
REMARK    1  A    between atoms: C3_4  and  O_7 
ROOT
ATOM      1  C   UNL d   1       0.166  -0.247   0.546  0.00  0.00    -0.033 A 
ATOM      2  C1  UNL d   1      -0.630  -0.827   1.535  0.00  0.00     0.039 A 
ATOM      3  C2  UNL d   1      -2.001  -0.988   1.324  0.00  0.00    -0.080 A 
ATOM      4  C3  UNL d   1      -2.562  -0.568   0.122  0.00  0.00     0.150 A 
ATOM      5  C4  UNL d   1      -1.774   0.007  -0.870  0.00  0.00    -0.007 A 
ATOM      6  C5  UNL d   1      -0.405   0.169  -0.657  0.00  0.00     0.039 A 
ENDROOT
BRANCH   4   7
ATOM      7  O   UNL d   1      -3.896  -0.701  -0.128  0.00  0.00    -0.526 OA
ATOM      8  H5  UNL d   1      -4.318  -1.087   0.657  0.00  0.00     0.418 HD
ENDBRANCH   4   7
TORSDOF 1
ENDMDL
