MODEL 1
REMARK minimizedAffinity -5.45263433
REMARK minimizedRMSD -1
REMARK  1 active torsions:
REMARK  status: ('A' for Active; 'I' for Inactive)
REMARK    1  A    between atoms: C3_4  and  O_7 
ROOT
ATOM      1  C   UNL d   1      -3.217  -1.414  -0.246  0.00  0.00    -0.033 A 
ATOM      2  C1  UNL d   1      -2.409  -1.928   0.770  0.00  0.00     0.039 A 
ATOM      3  C2  UNL d   1      -1.114  -1.439   0.949  0.00  0.00    -0.080 A 
ATOM      4  C3  UNL d   1      -0.640  -0.436   0.108  0.00  0.00     0.150 A 
ATOM      5  C4  UNL d   1      -1.441   0.084  -0.904  0.00  0.00    -0.007 A 
ATOM      6  C5  UNL d   1      -2.734  -0.406  -1.082  0.00  0.00     0.039 A 
ENDROOT
BRANCH   4   7
ATOM      7  O   UNL d   1       0.619   0.070   0.241  0.00  0.00    -0.526 OA
ATOM      8  H5  UNL d   1       1.067  -0.404   0.962  0.00  0.00     0.418 HD
ENDBRANCH   4   7
TORSDOF 1
ENDMDL
