MODEL 1
REMARK minimizedAffinity -5.11207628
REMARK minimizedRMSD -1
REMARK  1 active torsions:
REMARK  status: ('A' for Active; 'I' for Inactive)
REMARK    1  A    between atoms: C3_4  and  O_7 
ROOT
ATOM      1  C   UNL d   1      -2.881  -1.085  -0.739  0.00  0.00    -0.033 A 
ATOM      2  C1  UNL d   1      -2.183  -0.246  -1.610  0.00  0.00     0.039 A 
ATOM      3  C2  UNL d   1      -0.916   0.225  -1.263  0.00  0.00    -0.080 A 
ATOM      4  C3  UNL d   1      -0.358  -0.149  -0.044  0.00  0.00     0.150 A 
ATOM      5  C4  UNL d   1      -1.045  -0.988   0.827  0.00  0.00    -0.007 A 
ATOM      6  C5  UNL d   1      -2.311  -1.456   0.479  0.00  0.00     0.039 A 
ENDROOT
BRANCH   4   7
ATOM      7  O   UNL d   1       0.875   0.289   0.340  0.00  0.00    -0.526 OA
ATOM      8  H5  UNL d   1       1.218   0.883  -0.348  0.00  0.00     0.418 HD
ENDBRANCH   4   7
TORSDOF 1
ENDMDL
