MODEL 1
REMARK minimizedAffinity -5.20887136
REMARK minimizedRMSD -1
REMARK  1 active torsions:
REMARK  status: ('A' for Active; 'I' for Inactive)
REMARK    1  A    between atoms: C3_4  and  O_7 
ROOT
ATOM      1  C   UNL d   1      -2.859  -1.258  -0.439  0.00  0.00    -0.033 A 
ATOM      2  C1  UNL d   1      -2.135  -1.615   0.700  0.00  0.00     0.039 A 
ATOM      3  C2  UNL d   1      -0.861  -1.084   0.914  0.00  0.00    -0.080 A 
ATOM      4  C3  UNL d   1      -0.325  -0.198  -0.016  0.00  0.00     0.150 A 
ATOM      5  C4  UNL d   1      -1.043   0.165  -1.151  0.00  0.00    -0.007 A 
ATOM      6  C5  UNL d   1      -2.314  -0.367  -1.364  0.00  0.00     0.039 A 
ENDROOT
BRANCH   4   7
ATOM      7  O   UNL d   1       0.916   0.343   0.147  0.00  0.00    -0.526 OA
ATOM      8  H5  UNL d   1       1.305  -0.020   0.960  0.00  0.00     0.418 HD
ENDBRANCH   4   7
TORSDOF 1
ENDMDL
