MODEL 1
REMARK minimizedAffinity -3.35214138
REMARK minimizedRMSD -1
REMARK  1 active torsions:
REMARK  status: ('A' for Active; 'I' for Inactive)
REMARK    1  A    between atoms: C3_4  and  O_7 
ROOT
ATOM      1  C   UNL d   1       0.027   0.048  -0.554  0.00  0.00    -0.033 A 
ATOM      2  C1  UNL d   1      -0.406  -0.577   0.618  0.00  0.00     0.039 A 
ATOM      3  C2  UNL d   1      -1.760  -0.866   0.797  0.00  0.00    -0.080 A 
ATOM      4  C3  UNL d   1      -2.669  -0.526  -0.200  0.00  0.00     0.150 A 
ATOM      5  C4  UNL d   1      -2.245   0.093  -1.371  0.00  0.00    -0.007 A 
ATOM      6  C5  UNL d   1      -0.892   0.381  -1.549  0.00  0.00     0.039 A 
ENDROOT
BRANCH   4   7
ATOM      7  O   UNL d   1      -4.002  -0.784  -0.068  0.00  0.00    -0.526 OA
ATOM      8  H5  UNL d   1      -4.152  -1.188   0.803  0.00  0.00     0.418 HD
ENDBRANCH   4   7
TORSDOF 1
ENDMDL
