MODEL 1
REMARK minimizedAffinity -3.47278094
REMARK minimizedRMSD -1
REMARK  1 active torsions:
REMARK  status: ('A' for Active; 'I' for Inactive)
REMARK    1  A    between atoms: C3_4  and  O_7 
ROOT
ATOM      1  C   UNL d   1       2.574   2.520   0.919  0.00  0.00    -0.033 A 
ATOM      2  C1  UNL d   1       2.689   1.171   0.578  0.00  0.00     0.039 A 
ATOM      3  C2  UNL d   1       1.577   0.470   0.106  0.00  0.00    -0.080 A 
ATOM      4  C3  UNL d   1       0.358   1.130  -0.022  0.00  0.00     0.150 A 
ATOM      5  C4  UNL d   1       0.237   2.475   0.311  0.00  0.00    -0.007 A 
ATOM      6  C5  UNL d   1       1.348   3.172   0.784  0.00  0.00     0.039 A 
ENDROOT
BRANCH   4   7
ATOM      7  O   UNL d   1      -0.756   0.487  -0.474  0.00  0.00    -0.526 OA
ATOM      8  H5  UNL d   1      -0.529  -0.443  -0.638  0.00  0.00     0.418 HD
ENDBRANCH   4   7
TORSDOF 1
ENDMDL
