MODEL 1
REMARK minimizedAffinity -4.58399773
REMARK minimizedRMSD -1
REMARK  1 active torsions:
REMARK  status: ('A' for Active; 'I' for Inactive)
REMARK    1  A    between atoms: C3_4  and  O_7 
ROOT
ATOM      1  C   UNL d   1      -3.153  -1.164  -0.271  0.00  0.00    -0.033 A 
ATOM      2  C1  UNL d   1      -3.242  -2.430   0.310  0.00  0.00     0.039 A 
ATOM      3  C2  UNL d   1      -2.169  -2.942   1.042  0.00  0.00    -0.080 A 
ATOM      4  C3  UNL d   1      -1.014  -2.178   1.186  0.00  0.00     0.150 A 
ATOM      5  C4  UNL d   1      -0.920  -0.914   0.612  0.00  0.00    -0.007 A 
ATOM      6  C5  UNL d   1      -1.992  -0.405  -0.119  0.00  0.00     0.039 A 
ENDROOT
BRANCH   4   7
ATOM      7  O   UNL d   1       0.061  -2.637   1.887  0.00  0.00    -0.526 OA
ATOM      8  H5  UNL d   1      -0.137  -3.535   2.201  0.00  0.00     0.418 HD
ENDBRANCH   4   7
TORSDOF 1
ENDMDL
