MODEL 1
REMARK minimizedAffinity -5.13445187
REMARK minimizedRMSD -1
REMARK  1 active torsions:
REMARK  status: ('A' for Active; 'I' for Inactive)
REMARK    1  A    between atoms: C3_4  and  O_7 
ROOT
ATOM      1  C   UNL d   1      -3.031  -1.449   0.168  0.00  0.00    -0.033 A 
ATOM      2  C1  UNL d   1      -2.181  -2.132   1.040  0.00  0.00     0.039 A 
ATOM      3  C2  UNL d   1      -0.819  -1.828   1.072  0.00  0.00    -0.080 A 
ATOM      4  C3  UNL d   1      -0.320  -0.839   0.229  0.00  0.00     0.150 A 
ATOM      5  C4  UNL d   1      -1.161  -0.151  -0.640  0.00  0.00    -0.007 A 
ATOM      6  C5  UNL d   1      -2.521  -0.458  -0.671  0.00  0.00     0.039 A 
ENDROOT
BRANCH   4   7
ATOM      7  O   UNL d   1       1.003  -0.510   0.221  0.00  0.00    -0.526 OA
ATOM      8  H5  UNL d   1       1.467  -1.086   0.850  0.00  0.00     0.418 HD
ENDBRANCH   4   7
TORSDOF 1
ENDMDL
