MODEL 1
REMARK minimizedAffinity -4.65795851
REMARK minimizedRMSD -1
REMARK  1 active torsions:
REMARK  status: ('A' for Active; 'I' for Inactive)
REMARK    1  A    between atoms: C3_4  and  O_7 
ROOT
ATOM      1  C   UNL d   1      -0.495  -1.301   1.301  0.00  0.00    -0.033 A 
ATOM      2  C1  UNL d   1      -0.710  -0.325   0.326  0.00  0.00     0.039 A 
ATOM      3  C2  UNL d   1      -1.977  -0.166  -0.238  0.00  0.00    -0.080 A 
ATOM      4  C3  UNL d   1      -3.020  -0.987   0.183  0.00  0.00     0.150 A 
ATOM      5  C4  UNL d   1      -2.814  -1.958   1.157  0.00  0.00    -0.007 A 
ATOM      6  C5  UNL d   1      -1.547  -2.116   1.718  0.00  0.00     0.039 A 
ENDROOT
BRANCH   4   7
ATOM      7  O   UNL d   1      -4.273  -0.872  -0.341  0.00  0.00    -0.526 OA
ATOM      8  H5  UNL d   1      -4.259  -0.180  -1.023  0.00  0.00     0.418 HD
ENDBRANCH   4   7
TORSDOF 1
ENDMDL
