MODEL 1
REMARK minimizedAffinity -3.6141963
REMARK minimizedRMSD -1
REMARK  1 active torsions:
REMARK  status: ('A' for Active; 'I' for Inactive)
REMARK    1  A    between atoms: C3_4  and  O_7 
ROOT
ATOM      1  C   UNL d   1      -0.450  -1.651   1.321  0.00  0.00    -0.033 A 
ATOM      2  C1  UNL d   1      -0.719  -0.390   0.785  0.00  0.00     0.039 A 
ATOM      3  C2  UNL d   1      -1.953  -0.134   0.183  0.00  0.00    -0.080 A 
ATOM      4  C3  UNL d   1      -2.907  -1.146   0.126  0.00  0.00     0.150 A 
ATOM      5  C4  UNL d   1      -2.647  -2.403   0.662  0.00  0.00    -0.007 A 
ATOM      6  C5  UNL d   1      -1.414  -2.657   1.261  0.00  0.00     0.039 A 
ENDROOT
BRANCH   4   7
ATOM      7  O   UNL d   1      -4.124  -0.945  -0.455  0.00  0.00    -0.526 OA
ATOM      8  H5  UNL d   1      -4.151  -0.039  -0.807  0.00  0.00     0.418 HD
ENDBRANCH   4   7
TORSDOF 1
ENDMDL
