MODEL 1
REMARK minimizedAffinity -4.65607595
REMARK minimizedRMSD -1
REMARK  1 active torsions:
REMARK  status: ('A' for Active; 'I' for Inactive)
REMARK    1  A    between atoms: C3_4  and  O_7 
ROOT
ATOM      1  C   UNL d   1      -3.309  -2.035   0.298  0.00  0.00    -0.033 A 
ATOM      2  C1  UNL d   1      -2.282  -2.390   1.174  0.00  0.00     0.039 A 
ATOM      3  C2  UNL d   1      -1.078  -1.683   1.165  0.00  0.00    -0.080 A 
ATOM      4  C3  UNL d   1      -0.915  -0.624   0.276  0.00  0.00     0.150 A 
ATOM      5  C4  UNL d   1      -1.935  -0.262  -0.597  0.00  0.00    -0.007 A 
ATOM      6  C5  UNL d   1      -3.137  -0.970  -0.587  0.00  0.00     0.039 A 
ENDROOT
BRANCH   4   7
ATOM      7  O   UNL d   1       0.244   0.093   0.226  0.00  0.00    -0.526 OA
ATOM      8  H5  UNL d   1       0.869  -0.288   0.865  0.00  0.00     0.418 HD
ENDBRANCH   4   7
TORSDOF 1
ENDMDL
