MODEL 1
REMARK minimizedAffinity -4.41397762
REMARK minimizedRMSD -1
REMARK  1 active torsions:
REMARK  status: ('A' for Active; 'I' for Inactive)
REMARK    1  A    between atoms: C3_4  and  O_7 
ROOT
ATOM      1  C   UNL d   1      -0.960  -2.233   1.588  0.00  0.00    -0.033 A 
ATOM      2  C1  UNL d   1      -2.158  -2.905   1.341  0.00  0.00     0.039 A 
ATOM      3  C2  UNL d   1      -3.174  -2.280   0.614  0.00  0.00    -0.080 A 
ATOM      4  C3  UNL d   1      -2.979  -0.986   0.140  0.00  0.00     0.150 A 
ATOM      5  C4  UNL d   1      -1.786  -0.312   0.380  0.00  0.00    -0.007 A 
ATOM      6  C5  UNL d   1      -0.773  -0.936   1.107  0.00  0.00     0.039 A 
ENDROOT
BRANCH   4   7
ATOM      7  O   UNL d   1      -3.943  -0.334  -0.570  0.00  0.00    -0.526 OA
ATOM      8  H5  UNL d   1      -4.722  -0.911  -0.633  0.00  0.00     0.418 HD
ENDBRANCH   4   7
TORSDOF 1
ENDMDL
