MODEL 1
REMARK minimizedAffinity -4.84104204
REMARK minimizedRMSD -1
REMARK  1 active torsions:
REMARK  status: ('A' for Active; 'I' for Inactive)
REMARK    1  A    between atoms: C3_4  and  O_7 
ROOT
ATOM      1  C   UNL d   1      -2.831  -1.659   0.080  0.00  0.00    -0.033 A 
ATOM      2  C1  UNL d   1      -1.839  -2.120   0.947  0.00  0.00     0.039 A 
ATOM      3  C2  UNL d   1      -0.543  -1.607   0.863  0.00  0.00    -0.080 A 
ATOM      4  C3  UNL d   1      -0.253  -0.634  -0.090  0.00  0.00     0.150 A 
ATOM      5  C4  UNL d   1      -1.238  -0.168  -0.954  0.00  0.00    -0.007 A 
ATOM      6  C5  UNL d   1      -2.531  -0.682  -0.870  0.00  0.00     0.039 A 
ENDROOT
BRANCH   4   7
ATOM      7  O   UNL d   1       0.998  -0.107  -0.212  0.00  0.00    -0.526 OA
ATOM      8  H5  UNL d   1       1.581  -0.545   0.430  0.00  0.00     0.418 HD
ENDBRANCH   4   7
TORSDOF 1
ENDMDL
