MODEL 1
REMARK minimizedAffinity -4.10246849
REMARK minimizedRMSD -1
REMARK  1 active torsions:
REMARK  status: ('A' for Active; 'I' for Inactive)
REMARK    1  A    between atoms: C3_4  and  O_7 
ROOT
ATOM      1  C   UNL d   1      -0.276  -1.553   1.435  0.00  0.00    -0.033 A 
ATOM      2  C1  UNL d   1      -0.341  -0.538   0.479  0.00  0.00     0.039 A 
ATOM      3  C2  UNL d   1      -1.474  -0.407  -0.327  0.00  0.00    -0.080 A 
ATOM      4  C3  UNL d   1      -2.533  -1.296  -0.167  0.00  0.00     0.150 A 
ATOM      5  C4  UNL d   1      -2.477  -2.308   0.787  0.00  0.00    -0.007 A 
ATOM      6  C5  UNL d   1      -1.345  -2.437   1.590  0.00  0.00     0.039 A 
ENDROOT
BRANCH   4   7
ATOM      7  O   UNL d   1      -3.657  -1.212  -0.933  0.00  0.00    -0.526 OA
ATOM      8  H5  UNL d   1      -3.543  -0.484  -1.568  0.00  0.00     0.418 HD
ENDBRANCH   4   7
TORSDOF 1
ENDMDL
