MODEL 1
REMARK minimizedAffinity 28.6234322
REMARK minimizedRMSD -1
REMARK  0 active torsions:
REMARK  status: ('A' for Active; 'I' for Inactive)
ROOT
ATOM      1  C   UNL d   1       3.397  -0.763  -0.462  0.00  0.00     0.124 A 
ATOM      2  C1  UNL d   1       2.282  -0.218  -1.083  0.00  0.00     0.062 A 
ATOM      3  C2  UNL d   1       1.275  -1.047  -1.568  0.00  0.00     0.162 A 
ATOM      4  C3  UNL d   1       1.378  -2.432  -1.432  0.00  0.00    -0.034 A 
ATOM      5  C4  UNL d   1       2.502  -2.973  -0.807  0.00  0.00     0.162 A 
ATOM      6  C5  UNL d   1       3.506  -2.140  -0.324  0.00  0.00     0.062 A 
ATOM      7  F   UNL d   1       4.583  -2.668   0.276  0.00  0.00    -0.097 F 
ATOM      8  F1  UNL d   1       2.633  -4.300  -0.659  0.00  0.00    -0.096 F 
ATOM      9  I   UNL d   1      -0.126  -3.675  -2.155  0.00  0.00    -0.060 I 
ATOM     10  F2  UNL d   1       0.209  -0.493  -2.164  0.00  0.00    -0.096 F 
ATOM     11  F3  UNL d   1       2.175   1.112  -1.218  0.00  0.00    -0.097 F 
ATOM     12  F4  UNL d   1       4.365   0.037   0.003  0.00  0.00    -0.092 F 
ENDROOT
TORSDOF 0
ENDMDL
