MODEL 1
REMARK minimizedAffinity 14.862895
REMARK minimizedRMSD -1
REMARK  0 active torsions:
REMARK  status: ('A' for Active; 'I' for Inactive)
ROOT
ATOM      1  C   UNL d   1       0.751   1.688   2.393  0.00  0.00     0.124 A 
ATOM      2  C1  UNL d   1      -0.216   1.244   1.503  0.00  0.00     0.062 A 
ATOM      3  C2  UNL d   1       0.151   0.786   0.241  0.00  0.00     0.162 A 
ATOM      4  C3  UNL d   1       1.493   0.769  -0.138  0.00  0.00    -0.034 A 
ATOM      5  C4  UNL d   1       2.461   1.218   0.762  0.00  0.00     0.162 A 
ATOM      6  C5  UNL d   1       2.088   1.675   2.022  0.00  0.00     0.062 A 
ATOM      7  F   UNL d   1       3.025   2.103   2.881  0.00  0.00    -0.097 F 
ATOM      8  F1  UNL d   1       3.760   1.215   0.430  0.00  0.00    -0.096 F 
ATOM      9  I   UNL d   1       2.046   0.085  -2.025  0.00  0.00    -0.060 I 
ATOM     10  F2  UNL d   1      -0.806   0.363  -0.599  0.00  0.00    -0.096 F 
ATOM     11  F3  UNL d   1      -1.509   1.257   1.859  0.00  0.00    -0.097 F 
ATOM     12  F4  UNL d   1       0.395   2.129   3.607  0.00  0.00    -0.092 F 
ENDROOT
TORSDOF 0
ENDMDL
