MODEL 1
REMARK minimizedAffinity 24.0808868
REMARK minimizedRMSD -1
REMARK  0 active torsions:
REMARK  status: ('A' for Active; 'I' for Inactive)
ROOT
ATOM      1  C   UNL d   1      -0.417  -4.275  -2.565  0.00  0.00     0.124 A 
ATOM      2  C1  UNL d   1      -1.698  -4.502  -2.081  0.00  0.00     0.062 A 
ATOM      3  C2  UNL d   1      -2.799  -4.347  -2.918  0.00  0.00     0.162 A 
ATOM      4  C3  UNL d   1      -2.625  -3.964  -4.247  0.00  0.00    -0.034 A 
ATOM      5  C4  UNL d   1      -1.334  -3.736  -4.727  0.00  0.00     0.162 A 
ATOM      6  C5  UNL d   1      -0.236  -3.893  -3.887  0.00  0.00     0.062 A 
ATOM      7  F   UNL d   1       1.001  -3.674  -4.356  0.00  0.00    -0.097 F 
ATOM      8  F1  UNL d   1      -1.130  -3.367  -6.000  0.00  0.00    -0.096 F 
ATOM      9  I   UNL d   1      -4.270  -3.730  -5.501  0.00  0.00    -0.060 I 
ATOM     10  F2  UNL d   1      -4.026  -4.573  -2.423  0.00  0.00    -0.096 F 
ATOM     11  F3  UNL d   1      -1.875  -4.871  -0.805  0.00  0.00    -0.097 F 
ATOM     12  F4  UNL d   1       0.642  -4.425  -1.758  0.00  0.00    -0.092 F 
ENDROOT
TORSDOF 0
ENDMDL
