MODEL 1
REMARK minimizedAffinity 19.5613518
REMARK minimizedRMSD -1
REMARK  0 active torsions:
REMARK  status: ('A' for Active; 'I' for Inactive)
ROOT
ATOM      1  C   UNL d   1       0.725   1.487   3.421  0.00  0.00     0.124 A 
ATOM      2  C1  UNL d   1       0.161   1.908   4.617  0.00  0.00     0.062 A 
ATOM      3  C2  UNL d   1      -1.220   2.029   4.737  0.00  0.00     0.162 A 
ATOM      4  C3  UNL d   1      -2.049   1.726   3.656  0.00  0.00    -0.034 A 
ATOM      5  C4  UNL d   1      -1.475   1.304   2.456  0.00  0.00     0.162 A 
ATOM      6  C5  UNL d   1      -0.094   1.186   2.341  0.00  0.00     0.062 A 
ATOM      7  F   UNL d   1       0.448   0.779   1.184  0.00  0.00    -0.097 F 
ATOM      8  F1  UNL d   1      -2.243   1.005   1.397  0.00  0.00    -0.096 F 
ATOM      9  I   UNL d   1      -4.115   1.905   3.831  0.00  0.00    -0.060 I 
ATOM     10  F2  UNL d   1      -1.737   2.438   5.905  0.00  0.00    -0.096 F 
ATOM     11  F3  UNL d   1       0.950   2.201   5.661  0.00  0.00    -0.097 F 
ATOM     12  F4  UNL d   1       2.054   1.373   3.308  0.00  0.00    -0.092 F 
ENDROOT
TORSDOF 0
ENDMDL
