MODEL 1
REMARK minimizedAffinity 13.9081793
REMARK minimizedRMSD -1
REMARK  0 active torsions:
REMARK  status: ('A' for Active; 'I' for Inactive)
ROOT
ATOM      1  C   UNL d   1      -0.512  -5.106  -2.797  0.00  0.00     0.124 A 
ATOM      2  C1  UNL d   1      -1.851  -5.110  -2.429  0.00  0.00     0.062 A 
ATOM      3  C2  UNL d   1      -2.808  -4.541  -3.263  0.00  0.00     0.162 A 
ATOM      4  C3  UNL d   1      -2.431  -3.964  -4.476  0.00  0.00    -0.034 A 
ATOM      5  C4  UNL d   1      -1.083  -3.963  -4.839  0.00  0.00     0.162 A 
ATOM      6  C5  UNL d   1      -0.130  -4.533  -4.002  0.00  0.00     0.062 A 
ATOM      7  F   UNL d   1       1.162  -4.529  -4.359  0.00  0.00    -0.097 F 
ATOM      8  F1  UNL d   1      -0.686  -3.417  -5.998  0.00  0.00    -0.096 F 
ATOM      9  I   UNL d   1      -3.860  -3.113  -5.727  0.00  0.00    -0.060 I 
ATOM     10  F2  UNL d   1      -4.094  -4.559  -2.882  0.00  0.00    -0.096 F 
ATOM     11  F3  UNL d   1      -2.223  -5.662  -1.265  0.00  0.00    -0.097 F 
ATOM     12  F4  UNL d   1       0.407  -5.653  -1.991  0.00  0.00    -0.092 F 
ENDROOT
TORSDOF 0
ENDMDL
