MODEL 1
REMARK minimizedAffinity 23.6809177
REMARK minimizedRMSD -1
REMARK  0 active torsions:
REMARK  status: ('A' for Active; 'I' for Inactive)
ROOT
ATOM      1  C   UNL d   1       3.684  -3.012   0.008  0.00  0.00     0.124 A 
ATOM      2  C1  UNL d   1       2.486  -2.636  -0.583  0.00  0.00     0.062 A 
ATOM      3  C2  UNL d   1       2.233  -1.296  -0.861  0.00  0.00     0.162 A 
ATOM      4  C3  UNL d   1       3.180  -0.321  -0.549  0.00  0.00    -0.034 A 
ATOM      5  C4  UNL d   1       4.382  -0.707   0.047  0.00  0.00     0.162 A 
ATOM      6  C5  UNL d   1       4.631  -2.048   0.323  0.00  0.00     0.062 A 
ATOM      7  F   UNL d   1       5.788  -2.409   0.895  0.00  0.00    -0.097 F 
ATOM      8  F1  UNL d   1       5.315   0.204   0.361  0.00  0.00    -0.096 F 
ATOM      9  I   UNL d   1       2.806   1.684  -0.963  0.00  0.00    -0.060 I 
ATOM     10  F2  UNL d   1       1.067  -0.961  -1.434  0.00  0.00    -0.096 F 
ATOM     11  F3  UNL d   1       1.569  -3.566  -0.888  0.00  0.00    -0.097 F 
ATOM     12  F4  UNL d   1       3.924  -4.302   0.275  0.00  0.00    -0.092 F 
ENDROOT
TORSDOF 0
ENDMDL
