MODEL 1
REMARK minimizedAffinity 22.8870583
REMARK minimizedRMSD -1
REMARK  0 active torsions:
REMARK  status: ('A' for Active; 'I' for Inactive)
ROOT
ATOM      1  C   UNL d   1      -0.504   0.970   2.695  0.00  0.00     0.124 A 
ATOM      2  C1  UNL d   1      -1.866   0.936   2.430  0.00  0.00     0.062 A 
ATOM      3  C2  UNL d   1      -2.773   1.418   3.368  0.00  0.00     0.162 A 
ATOM      4  C3  UNL d   1      -2.322   1.941   4.580  0.00  0.00    -0.034 A 
ATOM      5  C4  UNL d   1      -0.951   1.971   4.840  0.00  0.00     0.162 A 
ATOM      6  C5  UNL d   1      -0.047   1.487   3.899  0.00  0.00     0.062 A 
ATOM      7  F   UNL d   1       1.268   1.521   4.156  0.00  0.00    -0.097 F 
ATOM      8  F1  UNL d   1      -0.482   2.467   5.995  0.00  0.00    -0.096 F 
ATOM      9  I   UNL d   1      -3.676   2.664   5.986  0.00  0.00    -0.060 I 
ATOM     10  F2  UNL d   1      -4.084   1.373   3.086  0.00  0.00    -0.096 F 
ATOM     11  F3  UNL d   1      -2.309   0.435   1.268  0.00  0.00    -0.097 F 
ATOM     12  F4  UNL d   1       0.368   0.504   1.791  0.00  0.00    -0.092 F 
ENDROOT
TORSDOF 0
ENDMDL
