MODEL 1
REMARK minimizedAffinity 28.4002953
REMARK minimizedRMSD -1
REMARK  0 active torsions:
REMARK  status: ('A' for Active; 'I' for Inactive)
ROOT
ATOM      1  C   UNL d   1      -5.179  -2.197   3.623  0.00  0.00     0.124 A 
ATOM      2  C1  UNL d   1      -5.178  -1.611   2.364  0.00  0.00     0.062 A 
ATOM      3  C2  UNL d   1      -4.327  -0.545   2.090  0.00  0.00     0.162 A 
ATOM      4  C3  UNL d   1      -3.469  -0.057   3.075  0.00  0.00    -0.034 A 
ATOM      5  C4  UNL d   1      -3.477  -0.650   4.339  0.00  0.00     0.162 A 
ATOM      6  C5  UNL d   1      -4.329  -1.716   4.608  0.00  0.00     0.062 A 
ATOM      7  F   UNL d   1      -4.329  -2.281   5.825  0.00  0.00    -0.097 F 
ATOM      8  F1  UNL d   1      -2.665  -0.206   5.310  0.00  0.00    -0.096 F 
ATOM      9  I   UNL d   1      -2.195   1.538   2.669  0.00  0.00    -0.060 I 
ATOM     10  F2  UNL d   1      -4.346   0.002   0.865  0.00  0.00    -0.096 F 
ATOM     11  F3  UNL d   1      -5.999  -2.073   1.410  0.00  0.00    -0.097 F 
ATOM     12  F4  UNL d   1      -6.000  -3.222   3.884  0.00  0.00    -0.092 F 
ENDROOT
TORSDOF 0
ENDMDL
