MODEL 1
REMARK minimizedAffinity 13.7949581
REMARK minimizedRMSD -1
REMARK  0 active torsions:
REMARK  status: ('A' for Active; 'I' for Inactive)
ROOT
ATOM      1  C   UNL d   1       2.395  -2.881  -1.232  0.00  0.00     0.124 A 
ATOM      2  C1  UNL d   1       1.935  -4.152  -1.550  0.00  0.00     0.062 A 
ATOM      3  C2  UNL d   1       0.705  -4.313  -2.183  0.00  0.00     0.162 A 
ATOM      4  C3  UNL d   1      -0.073  -3.200  -2.502  0.00  0.00    -0.034 A 
ATOM      5  C4  UNL d   1       0.395  -1.926  -2.178  0.00  0.00     0.162 A 
ATOM      6  C5  UNL d   1       1.625  -1.770  -1.546  0.00  0.00     0.062 A 
ATOM      7  F   UNL d   1       2.068  -0.542  -1.239  0.00  0.00    -0.097 F 
ATOM      8  F1  UNL d   1      -0.328  -0.835  -2.470  0.00  0.00    -0.096 F 
ATOM      9  I   UNL d   1      -1.912  -3.437  -3.447  0.00  0.00    -0.060 I 
ATOM     10  F2  UNL d   1       0.286  -5.552  -2.479  0.00  0.00    -0.096 F 
ATOM     11  F3  UNL d   1       2.676  -5.227  -1.247  0.00  0.00    -0.097 F 
ATOM     12  F4  UNL d   1       3.577  -2.729  -0.623  0.00  0.00    -0.092 F 
ENDROOT
TORSDOF 0
ENDMDL
