MODEL 1
REMARK minimizedAffinity 19.688343
REMARK minimizedRMSD -1
REMARK  0 active torsions:
REMARK  status: ('A' for Active; 'I' for Inactive)
ROOT
ATOM      1  C   UNL d   1       1.852  -1.539  -1.886  0.00  0.00     0.124 A 
ATOM      2  C1  UNL d   1       2.759  -1.922  -0.907  0.00  0.00     0.062 A 
ATOM      3  C2  UNL d   1       3.657  -0.996  -0.384  0.00  0.00     0.162 A 
ATOM      4  C3  UNL d   1       3.652   0.323  -0.837  0.00  0.00    -0.034 A 
ATOM      5  C4  UNL d   1       2.737   0.701  -1.823  0.00  0.00     0.162 A 
ATOM      6  C5  UNL d   1       1.842  -0.228  -2.343  0.00  0.00     0.062 A 
ATOM      7  F   UNL d   1       0.967   0.144  -3.288  0.00  0.00    -0.097 F 
ATOM      8  F1  UNL d   1       2.705   1.961  -2.281  0.00  0.00    -0.096 F 
ATOM      9  I   UNL d   1       4.992   1.711  -0.057  0.00  0.00    -0.060 I 
ATOM     10  F2  UNL d   1       4.522  -1.394   0.561  0.00  0.00    -0.096 F 
ATOM     11  F3  UNL d   1       2.772  -3.187  -0.465  0.00  0.00    -0.097 F 
ATOM     12  F4  UNL d   1       0.991  -2.432  -2.389  0.00  0.00    -0.092 F 
ENDROOT
TORSDOF 0
ENDMDL
