MODEL 1
REMARK minimizedAffinity 30.1124325
REMARK minimizedRMSD -1
REMARK  0 active torsions:
REMARK  status: ('A' for Active; 'I' for Inactive)
ROOT
ATOM      1  C   UNL d   1      -1.563   0.926   2.780  0.00  0.00     0.124 A 
ATOM      2  C1  UNL d   1      -1.086   1.494   3.954  0.00  0.00     0.062 A 
ATOM      3  C2  UNL d   1      -1.972   2.047   4.874  0.00  0.00     0.162 A 
ATOM      4  C3  UNL d   1      -3.344   2.034   4.625  0.00  0.00    -0.034 A 
ATOM      5  C4  UNL d   1      -3.816   1.462   3.442  0.00  0.00     0.162 A 
ATOM      6  C5  UNL d   1      -2.927   0.911   2.526  0.00  0.00     0.062 A 
ATOM      7  F   UNL d   1      -3.389   0.363   1.393  0.00  0.00    -0.097 F 
ATOM      8  F1  UNL d   1      -5.129   1.433   3.172  0.00  0.00    -0.096 F 
ATOM      9  I   UNL d   1      -4.672   2.860   5.999  0.00  0.00    -0.060 I 
ATOM     10  F2  UNL d   1      -1.483   2.589   6.000  0.00  0.00    -0.096 F 
ATOM     11  F3  UNL d   1       0.232   1.511   4.202  0.00  0.00    -0.097 F 
ATOM     12  F4  UNL d   1      -0.708   0.396   1.896  0.00  0.00    -0.092 F 
ENDROOT
TORSDOF 0
ENDMDL
