MODEL 1
REMARK minimizedAffinity 29.1244526
REMARK minimizedRMSD -1
REMARK  0 active torsions:
REMARK  status: ('A' for Active; 'I' for Inactive)
ROOT
ATOM      1  C   UNL d   1       0.596  -2.152  -4.118  0.00  0.00     0.124 A 
ATOM      2  C1  UNL d   1       0.306  -1.988  -2.770  0.00  0.00     0.062 A 
ATOM      3  C2  UNL d   1       1.036  -1.087  -2.001  0.00  0.00     0.162 A 
ATOM      4  C3  UNL d   1       2.064  -0.341  -2.578  0.00  0.00    -0.034 A 
ATOM      5  C4  UNL d   1       2.351  -0.512  -3.933  0.00  0.00     0.162 A 
ATOM      6  C5  UNL d   1       1.618  -1.414  -4.698  0.00  0.00     0.062 A 
ATOM      7  F   UNL d   1       1.900  -1.570  -6.000  0.00  0.00    -0.097 F 
ATOM      8  F1  UNL d   1       3.333   0.190  -4.520  0.00  0.00    -0.096 F 
ATOM      9  I   UNL d   1       3.159   1.008  -1.431  0.00  0.00    -0.060 I 
ATOM     10  F2  UNL d   1       0.734  -0.950  -0.702  0.00  0.00    -0.096 F 
ATOM     11  F3  UNL d   1      -0.680  -2.701  -2.207  0.00  0.00    -0.097 F 
ATOM     12  F4  UNL d   1      -0.107  -3.020  -4.855  0.00  0.00    -0.092 F 
ENDROOT
TORSDOF 0
ENDMDL
