MODEL 1
REMARK minimizedAffinity 15.0112362
REMARK minimizedRMSD -1
REMARK  0 active torsions:
REMARK  status: ('A' for Active; 'I' for Inactive)
ROOT
ATOM      1  C   UNL d   1       1.790  -3.970  -1.430  0.00  0.00     0.124 A 
ATOM      2  C1  UNL d   1       2.643  -3.765  -0.355  0.00  0.00     0.062 A 
ATOM      3  C2  UNL d   1       3.063  -2.478  -0.030  0.00  0.00     0.162 A 
ATOM      4  C3  UNL d   1       2.629  -1.386  -0.782  0.00  0.00    -0.034 A 
ATOM      5  C4  UNL d   1       1.772  -1.601  -1.863  0.00  0.00     0.162 A 
ATOM      6  C5  UNL d   1       1.355  -2.889  -2.183  0.00  0.00     0.062 A 
ATOM      7  F   UNL d   1       0.531  -3.085  -3.222  0.00  0.00    -0.097 F 
ATOM      8  F1  UNL d   1       1.336  -0.573  -2.606  0.00  0.00    -0.096 F 
ATOM      9  I   UNL d   1       3.255   0.540  -0.300  0.00  0.00    -0.060 I 
ATOM     10  F2  UNL d   1       3.887  -2.309   1.014  0.00  0.00    -0.096 F 
ATOM     11  F3  UNL d   1       3.065  -4.809   0.374  0.00  0.00    -0.097 F 
ATOM     12  F4  UNL d   1       1.388  -5.210  -1.741  0.00  0.00    -0.092 F 
ENDROOT
TORSDOF 0
ENDMDL
