MODEL 1
REMARK minimizedAffinity 37.5943146
REMARK minimizedRMSD -1
REMARK  0 active torsions:
REMARK  status: ('A' for Active; 'I' for Inactive)
ROOT
ATOM      1  C   UNL d   1      -2.575  -4.241  -2.957  0.00  0.00     0.124 A 
ATOM      2  C1  UNL d   1      -1.330  -4.687  -2.536  0.00  0.00     0.062 A 
ATOM      3  C2  UNL d   1      -0.362  -3.776  -2.124  0.00  0.00     0.162 A 
ATOM      4  C3  UNL d   1      -0.636  -2.408  -2.130  0.00  0.00    -0.034 A 
ATOM      5  C4  UNL d   1      -1.890  -1.966  -2.556  0.00  0.00     0.162 A 
ATOM      6  C5  UNL d   1      -2.854  -2.881  -2.967  0.00  0.00     0.062 A 
ATOM      7  F   UNL d   1      -4.056  -2.448  -3.373  0.00  0.00    -0.097 F 
ATOM      8  F1  UNL d   1      -2.186  -0.658  -2.575  0.00  0.00    -0.096 F 
ATOM      9  I   UNL d   1       0.809  -1.042  -1.515  0.00  0.00    -0.060 I 
ATOM     10  F2  UNL d   1       0.832  -4.235  -1.722  0.00  0.00    -0.096 F 
ATOM     11  F3  UNL d   1      -1.058  -6.000  -2.526  0.00  0.00    -0.097 F 
ATOM     12  F4  UNL d   1      -3.504  -5.120  -3.354  0.00  0.00    -0.092 F 
ENDROOT
TORSDOF 0
ENDMDL
