MODEL 1
REMARK minimizedAffinity 14.9341335
REMARK minimizedRMSD -1
REMARK  0 active torsions:
REMARK  status: ('A' for Active; 'I' for Inactive)
ROOT
ATOM      1  C   UNL d   1       2.450  -0.486  -2.497  0.00  0.00     0.124 A 
ATOM      2  C1  UNL d   1       2.323  -1.149  -3.709  0.00  0.00     0.062 A 
ATOM      3  C2  UNL d   1       1.846  -2.456  -3.746  0.00  0.00     0.162 A 
ATOM      4  C3  UNL d   1       1.491  -3.109  -2.565  0.00  0.00    -0.034 A 
ATOM      5  C4  UNL d   1       1.622  -2.436  -1.349  0.00  0.00     0.162 A 
ATOM      6  C5  UNL d   1       2.099  -1.130  -1.318  0.00  0.00     0.062 A 
ATOM      7  F   UNL d   1       2.222  -0.491  -0.146  0.00  0.00    -0.097 F 
ATOM      8  F1  UNL d   1       1.290  -3.034  -0.196  0.00  0.00    -0.096 F 
ATOM      9  I   UNL d   1       0.777  -5.063  -2.616  0.00  0.00    -0.060 I 
ATOM     10  F2  UNL d   1       1.733  -3.072  -4.932  0.00  0.00    -0.096 F 
ATOM     11  F3  UNL d   1       2.661  -0.529  -4.849  0.00  0.00    -0.097 F 
ATOM     12  F4  UNL d   1       2.910   0.771  -2.464  0.00  0.00    -0.092 F 
ENDROOT
TORSDOF 0
ENDMDL
