MODEL 1
REMARK minimizedAffinity 20.3260498
REMARK minimizedRMSD -1
REMARK  0 active torsions:
REMARK  status: ('A' for Active; 'I' for Inactive)
ROOT
ATOM      1  C   UNL d   1       1.827   3.836  -1.093  0.00  0.00     0.124 A 
ATOM      2  C1  UNL d   1       2.287   2.817  -1.915  0.00  0.00     0.062 A 
ATOM      3  C2  UNL d   1       3.084   1.802  -1.393  0.00  0.00     0.162 A 
ATOM      4  C3  UNL d   1       3.425   1.801  -0.041  0.00  0.00    -0.034 A 
ATOM      5  C4  UNL d   1       2.959   2.830   0.780  0.00  0.00     0.162 A 
ATOM      6  C5  UNL d   1       2.163   3.842   0.253  0.00  0.00     0.062 A 
ATOM      7  F   UNL d   1       1.720   4.826   1.049  0.00  0.00    -0.097 F 
ATOM      8  F1  UNL d   1       3.268   2.859   2.085  0.00  0.00    -0.096 F 
ATOM      9  I   UNL d   1       4.616   0.286   0.744  0.00  0.00    -0.060 I 
ATOM     10  F2  UNL d   1       3.514   0.830  -2.211  0.00  0.00    -0.096 F 
ATOM     11  F3  UNL d   1       1.964   2.810  -3.217  0.00  0.00    -0.097 F 
ATOM     12  F4  UNL d   1       1.061   4.812  -1.598  0.00  0.00    -0.092 F 
ENDROOT
TORSDOF 0
ENDMDL
