MODEL 1
REMARK minimizedAffinity -0.374262571
REMARK minimizedRMSD -1
REMARK  0 active torsions:
REMARK  status: ('A' for Active; 'I' for Inactive)
ROOT
ATOM      1  C   UNL d   1       2.180  -1.068  -2.893  0.00  0.00     0.124 A 
ATOM      2  C1  UNL d   1       1.979  -1.292  -1.538  0.00  0.00     0.062 A 
ATOM      3  C2  UNL d   1       2.187  -2.559  -1.000  0.00  0.00     0.162 A 
ATOM      4  C3  UNL d   1       2.599  -3.612  -1.817  0.00  0.00    -0.034 A 
ATOM      5  C4  UNL d   1       2.798  -3.378  -3.179  0.00  0.00     0.162 A 
ATOM      6  C5  UNL d   1       2.589  -2.110  -3.712  0.00  0.00     0.062 A 
ATOM      7  F   UNL d   1       2.783  -1.895  -5.021  0.00  0.00    -0.097 F 
ATOM      8  F1  UNL d   1       3.194  -4.368  -3.993  0.00  0.00    -0.096 F 
ATOM      9  I   UNL d   1       2.911  -5.507  -1.016  0.00  0.00    -0.060 I 
ATOM     10  F2  UNL d   1       1.986  -2.747   0.313  0.00  0.00    -0.096 F 
ATOM     11  F3  UNL d   1       1.583  -0.287  -0.744  0.00  0.00    -0.097 F 
ATOM     12  F4  UNL d   1       1.978   0.152  -3.408  0.00  0.00    -0.092 F 
ENDROOT
TORSDOF 0
ENDMDL
