MODEL 1
REMARK minimizedAffinity 28.7870903
REMARK minimizedRMSD -1
REMARK  0 active torsions:
REMARK  status: ('A' for Active; 'I' for Inactive)
ROOT
ATOM      1  C   UNL d   1       0.692   1.170   3.696  0.00  0.00     0.124 A 
ATOM      2  C1  UNL d   1      -0.009   0.938   2.520  0.00  0.00     0.062 A 
ATOM      3  C2  UNL d   1      -1.396   1.061   2.496  0.00  0.00     0.162 A 
ATOM      4  C3  UNL d   1      -2.091   1.419   3.651  0.00  0.00    -0.034 A 
ATOM      5  C4  UNL d   1      -1.379   1.650   4.830  0.00  0.00     0.162 A 
ATOM      6  C5  UNL d   1       0.006   1.526   4.849  0.00  0.00     0.062 A 
ATOM      7  F   UNL d   1       0.682   1.751   5.985  0.00  0.00    -0.097 F 
ATOM      8  F1  UNL d   1      -2.016   1.996   5.958  0.00  0.00    -0.096 F 
ATOM      9  I   UNL d   1      -4.163   1.604   3.619  0.00  0.00    -0.060 I 
ATOM     10  F2  UNL d   1      -2.047   0.831   1.346  0.00  0.00    -0.096 F 
ATOM     11  F3  UNL d   1       0.650   0.594   1.405  0.00  0.00    -0.097 F 
ATOM     12  F4  UNL d   1       2.025   1.051   3.716  0.00  0.00    -0.092 F 
ENDROOT
TORSDOF 0
ENDMDL
