MODEL 1
REMARK minimizedAffinity 22.7680779
REMARK minimizedRMSD -1
REMARK  0 active torsions:
REMARK  status: ('A' for Active; 'I' for Inactive)
ROOT
ATOM      1  C   UNL d   1      -0.528   0.667   2.841  0.00  0.00     0.124 A 
ATOM      2  C1  UNL d   1      -1.891   0.588   2.591  0.00  0.00     0.062 A 
ATOM      3  C2  UNL d   1      -2.800   1.134   3.491  0.00  0.00     0.162 A 
ATOM      4  C3  UNL d   1      -2.350   1.767   4.650  0.00  0.00    -0.034 A 
ATOM      5  C4  UNL d   1      -0.978   1.842   4.895  0.00  0.00     0.162 A 
ATOM      6  C5  UNL d   1      -0.073   1.294   3.992  0.00  0.00     0.062 A 
ATOM      7  F   UNL d   1       1.244   1.371   4.235  0.00  0.00    -0.097 F 
ATOM      8  F1  UNL d   1      -0.511   2.442   6.000  0.00  0.00    -0.096 F 
ATOM      9  I   UNL d   1      -3.707   2.585   5.999  0.00  0.00    -0.060 I 
ATOM     10  F2  UNL d   1      -4.112   1.043   3.224  0.00  0.00    -0.096 F 
ATOM     11  F3  UNL d   1      -2.333  -0.018   1.479  0.00  0.00    -0.097 F 
ATOM     12  F4  UNL d   1       0.345   0.139   1.973  0.00  0.00    -0.092 F 
ENDROOT
TORSDOF 0
ENDMDL
