MODEL 1
REMARK minimizedAffinity 0.805314183
REMARK minimizedRMSD -1
REMARK  0 active torsions:
REMARK  status: ('A' for Active; 'I' for Inactive)
ROOT
ATOM      1  N1  IND d   1      -0.042  -0.471  -1.137  0.00  0.00    -0.196 N 
ATOM      2  C2  IND d   1      -0.015   0.408  -0.090  0.00  0.00     0.054 A 
ATOM      3  C3  IND d   1      -1.147   1.147  -0.067  0.00  0.00    -0.031 A 
ATOM      4  C4  IND d   1      -3.220   1.012  -1.588  0.00  0.00     0.051 A 
ATOM      5  C5  IND d   1      -3.696   0.389  -2.707  0.00  0.00    -0.031 A 
ATOM      6  C6  IND d   1      -2.965  -0.574  -3.372  0.00  0.00     0.015 A 
ATOM      7  C7  IND d   1      -1.730  -0.959  -2.934  0.00  0.00    -0.016 A 
ATOM      8  C8  IND d   1      -1.240  -0.324  -1.802  0.00  0.00    -0.047 A 
ATOM      9  C9  IND d   1      -1.959   0.685  -1.148  0.00  0.00    -0.096 A 
ATOM     10  HN1 IND d   1       0.583  -1.023  -1.346  0.00  0.00     0.298 HD
ENDROOT
TORSDOF 0
ENDMDL
