MODEL 1
REMARK minimizedAffinity 0.460692078
REMARK minimizedRMSD -1
REMARK  0 active torsions:
REMARK  status: ('A' for Active; 'I' for Inactive)
ROOT
ATOM      1  N1  IND d   1      -0.707  -1.263  -0.394  0.00  0.00    -0.196 N 
ATOM      2  C2  IND d   1      -0.489  -0.312   0.563  0.00  0.00     0.054 A 
ATOM      3  C3  IND d   1      -1.020   0.871   0.180  0.00  0.00    -0.031 A 
ATOM      4  C4  IND d   1      -2.378   1.448  -1.930  0.00  0.00     0.051 A 
ATOM      5  C5  IND d   1      -2.805   0.917  -3.114  0.00  0.00    -0.031 A 
ATOM      6  C6  IND d   1      -2.552  -0.396  -3.458  0.00  0.00     0.015 A 
ATOM      7  C7  IND d   1      -1.869  -1.232  -2.622  0.00  0.00    -0.016 A 
ATOM      8  C8  IND d   1      -1.428  -0.695  -1.421  0.00  0.00    -0.047 A 
ATOM      9  C9  IND d   1      -1.644   0.648  -1.085  0.00  0.00    -0.096 A 
ATOM     10  HN1 IND d   1      -0.439  -2.080  -0.360  0.00  0.00     0.298 HD
ENDROOT
TORSDOF 0
ENDMDL
