MODEL 1
REMARK minimizedAffinity -4.07215595
REMARK minimizedRMSD -1
REMARK  0 active torsions:
REMARK  status: ('A' for Active; 'I' for Inactive)
ROOT
ATOM      1  N1  IND d   1      -0.884   0.933   0.047  0.00  0.00    -0.196 N 
ATOM      2  C2  IND d   1      -1.824  -0.060   0.057  0.00  0.00     0.054 A 
ATOM      3  C3  IND d   1      -1.228  -1.270   0.150  0.00  0.00    -0.031 A 
ATOM      4  C4  IND d   1       1.267  -1.850   0.401  0.00  0.00     0.051 A 
ATOM      5  C5  IND d   1       2.510  -1.281   0.407  0.00  0.00    -0.031 A 
ATOM      6  C6  IND d   1       2.689   0.083   0.293  0.00  0.00     0.015 A 
ATOM      7  C7  IND d   1       1.625   0.933   0.181  0.00  0.00    -0.016 A 
ATOM      8  C8  IND d   1       0.362   0.359   0.168  0.00  0.00    -0.047 A 
ATOM      9  C9  IND d   1       0.177  -1.028   0.240  0.00  0.00    -0.096 A 
ATOM     10  HN1 IND d   1      -1.044   1.775  -0.022  0.00  0.00     0.298 HD
ENDROOT
TORSDOF 0
ENDMDL
