MODEL 1
REMARK minimizedAffinity -6.31783247
REMARK minimizedRMSD -1
REMARK  0 active torsions:
REMARK  status: ('A' for Active; 'I' for Inactive)
ROOT
ATOM      1  N1  IND d   1      -1.037  -1.379   0.994  0.00  0.00    -0.196 N 
ATOM      2  C2  IND d   1      -1.777  -0.394   0.403  0.00  0.00     0.054 A 
ATOM      3  C3  IND d   1      -0.968   0.567  -0.097  0.00  0.00    -0.031 A 
ATOM      4  C4  IND d   1       1.604   0.677  -0.146  0.00  0.00     0.051 A 
ATOM      5  C5  IND d   1       2.718   0.026   0.302  0.00  0.00    -0.031 A 
ATOM      6  C6  IND d   1       2.637  -1.153   1.016  0.00  0.00     0.015 A 
ATOM      7  C7  IND d   1       1.432  -1.732   1.299  0.00  0.00    -0.016 A 
ATOM      8  C8  IND d   1       0.298  -1.069   0.852  0.00  0.00    -0.047 A 
ATOM      9  C9  IND d   1       0.373   0.149   0.164  0.00  0.00    -0.096 A 
ATOM     10  HN1 IND d   1      -1.352  -2.075   1.389  0.00  0.00     0.298 HD
ENDROOT
TORSDOF 0
ENDMDL
