MODEL 1
REMARK minimizedAffinity 3.72486615
REMARK minimizedRMSD -1
REMARK  0 active torsions:
REMARK  status: ('A' for Active; 'I' for Inactive)
ROOT
ATOM      1  N1  IND d   1       0.900  -0.685   1.675  0.00  0.00    -0.196 N 
ATOM      2  C2  IND d   1       1.275  -1.999   1.666  0.00  0.00     0.054 A 
ATOM      3  C3  IND d   1       2.424  -2.156   0.971  0.00  0.00    -0.031 A 
ATOM      4  C4  IND d   1       3.912  -0.379  -0.151  0.00  0.00     0.051 A 
ATOM      5  C5  IND d   1       3.964   0.956  -0.440  0.00  0.00    -0.031 A 
ATOM      6  C6  IND d   1       2.978   1.830  -0.029  0.00  0.00     0.015 A 
ATOM      7  C7  IND d   1       1.905   1.402   0.700  0.00  0.00    -0.016 A 
ATOM      8  C8  IND d   1       1.846   0.046   0.990  0.00  0.00    -0.047 A 
ATOM      9  C9  IND d   1       2.821  -0.853   0.539  0.00  0.00    -0.096 A 
ATOM     10  HN1 IND d   1       0.192  -0.368   2.046  0.00  0.00     0.298 HD
ENDROOT
TORSDOF 0
ENDMDL
