MODEL 1
REMARK minimizedAffinity -5.39436817
REMARK minimizedRMSD -1
REMARK  0 active torsions:
REMARK  status: ('A' for Active; 'I' for Inactive)
ROOT
ATOM      1  N1  IND d   1      -0.657  -0.507  -0.088  0.00  0.00    -0.196 N 
ATOM      2  C2  IND d   1      -0.516   0.751  -0.603  0.00  0.00     0.054 A 
ATOM      3  C3  IND d   1       0.636   1.310  -0.169  0.00  0.00    -0.031 A 
ATOM      4  C4  IND d   1       2.487   0.304   1.309  0.00  0.00     0.051 A 
ATOM      5  C5  IND d   1       2.791  -0.803   2.051  0.00  0.00    -0.031 A 
ATOM      6  C6  IND d   1       1.945  -1.892   2.116  0.00  0.00     0.015 A 
ATOM      7  C7  IND d   1       0.764  -1.918   1.430  0.00  0.00    -0.016 A 
ATOM      8  C8  IND d   1       0.449  -0.792   0.682  0.00  0.00    -0.047 A 
ATOM      9  C9  IND d   1       1.284   0.332   0.646  0.00  0.00    -0.096 A 
ATOM     10  HN1 IND d   1      -1.324  -1.033  -0.223  0.00  0.00     0.298 HD
ENDROOT
TORSDOF 0
ENDMDL
