MODEL 1
REMARK minimizedAffinity -3.3059237
REMARK minimizedRMSD -1
REMARK  0 active torsions:
REMARK  status: ('A' for Active; 'I' for Inactive)
ROOT
ATOM      1  N1  IND d   1      -0.380  -1.121   0.512  0.00  0.00    -0.196 N 
ATOM      2  C2  IND d   1      -1.564  -0.613   0.056  0.00  0.00     0.054 A 
ATOM      3  C3  IND d   1      -1.461   0.721  -0.137  0.00  0.00    -0.031 A 
ATOM      4  C4  IND d   1       0.586   2.259   0.134  0.00  0.00     0.051 A 
ATOM      5  C5  IND d   1       1.884   2.260   0.563  0.00  0.00    -0.031 A 
ATOM      6  C6  IND d   1       2.507   1.110   1.003  0.00  0.00     0.015 A 
ATOM      7  C7  IND d   1       1.855  -0.091   1.020  0.00  0.00    -0.016 A 
ATOM      8  C8  IND d   1       0.536  -0.094   0.592  0.00  0.00    -0.047 A 
ATOM      9  C9  IND d   1      -0.115   1.078   0.184  0.00  0.00    -0.096 A 
ATOM     10  HN1 IND d   1      -0.231  -1.943   0.715  0.00  0.00     0.298 HD
ENDROOT
TORSDOF 0
ENDMDL
