MODEL 1
REMARK minimizedAffinity -4.95107412
REMARK minimizedRMSD -1
REMARK  0 active torsions:
REMARK  status: ('A' for Active; 'I' for Inactive)
ROOT
ATOM      1  N1  IND d   1      -0.359  -1.489   0.445  0.00  0.00    -0.196 N 
ATOM      2  C2  IND d   1      -0.824  -0.532  -0.413  0.00  0.00     0.054 A 
ATOM      3  C3  IND d   1       0.100   0.441  -0.576  0.00  0.00    -0.031 A 
ATOM      4  C4  IND d   1       2.480   0.616   0.389  0.00  0.00     0.051 A 
ATOM      5  C5  IND d   1       3.339   0.000   1.255  0.00  0.00    -0.031 A 
ATOM      6  C6  IND d   1       3.004  -1.169   1.907  0.00  0.00     0.015 A 
ATOM      7  C7  IND d   1       1.795  -1.774   1.707  0.00  0.00    -0.016 A 
ATOM      8  C8  IND d   1       0.918  -1.148   0.833  0.00  0.00    -0.047 A 
ATOM      9  C9  IND d   1       1.236   0.061   0.202  0.00  0.00    -0.096 A 
ATOM     10  HN1 IND d   1      -0.792  -2.187   0.700  0.00  0.00     0.298 HD
ENDROOT
TORSDOF 0
ENDMDL
