MODEL 1
REMARK minimizedAffinity -2.5217557
REMARK minimizedRMSD -1
REMARK  1 active torsions:
REMARK  status: ('A' for Active; 'I' for Inactive)
REMARK    1  A    between atoms: C1_2  and  C2_3 
ROOT
ATOM      1  C2  UNL d   1       0.527  -0.709  -0.155  0.00  0.00    -0.077 A 
ATOM      2  C3  UNL d   1       0.109  -0.612  -1.490  0.00  0.00     0.002 A 
ATOM      3  C4  UNL d   1       0.123   0.620  -2.147  0.00  0.00     0.002 A 
ATOM      4  C5  UNL d   1       0.557   1.763  -1.479  0.00  0.00    -0.004 A 
ATOM      5  C6  UNL d   1       0.972   1.677  -0.151  0.00  0.00     0.002 A 
ATOM      6  C7  UNL d   1       0.958   0.447   0.508  0.00  0.00     0.002 A 
ENDROOT
BRANCH   1   7
ATOM      7  C1  UNL d   1       0.560  -2.045   0.540  0.00  0.00     0.055 C 
ATOM      8  C   UNL d   1      -0.097  -1.972   1.911  0.00  0.00     0.019 C 
ENDBRANCH   1   7
TORSDOF 1
ENDMDL
