MODEL 1
REMARK minimizedAffinity -5.71058989
REMARK minimizedRMSD -1
REMARK  1 active torsions:
REMARK  status: ('A' for Active; 'I' for Inactive)
REMARK    1  A    between atoms: C1_2  and  C2_3 
ROOT
ATOM      1  C2  UNL d   1       0.290  -0.579  -0.837  0.00  0.00    -0.077 A 
ATOM      2  C3  UNL d   1      -0.093  -0.426   0.503  0.00  0.00     0.002 A 
ATOM      3  C4  UNL d   1      -0.466  -1.538   1.262  0.00  0.00     0.002 A 
ATOM      4  C5  UNL d   1      -0.456  -2.808   0.691  0.00  0.00    -0.004 A 
ATOM      5  C6  UNL d   1      -0.080  -2.970  -0.642  0.00  0.00     0.002 A 
ATOM      6  C7  UNL d   1       0.292  -1.861  -1.402  0.00  0.00     0.002 A 
ENDROOT
BRANCH   1   7
ATOM      7  C1  UNL d   1       0.740   0.612  -1.643  0.00  0.00     0.055 C 
ATOM      8  C   UNL d   1       1.822   0.227  -2.642  0.00  0.00     0.019 C 
ENDBRANCH   1   7
TORSDOF 1
ENDMDL
