MODEL 1
REMARK minimizedAffinity -5.09047604
REMARK minimizedRMSD -1
REMARK  1 active torsions:
REMARK  status: ('A' for Active; 'I' for Inactive)
REMARK    1  A    between atoms: C1_2  and  C2_3 
ROOT
ATOM      1  C2  UNL d   1       0.060  -0.323   0.103  0.00  0.00    -0.077 A 
ATOM      2  C3  UNL d   1      -0.661  -0.896  -0.954  0.00  0.00     0.002 A 
ATOM      3  C4  UNL d   1      -1.372  -2.082  -0.762  0.00  0.00     0.002 A 
ATOM      4  C5  UNL d   1      -1.372  -2.703   0.486  0.00  0.00    -0.004 A 
ATOM      5  C6  UNL d   1      -0.655  -2.142   1.542  0.00  0.00     0.002 A 
ATOM      6  C7  UNL d   1       0.057  -0.957   1.352  0.00  0.00     0.002 A 
ENDROOT
BRANCH   1   7
ATOM      7  C1  UNL d   1       0.787   0.982  -0.089  0.00  0.00     0.055 C 
ATOM      8  C   UNL d   1       1.370   1.091  -1.491  0.00  0.00     0.019 C 
ENDBRANCH   1   7
TORSDOF 1
ENDMDL
