MODEL 1
REMARK minimizedAffinity -4.9152565
REMARK minimizedRMSD -1
REMARK  1 active torsions:
REMARK  status: ('A' for Active; 'I' for Inactive)
REMARK    1  A    between atoms: C1_2  and  C2_3 
ROOT
ATOM      1  C2  UNL d   1       0.348  -2.450   1.644  0.00  0.00    -0.077 A 
ATOM      2  C3  UNL d   1       1.131  -1.523   0.940  0.00  0.00     0.002 A 
ATOM      3  C4  UNL d   1       0.557  -0.715  -0.042  0.00  0.00     0.002 A 
ATOM      4  C5  UNL d   1      -0.803  -0.820  -0.326  0.00  0.00    -0.004 A 
ATOM      5  C6  UNL d   1      -1.590  -1.740   0.366  0.00  0.00     0.002 A 
ATOM      6  C7  UNL d   1      -1.017  -2.550   1.348  0.00  0.00     0.002 A 
ENDROOT
BRANCH   1   7
ATOM      7  C1  UNL d   1       0.956  -3.288   2.738  0.00  0.00     0.055 C 
ATOM      8  C   UNL d   1       0.361  -2.943   4.095  0.00  0.00     0.019 C 
ENDBRANCH   1   7
TORSDOF 1
ENDMDL
