MODEL 1
REMARK minimizedAffinity -1.98029602
REMARK minimizedRMSD -1
REMARK  1 active torsions:
REMARK  status: ('A' for Active; 'I' for Inactive)
REMARK    1  A    between atoms: C1_2  and  C2_3 
ROOT
ATOM      1  C2  UNL d   1       0.108  -0.405  -0.699  0.00  0.00    -0.077 A 
ATOM      2  C3  UNL d   1       0.748  -1.629  -0.943  0.00  0.00     0.002 A 
ATOM      3  C4  UNL d   1       0.894  -2.566   0.081  0.00  0.00     0.002 A 
ATOM      4  C5  UNL d   1       0.399  -2.292   1.354  0.00  0.00    -0.004 A 
ATOM      5  C6  UNL d   1      -0.237  -1.077   1.608  0.00  0.00     0.002 A 
ATOM      6  C7  UNL d   1      -0.382  -0.138   0.586  0.00  0.00     0.002 A 
ENDROOT
BRANCH   1   7
ATOM      7  C1  UNL d   1      -0.093   0.587  -1.814  0.00  0.00     0.055 C 
ATOM      8  C   UNL d   1       0.833   1.785  -1.664  0.00  0.00     0.019 C 
ENDBRANCH   1   7
TORSDOF 1
ENDMDL
