MODEL 1
REMARK minimizedAffinity -4.01121902
REMARK minimizedRMSD -1
REMARK  1 active torsions:
REMARK  status: ('A' for Active; 'I' for Inactive)
REMARK    1  A    between atoms: C1_2  and  C2_3 
ROOT
ATOM      1  C2  UNL d   1       0.628  -0.049  -0.273  0.00  0.00    -0.077 A 
ATOM      2  C3  UNL d   1       1.144   1.254  -0.240  0.00  0.00     0.002 A 
ATOM      3  C4  UNL d   1       1.620   1.856  -1.406  0.00  0.00     0.002 A 
ATOM      4  C5  UNL d   1       1.581   1.164  -2.615  0.00  0.00    -0.004 A 
ATOM      5  C6  UNL d   1       1.072  -0.133  -2.658  0.00  0.00     0.002 A 
ATOM      6  C7  UNL d   1       0.597  -0.737  -1.493  0.00  0.00     0.002 A 
ENDROOT
BRANCH   1   7
ATOM      7  C1  UNL d   1       0.069  -0.681   0.974  0.00  0.00     0.055 C 
ATOM      8  C   UNL d   1       0.497  -2.136   1.097  0.00  0.00     0.019 C 
ENDBRANCH   1   7
TORSDOF 1
ENDMDL
