MODEL 1
REMARK minimizedAffinity -3.10636902
REMARK minimizedRMSD -1
REMARK  1 active torsions:
REMARK  status: ('A' for Active; 'I' for Inactive)
REMARK    1  A    between atoms: C1_2  and  C2_3 
ROOT
ATOM      1  C2  UNL d   1       1.104   1.043  -1.246  0.00  0.00    -0.077 A 
ATOM      2  C3  UNL d   1       2.485   1.021  -1.486  0.00  0.00     0.002 A 
ATOM      3  C4  UNL d   1       3.028   1.740  -2.553  0.00  0.00     0.002 A 
ATOM      4  C5  UNL d   1       2.197   2.488  -3.385  0.00  0.00    -0.004 A 
ATOM      5  C6  UNL d   1       0.822   2.514  -3.156  0.00  0.00     0.002 A 
ATOM      6  C7  UNL d   1       0.278   1.795  -2.090  0.00  0.00     0.002 A 
ENDROOT
BRANCH   1   7
ATOM      7  C1  UNL d   1       0.523   0.308  -0.066  0.00  0.00     0.055 C 
ATOM      8  C   UNL d   1       0.264  -1.154  -0.398  0.00  0.00     0.019 C 
ENDBRANCH   1   7
TORSDOF 1
ENDMDL
