MODEL 1
REMARK minimizedAffinity 1.34908438
REMARK minimizedRMSD -1
REMARK  1 active torsions:
REMARK  status: ('A' for Active; 'I' for Inactive)
REMARK    1  A    between atoms: N_2  and  C1_3 
ROOT
ATOM      1  C1  UNL d   1      -3.975   6.000   4.059  0.00  0.00     0.143 A 
ATOM      2  C2  UNL d   1      -2.941   5.973   3.117  0.00  0.00    -0.057 A 
ATOM      3  C3  UNL d   1      -3.209   5.986   1.743  0.00  0.00     0.033 A 
ATOM      4  C4  UNL d   1      -4.522   5.997   1.285  0.00  0.00    -0.042 A 
ATOM      5  C5  UNL d   1      -5.567   5.999   2.203  0.00  0.00     0.033 A 
ATOM      6  C6  UNL d   1      -5.292   5.992   3.574  0.00  0.00    -0.057 A 
ENDROOT
BRANCH   1   7
ATOM      7  N   UNL d   1      -3.775   5.889   5.437  0.00  0.00    -0.732 N 
ATOM      8  C   UNL d   1      -2.446   5.993   6.000  0.00  0.00     0.284 C 
ATOM      9  H3  UNL d   1      -4.493   6.371   5.973  0.00  0.00     0.395 HD
ENDBRANCH   1   7
TORSDOF 1
ENDMDL
