MODEL 1
REMARK minimizedAffinity -2.55429125
REMARK minimizedRMSD -1
REMARK  1 active torsions:
REMARK  status: ('A' for Active; 'I' for Inactive)
REMARK    1  A    between atoms: N_2  and  C1_3 
ROOT
ATOM      1  C1  UNL d   1      -3.962   5.913   3.900  0.00  0.00     0.143 A 
ATOM      2  C2  UNL d   1      -2.825   5.997   3.089  0.00  0.00    -0.057 A 
ATOM      3  C3  UNL d   1      -2.925   5.967   1.693  0.00  0.00     0.033 A 
ATOM      4  C4  UNL d   1      -4.166   5.822   1.081  0.00  0.00    -0.042 A 
ATOM      5  C5  UNL d   1      -5.307   5.712   1.867  0.00  0.00     0.033 A 
ATOM      6  C6  UNL d   1      -5.202   5.749   3.261  0.00  0.00    -0.057 A 
ENDROOT
BRANCH   1   7
ATOM      7  N   UNL d   1      -3.920   5.839   5.294  0.00  0.00    -0.732 N 
ATOM      8  C   UNL d   1      -2.658   5.921   5.998  0.00  0.00     0.284 C 
ATOM      9  H3  UNL d   1      -4.676   6.358   5.734  0.00  0.00     0.395 HD
ENDBRANCH   1   7
TORSDOF 1
ENDMDL
