MODEL 1
REMARK minimizedAffinity 0.279904008
REMARK minimizedRMSD -1
REMARK  1 active torsions:
REMARK  status: ('A' for Active; 'I' for Inactive)
REMARK    1  A    between atoms: N_2  and  C1_3 
ROOT
ATOM      1  C1  UNL d   1      -3.380   4.944   3.775  0.00  0.00     0.143 A 
ATOM      2  C2  UNL d   1      -4.531   4.252   3.384  0.00  0.00    -0.057 A 
ATOM      3  C3  UNL d   1      -5.069   4.405   2.101  0.00  0.00     0.033 A 
ATOM      4  C4  UNL d   1      -4.480   5.278   1.192  0.00  0.00    -0.042 A 
ATOM      5  C5  UNL d   1      -3.350   5.995   1.568  0.00  0.00     0.033 A 
ATOM      6  C6  UNL d   1      -2.813   5.833   2.849  0.00  0.00    -0.057 A 
ENDROOT
BRANCH   1   7
ATOM      7  N   UNL d   1      -2.854   4.909   5.069  0.00  0.00    -0.732 N 
ATOM      8  C   UNL d   1      -3.092   5.999   5.991  0.00  0.00     0.284 C 
ATOM      9  H3  UNL d   1      -2.921   3.986   5.491  0.00  0.00     0.395 HD
ENDBRANCH   1   7
TORSDOF 1
ENDMDL
