MODEL 1
REMARK minimizedAffinity 0.36215955
REMARK minimizedRMSD -1
REMARK  1 active torsions:
REMARK  status: ('A' for Active; 'I' for Inactive)
REMARK    1  A    between atoms: N_2  and  C1_3 
ROOT
ATOM      1  C1  UNL d   1      -3.654   5.995   3.156  0.00  0.00     0.143 A 
ATOM      2  C2  UNL d   1      -4.739   5.930   4.036  0.00  0.00    -0.057 A 
ATOM      3  C3  UNL d   1      -4.549   5.919   5.423  0.00  0.00     0.033 A 
ATOM      4  C4  UNL d   1      -3.264   5.943   5.955  0.00  0.00    -0.042 A 
ATOM      5  C5  UNL d   1      -2.169   5.982   5.098  0.00  0.00     0.033 A 
ATOM      6  C6  UNL d   1      -2.366   6.000   3.714  0.00  0.00    -0.057 A 
ENDROOT
BRANCH   1   7
ATOM      7  N   UNL d   1      -3.774   5.910   1.766  0.00  0.00    -0.732 N 
ATOM      8  C   UNL d   1      -2.604   5.996   0.919  0.00  0.00     0.284 C 
ATOM      9  H3  UNL d   1      -4.445   5.202   1.477  0.00  0.00     0.395 HD
ENDBRANCH   1   7
TORSDOF 1
ENDMDL
