MODEL 1
REMARK minimizedAffinity -3.17490602
REMARK minimizedRMSD -1
REMARK  1 active torsions:
REMARK  status: ('A' for Active; 'I' for Inactive)
REMARK    1  A    between atoms: N_2  and  C1_3 
ROOT
ATOM      1  C1  UNL d   1      -4.342   5.737   3.856  0.00  0.00     0.143 A 
ATOM      2  C2  UNL d   1      -5.493   5.654   3.066  0.00  0.00    -0.057 A 
ATOM      3  C3  UNL d   1      -5.421   5.714   1.669  0.00  0.00     0.033 A 
ATOM      4  C4  UNL d   1      -4.195   5.889   1.036  0.00  0.00    -0.042 A 
ATOM      5  C5  UNL d   1      -3.040   6.000   1.802  0.00  0.00     0.033 A 
ATOM      6  C6  UNL d   1      -3.117   5.932   3.197  0.00  0.00    -0.057 A 
ENDROOT
BRANCH   1   7
ATOM      7  N   UNL d   1      -4.358   5.783   5.252  0.00  0.00    -0.732 N 
ATOM      8  C   UNL d   1      -3.135   5.997   5.997  0.00  0.00     0.284 C 
ATOM      9  H3  UNL d   1      -5.160   6.292   5.615  0.00  0.00     0.395 HD
ENDBRANCH   1   7
TORSDOF 1
ENDMDL
