MODEL 1
REMARK minimizedAffinity -2.60261035
REMARK minimizedRMSD -1
REMARK  1 active torsions:
REMARK  status: ('A' for Active; 'I' for Inactive)
REMARK    1  A    between atoms: N_2  and  C1_3 
ROOT
ATOM      1  C1  UNL d   1      -3.465   3.340   3.758  0.00  0.00     0.143 A 
ATOM      2  C2  UNL d   1      -3.387   4.095   4.933  0.00  0.00    -0.057 A 
ATOM      3  C3  UNL d   1      -3.871   5.407   4.986  0.00  0.00     0.033 A 
ATOM      4  C4  UNL d   1      -4.418   5.999   3.852  0.00  0.00    -0.042 A 
ATOM      5  C5  UNL d   1      -4.483   5.276   2.667  0.00  0.00     0.033 A 
ATOM      6  C6  UNL d   1      -4.004   3.964   2.622  0.00  0.00    -0.057 A 
ENDROOT
BRANCH   1   7
ATOM      7  N   UNL d   1      -2.911   2.065   3.614  0.00  0.00    -0.732 N 
ATOM      8  C   UNL d   1      -3.754   0.889   3.634  0.00  0.00     0.284 C 
ATOM      9  H3  UNL d   1      -2.176   2.037   2.911  0.00  0.00     0.395 HD
ENDBRANCH   1   7
TORSDOF 1
ENDMDL
