MODEL 1
REMARK minimizedAffinity 0.929028332
REMARK minimizedRMSD -1
REMARK  1 active torsions:
REMARK  status: ('A' for Active; 'I' for Inactive)
REMARK    1  A    between atoms: N_2  and  C1_3 
ROOT
ATOM      1  C1  UNL d   1      -3.777   5.907   2.434  0.00  0.00     0.143 A 
ATOM      2  C2  UNL d   1      -5.088   5.623   2.830  0.00  0.00    -0.057 A 
ATOM      3  C3  UNL d   1      -5.423   5.482   4.182  0.00  0.00     0.033 A 
ATOM      4  C4  UNL d   1      -4.444   5.593   5.164  0.00  0.00    -0.042 A 
ATOM      5  C5  UNL d   1      -3.129   5.850   4.791  0.00  0.00     0.033 A 
ATOM      6  C6  UNL d   1      -2.802   5.997   3.440  0.00  0.00    -0.057 A 
ENDROOT
BRANCH   1   7
ATOM      7  N   UNL d   1      -3.362   5.962   1.101  0.00  0.00    -0.732 N 
ATOM      8  C   UNL d   1      -1.954   5.997   0.768  0.00  0.00     0.284 C 
ATOM      9  H3  UNL d   1      -3.917   5.361   0.496  0.00  0.00     0.395 HD
ENDBRANCH   1   7
TORSDOF 1
ENDMDL
