MODEL 1
REMARK minimizedAffinity -1.57753241
REMARK minimizedRMSD -1
REMARK  1 active torsions:
REMARK  status: ('A' for Active; 'I' for Inactive)
REMARK    1  A    between atoms: N_2  and  C1_3 
ROOT
ATOM      1  C1  UNL d   1      -3.251   3.616   3.156  0.00  0.00     0.143 A 
ATOM      2  C2  UNL d   1      -3.811   4.706   2.479  0.00  0.00    -0.057 A 
ATOM      3  C3  UNL d   1      -4.130   5.892   3.151  0.00  0.00     0.033 A 
ATOM      4  C4  UNL d   1      -3.920   5.999   4.522  0.00  0.00    -0.042 A 
ATOM      5  C5  UNL d   1      -3.388   4.921   5.219  0.00  0.00     0.033 A 
ATOM      6  C6  UNL d   1      -3.065   3.741   4.541  0.00  0.00    -0.057 A 
ENDROOT
BRANCH   1   7
ATOM      7  N   UNL d   1      -3.004   2.376   2.563  0.00  0.00    -0.732 N 
ATOM      8  C   UNL d   1      -2.627   1.235   3.369  0.00  0.00     0.284 C 
ATOM      9  H3  UNL d   1      -3.667   2.160   1.822  0.00  0.00     0.395 HD
ENDBRANCH   1   7
TORSDOF 1
ENDMDL
