MODEL 1
REMARK minimizedAffinity -1.81402183
REMARK minimizedRMSD -1
REMARK  1 active torsions:
REMARK  status: ('A' for Active; 'I' for Inactive)
REMARK    1  A    between atoms: N_2  and  C1_3 
ROOT
ATOM      1  C1  UNL d   1      -3.848   6.000   3.138  0.00  0.00     0.143 A 
ATOM      2  C2  UNL d   1      -5.049   5.858   3.840  0.00  0.00    -0.057 A 
ATOM      3  C3  UNL d   1      -5.067   5.766   5.237  0.00  0.00     0.033 A 
ATOM      4  C4  UNL d   1      -3.876   5.785   5.957  0.00  0.00    -0.042 A 
ATOM      5  C5  UNL d   1      -2.669   5.901   5.278  0.00  0.00     0.033 A 
ATOM      6  C6  UNL d   1      -2.658   5.999   3.883  0.00  0.00    -0.057 A 
ENDROOT
BRANCH   1   7
ATOM      7  N   UNL d   1      -3.757   5.997   1.744  0.00  0.00    -0.732 N 
ATOM      8  C   UNL d   1      -2.466   5.999   1.089  0.00  0.00     0.284 C 
ATOM      9  H3  UNL d   1      -4.442   5.381   1.311  0.00  0.00     0.395 HD
ENDBRANCH   1   7
TORSDOF 1
ENDMDL
