MODEL 1
REMARK minimizedAffinity 8.68851662
REMARK minimizedRMSD -1
REMARK  1 active torsions:
REMARK  status: ('A' for Active; 'I' for Inactive)
REMARK    1  A    between atoms: N_2  and  C1_3 
ROOT
ATOM      1  C1  UNL d   1      -2.900   5.124   4.383  0.00  0.00     0.143 A 
ATOM      2  C2  UNL d   1      -2.693   5.990   3.303  0.00  0.00    -0.057 A 
ATOM      3  C3  UNL d   1      -2.996   5.601   1.993  0.00  0.00     0.033 A 
ATOM      4  C4  UNL d   1      -3.486   4.325   1.735  0.00  0.00    -0.042 A 
ATOM      5  C5  UNL d   1      -3.676   3.440   2.790  0.00  0.00     0.033 A 
ATOM      6  C6  UNL d   1      -3.378   3.836   4.097  0.00  0.00    -0.057 A 
ENDROOT
BRANCH   1   7
ATOM      7  N   UNL d   1      -2.526   5.417   5.697  0.00  0.00    -0.732 N 
ATOM      8  C   UNL d   1      -1.225   5.981   5.984  0.00  0.00     0.284 C 
ATOM      9  H3  UNL d   1      -3.286   5.827   6.235  0.00  0.00     0.395 HD
ENDBRANCH   1   7
TORSDOF 1
ENDMDL
