MODEL 1
REMARK minimizedAffinity -1.65765214
REMARK minimizedRMSD -1
REMARK  1 active torsions:
REMARK  status: ('A' for Active; 'I' for Inactive)
REMARK    1  A    between atoms: N_2  and  C1_3 
ROOT
ATOM      1  C1  UNL d   1      -3.934   5.921   3.882  0.00  0.00     0.143 A 
ATOM      2  C2  UNL d   1      -5.107   5.948   3.120  0.00  0.00    -0.057 A 
ATOM      3  C3  UNL d   1      -5.063   5.972   1.721  0.00  0.00     0.033 A 
ATOM      4  C4  UNL d   1      -3.841   5.999   1.058  0.00  0.00    -0.042 A 
ATOM      5  C5  UNL d   1      -2.662   5.998   1.795  0.00  0.00     0.033 A 
ATOM      6  C6  UNL d   1      -2.713   5.967   3.192  0.00  0.00    -0.057 A 
ENDROOT
BRANCH   1   7
ATOM      7  N   UNL d   1      -3.912   5.996   5.277  0.00  0.00    -0.732 N 
ATOM      8  C   UNL d   1      -2.661   5.909   6.000  0.00  0.00     0.284 C 
ATOM      9  H3  UNL d   1      -4.553   6.698   5.639  0.00  0.00     0.395 HD
ENDBRANCH   1   7
TORSDOF 1
ENDMDL
