MODEL 1
REMARK minimizedAffinity 0.107112736
REMARK minimizedRMSD -1
REMARK  1 active torsions:
REMARK  status: ('A' for Active; 'I' for Inactive)
REMARK    1  A    between atoms: N_2  and  C1_3 
ROOT
ATOM      1  C1  UNL d   1       1.521   2.974  -4.077  0.00  0.00     0.143 A 
ATOM      2  C2  UNL d   1       0.774   3.348  -5.199  0.00  0.00    -0.057 A 
ATOM      3  C3  UNL d   1       1.152   4.439  -5.992  0.00  0.00     0.033 A 
ATOM      4  C4  UNL d   1       2.270   5.196  -5.657  0.00  0.00    -0.042 A 
ATOM      5  C5  UNL d   1       3.012   4.858  -4.531  0.00  0.00     0.033 A 
ATOM      6  C6  UNL d   1       2.634   3.763  -3.748  0.00  0.00    -0.057 A 
ENDROOT
BRANCH   1   7
ATOM      7  N   UNL d   1       1.142   1.960  -3.193  0.00  0.00    -0.732 N 
ATOM      8  C   UNL d   1       1.890   0.723  -3.126  0.00  0.00     0.284 C 
ATOM      9  H3  UNL d   1       0.855   2.322  -2.287  0.00  0.00     0.395 HD
ENDBRANCH   1   7
TORSDOF 1
ENDMDL
