MODEL 1
REMARK minimizedAffinity -2.26083422
REMARK minimizedRMSD -1
REMARK  1 active torsions:
REMARK  status: ('A' for Active; 'I' for Inactive)
REMARK    1  A    between atoms: N_2  and  C1_3 
ROOT
ATOM      1  C1  UNL d   1       5.345   4.632   1.898  0.00  0.00     0.143 A 
ATOM      2  C2  UNL d   1       4.057   4.193   1.571  0.00  0.00    -0.057 A 
ATOM      3  C3  UNL d   1       3.417   4.625   0.404  0.00  0.00     0.033 A 
ATOM      4  C4  UNL d   1       4.044   5.531  -0.446  0.00  0.00    -0.042 A 
ATOM      5  C5  UNL d   1       5.313   6.000  -0.129  0.00  0.00     0.033 A 
ATOM      6  C6  UNL d   1       5.950   5.559   1.035  0.00  0.00    -0.057 A 
ENDROOT
BRANCH   1   7
ATOM      7  N   UNL d   1       5.995   4.316   3.093  0.00  0.00    -0.732 N 
ATOM      8  C   UNL d   1       6.000   5.249   4.199  0.00  0.00     0.284 C 
ATOM      9  H3  UNL d   1       5.852   3.346   3.368  0.00  0.00     0.395 HD
ENDBRANCH   1   7
TORSDOF 1
ENDMDL
