MODEL 1
REMARK minimizedAffinity 2.44375634
REMARK minimizedRMSD -1
REMARK  1 active torsions:
REMARK  status: ('A' for Active; 'I' for Inactive)
REMARK    1  A    between atoms: N_2  and  C1_3 
ROOT
ATOM      1  C1  UNL d   1      -2.960   5.796   4.042  0.00  0.00     0.143 A 
ATOM      2  C2  UNL d   1      -4.318   5.841   4.379  0.00  0.00    -0.057 A 
ATOM      3  C3  UNL d   1      -5.307   5.928   3.392  0.00  0.00     0.033 A 
ATOM      4  C4  UNL d   1      -4.954   6.000   2.049  0.00  0.00    -0.042 A 
ATOM      5  C5  UNL d   1      -3.611   5.982   1.693  0.00  0.00     0.033 A 
ATOM      6  C6  UNL d   1      -2.627   5.888   2.682  0.00  0.00    -0.057 A 
ENDROOT
BRANCH   1   7
ATOM      7  N   UNL d   1      -1.926   5.809   4.981  0.00  0.00    -0.732 N 
ATOM      8  C   UNL d   1      -1.771   4.722   5.923  0.00  0.00     0.284 C 
ATOM      9  H3  UNL d   1      -1.050   6.147   4.589  0.00  0.00     0.395 HD
ENDBRANCH   1   7
TORSDOF 1
ENDMDL
