MODEL 1
REMARK minimizedAffinity -4.04533243
REMARK minimizedRMSD -1
REMARK  1 active torsions:
REMARK  status: ('A' for Active; 'I' for Inactive)
REMARK    1  A    between atoms: C1_2  and  C2_3 
ROOT
ATOM      1  C2  UNL d   1       0.272   0.200  -0.305  0.00  0.00    -0.073 A 
ATOM      2  C3  UNL d   1       1.408   0.923   0.078  0.00  0.00    -0.002 A 
ATOM      3  C4  UNL d   1       1.747   1.041   1.426  0.00  0.00     0.004 A 
ATOM      4  C5  UNL d   1       0.960   0.433   2.404  0.00  0.00    -0.004 A 
ATOM      5  C6  UNL d   1      -0.172  -0.304   2.041  0.00  0.00    -0.075 A 
ATOM      6  C7  UNL d   1      -1.031  -0.962   3.081  0.00  0.00     0.076 C 
ATOM      7  C8  UNL d   1      -0.508  -0.415   0.685  0.00  0.00     0.001 A 
ENDROOT
BRANCH   1   8
ATOM      8  C1  UNL d   1      -0.094   0.064  -1.760  0.00  0.00     0.053 C 
ATOM      9  C   UNL d   1       0.603  -1.117  -2.415  0.00  0.00     0.018 C 
ENDBRANCH   1   8
TORSDOF 1
ENDMDL
