MODEL 1
REMARK minimizedAffinity -3.09235239
REMARK minimizedRMSD -1
REMARK  1 active torsions:
REMARK  status: ('A' for Active; 'I' for Inactive)
REMARK    1  A    between atoms: C1_2  and  C2_3 
ROOT
ATOM      1  C2  UNL d   1      -1.225  -0.616   0.965  0.00  0.00    -0.073 A 
ATOM      2  C3  UNL d   1      -1.211  -1.149   2.259  0.00  0.00    -0.002 A 
ATOM      3  C4  UNL d   1      -0.125  -0.918   3.105  0.00  0.00     0.004 A 
ATOM      4  C5  UNL d   1       0.953  -0.148   2.669  0.00  0.00    -0.004 A 
ATOM      5  C6  UNL d   1       0.952   0.403   1.383  0.00  0.00    -0.075 A 
ATOM      6  C7  UNL d   1       2.105   1.233   0.899  0.00  0.00     0.076 C 
ATOM      7  C8  UNL d   1      -0.141   0.165   0.539  0.00  0.00     0.001 A 
ENDROOT
BRANCH   1   8
ATOM      8  C1  UNL d   1      -2.398  -0.857   0.050  0.00  0.00     0.053 C 
ATOM      9  C   UNL d   1      -3.034   0.443  -0.416  0.00  0.00     0.018 C 
ENDBRANCH   1   8
TORSDOF 1
ENDMDL
