MODEL 1
REMARK minimizedAffinity -2.90651941
REMARK minimizedRMSD -1
REMARK  1 active torsions:
REMARK  status: ('A' for Active; 'I' for Inactive)
REMARK    1  A    between atoms: C1_2  and  C2_3 
ROOT
ATOM      1  C2  UNL d   1       0.054   0.344  -0.027  0.00  0.00    -0.073 A 
ATOM      2  C3  UNL d   1       1.348   0.201   0.484  0.00  0.00    -0.002 A 
ATOM      3  C4  UNL d   1       1.546  -0.038   1.845  0.00  0.00     0.004 A 
ATOM      4  C5  UNL d   1       0.454  -0.142   2.705  0.00  0.00    -0.004 A 
ATOM      5  C6  UNL d   1      -0.848  -0.014   2.211  0.00  0.00    -0.075 A 
ATOM      6  C7  UNL d   1      -2.034  -0.122   3.124  0.00  0.00     0.076 C 
ATOM      7  C8  UNL d   1      -1.039   0.228   0.844  0.00  0.00     0.001 A 
ENDROOT
BRANCH   1   8
ATOM      8  C1  UNL d   1      -0.166   0.596  -1.497  0.00  0.00     0.053 C 
ATOM      9  C   UNL d   1       0.945   0.001  -2.349  0.00  0.00     0.018 C 
ENDBRANCH   1   8
TORSDOF 1
ENDMDL
