MODEL 1
REMARK minimizedAffinity 3.03298068
REMARK minimizedRMSD -1
REMARK  1 active torsions:
REMARK  status: ('A' for Active; 'I' for Inactive)
REMARK    1  A    between atoms: C1_2  and  C2_3 
ROOT
ATOM      1  C2  UNL d   1      -1.436   0.084   1.895  0.00  0.00    -0.073 A 
ATOM      2  C3  UNL d   1      -0.711  -0.575   2.895  0.00  0.00    -0.002 A 
ATOM      3  C4  UNL d   1       0.665  -0.378   3.014  0.00  0.00     0.004 A 
ATOM      4  C5  UNL d   1       1.329   0.483   2.141  0.00  0.00    -0.004 A 
ATOM      5  C6  UNL d   1       0.621   1.160   1.143  0.00  0.00    -0.075 A 
ATOM      6  C7  UNL d   1       1.321   2.089   0.194  0.00  0.00     0.076 C 
ATOM      7  C8  UNL d   1      -0.761   0.955   1.028  0.00  0.00     0.001 A 
ENDROOT
BRANCH   1   8
ATOM      8  C1  UNL d   1      -2.923  -0.120   1.766  0.00  0.00     0.053 C 
ATOM      9  C   UNL d   1      -3.686   1.194   1.825  0.00  0.00     0.018 C 
ENDBRANCH   1   8
TORSDOF 1
ENDMDL
