MODEL 1
REMARK minimizedAffinity -5.08067751
REMARK minimizedRMSD -1
REMARK  1 active torsions:
REMARK  status: ('A' for Active; 'I' for Inactive)
REMARK    1  A    between atoms: C1_2  and  C2_3 
ROOT
ATOM      1  C2  UNL d   1       0.152   0.269  -0.144  0.00  0.00    -0.073 A 
ATOM      2  C3  UNL d   1       1.463   0.629   0.188  0.00  0.00    -0.002 A 
ATOM      3  C4  UNL d   1       1.953   0.400   1.475  0.00  0.00     0.004 A 
ATOM      4  C5  UNL d   1       1.141  -0.197   2.439  0.00  0.00    -0.004 A 
ATOM      5  C6  UNL d   1      -0.168  -0.575   2.123  0.00  0.00    -0.075 A 
ATOM      6  C7  UNL d   1      -1.056  -1.216   3.150  0.00  0.00     0.076 C 
ATOM      7  C8  UNL d   1      -0.654  -0.339   0.830  0.00  0.00     0.001 A 
ENDROOT
BRANCH   1   8
ATOM      8  C1  UNL d   1      -0.379   0.508  -1.533  0.00  0.00     0.053 C 
ATOM      9  C   UNL d   1       0.531  -0.080  -2.600  0.00  0.00     0.018 C 
ENDBRANCH   1   8
TORSDOF 1
ENDMDL
