MODEL 1
REMARK minimizedAffinity -4.81516361
REMARK minimizedRMSD -1
REMARK  1 active torsions:
REMARK  status: ('A' for Active; 'I' for Inactive)
REMARK    1  A    between atoms: C1_2  and  C2_3 
ROOT
ATOM      1  C2  UNL d   1      -0.885   0.032   1.914  0.00  0.00    -0.073 A 
ATOM      2  C3  UNL d   1      -1.538   0.294   0.704  0.00  0.00    -0.002 A 
ATOM      3  C4  UNL d   1      -0.803   0.611  -0.439  0.00  0.00     0.004 A 
ATOM      4  C5  UNL d   1       0.589   0.661  -0.387  0.00  0.00    -0.004 A 
ATOM      5  C6  UNL d   1       1.261   0.390   0.810  0.00  0.00    -0.075 A 
ATOM      6  C7  UNL d   1       2.759   0.442   0.883  0.00  0.00     0.076 C 
ATOM      7  C8  UNL d   1       0.516   0.076   1.954  0.00  0.00     0.001 A 
ENDROOT
BRANCH   1   8
ATOM      8  C1  UNL d   1      -1.674  -0.317   3.150  0.00  0.00     0.053 C 
ATOM      9  C   UNL d   1      -2.907   0.559   3.304  0.00  0.00     0.018 C 
ENDBRANCH   1   8
TORSDOF 1
ENDMDL
