MODEL 1
REMARK minimizedAffinity -3.31465816
REMARK minimizedRMSD -1
REMARK  1 active torsions:
REMARK  status: ('A' for Active; 'I' for Inactive)
REMARK    1  A    between atoms: C1_2  and  C2_3 
ROOT
ATOM      1  C2  UNL d   1      -0.686  -0.090   0.418  0.00  0.00    -0.073 A 
ATOM      2  C3  UNL d   1      -1.899   0.199  -0.217  0.00  0.00    -0.002 A 
ATOM      3  C4  UNL d   1      -3.052   0.425   0.536  0.00  0.00     0.004 A 
ATOM      4  C5  UNL d   1      -3.003   0.373   1.929  0.00  0.00    -0.004 A 
ATOM      5  C6  UNL d   1      -1.797   0.097   2.582  0.00  0.00    -0.075 A 
ATOM      6  C7  UNL d   1      -1.728   0.034   4.080  0.00  0.00     0.076 C 
ATOM      7  C8  UNL d   1      -0.644  -0.132   1.819  0.00  0.00     0.001 A 
ENDROOT
BRANCH   1   8
ATOM      8  C1  UNL d   1       0.563  -0.330  -0.390  0.00  0.00     0.053 C 
ATOM      9  C   UNL d   1       0.525   0.395  -1.726  0.00  0.00     0.018 C 
ENDBRANCH   1   8
TORSDOF 1
ENDMDL
