MODEL 1
REMARK minimizedAffinity -4.09697771
REMARK minimizedRMSD -1
REMARK  1 active torsions:
REMARK  status: ('A' for Active; 'I' for Inactive)
REMARK    1  A    between atoms: C1_2  and  C2_3 
ROOT
ATOM      1  C2  UNL d   1       0.604   0.203  -2.184  0.00  0.00    -0.073 A 
ATOM      2  C3  UNL d   1      -0.691   0.709  -2.345  0.00  0.00    -0.002 A 
ATOM      3  C4  UNL d   1      -1.494   0.956  -1.231  0.00  0.00     0.004 A 
ATOM      4  C5  UNL d   1      -1.010   0.706   0.053  0.00  0.00    -0.004 A 
ATOM      5  C6  UNL d   1       0.286   0.212   0.235  0.00  0.00    -0.075 A 
ATOM      6  C7  UNL d   1       0.821  -0.063   1.609  0.00  0.00     0.076 C 
ATOM      7  C8  UNL d   1       1.086  -0.036  -0.889  0.00  0.00     0.001 A 
ENDROOT
BRANCH   1   8
ATOM      8  C1  UNL d   1       1.478  -0.059  -3.384  0.00  0.00     0.053 C 
ATOM      9  C   UNL d   1       1.497  -1.531  -3.765  0.00  0.00     0.018 C 
ENDBRANCH   1   8
TORSDOF 1
ENDMDL
