MODEL 1
REMARK minimizedAffinity 2.26515436
REMARK minimizedRMSD -1
REMARK  1 active torsions:
REMARK  status: ('A' for Active; 'I' for Inactive)
REMARK    1  A    between atoms: C1_2  and  C2_3 
ROOT
ATOM      1  C2  UNL d   1      -1.218  -0.536  -0.001  0.00  0.00    -0.073 A 
ATOM      2  C3  UNL d   1      -1.508  -0.034   1.272  0.00  0.00    -0.002 A 
ATOM      3  C4  UNL d   1      -2.161  -0.831   2.213  0.00  0.00     0.004 A 
ATOM      4  C5  UNL d   1      -2.524  -2.140   1.893  0.00  0.00    -0.004 A 
ATOM      5  C6  UNL d   1      -2.232  -2.664   0.630  0.00  0.00    -0.075 A 
ATOM      6  C7  UNL d   1      -2.617  -4.069   0.269  0.00  0.00     0.076 C 
ATOM      7  C8  UNL d   1      -1.578  -1.856  -0.310  0.00  0.00     0.001 A 
ENDROOT
BRANCH   1   8
ATOM      8  C1  UNL d   1      -0.507   0.319  -1.018  0.00  0.00     0.053 C 
ATOM      9  C   UNL d   1       0.972   0.475  -0.699  0.00  0.00     0.018 C 
ENDBRANCH   1   8
TORSDOF 1
ENDMDL
