MODEL 1
REMARK minimizedAffinity -3.73018694
REMARK minimizedRMSD -1
REMARK  1 active torsions:
REMARK  status: ('A' for Active; 'I' for Inactive)
REMARK    1  A    between atoms: C1_2  and  C2_3 
ROOT
ATOM      1  C2  UNL d   1       3.118  -0.697  -3.693  0.00  0.00    -0.073 A 
ATOM      2  C3  UNL d   1       2.650  -1.991  -3.949  0.00  0.00    -0.002 A 
ATOM      3  C4  UNL d   1       1.316  -2.319  -3.703  0.00  0.00     0.004 A 
ATOM      4  C5  UNL d   1       0.436  -1.357  -3.206  0.00  0.00    -0.004 A 
ATOM      5  C6  UNL d   1       0.882  -0.056  -2.956  0.00  0.00    -0.075 A 
ATOM      6  C7  UNL d   1      -0.051   0.990  -2.420  0.00  0.00     0.076 C 
ATOM      7  C8  UNL d   1       2.224   0.266  -3.203  0.00  0.00     0.001 A 
ENDROOT
BRANCH   1   8
ATOM      8  C1  UNL d   1       4.556  -0.336  -3.964  0.00  0.00     0.053 C 
ATOM      9  C   UNL d   1       4.761   1.168  -4.043  0.00  0.00     0.018 C 
ENDBRANCH   1   8
TORSDOF 1
ENDMDL
