MODEL 1
REMARK minimizedAffinity 7.26309299
REMARK minimizedRMSD -1
REMARK  1 active torsions:
REMARK  status: ('A' for Active; 'I' for Inactive)
REMARK    1  A    between atoms: C1_2  and  C2_3 
ROOT
ATOM      1  C2  UNL d   1       3.673   2.631  -5.266  0.00  0.00    -0.076 A 
ATOM      2  C3  UNL d   1       3.495   4.026  -5.274  0.00  0.00     0.004 A 
ATOM      3  C4  UNL d   1       4.538   4.880  -5.630  0.00  0.00    -0.003 A 
ATOM      4  C5  UNL d   1       5.775   4.353  -5.984  0.00  0.00     0.000 A 
ATOM      5  C6  UNL d   1       5.964   2.972  -5.999  0.00  0.00     0.000 A 
ATOM      6  C7  UNL d   1       4.919   2.096  -5.659  0.00  0.00    -0.073 A 
ATOM      7  C8  UNL d   1       5.180   0.615  -5.686  0.00  0.00     0.078 C 
ENDROOT
BRANCH   1   8
ATOM      8  C1  UNL d   1       2.515   1.756  -4.846  0.00  0.00     0.053 C 
ATOM      9  C   UNL d   1       1.745   2.334  -3.668  0.00  0.00     0.018 C 
ENDBRANCH   1   8
TORSDOF 1
ENDMDL
