MODEL 1
REMARK minimizedAffinity 12.1828613
REMARK minimizedRMSD -1
REMARK  1 active torsions:
REMARK  status: ('A' for Active; 'I' for Inactive)
REMARK    1  A    between atoms: C1_2  and  C2_3 
ROOT
ATOM      1  C2  UNL d   1       5.148   0.991  -3.504  0.00  0.00    -0.076 A 
ATOM      2  C3  UNL d   1       4.580   2.274  -3.416  0.00  0.00     0.004 A 
ATOM      3  C4  UNL d   1       4.222   2.816  -2.183  0.00  0.00    -0.003 A 
ATOM      4  C5  UNL d   1       4.426   2.085  -1.018  0.00  0.00     0.000 A 
ATOM      5  C6  UNL d   1       5.004   0.817  -1.085  0.00  0.00     0.000 A 
ATOM      6  C7  UNL d   1       5.386   0.263  -2.319  0.00  0.00    -0.073 A 
ATOM      7  C8  UNL d   1       5.999  -1.111  -2.334  0.00  0.00     0.078 C 
ENDROOT
BRANCH   1   8
ATOM      8  C1  UNL d   1       5.491   0.444  -4.871  0.00  0.00     0.053 C 
ATOM      9  C   UNL d   1       4.941   1.304  -5.998  0.00  0.00     0.018 C 
ENDBRANCH   1   8
TORSDOF 1
ENDMDL
