MODEL 1
REMARK minimizedAffinity -4.59741068
REMARK minimizedRMSD -1
REMARK  1 active torsions:
REMARK  status: ('A' for Active; 'I' for Inactive)
REMARK    1  A    between atoms: C1_2  and  C2_3 
ROOT
ATOM      1  C2  UNL d   1       5.684   1.126  -3.818  0.00  0.00    -0.076 A 
ATOM      2  C3  UNL d   1       5.512   0.992  -5.206  0.00  0.00     0.004 A 
ATOM      3  C4  UNL d   1       5.195   2.093  -6.000  0.00  0.00    -0.003 A 
ATOM      4  C5  UNL d   1       5.045   3.347  -5.417  0.00  0.00     0.000 A 
ATOM      5  C6  UNL d   1       5.229   3.501  -4.043  0.00  0.00     0.000 A 
ATOM      6  C7  UNL d   1       5.565   2.404  -3.232  0.00  0.00    -0.073 A 
ATOM      7  C8  UNL d   1       5.745   2.627  -1.755  0.00  0.00     0.078 C 
ENDROOT
BRANCH   1   8
ATOM      8  C1  UNL d   1       6.000  -0.109  -3.004  0.00  0.00     0.053 C 
ATOM      9  C   UNL d   1       5.687  -1.396  -3.753  0.00  0.00     0.018 C 
ENDBRANCH   1   8
TORSDOF 1
ENDMDL
