MODEL 1
REMARK minimizedAffinity -1.80854285
REMARK minimizedRMSD -1
REMARK  1 active torsions:
REMARK  status: ('A' for Active; 'I' for Inactive)
REMARK    1  A    between atoms: C1_2  and  C2_3 
ROOT
ATOM      1  C2  UNL d   1       5.328   2.048  -4.686  0.00  0.00    -0.076 A 
ATOM      2  C3  UNL d   1       5.666   1.266  -5.805  0.00  0.00     0.004 A 
ATOM      3  C4  UNL d   1       5.999  -0.080  -5.665  0.00  0.00    -0.003 A 
ATOM      4  C5  UNL d   1       6.000  -0.666  -4.404  0.00  0.00     0.000 A 
ATOM      5  C6  UNL d   1       5.650   0.089  -3.286  0.00  0.00     0.000 A 
ATOM      6  C7  UNL d   1       5.296   1.444  -3.411  0.00  0.00    -0.073 A 
ATOM      7  C8  UNL d   1       4.934   2.213  -2.170  0.00  0.00     0.078 C 
ENDROOT
BRANCH   1   8
ATOM      8  C1  UNL d   1       5.002   3.510  -4.896  0.00  0.00     0.053 C 
ATOM      9  C   UNL d   1       3.973   3.725  -5.995  0.00  0.00     0.018 C 
ENDBRANCH   1   8
TORSDOF 1
ENDMDL
