MODEL 1
REMARK minimizedAffinity 9.6510067
REMARK minimizedRMSD -1
REMARK  1 active torsions:
REMARK  status: ('A' for Active; 'I' for Inactive)
REMARK    1  A    between atoms: C1_2  and  C2_3 
ROOT
ATOM      1  C2  UNL d   1      -3.128   3.877  -4.913  0.00  0.00    -0.076 A 
ATOM      2  C3  UNL d   1      -3.167   2.844  -3.961  0.00  0.00     0.004 A 
ATOM      3  C4  UNL d   1      -2.206   2.759  -2.955  0.00  0.00    -0.003 A 
ATOM      4  C5  UNL d   1      -1.191   3.706  -2.885  0.00  0.00     0.000 A 
ATOM      5  C6  UNL d   1      -1.147   4.748  -3.810  0.00  0.00     0.000 A 
ATOM      6  C7  UNL d   1      -2.118   4.858  -4.821  0.00  0.00    -0.073 A 
ATOM      7  C8  UNL d   1      -2.019   5.999  -5.796  0.00  0.00     0.078 C 
ENDROOT
BRANCH   1   8
ATOM      8  C1  UNL d   1      -4.182   3.902  -5.998  0.00  0.00     0.053 C 
ATOM      9  C   UNL d   1      -4.985   5.194  -5.999  0.00  0.00     0.018 C 
ENDBRANCH   1   8
TORSDOF 1
ENDMDL
