MODEL 1
REMARK minimizedAffinity 7.55641174
REMARK minimizedRMSD -1
REMARK  1 active torsions:
REMARK  status: ('A' for Active; 'I' for Inactive)
REMARK    1  A    between atoms: C1_2  and  C2_3 
ROOT
ATOM      1  C2  UNL d   1      -1.218   2.481   2.236  0.00  0.00    -0.076 A 
ATOM      2  C3  UNL d   1      -2.310   3.232   1.767  0.00  0.00     0.004 A 
ATOM      3  C4  UNL d   1      -2.304   3.785   0.487  0.00  0.00    -0.003 A 
ATOM      4  C5  UNL d   1      -1.205   3.595  -0.344  0.00  0.00     0.000 A 
ATOM      5  C6  UNL d   1      -0.121   2.839   0.099  0.00  0.00     0.000 A 
ATOM      6  C7  UNL d   1      -0.118   2.261   1.380  0.00  0.00    -0.073 A 
ATOM      7  C8  UNL d   1       1.080   1.459   1.808  0.00  0.00     0.078 C 
ENDROOT
BRANCH   1   8
ATOM      8  C1  UNL d   1      -1.270   1.929   3.643  0.00  0.00     0.053 C 
ATOM      9  C   UNL d   1      -2.344   0.865   3.811  0.00  0.00     0.018 C 
ENDBRANCH   1   8
TORSDOF 1
ENDMDL
