MODEL 1
REMARK minimizedAffinity 4.05075359
REMARK minimizedRMSD -1
REMARK  1 active torsions:
REMARK  status: ('A' for Active; 'I' for Inactive)
REMARK    1  A    between atoms: C1_2  and  C2_3 
ROOT
ATOM      1  C2  UNL d   1       1.392  -5.293  -3.639  0.00  0.00    -0.076 A 
ATOM      2  C3  UNL d   1       2.770  -5.018  -3.660  0.00  0.00     0.004 A 
ATOM      3  C4  UNL d   1       3.516  -5.175  -4.827  0.00  0.00    -0.003 A 
ATOM      4  C5  UNL d   1       2.894  -5.608  -5.993  0.00  0.00     0.000 A 
ATOM      5  C6  UNL d   1       1.524  -5.867  -5.996  0.00  0.00     0.000 A 
ATOM      6  C7  UNL d   1       0.755  -5.699  -4.832  0.00  0.00    -0.073 A 
ATOM      7  C8  UNL d   1      -0.717  -6.000  -4.890  0.00  0.00     0.078 C 
ENDROOT
BRANCH   1   8
ATOM      8  C1  UNL d   1       0.640  -5.131  -2.337  0.00  0.00     0.053 C 
ATOM      9  C   UNL d   1      -0.430  -4.052  -2.412  0.00  0.00     0.018 C 
ENDBRANCH   1   8
TORSDOF 1
ENDMDL
