MODEL 1
REMARK minimizedAffinity 16.3423939
REMARK minimizedRMSD -1
REMARK  1 active torsions:
REMARK  status: ('A' for Active; 'I' for Inactive)
REMARK    1  A    between atoms: C1_2  and  C2_3 
ROOT
ATOM      1  C2  UNL d   1      -0.678   1.459   1.594  0.00  0.00    -0.076 A 
ATOM      2  C3  UNL d   1       0.597   0.866   1.580  0.00  0.00     0.004 A 
ATOM      3  C4  UNL d   1       1.710   1.569   1.121  0.00  0.00    -0.003 A 
ATOM      4  C5  UNL d   1       1.566   2.876   0.669  0.00  0.00     0.000 A 
ATOM      5  C6  UNL d   1       0.312   3.485   0.692  0.00  0.00     0.000 A 
ATOM      6  C7  UNL d   1      -0.817   2.797   1.167  0.00  0.00    -0.073 A 
ATOM      7  C8  UNL d   1      -2.146   3.501   1.163  0.00  0.00     0.078 C 
ENDROOT
BRANCH   1   8
ATOM      8  C1  UNL d   1      -1.853   0.639   2.077  0.00  0.00     0.053 C 
ATOM      9  C   UNL d   1      -1.645  -0.854   1.873  0.00  0.00     0.018 C 
ENDBRANCH   1   8
TORSDOF 1
ENDMDL
