MODEL 1
REMARK minimizedAffinity 10.5789013
REMARK minimizedRMSD -1
REMARK  1 active torsions:
REMARK  status: ('A' for Active; 'I' for Inactive)
REMARK    1  A    between atoms: C1_2  and  C2_3 
ROOT
ATOM      1  C2  UNL d   1      -1.421  -2.415   0.696  0.00  0.00    -0.076 A 
ATOM      2  C3  UNL d   1      -2.151  -3.437   0.063  0.00  0.00     0.004 A 
ATOM      3  C4  UNL d   1      -1.805  -3.882  -1.211  0.00  0.00    -0.003 A 
ATOM      4  C5  UNL d   1      -0.723  -3.313  -1.874  0.00  0.00     0.000 A 
ATOM      5  C6  UNL d   1       0.023  -2.311  -1.254  0.00  0.00     0.000 A 
ATOM      6  C7  UNL d   1      -0.303  -1.862   0.037  0.00  0.00    -0.073 A 
ATOM      7  C8  UNL d   1       0.532  -0.774   0.655  0.00  0.00     0.078 C 
ENDROOT
BRANCH   1   8
ATOM      8  C1  UNL d   1      -1.860  -1.955   2.068  0.00  0.00     0.053 C 
ATOM      9  C   UNL d   1      -2.018  -3.108   3.047  0.00  0.00     0.018 C 
ENDBRANCH   1   8
TORSDOF 1
ENDMDL
