MODEL 1
REMARK minimizedAffinity 6.95604372
REMARK minimizedRMSD -1
REMARK  1 active torsions:
REMARK  status: ('A' for Active; 'I' for Inactive)
REMARK    1  A    between atoms: C1_2  and  C2_3 
ROOT
ATOM      1  C2  UNL d   1       0.397   2.522   1.553  0.00  0.00    -0.076 A 
ATOM      2  C3  UNL d   1       0.103   1.682   2.642  0.00  0.00     0.004 A 
ATOM      3  C4  UNL d   1      -1.210   1.489   3.066  0.00  0.00    -0.003 A 
ATOM      4  C5  UNL d   1      -2.252   2.133   2.408  0.00  0.00     0.000 A 
ATOM      5  C6  UNL d   1      -1.982   2.955   1.315  0.00  0.00     0.000 A 
ATOM      6  C7  UNL d   1      -0.664   3.147   0.864  0.00  0.00    -0.073 A 
ATOM      7  C8  UNL d   1      -0.429   4.050  -0.316  0.00  0.00     0.078 C 
ENDROOT
BRANCH   1   8
ATOM      8  C1  UNL d   1       1.843   2.714   1.156  0.00  0.00     0.053 C 
ATOM      9  C   UNL d   1       2.804   1.986   2.084  0.00  0.00     0.018 C 
ENDBRANCH   1   8
TORSDOF 1
ENDMDL
