MODEL 1
REMARK minimizedAffinity 6.37466192
REMARK minimizedRMSD -1
REMARK  1 active torsions:
REMARK  status: ('A' for Active; 'I' for Inactive)
REMARK    1  A    between atoms: C1_2  and  C2_3 
ROOT
ATOM      1  C2  UNL d   1      -3.774   3.843  -4.360  0.00  0.00    -0.076 A 
ATOM      2  C3  UNL d   1      -3.073   4.719  -5.207  0.00  0.00     0.004 A 
ATOM      3  C4  UNL d   1      -3.749   5.645  -6.000  0.00  0.00    -0.003 A 
ATOM      4  C5  UNL d   1      -5.138   5.710  -5.958  0.00  0.00     0.000 A 
ATOM      5  C6  UNL d   1      -5.848   4.860  -5.110  0.00  0.00     0.000 A 
ATOM      6  C7  UNL d   1      -5.181   3.933  -4.292  0.00  0.00    -0.073 A 
ATOM      7  C8  UNL d   1      -5.997   3.037  -3.402  0.00  0.00     0.078 C 
ENDROOT
BRANCH   1   8
ATOM      8  C1  UNL d   1      -2.988   2.842  -3.544  0.00  0.00     0.053 C 
ATOM      9  C   UNL d   1      -1.530   2.758  -3.970  0.00  0.00     0.018 C 
ENDBRANCH   1   8
TORSDOF 1
ENDMDL
