MODEL 1
REMARK minimizedAffinity 11.6079235
REMARK minimizedRMSD -1
REMARK  1 active torsions:
REMARK  status: ('A' for Active; 'I' for Inactive)
REMARK    1  A    between atoms: C1_2  and  C2_3 
ROOT
ATOM      1  C2  UNL d   1      -0.066  -1.320   0.331  0.00  0.00    -0.076 A 
ATOM      2  C3  UNL d   1       0.294  -1.607  -0.997  0.00  0.00     0.004 A 
ATOM      3  C4  UNL d   1      -0.340  -2.625  -1.708  0.00  0.00    -0.003 A 
ATOM      4  C5  UNL d   1      -1.345  -3.371  -1.102  0.00  0.00     0.000 A 
ATOM      5  C6  UNL d   1      -1.727  -3.088   0.209  0.00  0.00     0.000 A 
ATOM      6  C7  UNL d   1      -1.109  -2.055   0.934  0.00  0.00    -0.073 A 
ATOM      7  C8  UNL d   1      -1.557  -1.797   2.347  0.00  0.00     0.078 C 
ENDROOT
BRANCH   1   8
ATOM      8  C1  UNL d   1       0.675  -0.223   1.061  0.00  0.00     0.053 C 
ATOM      9  C   UNL d   1       0.972   0.973   0.169  0.00  0.00     0.018 C 
ENDBRANCH   1   8
TORSDOF 1
ENDMDL
