MODEL 1
REMARK minimizedAffinity 9.59533978
REMARK minimizedRMSD -1
REMARK  1 active torsions:
REMARK  status: ('A' for Active; 'I' for Inactive)
REMARK    1  A    between atoms: C1_2  and  C2_3 
ROOT
ATOM      1  C2  UNL d   1      -0.437  -1.343   0.231  0.00  0.00    -0.076 A 
ATOM      2  C3  UNL d   1      -0.122  -1.333  -1.139  0.00  0.00     0.004 A 
ATOM      3  C4  UNL d   1      -0.511  -2.380  -1.972  0.00  0.00    -0.003 A 
ATOM      4  C5  UNL d   1      -1.224  -3.454  -1.450  0.00  0.00     0.000 A 
ATOM      5  C6  UNL d   1      -1.561  -3.471  -0.097  0.00  0.00     0.000 A 
ATOM      6  C7  UNL d   1      -1.190  -2.416   0.754  0.00  0.00    -0.073 A 
ATOM      7  C8  UNL d   1      -1.575  -2.490   2.206  0.00  0.00     0.078 C 
ENDROOT
BRANCH   1   8
ATOM      8  C1  UNL d   1       0.036  -0.193   1.091  0.00  0.00     0.053 C 
ATOM      9  C   UNL d   1       0.963   0.752   0.343  0.00  0.00     0.018 C 
ENDBRANCH   1   8
TORSDOF 1
ENDMDL
