MODEL 1
REMARK minimizedAffinity 8.29130077
REMARK minimizedRMSD -1
REMARK  1 active torsions:
REMARK  status: ('A' for Active; 'I' for Inactive)
REMARK    1  A    between atoms: C1_2  and  C2_3 
ROOT
ATOM      1  C2  UNL d   1      -3.440   3.385  -2.147  0.00  0.00    -0.076 A 
ATOM      2  C3  UNL d   1      -4.640   2.653  -2.170  0.00  0.00     0.004 A 
ATOM      3  C4  UNL d   1      -5.374   2.441  -1.005  0.00  0.00    -0.003 A 
ATOM      4  C5  UNL d   1      -4.921   2.959   0.204  0.00  0.00     0.000 A 
ATOM      5  C6  UNL d   1      -3.742   3.703   0.243  0.00  0.00     0.000 A 
ATOM      6  C7  UNL d   1      -2.998   3.939  -0.926  0.00  0.00    -0.073 A 
ATOM      7  C8  UNL d   1      -1.731   4.743  -0.825  0.00  0.00     0.078 C 
ENDROOT
BRANCH   1   8
ATOM      8  C1  UNL d   1      -2.672   3.559  -3.437  0.00  0.00     0.053 C 
ATOM      9  C   UNL d   1      -3.550   4.059  -4.575  0.00  0.00     0.018 C 
ENDBRANCH   1   8
TORSDOF 1
ENDMDL
