MODEL 1
REMARK minimizedAffinity -2.79128909
REMARK minimizedRMSD -1
REMARK  0 active torsions:
REMARK  status: ('A' for Active; 'I' for Inactive)
ROOT
ATOM      1  C   UNL d   1       0.510  -1.816  -3.663  0.00  0.00     0.078 C 
ATOM      2  C1  UNL d   1       0.356  -1.208  -2.301  0.00  0.00    -0.077 A 
ATOM      3  C2  UNL d   1       0.116   0.163  -2.146  0.00  0.00    -0.001 A 
ATOM      4  C3  UNL d   1      -0.015   0.717  -0.872  0.00  0.00     0.003 A 
ATOM      5  C4  UNL d   1       0.093  -0.092   0.257  0.00  0.00    -0.005 A 
ATOM      6  C5  UNL d   1       0.334  -1.456   0.113  0.00  0.00     0.003 A 
ATOM      7  C6  UNL d   1       0.466  -2.013  -1.160  0.00  0.00    -0.001 A 
ENDROOT
TORSDOF 0
ENDMDL
