MODEL 1
REMARK minimizedAffinity -2.46379328
REMARK minimizedRMSD -1
REMARK  0 active torsions:
REMARK  status: ('A' for Active; 'I' for Inactive)
ROOT
ATOM      1  C   UNL d   1       0.046   0.532  -1.567  0.00  0.00     0.078 C 
ATOM      2  C1  UNL d   1      -0.154   0.260  -0.106  0.00  0.00    -0.077 A 
ATOM      3  C2  UNL d   1      -1.371  -0.240   0.374  0.00  0.00    -0.001 A 
ATOM      4  C3  UNL d   1      -1.547  -0.479   1.737  0.00  0.00     0.003 A 
ATOM      5  C4  UNL d   1      -0.511  -0.220   2.633  0.00  0.00    -0.005 A 
ATOM      6  C5  UNL d   1       0.702   0.279   2.165  0.00  0.00     0.003 A 
ATOM      7  C6  UNL d   1       0.880   0.520   0.801  0.00  0.00    -0.001 A 
ENDROOT
TORSDOF 0
ENDMDL
