MODEL 1
REMARK minimizedAffinity -2.93165493
REMARK minimizedRMSD -1
REMARK  0 active torsions:
REMARK  status: ('A' for Active; 'I' for Inactive)
ROOT
ATOM      1  C   UNL d   1       0.310   0.231  -1.689  0.00  0.00     0.078 C 
ATOM      2  C1  UNL d   1       0.217   0.050  -0.203  0.00  0.00    -0.077 A 
ATOM      3  C2  UNL d   1      -0.999  -0.275   0.410  0.00  0.00    -0.001 A 
ATOM      4  C3  UNL d   1      -1.072  -0.431   1.795  0.00  0.00     0.003 A 
ATOM      5  C4  UNL d   1       0.067  -0.262   2.579  0.00  0.00    -0.005 A 
ATOM      6  C5  UNL d   1       1.281   0.063   1.979  0.00  0.00     0.003 A 
ATOM      7  C6  UNL d   1       1.357   0.220   0.594  0.00  0.00    -0.001 A 
ENDROOT
TORSDOF 0
ENDMDL
