MODEL 1
REMARK minimizedAffinity -3.80807495
REMARK minimizedRMSD -1
REMARK  0 active torsions:
REMARK  status: ('A' for Active; 'I' for Inactive)
ROOT
ATOM      1  C   UNL d   1      -0.383   0.733  -1.489  0.00  0.00     0.078 C 
ATOM      2  C1  UNL d   1      -0.378   0.276  -0.061  0.00  0.00    -0.077 A 
ATOM      3  C2  UNL d   1       0.758   0.435   0.743  0.00  0.00    -0.001 A 
ATOM      4  C3  UNL d   1       0.753  -0.004   2.068  0.00  0.00     0.003 A 
ATOM      5  C4  UNL d   1      -0.386  -0.605   2.601  0.00  0.00    -0.005 A 
ATOM      6  C5  UNL d   1      -1.520  -0.770   1.809  0.00  0.00     0.003 A 
ATOM      7  C6  UNL d   1      -1.516  -0.332   0.483  0.00  0.00    -0.001 A 
ENDROOT
TORSDOF 0
ENDMDL
