MODEL 1
REMARK minimizedAffinity -4.12015295
REMARK minimizedRMSD -1
REMARK  0 active torsions:
REMARK  status: ('A' for Active; 'I' for Inactive)
ROOT
ATOM      1  C   UNL d   1      -0.195   0.439  -1.440  0.00  0.00     0.078 C 
ATOM      2  C1  UNL d   1      -0.384   0.057  -0.002  0.00  0.00    -0.077 A 
ATOM      3  C2  UNL d   1      -1.544  -0.602   0.423  0.00  0.00    -0.001 A 
ATOM      4  C3  UNL d   1      -1.710  -0.943   1.766  0.00  0.00     0.003 A 
ATOM      5  C4  UNL d   1      -0.721  -0.629   2.695  0.00  0.00    -0.005 A 
ATOM      6  C5  UNL d   1       0.436   0.029   2.282  0.00  0.00     0.003 A 
ATOM      7  C6  UNL d   1       0.604   0.371   0.940  0.00  0.00    -0.001 A 
ENDROOT
TORSDOF 0
ENDMDL
