MODEL 1
REMARK minimizedAffinity -3.14596939
REMARK minimizedRMSD -1
REMARK  0 active torsions:
REMARK  status: ('A' for Active; 'I' for Inactive)
ROOT
ATOM      1  C   UNL d   1       0.885   0.396  -2.375  0.00  0.00     0.078 C 
ATOM      2  C1  UNL d   1      -0.038  -0.006  -1.263  0.00  0.00    -0.077 A 
ATOM      3  C2  UNL d   1      -1.360   0.452  -1.222  0.00  0.00    -0.001 A 
ATOM      4  C3  UNL d   1      -2.206   0.078  -0.177  0.00  0.00     0.003 A 
ATOM      5  C4  UNL d   1      -1.738  -0.756   0.837  0.00  0.00    -0.005 A 
ATOM      6  C5  UNL d   1      -0.423  -1.216   0.806  0.00  0.00     0.003 A 
ATOM      7  C6  UNL d   1       0.424  -0.842  -0.239  0.00  0.00    -0.001 A 
ENDROOT
TORSDOF 0
ENDMDL
