MODEL 1
REMARK minimizedAffinity 0.680524409
REMARK minimizedRMSD -1
REMARK  0 active torsions:
REMARK  status: ('A' for Active; 'I' for Inactive)
ROOT
ATOM      1  C   UNL d   1       1.313  -0.617  -2.811  0.00  0.00     0.078 C 
ATOM      2  C1  UNL d   1       0.375  -0.571  -1.641  0.00  0.00    -0.077 A 
ATOM      3  C2  UNL d   1      -0.418   0.557  -1.398  0.00  0.00    -0.001 A 
ATOM      4  C3  UNL d   1      -1.280   0.590  -0.300  0.00  0.00     0.003 A 
ATOM      5  C4  UNL d   1      -1.355  -0.501   0.564  0.00  0.00    -0.005 A 
ATOM      6  C5  UNL d   1      -0.567  -1.626   0.331  0.00  0.00     0.003 A 
ATOM      7  C6  UNL d   1       0.295  -1.662  -0.767  0.00  0.00    -0.001 A 
ENDROOT
TORSDOF 0
ENDMDL
