MODEL 1
REMARK minimizedAffinity -4.46006298
REMARK minimizedRMSD -1
REMARK  0 active torsions:
REMARK  status: ('A' for Active; 'I' for Inactive)
ROOT
ATOM      1  C   UNL d   1      -0.356  -1.132   2.852  0.00  0.00     0.078 C 
ATOM      2  C1  UNL d   1      -0.121  -0.422   1.552  0.00  0.00    -0.077 A 
ATOM      3  C2  UNL d   1       1.175  -0.101   1.129  0.00  0.00    -0.001 A 
ATOM      4  C3  UNL d   1       1.377   0.569  -0.078  0.00  0.00     0.003 A 
ATOM      5  C4  UNL d   1       0.289   0.926  -0.872  0.00  0.00    -0.005 A 
ATOM      6  C5  UNL d   1      -1.004   0.613  -0.458  0.00  0.00     0.003 A 
ATOM      7  C6  UNL d   1      -1.209  -0.058   0.749  0.00  0.00    -0.001 A 
ENDROOT
TORSDOF 0
ENDMDL
