MODEL 1
REMARK minimizedAffinity -4.5825758
REMARK minimizedRMSD -1
REMARK  0 active torsions:
REMARK  status: ('A' for Active; 'I' for Inactive)
ROOT
ATOM      1  C   UNL d   1      -1.160  -1.084   2.681  0.00  0.00     0.078 C 
ATOM      2  C1  UNL d   1      -1.058  -0.336   1.386  0.00  0.00    -0.077 A 
ATOM      3  C2  UNL d   1      -2.199  -0.054   0.624  0.00  0.00    -0.001 A 
ATOM      4  C3  UNL d   1      -2.088   0.634  -0.585  0.00  0.00     0.003 A 
ATOM      5  C4  UNL d   1      -0.838   1.046  -1.043  0.00  0.00    -0.005 A 
ATOM      6  C5  UNL d   1       0.303   0.768  -0.293  0.00  0.00     0.003 A 
ATOM      7  C6  UNL d   1       0.194   0.079   0.916  0.00  0.00    -0.001 A 
ENDROOT
TORSDOF 0
ENDMDL
