MODEL 1
REMARK minimizedAffinity -4.93654728
REMARK minimizedRMSD -1
REMARK  0 active torsions:
REMARK  status: ('A' for Active; 'I' for Inactive)
ROOT
ATOM      1  C   UNL d   1      -0.742  -1.384   2.294  0.00  0.00     0.078 C 
ATOM      2  C1  UNL d   1      -0.450  -0.515   1.107  0.00  0.00    -0.077 A 
ATOM      3  C2  UNL d   1       0.801   0.094   0.950  0.00  0.00    -0.001 A 
ATOM      4  C3  UNL d   1       1.056   0.909  -0.155  0.00  0.00     0.003 A 
ATOM      5  C4  UNL d   1       0.064   1.123  -1.110  0.00  0.00    -0.005 A 
ATOM      6  C5  UNL d   1      -1.185   0.523  -0.960  0.00  0.00     0.003 A 
ATOM      7  C6  UNL d   1      -1.441  -0.292   0.144  0.00  0.00    -0.001 A 
ENDROOT
TORSDOF 0
ENDMDL
