MODEL 1
REMARK minimizedAffinity -1.1762749
REMARK minimizedRMSD -1
REMARK  0 active torsions:
REMARK  status: ('A' for Active; 'I' for Inactive)
ROOT
ATOM      1  C   UNL d   1       0.358  -0.390  -2.701  0.00  0.00     0.078 C 
ATOM      2  C1  UNL d   1       0.187  -0.330  -1.212  0.00  0.00    -0.077 A 
ATOM      3  C2  UNL d   1       1.272  -0.052  -0.372  0.00  0.00    -0.001 A 
ATOM      4  C3  UNL d   1       1.100  -0.008   1.012  0.00  0.00     0.003 A 
ATOM      5  C4  UNL d   1      -0.156  -0.242   1.569  0.00  0.00    -0.005 A 
ATOM      6  C5  UNL d   1      -1.241  -0.522   0.741  0.00  0.00     0.003 A 
ATOM      7  C6  UNL d   1      -1.071  -0.566  -0.643  0.00  0.00    -0.001 A 
ENDROOT
TORSDOF 0
ENDMDL
