MODEL 1
REMARK minimizedAffinity -5.54359865
REMARK minimizedRMSD -1
REMARK  0 active torsions:
REMARK  status: ('A' for Active; 'I' for Inactive)
ROOT
ATOM      1  C   UNL d   1      -2.973   2.391   2.908  0.00  0.00     0.078 C 
ATOM      2  C1  UNL d   1      -2.287   1.073   2.700  0.00  0.00    -0.077 A 
ATOM      3  C2  UNL d   1      -1.033   0.816   3.267  0.00  0.00    -0.001 A 
ATOM      4  C3  UNL d   1      -0.402  -0.411   3.057  0.00  0.00     0.003 A 
ATOM      5  C4  UNL d   1      -1.017  -1.391   2.280  0.00  0.00    -0.005 A 
ATOM      6  C5  UNL d   1      -2.265  -1.143   1.711  0.00  0.00     0.003 A 
ATOM      7  C6  UNL d   1      -2.897   0.084   1.919  0.00  0.00    -0.001 A 
ENDROOT
TORSDOF 0
ENDMDL
