MODEL 1
REMARK minimizedAffinity -6.09418201
REMARK minimizedRMSD -1
REMARK  0 active torsions:
REMARK  status: ('A' for Active; 'I' for Inactive)
ROOT
ATOM      1  C   UNL d   1      -2.803  -0.077   0.378  0.00  0.00     0.078 C 
ATOM      2  C1  UNL d   1      -1.366  -0.104   0.806  0.00  0.00    -0.077 A 
ATOM      3  C2  UNL d   1      -1.002  -0.552   2.082  0.00  0.00    -0.001 A 
ATOM      4  C3  UNL d   1       0.338  -0.562   2.471  0.00  0.00     0.003 A 
ATOM      5  C4  UNL d   1       1.326  -0.125   1.590  0.00  0.00    -0.005 A 
ATOM      6  C5  UNL d   1       0.973   0.325   0.320  0.00  0.00     0.003 A 
ATOM      7  C6  UNL d   1      -0.367   0.337  -0.071  0.00  0.00    -0.001 A 
ENDROOT
TORSDOF 0
ENDMDL
