MODEL 1
REMARK minimizedAffinity -4.20588732
REMARK minimizedRMSD -1
REMARK  0 active torsions:
REMARK  status: ('A' for Active; 'I' for Inactive)
ROOT
ATOM      1  C   UNL d   1      -0.012  -0.062   3.118  0.00  0.00     0.078 C 
ATOM      2  C1  UNL d   1      -0.239   0.120   1.647  0.00  0.00    -0.077 A 
ATOM      3  C2  UNL d   1       0.838   0.176   0.753  0.00  0.00    -0.001 A 
ATOM      4  C3  UNL d   1       0.612   0.356  -0.612  0.00  0.00     0.003 A 
ATOM      5  C4  UNL d   1      -0.688   0.482  -1.096  0.00  0.00    -0.005 A 
ATOM      6  C5  UNL d   1      -1.766   0.429  -0.214  0.00  0.00     0.003 A 
ATOM      7  C6  UNL d   1      -1.542   0.250   1.152  0.00  0.00    -0.001 A 
ENDROOT
TORSDOF 0
ENDMDL
