MODEL 1
REMARK minimizedAffinity 3.71725535
REMARK minimizedRMSD -1
REMARK  0 active torsions:
REMARK  status: ('A' for Active; 'I' for Inactive)
ROOT
ATOM      1  C   UNL d   1       0.889  -0.712  -0.633  0.00  0.00     0.078 C 
ATOM      2  C1  UNL d   1      -0.166  -0.543   0.419  0.00  0.00    -0.077 A 
ATOM      3  C2  UNL d   1      -1.475  -0.182   0.076  0.00  0.00    -0.001 A 
ATOM      4  C3  UNL d   1      -2.445  -0.019   1.067  0.00  0.00     0.003 A 
ATOM      5  C4  UNL d   1      -2.116  -0.214   2.407  0.00  0.00    -0.005 A 
ATOM      6  C5  UNL d   1      -0.816  -0.571   2.758  0.00  0.00     0.003 A 
ATOM      7  C6  UNL d   1       0.156  -0.735   1.768  0.00  0.00    -0.001 A 
ENDROOT
TORSDOF 0
ENDMDL
