MODEL 1
REMARK minimizedAffinity 1.27567458
REMARK minimizedRMSD -1
REMARK  0 active torsions:
REMARK  status: ('A' for Active; 'I' for Inactive)
ROOT
ATOM      1  C   UNL d   1      -1.796  -3.058   3.895  0.00  0.00     0.078 C 
ATOM      2  C1  UNL d   1      -0.778  -2.577   2.905  0.00  0.00    -0.077 A 
ATOM      3  C2  UNL d   1      -1.022  -1.451   2.109  0.00  0.00    -0.001 A 
ATOM      4  C3  UNL d   1      -0.069  -1.020   1.184  0.00  0.00     0.003 A 
ATOM      5  C4  UNL d   1       1.133  -1.710   1.046  0.00  0.00    -0.005 A 
ATOM      6  C5  UNL d   1       1.384  -2.833   1.831  0.00  0.00     0.003 A 
ATOM      7  C6  UNL d   1       0.433  -3.266   2.756  0.00  0.00    -0.001 A 
ENDROOT
TORSDOF 0
ENDMDL
