MODEL 1
REMARK minimizedAffinity 0.495393544
REMARK minimizedRMSD -1
REMARK  0 active torsions:
REMARK  status: ('A' for Active; 'I' for Inactive)
ROOT
ATOM      1  C   UNL d   1       3.818   5.855   5.980  0.00  0.00     0.078 C 
ATOM      2  C1  UNL d   1       2.494   5.226   5.661  0.00  0.00    -0.077 A 
ATOM      3  C2  UNL d   1       2.264   3.866   5.904  0.00  0.00    -0.001 A 
ATOM      4  C3  UNL d   1       1.030   3.292   5.593  0.00  0.00     0.003 A 
ATOM      5  C4  UNL d   1       0.017   4.070   5.037  0.00  0.00    -0.005 A 
ATOM      6  C5  UNL d   1       0.237   5.424   4.790  0.00  0.00     0.003 A 
ATOM      7  C6  UNL d   1       1.470   6.000   5.100  0.00  0.00    -0.001 A 
ENDROOT
TORSDOF 0
ENDMDL
