MODEL 1
REMARK minimizedAffinity 0.711851597
REMARK minimizedRMSD -1
REMARK  0 active torsions:
REMARK  status: ('A' for Active; 'I' for Inactive)
ROOT
ATOM      1  C   UNL d   1       4.940  -5.982   1.490  0.00  0.00     0.078 C 
ATOM      2  C1  UNL d   1       3.589  -5.394   1.765  0.00  0.00    -0.077 A 
ATOM      3  C2  UNL d   1       3.071  -4.369   0.963  0.00  0.00    -0.001 A 
ATOM      4  C3  UNL d   1       1.816  -3.824   1.236  0.00  0.00     0.003 A 
ATOM      5  C4  UNL d   1       1.067  -4.297   2.312  0.00  0.00    -0.005 A 
ATOM      6  C5  UNL d   1       1.575  -5.315   3.117  0.00  0.00     0.003 A 
ATOM      7  C6  UNL d   1       2.830  -5.861   2.845  0.00  0.00    -0.001 A 
ENDROOT
TORSDOF 0
ENDMDL
