MODEL 1
REMARK minimizedAffinity 3.15706468
REMARK minimizedRMSD -1
REMARK  0 active torsions:
REMARK  status: ('A' for Active; 'I' for Inactive)
ROOT
ATOM      1  C   UNL d   1      -4.533   2.977  -3.755  0.00  0.00     0.078 C 
ATOM      2  C1  UNL d   1      -4.669   1.633  -4.406  0.00  0.00    -0.077 A 
ATOM      3  C2  UNL d   1      -5.692   0.752  -4.034  0.00  0.00    -0.001 A 
ATOM      4  C3  UNL d   1      -5.801  -0.500  -4.642  0.00  0.00     0.003 A 
ATOM      5  C4  UNL d   1      -4.890  -0.883  -5.624  0.00  0.00    -0.005 A 
ATOM      6  C5  UNL d   1      -3.868  -0.013  -6.000  0.00  0.00     0.003 A 
ATOM      7  C6  UNL d   1      -3.757   1.239  -5.393  0.00  0.00    -0.001 A 
ENDROOT
TORSDOF 0
ENDMDL
