MODEL 1
REMARK minimizedAffinity -3.49536538
REMARK minimizedRMSD -1
REMARK  0 active torsions:
REMARK  status: ('A' for Active; 'I' for Inactive)
ROOT
ATOM      1  C   UNL d   1       2.251  -4.124   1.599  0.00  0.00     0.078 C 
ATOM      2  C1  UNL d   1       1.008  -3.645   2.286  0.00  0.00    -0.077 A 
ATOM      3  C2  UNL d   1       0.002  -4.543   2.664  0.00  0.00    -0.001 A 
ATOM      4  C3  UNL d   1      -1.155  -4.082   3.295  0.00  0.00     0.003 A 
ATOM      5  C4  UNL d   1      -1.317  -2.723   3.552  0.00  0.00    -0.005 A 
ATOM      6  C5  UNL d   1      -0.323  -1.821   3.178  0.00  0.00     0.003 A 
ATOM      7  C6  UNL d   1       0.835  -2.280   2.547  0.00  0.00    -0.001 A 
ENDROOT
TORSDOF 0
ENDMDL
