MODEL 1
REMARK minimizedAffinity -3.34150267
REMARK minimizedRMSD -1
REMARK  0 active torsions:
REMARK  status: ('A' for Active; 'I' for Inactive)
ROOT
ATOM      1  C   UNL d   1       2.299  -4.501   2.081  0.00  0.00     0.078 C 
ATOM      2  C1  UNL d   1       1.032  -3.937   2.652  0.00  0.00    -0.077 A 
ATOM      3  C2  UNL d   1       0.862  -2.555   2.803  0.00  0.00    -0.001 A 
ATOM      4  C3  UNL d   1      -0.319  -2.045   3.345  0.00  0.00     0.003 A 
ATOM      5  C4  UNL d   1      -1.338  -2.909   3.741  0.00  0.00    -0.005 A 
ATOM      6  C5  UNL d   1      -1.177  -4.285   3.597  0.00  0.00     0.003 A 
ATOM      7  C6  UNL d   1       0.003  -4.797   3.055  0.00  0.00    -0.001 A 
ENDROOT
TORSDOF 0
ENDMDL
