MODEL 1
REMARK minimizedAffinity -2.46668005
REMARK minimizedRMSD -1
REMARK  0 active torsions:
REMARK  status: ('A' for Active; 'I' for Inactive)
ROOT
ATOM      1  C   UNL d   1       2.451  -3.720   2.095  0.00  0.00     0.078 C 
ATOM      2  C1  UNL d   1       1.470  -2.631   1.778  0.00  0.00    -0.077 A 
ATOM      3  C2  UNL d   1       1.434  -2.039   0.510  0.00  0.00    -0.001 A 
ATOM      4  C3  UNL d   1       0.522  -1.020   0.232  0.00  0.00     0.003 A 
ATOM      5  C4  UNL d   1      -0.360  -0.582   1.217  0.00  0.00    -0.005 A 
ATOM      6  C5  UNL d   1      -0.331  -1.163   2.483  0.00  0.00     0.003 A 
ATOM      7  C6  UNL d   1       0.581  -2.183   2.763  0.00  0.00    -0.001 A 
ENDROOT
TORSDOF 0
ENDMDL
