MODEL 1
REMARK minimizedAffinity 1.66867292
REMARK minimizedRMSD -1
REMARK  0 active torsions:
REMARK  status: ('A' for Active; 'I' for Inactive)
ROOT
ATOM      1  C   UNL d   1      -0.752   0.114   0.369  0.00  0.00     0.078 C 
ATOM      2  C1  UNL d   1       0.064  -1.042   0.867  0.00  0.00    -0.077 A 
ATOM      3  C2  UNL d   1       1.061  -1.617   0.069  0.00  0.00    -0.001 A 
ATOM      4  C3  UNL d   1       1.806  -2.699   0.541  0.00  0.00     0.003 A 
ATOM      5  C4  UNL d   1       1.561  -3.216   1.812  0.00  0.00    -0.005 A 
ATOM      6  C5  UNL d   1       0.569  -2.652   2.612  0.00  0.00     0.003 A 
ATOM      7  C6  UNL d   1      -0.177  -1.570   2.141  0.00  0.00    -0.001 A 
ENDROOT
TORSDOF 0
ENDMDL
