MODEL 1
REMARK minimizedAffinity 0.320799083
REMARK minimizedRMSD -1
REMARK  0 active torsions:
REMARK  status: ('A' for Active; 'I' for Inactive)
ROOT
ATOM      1  C   UNL d   1      -0.801  -2.492   3.071  0.00  0.00     0.078 C 
ATOM      2  C1  UNL d   1      -1.048  -1.371   2.107  0.00  0.00    -0.077 A 
ATOM      3  C2  UNL d   1       0.012  -0.611   1.597  0.00  0.00    -0.001 A 
ATOM      4  C3  UNL d   1      -0.234   0.436   0.708  0.00  0.00     0.003 A 
ATOM      5  C4  UNL d   1      -1.539   0.735   0.322  0.00  0.00    -0.005 A 
ATOM      6  C5  UNL d   1      -2.601  -0.014   0.827  0.00  0.00     0.003 A 
ATOM      7  C6  UNL d   1      -2.357  -1.062   1.716  0.00  0.00    -0.001 A 
ENDROOT
TORSDOF 0
ENDMDL
