MODEL 1
REMARK minimizedAffinity -4.95010614
REMARK minimizedRMSD -1
REMARK  1 active torsions:
REMARK  status: ('A' for Active; 'I' for Inactive)
REMARK    1  A    between atoms: C3_4  and  O_7 
ROOT
ATOM      1  C   UNL d   1      -0.097  -3.412   0.165  0.00  0.00    -0.033 A 
ATOM      2  C1  UNL d   1       0.261  -3.049  -1.135  0.00  0.00     0.039 A 
ATOM      3  C2  UNL d   1       0.410  -1.701  -1.469  0.00  0.00    -0.080 A 
ATOM      4  C3  UNL d   1       0.200  -0.729  -0.495  0.00  0.00     0.150 A 
ATOM      5  C4  UNL d   1      -0.153  -1.084   0.802  0.00  0.00    -0.007 A 
ATOM      6  C5  UNL d   1      -0.303  -2.430   1.134  0.00  0.00     0.039 A 
ENDROOT
BRANCH   4   7
ATOM      7  O   UNL d   1       0.329   0.599  -0.775  0.00  0.00    -0.526 OA
ATOM      8  H5  UNL d   1       0.548   0.695  -1.717  0.00  0.00     0.418 HD
ENDBRANCH   4   7
TORSDOF 1
ENDMDL
