MODEL 1
REMARK minimizedAffinity -3.50270462
REMARK minimizedRMSD -1
REMARK  1 active torsions:
REMARK  status: ('A' for Active; 'I' for Inactive)
REMARK    1  A    between atoms: C3_4  and  O_7 
ROOT
ATOM      1  C   UNL d   1       0.407   0.603  -0.113  0.00  0.00    -0.033 A 
ATOM      2  C1  UNL d   1       0.672   0.219   1.203  0.00  0.00     0.039 A 
ATOM      3  C2  UNL d   1       0.591  -1.126   1.569  0.00  0.00    -0.080 A 
ATOM      4  C3  UNL d   1       0.245  -2.076   0.612  0.00  0.00     0.150 A 
ATOM      5  C4  UNL d   1      -0.017  -1.700  -0.702  0.00  0.00    -0.007 A 
ATOM      6  C5  UNL d   1       0.064  -0.357  -1.066  0.00  0.00     0.039 A 
ENDROOT
BRANCH   4   7
ATOM      7  O   UNL d   1       0.148  -3.399   0.923  0.00  0.00    -0.526 OA
ATOM      8  H5  UNL d   1       0.328  -3.506   1.872  0.00  0.00     0.418 HD
ENDBRANCH   4   7
TORSDOF 1
ENDMDL
