MODEL 1
REMARK minimizedAffinity -3.4174974
REMARK minimizedRMSD -1
REMARK  1 active torsions:
REMARK  status: ('A' for Active; 'I' for Inactive)
REMARK    1  A    between atoms: C3_4  and  O_7 
ROOT
ATOM      1  C   UNL d   1      -0.709   1.540  -0.179  0.00  0.00    -0.033 A 
ATOM      2  C1  UNL d   1       0.100   1.091  -1.224  0.00  0.00     0.039 A 
ATOM      3  C2  UNL d   1       0.490  -0.248  -1.282  0.00  0.00    -0.080 A 
ATOM      4  C3  UNL d   1       0.064  -1.127  -0.290  0.00  0.00     0.150 A 
ATOM      5  C4  UNL d   1      -0.746  -0.688   0.752  0.00  0.00    -0.007 A 
ATOM      6  C5  UNL d   1      -1.134   0.650   0.809  0.00  0.00     0.039 A 
ENDROOT
BRANCH   4   7
ATOM      7  O   UNL d   1       0.422  -2.443  -0.302  0.00  0.00    -0.526 OA
ATOM      8  H5  UNL d   1       1.005  -2.596  -1.064  0.00  0.00     0.418 HD
ENDBRANCH   4   7
TORSDOF 1
ENDMDL
