MODEL 1
REMARK minimizedAffinity -4.87610769
REMARK minimizedRMSD -1
REMARK  1 active torsions:
REMARK  status: ('A' for Active; 'I' for Inactive)
REMARK    1  A    between atoms: C3_4  and  O_7 
ROOT
ATOM      1  C   UNL d   1      -0.662  -2.403  -0.259  0.00  0.00    -0.033 A 
ATOM      2  C1  UNL d   1      -0.862  -1.800   0.984  0.00  0.00     0.039 A 
ATOM      3  C2  UNL d   1      -0.520  -0.460   1.174  0.00  0.00    -0.080 A 
ATOM      4  C3  UNL d   1       0.020   0.265   0.115  0.00  0.00     0.150 A 
ATOM      5  C4  UNL d   1       0.218  -0.329  -1.127  0.00  0.00    -0.007 A 
ATOM      6  C5  UNL d   1      -0.123  -1.668  -1.315  0.00  0.00     0.039 A 
ENDROOT
BRANCH   4   7
ATOM      7  O   UNL d   1       0.374   1.574   0.254  0.00  0.00    -0.526 OA
ATOM      8  H5  UNL d   1       0.207   1.842   1.173  0.00  0.00     0.418 HD
ENDBRANCH   4   7
TORSDOF 1
ENDMDL
