MODEL 1
REMARK minimizedAffinity -4.57213497
REMARK minimizedRMSD -1
REMARK  1 active torsions:
REMARK  status: ('A' for Active; 'I' for Inactive)
REMARK    1  A    between atoms: C3_4  and  O_7 
ROOT
ATOM      1  C   UNL d   1      -0.904  -1.845   2.018  0.00  0.00    -0.033 A 
ATOM      2  C1  UNL d   1      -0.312  -2.256   0.822  0.00  0.00     0.039 A 
ATOM      3  C2  UNL d   1       0.030  -1.313  -0.149  0.00  0.00    -0.080 A 
ATOM      4  C3  UNL d   1      -0.223   0.036   0.088  0.00  0.00     0.150 A 
ATOM      5  C4  UNL d   1      -0.808   0.452   1.279  0.00  0.00    -0.007 A 
ATOM      6  C5  UNL d   1      -1.150  -0.491   2.247  0.00  0.00     0.039 A 
ENDROOT
BRANCH   4   7
ATOM      7  O   UNL d   1       0.089   0.992  -0.832  0.00  0.00    -0.526 OA
ATOM      8  H5  UNL d   1       0.460   0.555  -1.617  0.00  0.00     0.418 HD
ENDBRANCH   4   7
TORSDOF 1
ENDMDL
