MODEL 1
REMARK minimizedAffinity -4.65214062
REMARK minimizedRMSD -1
REMARK  1 active torsions:
REMARK  status: ('A' for Active; 'I' for Inactive)
REMARK    1  A    between atoms: C3_4  and  O_7 
ROOT
ATOM      1  C   UNL d   1      -0.444  -2.274   0.835  0.00  0.00    -0.033 A 
ATOM      2  C1  UNL d   1      -0.530  -1.542   2.021  0.00  0.00     0.039 A 
ATOM      3  C2  UNL d   1      -0.178  -0.191   2.037  0.00  0.00    -0.080 A 
ATOM      4  C3  UNL d   1       0.257   0.416   0.863  0.00  0.00     0.150 A 
ATOM      5  C4  UNL d   1       0.342  -0.306  -0.323  0.00  0.00    -0.007 A 
ATOM      6  C5  UNL d   1      -0.009  -1.655  -0.337  0.00  0.00     0.039 A 
ENDROOT
BRANCH   4   7
ATOM      7  O   UNL d   1       0.616   1.731   0.830  0.00  0.00    -0.526 OA
ATOM      8  H5  UNL d   1       0.534   2.094   1.728  0.00  0.00     0.418 HD
ENDBRANCH   4   7
TORSDOF 1
ENDMDL
