MODEL 1
REMARK minimizedAffinity -5.35966539
REMARK minimizedRMSD -1
REMARK  1 active torsions:
REMARK  status: ('A' for Active; 'I' for Inactive)
REMARK    1  A    between atoms: C3_4  and  O_7 
ROOT
ATOM      1  C   UNL d   1      -0.688   0.411   0.719  0.00  0.00    -0.033 A 
ATOM      2  C1  UNL d   1       0.009  -0.162  -0.347  0.00  0.00     0.039 A 
ATOM      3  C2  UNL d   1       0.218  -1.542  -0.385  0.00  0.00    -0.080 A 
ATOM      4  C3  UNL d   1      -0.275  -2.337   0.646  0.00  0.00     0.150 A 
ATOM      5  C4  UNL d   1      -0.974  -1.773   1.708  0.00  0.00    -0.007 A 
ATOM      6  C5  UNL d   1      -1.181  -0.395   1.746  0.00  0.00     0.039 A 
ENDROOT
BRANCH   4   7
ATOM      7  O   UNL d   1      -0.091  -3.688   0.654  0.00  0.00    -0.526 OA
ATOM      8  H5  UNL d   1       0.433  -3.932  -0.127  0.00  0.00     0.418 HD
ENDBRANCH   4   7
TORSDOF 1
ENDMDL
