MODEL 1
REMARK minimizedAffinity -2.39716339
REMARK minimizedRMSD -1
REMARK  1 active torsions:
REMARK  status: ('A' for Active; 'I' for Inactive)
REMARK    1  A    between atoms: C3_4  and  O_7 
ROOT
ATOM      1  C   UNL d   1      -0.398  -0.585   1.139  0.00  0.00    -0.033 A 
ATOM      2  C1  UNL d   1      -0.844  -1.904   1.248  0.00  0.00     0.039 A 
ATOM      3  C2  UNL d   1      -0.780  -2.757   0.146  0.00  0.00    -0.080 A 
ATOM      4  C3  UNL d   1      -0.268  -2.281  -1.058  0.00  0.00     0.150 A 
ATOM      5  C4  UNL d   1       0.182  -0.970  -1.173  0.00  0.00    -0.007 A 
ATOM      6  C5  UNL d   1       0.116  -0.119  -0.071  0.00  0.00     0.039 A 
ENDROOT
BRANCH   4   7
ATOM      7  O   UNL d   1      -0.190  -3.076  -2.163  0.00  0.00    -0.526 OA
ATOM      8  H5  UNL d   1      -0.564  -3.946  -1.944  0.00  0.00     0.418 HD
ENDBRANCH   4   7
TORSDOF 1
ENDMDL
