MODEL 1
REMARK minimizedAffinity -5.46757221
REMARK minimizedRMSD -1
REMARK  1 active torsions:
REMARK  status: ('A' for Active; 'I' for Inactive)
REMARK    1  A    between atoms: C3_4  and  O_7 
ROOT
ATOM      1  C   UNL d   1       0.509  -3.361   0.150  0.00  0.00    -0.033 A 
ATOM      2  C1  UNL d   1       0.050  -3.652  -1.137  0.00  0.00     0.039 A 
ATOM      3  C2  UNL d   1      -0.148  -2.622  -2.058  0.00  0.00    -0.080 A 
ATOM      4  C3  UNL d   1       0.117  -1.308  -1.682  0.00  0.00     0.150 A 
ATOM      5  C4  UNL d   1       0.578  -1.012  -0.404  0.00  0.00    -0.007 A 
ATOM      6  C5  UNL d   1       0.774  -2.042   0.516  0.00  0.00     0.039 A 
ENDROOT
BRANCH   4   7
ATOM      7  O   UNL d   1      -0.066  -0.269  -2.546  0.00  0.00    -0.526 OA
ATOM      8  H5  UNL d   1      -0.415  -0.621  -3.381  0.00  0.00     0.418 HD
ENDBRANCH   4   7
TORSDOF 1
ENDMDL
