MODEL 1
REMARK minimizedAffinity -4.47351503
REMARK minimizedRMSD -1
REMARK  1 active torsions:
REMARK  status: ('A' for Active; 'I' for Inactive)
REMARK    1  A    between atoms: C3_4  and  O_7 
ROOT
ATOM      1  C   UNL d   1      -0.657   0.380   1.215  0.00  0.00    -0.033 A 
ATOM      2  C1  UNL d   1      -0.991  -0.586   2.167  0.00  0.00     0.039 A 
ATOM      3  C2  UNL d   1      -0.807  -1.941   1.883  0.00  0.00    -0.080 A 
ATOM      4  C3  UNL d   1      -0.289  -2.316   0.647  0.00  0.00     0.150 A 
ATOM      5  C4  UNL d   1       0.049  -1.359  -0.304  0.00  0.00    -0.007 A 
ATOM      6  C5  UNL d   1      -0.135  -0.007  -0.020  0.00  0.00     0.039 A 
ENDROOT
BRANCH   4   7
ATOM      7  O   UNL d   1      -0.097  -3.626   0.323  0.00  0.00    -0.526 OA
ATOM      8  H5  UNL d   1      -0.401  -4.175   1.065  0.00  0.00     0.418 HD
ENDBRANCH   4   7
TORSDOF 1
ENDMDL
