MODEL 1
REMARK minimizedAffinity -2.63591409
REMARK minimizedRMSD -1
REMARK  1 active torsions:
REMARK  status: ('A' for Active; 'I' for Inactive)
REMARK    1  A    between atoms: C3_4  and  O_7 
ROOT
ATOM      1  C   UNL d   1       0.176  -1.082  -0.873  0.00  0.00    -0.033 A 
ATOM      2  C1  UNL d   1       0.562  -0.844   0.448  0.00  0.00     0.039 A 
ATOM      3  C2  UNL d   1       0.699   0.466   0.911  0.00  0.00    -0.080 A 
ATOM      4  C3  UNL d   1       0.448   1.527   0.046  0.00  0.00     0.150 A 
ATOM      5  C4  UNL d   1       0.060   1.297  -1.270  0.00  0.00    -0.007 A 
ATOM      6  C5  UNL d   1      -0.076  -0.012  -1.732  0.00  0.00     0.039 A 
ENDROOT
BRANCH   4   7
ATOM      7  O   UNL d   1       0.573   2.822   0.451  0.00  0.00    -0.526 OA
ATOM      8  H5  UNL d   1       0.875   2.828   1.375  0.00  0.00     0.418 HD
ENDBRANCH   4   7
TORSDOF 1
ENDMDL
