MODEL 1
REMARK minimizedAffinity -4.28122854
REMARK minimizedRMSD -1
REMARK  1 active torsions:
REMARK  status: ('A' for Active; 'I' for Inactive)
REMARK    1  A    between atoms: C3_4  and  O_7 
ROOT
ATOM      1  C   UNL d   1       0.118   0.260   0.245  0.00  0.00    -0.033 A 
ATOM      2  C1  UNL d   1       0.834  -0.582  -0.607  0.00  0.00     0.039 A 
ATOM      3  C2  UNL d   1       0.727  -1.968  -0.475  0.00  0.00    -0.080 A 
ATOM      4  C3  UNL d   1      -0.100  -2.498   0.512  0.00  0.00     0.150 A 
ATOM      5  C4  UNL d   1      -0.820  -1.664   1.362  0.00  0.00    -0.007 A 
ATOM      6  C5  UNL d   1      -0.710  -0.281   1.229  0.00  0.00     0.039 A 
ENDROOT
BRANCH   4   7
ATOM      7  O   UNL d   1      -0.234  -3.844   0.683  0.00  0.00    -0.526 OA
ATOM      8  H5  UNL d   1       0.344  -4.294   0.044  0.00  0.00     0.418 HD
ENDBRANCH   4   7
TORSDOF 1
ENDMDL
