MODEL 1
REMARK minimizedAffinity -5.43217039
REMARK minimizedRMSD -1
REMARK  1 active torsions:
REMARK  status: ('A' for Active; 'I' for Inactive)
REMARK    1  A    between atoms: C3_4  and  O_7 
ROOT
ATOM      1  C   UNL d   1       0.018   0.488  -0.307  0.00  0.00    -0.033 A 
ATOM      2  C1  UNL d   1       0.595  -0.407  -1.210  0.00  0.00     0.039 A 
ATOM      3  C2  UNL d   1       0.629  -1.772  -0.918  0.00  0.00    -0.080 A 
ATOM      4  C3  UNL d   1       0.083  -2.229   0.278  0.00  0.00     0.150 A 
ATOM      5  C4  UNL d   1      -0.497  -1.343   1.181  0.00  0.00    -0.007 A 
ATOM      6  C5  UNL d   1      -0.529   0.020   0.887  0.00  0.00     0.039 A 
ENDROOT
BRANCH   4   7
ATOM      7  O   UNL d   1       0.097  -3.551   0.610  0.00  0.00    -0.526 OA
ATOM      8  H5  UNL d   1       0.555  -4.040  -0.095  0.00  0.00     0.418 HD
ENDBRANCH   4   7
TORSDOF 1
ENDMDL
