MODEL 1
REMARK minimizedAffinity -4.5394454
REMARK minimizedRMSD -1
REMARK  1 active torsions:
REMARK  status: ('A' for Active; 'I' for Inactive)
REMARK    1  A    between atoms: C3_4  and  O_7 
ROOT
ATOM      1  C   UNL d   1       0.435  -1.157  -0.834  0.00  0.00    -0.033 A 
ATOM      2  C1  UNL d   1       0.676  -0.818   0.499  0.00  0.00     0.039 A 
ATOM      3  C2  UNL d   1       0.654   0.520   0.896  0.00  0.00    -0.080 A 
ATOM      4  C3  UNL d   1       0.389   1.509  -0.048  0.00  0.00     0.150 A 
ATOM      5  C4  UNL d   1       0.144   1.178  -1.377  0.00  0.00    -0.007 A 
ATOM      6  C5  UNL d   1       0.167  -0.159  -1.772  0.00  0.00     0.039 A 
ENDROOT
BRANCH   4   7
ATOM      7  O   UNL d   1       0.361   2.829   0.291  0.00  0.00    -0.526 OA
ATOM      8  H5  UNL d   1       0.576   2.908   1.235  0.00  0.00     0.418 HD
ENDBRANCH   4   7
TORSDOF 1
ENDMDL
