MODEL 1
REMARK minimizedAffinity -3.00098872
REMARK minimizedRMSD -1
REMARK  1 active torsions:
REMARK  status: ('A' for Active; 'I' for Inactive)
REMARK    1  A    between atoms: C3_4  and  O_7 
ROOT
ATOM      1  C   UNL d   1      -0.179   0.333  -0.006  0.00  0.00    -0.033 A 
ATOM      2  C1  UNL d   1      -0.770  -0.169   1.155  0.00  0.00     0.039 A 
ATOM      3  C2  UNL d   1      -0.766  -1.543   1.405  0.00  0.00    -0.080 A 
ATOM      4  C3  UNL d   1      -0.167  -2.402   0.488  0.00  0.00     0.150 A 
ATOM      5  C4  UNL d   1       0.427  -1.909  -0.669  0.00  0.00    -0.007 A 
ATOM      6  C5  UNL d   1       0.421  -0.537  -0.917  0.00  0.00     0.039 A 
ENDROOT
BRANCH   4   7
ATOM      7  O   UNL d   1      -0.143  -3.751   0.686  0.00  0.00    -0.526 OA
ATOM      8  H5  UNL d   1      -0.616  -3.949   1.512  0.00  0.00     0.418 HD
ENDBRANCH   4   7
TORSDOF 1
ENDMDL
