MODEL 1
REMARK minimizedAffinity -3.45797706
REMARK minimizedRMSD -1
REMARK  1 active torsions:
REMARK  status: ('A' for Active; 'I' for Inactive)
REMARK    1  A    between atoms: C3_4  and  O_7 
ROOT
ATOM      1  C   UNL d   1      -0.369  -0.291   1.495  0.00  0.00    -0.033 A 
ATOM      2  C1  UNL d   1       0.655  -1.053   2.063  0.00  0.00     0.039 A 
ATOM      3  C2  UNL d   1       0.737  -2.422   1.800  0.00  0.00    -0.080 A 
ATOM      4  C3  UNL d   1      -0.208  -3.016   0.969  0.00  0.00     0.150 A 
ATOM      5  C4  UNL d   1      -1.229  -2.263   0.397  0.00  0.00    -0.007 A 
ATOM      6  C5  UNL d   1      -1.310  -0.896   0.662  0.00  0.00     0.039 A 
ENDROOT
BRANCH   4   7
ATOM      7  O   UNL d   1      -0.172  -4.349   0.687  0.00  0.00    -0.526 OA
ATOM      8  H5  UNL d   1       0.569  -4.746   1.174  0.00  0.00     0.418 HD
ENDBRANCH   4   7
TORSDOF 1
ENDMDL
