MODEL 1
REMARK minimizedAffinity -5.15862036
REMARK minimizedRMSD -1
REMARK  0 active torsions:
REMARK  status: ('A' for Active; 'I' for Inactive)
ROOT
ATOM      1  C1  DEN d   1      -0.598   0.909  -0.161  0.00  0.00     0.130 A 
ATOM      2  C2  DEN d   1      -0.859  -0.364   0.505  0.00  0.00    -0.031 A 
ATOM      3  C3  DEN d   1       0.251  -1.284   0.181  0.00  0.00     0.027 A 
ATOM      4  C4  DEN d   1       2.337  -0.859  -1.275  0.00  0.00     0.027 A 
ATOM      5  C5  DEN d   1       2.990   0.066  -2.059  0.00  0.00    -0.003 A 
ATOM      6  C6  DEN d   1       2.479   1.316  -2.291  0.00  0.00     0.001 A 
ATOM      7  C7  DEN d   1       1.303   1.690  -1.696  0.00  0.00     0.017 A 
ATOM      8  C8  DEN d   1       0.636   0.760  -0.910  0.00  0.00    -0.094 A 
ATOM      9  C9  DEN d   1       1.175  -0.494  -0.678  0.00  0.00    -0.072 A 
ENDROOT
TORSDOF 0
ENDMDL
