MODEL 1
REMARK minimizedAffinity -4.25513315
REMARK minimizedRMSD -1
REMARK  0 active torsions:
REMARK  status: ('A' for Active; 'I' for Inactive)
ROOT
ATOM      1  C1  DEN d   1       2.536  -1.381  -1.122  0.00  0.00     0.130 A 
ATOM      2  C2  DEN d   1       2.963  -0.214  -1.889  0.00  0.00    -0.031 A 
ATOM      3  C3  DEN d   1       1.939   0.838  -1.729  0.00  0.00     0.027 A 
ATOM      4  C4  DEN d   1      -0.254   0.774  -0.371  0.00  0.00     0.027 A 
ATOM      5  C5  DEN d   1      -1.051  -0.006   0.437  0.00  0.00    -0.003 A 
ATOM      6  C6  DEN d   1      -0.729  -1.299   0.751  0.00  0.00     0.001 A 
ATOM      7  C7  DEN d   1       0.444  -1.838   0.292  0.00  0.00     0.017 A 
ATOM      8  C8  DEN d   1       1.250  -1.060  -0.529  0.00  0.00    -0.094 A 
ATOM      9  C9  DEN d   1       0.913   0.250  -0.826  0.00  0.00    -0.072 A 
ENDROOT
TORSDOF 0
ENDMDL
