MODEL 1
REMARK minimizedAffinity -3.59106898
REMARK minimizedRMSD -1
REMARK  0 active torsions:
REMARK  status: ('A' for Active; 'I' for Inactive)
ROOT
ATOM      1  C1  DEN d   1       2.376   0.583  -1.508  0.00  0.00     0.130 A 
ATOM      2  C2  DEN d   1       3.213  -0.609  -1.615  0.00  0.00    -0.031 A 
ATOM      3  C3  DEN d   1       2.500  -1.727  -0.966  0.00  0.00     0.027 A 
ATOM      4  C4  DEN d   1       0.191  -1.730   0.185  0.00  0.00     0.027 A 
ATOM      5  C5  DEN d   1      -0.890  -0.951   0.534  0.00  0.00    -0.003 A 
ATOM      6  C6  DEN d   1      -0.943   0.390   0.260  0.00  0.00     0.001 A 
ATOM      7  C7  DEN d   1       0.086   0.984  -0.423  0.00  0.00     0.017 A 
ATOM      8  C8  DEN d   1       1.182   0.207  -0.772  0.00  0.00    -0.094 A 
ATOM      9  C9  DEN d   1       1.211  -1.149  -0.497  0.00  0.00    -0.072 A 
ENDROOT
TORSDOF 0
ENDMDL
