MODEL 1
REMARK minimizedAffinity -1.75725043
REMARK minimizedRMSD -1
REMARK  0 active torsions:
REMARK  status: ('A' for Active; 'I' for Inactive)
ROOT
ATOM      1  C1  DEN d   1      -0.734  -0.605   0.011  0.00  0.00     0.130 A 
ATOM      2  C2  DEN d   1      -0.683   0.082   1.299  0.00  0.00    -0.031 A 
ATOM      3  C3  DEN d   1       0.725   0.434   1.574  0.00  0.00     0.027 A 
ATOM      4  C4  DEN d   1       2.819  -0.012   0.135  0.00  0.00     0.027 A 
ATOM      5  C5  DEN d   1       3.278  -0.575  -1.035  0.00  0.00    -0.003 A 
ATOM      6  C6  DEN d   1       2.443  -1.212  -1.915  0.00  0.00     0.001 A 
ATOM      7  C7  DEN d   1       1.098  -1.262  -1.660  0.00  0.00     0.017 A 
ATOM      8  C8  DEN d   1       0.629  -0.703  -0.479  0.00  0.00    -0.094 A 
ATOM      9  C9  DEN d   1       1.487  -0.053   0.392  0.00  0.00    -0.072 A 
ENDROOT
TORSDOF 0
ENDMDL
