MODEL 1
REMARK minimizedAffinity -3.9111135
REMARK minimizedRMSD -1
REMARK  0 active torsions:
REMARK  status: ('A' for Active; 'I' for Inactive)
ROOT
ATOM      1  C1  DEN d   1       2.145   0.368  -0.276  0.00  0.00     0.130 A 
ATOM      2  C2  DEN d   1       2.670  -0.896  -0.783  0.00  0.00    -0.031 A 
ATOM      3  C3  DEN d   1       1.562  -1.871  -0.815  0.00  0.00     0.027 A 
ATOM      4  C4  DEN d   1      -0.904  -1.547  -0.135  0.00  0.00     0.027 A 
ATOM      5  C5  DEN d   1      -1.822  -0.651   0.367  0.00  0.00    -0.003 A 
ATOM      6  C6  DEN d   1      -1.477   0.627   0.718  0.00  0.00     0.001 A 
ATOM      7  C7  DEN d   1      -0.191   1.059   0.531  0.00  0.00     0.017 A 
ATOM      8  C8  DEN d   1       0.742   0.159   0.033  0.00  0.00    -0.094 A 
ATOM      9  C9  DEN d   1       0.371  -1.125  -0.328  0.00  0.00    -0.072 A 
ENDROOT
TORSDOF 0
ENDMDL
