MODEL 1
REMARK minimizedAffinity -5.91790009
REMARK minimizedRMSD -1
REMARK  0 active torsions:
REMARK  status: ('A' for Active; 'I' for Inactive)
ROOT
ATOM      1  C1  DEN d   1      -0.419   0.762  -0.185  0.00  0.00     0.130 A 
ATOM      2  C2  DEN d   1      -0.683  -0.530   0.442  0.00  0.00    -0.031 A 
ATOM      3  C3  DEN d   1       0.405  -1.453   0.061  0.00  0.00     0.027 A 
ATOM      4  C4  DEN d   1       2.465  -1.006  -1.426  0.00  0.00     0.027 A 
ATOM      5  C5  DEN d   1       3.113  -0.063  -2.193  0.00  0.00    -0.003 A 
ATOM      6  C6  DEN d   1       2.615   1.201  -2.370  0.00  0.00     0.001 A 
ATOM      7  C7  DEN d   1       1.458   1.570  -1.735  0.00  0.00     0.017 A 
ATOM      8  C8  DEN d   1       0.796   0.622  -0.967  0.00  0.00    -0.094 A 
ATOM      9  C9  DEN d   1       1.321  -0.647  -0.791  0.00  0.00    -0.072 A 
ENDROOT
TORSDOF 0
ENDMDL
