MODEL 1
REMARK minimizedAffinity -6.16933203
REMARK minimizedRMSD -1
REMARK  0 active torsions:
REMARK  status: ('A' for Active; 'I' for Inactive)
ROOT
ATOM      1  C1  DEN d   1       1.840   1.818  -1.934  0.00  0.00     0.130 A 
ATOM      2  C2  DEN d   1       3.071   1.346  -2.562  0.00  0.00    -0.031 A 
ATOM      3  C3  DEN d   1       3.300  -0.046  -2.128  0.00  0.00     0.027 A 
ATOM      4  C4  DEN d   1       1.873  -1.512  -0.557  0.00  0.00     0.027 A 
ATOM      5  C5  DEN d   1       0.742  -1.543   0.230  0.00  0.00    -0.003 A 
ATOM      6  C6  DEN d   1      -0.076  -0.455   0.376  0.00  0.00     0.001 A 
ATOM      7  C7  DEN d   1       0.199   0.698  -0.310  0.00  0.00     0.017 A 
ATOM      8  C8  DEN d   1       1.341   0.740  -1.099  0.00  0.00    -0.094 A 
ATOM      9  C9  DEN d   1       2.149  -0.375  -1.244  0.00  0.00    -0.072 A 
ENDROOT
TORSDOF 0
ENDMDL
