MODEL 1
REMARK minimizedAffinity -4.10524321
REMARK minimizedRMSD -1
REMARK  0 active torsions:
REMARK  status: ('A' for Active; 'I' for Inactive)
ROOT
ATOM      1  C1  DEN d   1      -0.493   1.710  -1.000  0.00  0.00     0.130 A 
ATOM      2  C2  DEN d   1      -1.423   1.258   0.032  0.00  0.00    -0.031 A 
ATOM      3  C3  DEN d   1      -0.988  -0.078   0.486  0.00  0.00     0.027 A 
ATOM      4  C4  DEN d   1       1.027  -1.482  -0.303  0.00  0.00     0.027 A 
ATOM      5  C5  DEN d   1       2.098  -1.522  -1.168  0.00  0.00    -0.003 A 
ATOM      6  C6  DEN d   1       2.358  -0.511  -2.055  0.00  0.00     0.001 A 
ATOM      7  C7  DEN d   1       1.563   0.605  -2.064  0.00  0.00     0.017 A 
ATOM      8  C8  DEN d   1       0.477   0.649  -1.200  0.00  0.00    -0.094 A 
ATOM      9  C9  DEN d   1       0.238  -0.378  -0.303  0.00  0.00    -0.072 A 
ENDROOT
TORSDOF 0
ENDMDL
