MODEL 1
REMARK minimizedAffinity -2.40133214
REMARK minimizedRMSD -1
REMARK  0 active torsions:
REMARK  status: ('A' for Active; 'I' for Inactive)
ROOT
ATOM      1  C1  DEN d   1      -0.566  -0.455   0.704  0.00  0.00     0.130 A 
ATOM      2  C2  DEN d   1      -1.769   0.350   0.510  0.00  0.00    -0.031 A 
ATOM      3  C3  DEN d   1      -1.450   1.425  -0.450  0.00  0.00     0.027 A 
ATOM      4  C4  DEN d   1       0.778   1.917  -1.653  0.00  0.00     0.027 A 
ATOM      5  C5  DEN d   1       2.087   1.514  -1.799  0.00  0.00    -0.003 A 
ATOM      6  C6  DEN d   1       2.609   0.457  -1.102  0.00  0.00     0.001 A 
ATOM      7  C7  DEN d   1       1.804  -0.263  -0.259  0.00  0.00     0.017 A 
ATOM      8  C8  DEN d   1       0.485   0.141  -0.100  0.00  0.00    -0.094 A 
ATOM      9  C9  DEN d   1      -0.027   1.205  -0.824  0.00  0.00    -0.072 A 
ENDROOT
TORSDOF 0
ENDMDL
