MODEL 1
REMARK minimizedAffinity -0.94175756
REMARK minimizedRMSD -1
REMARK  0 active torsions:
REMARK  status: ('A' for Active; 'I' for Inactive)
ROOT
ATOM      1  C1  DEN d   1       0.705  -1.834   0.545  0.00  0.00     0.130 A 
ATOM      2  C2  DEN d   1       1.578  -1.737  -0.622  0.00  0.00    -0.031 A 
ATOM      3  C3  DEN d   1       1.245  -0.490  -1.340  0.00  0.00     0.027 A 
ATOM      4  C4  DEN d   1      -0.523   1.294  -0.757  0.00  0.00     0.027 A 
ATOM      5  C5  DEN d   1      -1.514   1.644   0.134  0.00  0.00    -0.003 A 
ATOM      6  C6  DEN d   1      -1.856   0.848   1.196  0.00  0.00     0.001 A 
ATOM      7  C7  DEN d   1      -1.169  -0.316   1.420  0.00  0.00     0.017 A 
ATOM      8  C8  DEN d   1      -0.173  -0.678   0.522  0.00  0.00    -0.094 A 
ATOM      9  C9  DEN d   1       0.165   0.145  -0.538  0.00  0.00    -0.072 A 
ENDROOT
TORSDOF 0
ENDMDL
