MODEL 1
REMARK minimizedAffinity 1.94774115
REMARK minimizedRMSD -1
REMARK  0 active torsions:
REMARK  status: ('A' for Active; 'I' for Inactive)
ROOT
ATOM      1  C   UNL d   1       0.857  -0.325   0.724  0.00  0.00     0.023 A 
ATOM      2  C1  UNL d   1       0.002  -0.803   1.717  0.00  0.00     0.003 A 
ATOM      3  C2  UNL d   1      -0.998   0.023   2.236  0.00  0.00     0.048 A 
ATOM      4  C3  UNL d   1      -1.137   1.325   1.756  0.00  0.00     0.023 A 
ATOM      5  C4  UNL d   1      -0.284   1.807   0.762  0.00  0.00     0.048 A 
ATOM      6  C5  UNL d   1       0.715   0.978   0.247  0.00  0.00     0.003 A 
ATOM      7  I   UNL d   1      -2.624   2.555   2.527  0.00  0.00    -0.146 I 
ENDROOT
TORSDOF 0
ENDMDL
