MODEL 1
REMARK minimizedAffinity -0.177070051
REMARK minimizedRMSD -1
REMARK  0 active torsions:
REMARK  status: ('A' for Active; 'I' for Inactive)
ROOT
ATOM      1  C   UNL d   1      -2.529   0.862   2.054  0.00  0.00     0.023 A 
ATOM      2  C1  UNL d   1      -1.856  -0.353   1.924  0.00  0.00     0.003 A 
ATOM      3  C2  UNL d   1      -0.505  -0.370   1.569  0.00  0.00     0.048 A 
ATOM      4  C3  UNL d   1       0.166   0.832   1.347  0.00  0.00     0.023 A 
ATOM      5  C4  UNL d   1      -0.503   2.050   1.477  0.00  0.00     0.048 A 
ATOM      6  C5  UNL d   1      -1.854   2.061   1.831  0.00  0.00     0.003 A 
ATOM      7  I   UNL d   1       2.176   0.809   0.819  0.00  0.00    -0.146 I 
ENDROOT
TORSDOF 0
ENDMDL
