MODEL 1
REMARK minimizedAffinity 4.76701546
REMARK minimizedRMSD -1
REMARK  0 active torsions:
REMARK  status: ('A' for Active; 'I' for Inactive)
ROOT
ATOM      1  C   UNL d   1      -0.148   2.710   0.415  0.00  0.00     0.023 A 
ATOM      2  C1  UNL d   1       0.922   1.842   0.195  0.00  0.00     0.003 A 
ATOM      3  C2  UNL d   1       0.971   0.610   0.850  0.00  0.00     0.048 A 
ATOM      4  C3  UNL d   1      -0.055   0.251   1.724  0.00  0.00     0.023 A 
ATOM      5  C4  UNL d   1      -1.128   1.115   1.947  0.00  0.00     0.048 A 
ATOM      6  C5  UNL d   1      -1.172   2.346   1.290  0.00  0.00     0.003 A 
ATOM      7  I   UNL d   1       0.015  -1.582   2.700  0.00  0.00    -0.146 I 
ENDROOT
TORSDOF 0
ENDMDL
