MODEL 1
REMARK minimizedAffinity 5.73483801
REMARK minimizedRMSD -1
REMARK  0 active torsions:
REMARK  status: ('A' for Active; 'I' for Inactive)
ROOT
ATOM      1  C   UNL d   1       0.702  -0.786   1.264  0.00  0.00     0.023 A 
ATOM      2  C1  UNL d   1      -0.632  -1.003   1.609  0.00  0.00     0.003 A 
ATOM      3  C2  UNL d   1      -1.537   0.061   1.608  0.00  0.00     0.048 A 
ATOM      4  C3  UNL d   1      -1.100   1.339   1.261  0.00  0.00     0.023 A 
ATOM      5  C4  UNL d   1       0.234   1.560   0.915  0.00  0.00     0.048 A 
ATOM      6  C5  UNL d   1       1.135   0.494   0.918  0.00  0.00     0.003 A 
ATOM      7  I   UNL d   1      -2.444   2.924   1.259  0.00  0.00    -0.146 I 
ENDROOT
TORSDOF 0
ENDMDL
