MODEL 1
REMARK minimizedAffinity -0.387754411
REMARK minimizedRMSD -1
REMARK  0 active torsions:
REMARK  status: ('A' for Active; 'I' for Inactive)
ROOT
ATOM      1  C   UNL d   1      -2.444   0.718   2.158  0.00  0.00     0.023 A 
ATOM      2  C1  UNL d   1      -1.733   1.903   1.963  0.00  0.00     0.003 A 
ATOM      3  C2  UNL d   1      -0.478   1.873   1.352  0.00  0.00     0.048 A 
ATOM      4  C3  UNL d   1       0.060   0.655   0.936  0.00  0.00     0.023 A 
ATOM      5  C4  UNL d   1      -0.648  -0.532   1.127  0.00  0.00     0.048 A 
ATOM      6  C5  UNL d   1      -1.902  -0.498   1.740  0.00  0.00     0.003 A 
ATOM      7  I   UNL d   1       1.927   0.608   0.025  0.00  0.00    -0.146 I 
ENDROOT
TORSDOF 0
ENDMDL
