MODEL 1
REMARK minimizedAffinity 9.94514465
REMARK minimizedRMSD -1
REMARK  0 active torsions:
REMARK  status: ('A' for Active; 'I' for Inactive)
ROOT
ATOM      1  C   UNL d   1       0.747   1.954   1.803  0.00  0.00     0.023 A 
ATOM      2  C1  UNL d   1      -0.647   1.986   1.804  0.00  0.00     0.003 A 
ATOM      3  C2  UNL d   1      -1.372   0.873   2.235  0.00  0.00     0.048 A 
ATOM      4  C3  UNL d   1      -0.696  -0.269   2.664  0.00  0.00     0.023 A 
ATOM      5  C4  UNL d   1       0.700  -0.305   2.665  0.00  0.00     0.048 A 
ATOM      6  C5  UNL d   1       1.420   0.810   2.233  0.00  0.00     0.003 A 
ATOM      7  I   UNL d   1      -1.772  -1.927   3.305  0.00  0.00    -0.146 I 
ENDROOT
TORSDOF 0
ENDMDL
