MODEL 1
REMARK minimizedAffinity 2.94599438
REMARK minimizedRMSD -1
REMARK  0 active torsions:
REMARK  status: ('A' for Active; 'I' for Inactive)
ROOT
ATOM      1  C   UNL d   1       0.325   2.972   1.451  0.00  0.00     0.023 A 
ATOM      2  C1  UNL d   1       0.829   1.725   1.084  0.00  0.00     0.003 A 
ATOM      3  C2  UNL d   1      -0.004   0.604   1.091  0.00  0.00     0.048 A 
ATOM      4  C3  UNL d   1      -1.341   0.738   1.465  0.00  0.00     0.023 A 
ATOM      5  C4  UNL d   1      -1.850   1.985   1.832  0.00  0.00     0.048 A 
ATOM      6  C5  UNL d   1      -1.013   3.102   1.825  0.00  0.00     0.003 A 
ATOM      7  I   UNL d   1      -2.583  -0.928   1.476  0.00  0.00    -0.146 I 
ENDROOT
TORSDOF 0
ENDMDL
