MODEL 1
REMARK minimizedAffinity 0.427274615
REMARK minimizedRMSD -1
REMARK  0 active torsions:
REMARK  status: ('A' for Active; 'I' for Inactive)
ROOT
ATOM      1  C   UNL d   1       1.503  -0.188   0.823  0.00  0.00     0.023 A 
ATOM      2  C1  UNL d   1       1.555   1.124   0.352  0.00  0.00     0.003 A 
ATOM      3  C2  UNL d   1       0.464   1.977   0.535  0.00  0.00     0.048 A 
ATOM      4  C3  UNL d   1      -0.675   1.511   1.190  0.00  0.00     0.023 A 
ATOM      5  C4  UNL d   1      -0.731   0.199   1.664  0.00  0.00     0.048 A 
ATOM      6  C5  UNL d   1       0.361  -0.650   1.478  0.00  0.00     0.003 A 
ATOM      7  I   UNL d   1      -2.300   2.778   1.464  0.00  0.00    -0.146 I 
ENDROOT
TORSDOF 0
ENDMDL
