MODEL 1
REMARK minimizedAffinity 2.73202348
REMARK minimizedRMSD -1
REMARK  0 active torsions:
REMARK  status: ('A' for Active; 'I' for Inactive)
ROOT
ATOM      1  C   UNL d   1       0.026   0.820   1.180  0.00  0.00     0.023 A 
ATOM      2  C1  UNL d   1      -0.297   2.148   1.458  0.00  0.00     0.003 A 
ATOM      3  C2  UNL d   1      -1.440   2.449   2.201  0.00  0.00     0.048 A 
ATOM      4  C3  UNL d   1      -2.255   1.417   2.665  0.00  0.00     0.023 A 
ATOM      5  C4  UNL d   1      -1.935   0.086   2.390  0.00  0.00     0.048 A 
ATOM      6  C5  UNL d   1      -0.791  -0.209   1.646  0.00  0.00     0.003 A 
ATOM      7  I   UNL d   1      -3.956   1.862   3.772  0.00  0.00    -0.146 I 
ENDROOT
TORSDOF 0
ENDMDL
