MODEL 1
REMARK minimizedAffinity 1.55825126
REMARK minimizedRMSD -1
REMARK  0 active torsions:
REMARK  status: ('A' for Active; 'I' for Inactive)
ROOT
ATOM      1  C   UNL d   1       0.675  -0.944   0.820  0.00  0.00     0.023 A 
ATOM      2  C1  UNL d   1       0.955   0.360   0.411  0.00  0.00     0.003 A 
ATOM      3  C2  UNL d   1       0.148   1.416   0.840  0.00  0.00     0.048 A 
ATOM      4  C3  UNL d   1      -0.937   1.161   1.678  0.00  0.00     0.023 A 
ATOM      5  C4  UNL d   1      -1.220  -0.142   2.090  0.00  0.00     0.048 A 
ATOM      6  C5  UNL d   1      -0.411  -1.195   1.658  0.00  0.00     0.003 A 
ATOM      7  I   UNL d   1      -2.139   2.731   2.317  0.00  0.00    -0.146 I 
ENDROOT
TORSDOF 0
ENDMDL
