MODEL 1
REMARK minimizedAffinity -1.13891041
REMARK minimizedRMSD -1
REMARK  0 active torsions:
REMARK  status: ('A' for Active; 'I' for Inactive)
ROOT
ATOM      1  C   UNL d   1      -2.295   0.920   2.051  0.00  0.00     0.023 A 
ATOM      2  C1  UNL d   1      -1.845  -0.378   1.814  0.00  0.00     0.003 A 
ATOM      3  C2  UNL d   1      -0.553  -0.593   1.331  0.00  0.00     0.048 A 
ATOM      4  C3  UNL d   1       0.285   0.495   1.088  0.00  0.00     0.023 A 
ATOM      5  C4  UNL d   1      -0.161   1.796   1.325  0.00  0.00     0.048 A 
ATOM      6  C5  UNL d   1      -1.455   2.006   1.807  0.00  0.00     0.003 A 
ATOM      7  I   UNL d   1       2.209   0.178   0.369  0.00  0.00    -0.146 I 
ENDROOT
TORSDOF 0
ENDMDL
