MODEL 1
REMARK minimizedAffinity -1.35497022
REMARK minimizedRMSD -1
REMARK  0 active torsions:
REMARK  status: ('A' for Active; 'I' for Inactive)
ROOT
ATOM      1  C   UNL d   1       0.169   3.157   0.952  0.00  0.00     0.023 A 
ATOM      2  C1  UNL d   1      -1.148   3.320   1.381  0.00  0.00     0.003 A 
ATOM      3  C2  UNL d   1      -1.875   2.221   1.842  0.00  0.00     0.048 A 
ATOM      4  C3  UNL d   1      -1.279   0.961   1.872  0.00  0.00     0.023 A 
ATOM      5  C4  UNL d   1       0.039   0.793   1.445  0.00  0.00     0.048 A 
ATOM      6  C5  UNL d   1       0.762   1.895   0.984  0.00  0.00     0.003 A 
ATOM      7  I   UNL d   1      -2.359  -0.677   2.557  0.00  0.00    -0.146 I 
ENDROOT
TORSDOF 0
ENDMDL
