MODEL 1
REMARK minimizedAffinity 7.24010324
REMARK minimizedRMSD -1
REMARK  0 active torsions:
REMARK  status: ('A' for Active; 'I' for Inactive)
ROOT
ATOM      1  C   UNL d   1      -3.319  -0.727  -2.729  0.00  0.00     0.023 A 
ATOM      2  C1  UNL d   1      -3.126  -1.865  -3.513  0.00  0.00     0.003 A 
ATOM      3  C2  UNL d   1      -3.095  -3.127  -2.918  0.00  0.00     0.048 A 
ATOM      4  C3  UNL d   1      -3.260  -3.245  -1.538  0.00  0.00     0.023 A 
ATOM      5  C4  UNL d   1      -3.455  -2.110  -0.750  0.00  0.00     0.048 A 
ATOM      6  C5  UNL d   1      -3.484  -0.849  -1.350  0.00  0.00     0.003 A 
ATOM      7  I   UNL d   1      -3.215  -5.124  -0.649  0.00  0.00    -0.146 I 
ENDROOT
TORSDOF 0
ENDMDL
