MODEL 1
REMARK minimizedAffinity 3.26351857
REMARK minimizedRMSD -1
REMARK  0 active torsions:
REMARK  status: ('A' for Active; 'I' for Inactive)
ROOT
ATOM      1  C   UNL d   1       2.706   2.033  -3.984  0.00  0.00     0.023 A 
ATOM      2  C1  UNL d   1       4.093   2.168  -4.047  0.00  0.00     0.003 A 
ATOM      3  C2  UNL d   1       4.659   3.306  -4.625  0.00  0.00     0.048 A 
ATOM      4  C3  UNL d   1       3.832   4.305  -5.137  0.00  0.00     0.023 A 
ATOM      5  C4  UNL d   1       2.444   4.175  -5.075  0.00  0.00     0.048 A 
ATOM      6  C5  UNL d   1       1.882   3.035  -4.497  0.00  0.00     0.003 A 
ATOM      7  I   UNL d   1       4.673   6.000  -5.998  0.00  0.00    -0.146 I 
ENDROOT
TORSDOF 0
ENDMDL
