MODEL 1
REMARK minimizedAffinity 0.0283697862
REMARK minimizedRMSD -1
REMARK  0 active torsions:
REMARK  status: ('A' for Active; 'I' for Inactive)
ROOT
ATOM      1  C   UNL d   1      -2.784   0.150   2.748  0.00  0.00     0.023 A 
ATOM      2  C1  UNL d   1      -1.590  -0.368   2.246  0.00  0.00     0.003 A 
ATOM      3  C2  UNL d   1      -0.650   0.481   1.659  0.00  0.00     0.048 A 
ATOM      4  C3  UNL d   1      -0.910   1.849   1.579  0.00  0.00     0.023 A 
ATOM      5  C4  UNL d   1      -2.102   2.373   2.081  0.00  0.00     0.048 A 
ATOM      6  C5  UNL d   1      -3.040   1.519   2.666  0.00  0.00     0.003 A 
ATOM      7  I   UNL d   1       0.488   3.116   0.707  0.00  0.00    -0.146 I 
ENDROOT
TORSDOF 0
ENDMDL
