MODEL 1
REMARK minimizedAffinity 5.600389
REMARK minimizedRMSD -1
REMARK  0 active torsions:
REMARK  status: ('A' for Active; 'I' for Inactive)
ROOT
ATOM      1  C   UNL d   1      -0.168   2.345   0.607  0.00  0.00     0.023 A 
ATOM      2  C1  UNL d   1      -1.055   3.409   0.776  0.00  0.00     0.003 A 
ATOM      3  C2  UNL d   1      -2.074   3.325   1.727  0.00  0.00     0.048 A 
ATOM      4  C3  UNL d   1      -2.199   2.175   2.507  0.00  0.00     0.023 A 
ATOM      5  C4  UNL d   1      -1.313   1.109   2.342  0.00  0.00     0.048 A 
ATOM      6  C5  UNL d   1      -0.297   1.197   1.389  0.00  0.00     0.003 A 
ATOM      7  I   UNL d   1      -3.714   2.048   3.923  0.00  0.00    -0.146 I 
ENDROOT
TORSDOF 0
ENDMDL
