MODEL 1
REMARK minimizedAffinity 8.43601227
REMARK minimizedRMSD -1
REMARK  0 active torsions:
REMARK  status: ('A' for Active; 'I' for Inactive)
ROOT
ATOM      1  C   UNL d   1       1.321   0.021  -0.022  0.00  0.00     0.023 A 
ATOM      2  C1  UNL d   1       1.669   1.370   0.050  0.00  0.00     0.003 A 
ATOM      3  C2  UNL d   1       3.012   1.750  -0.010  0.00  0.00     0.048 A 
ATOM      4  C3  UNL d   1       4.001   0.776  -0.143  0.00  0.00     0.023 A 
ATOM      5  C4  UNL d   1       3.657  -0.575  -0.216  0.00  0.00     0.048 A 
ATOM      6  C5  UNL d   1       2.313  -0.950  -0.154  0.00  0.00     0.003 A 
ATOM      7  I   UNL d   1       5.999   1.339  -0.233  0.00  0.00    -0.146 I 
ENDROOT
TORSDOF 0
ENDMDL
