MODEL 1
REMARK minimizedAffinity 11.3615208
REMARK minimizedRMSD -1
REMARK  0 active torsions:
REMARK  status: ('A' for Active; 'I' for Inactive)
ROOT
ATOM      1  C   UNL d   1       3.059  -0.338  -0.684  0.00  0.00     0.023 A 
ATOM      2  C1  UNL d   1       4.026  -0.000   0.264  0.00  0.00     0.003 A 
ATOM      3  C2  UNL d   1       4.870   1.090   0.045  0.00  0.00     0.048 A 
ATOM      4  C3  UNL d   1       4.741   1.840  -1.124  0.00  0.00     0.023 A 
ATOM      5  C4  UNL d   1       3.775   1.507  -2.075  0.00  0.00     0.048 A 
ATOM      6  C5  UNL d   1       2.934   0.415  -1.852  0.00  0.00     0.003 A 
ATOM      7  I   UNL d   1       5.996   3.464  -1.453  0.00  0.00    -0.146 I 
ENDROOT
TORSDOF 0
ENDMDL
