MODEL 1
REMARK minimizedAffinity 5.22010469
REMARK minimizedRMSD -1
REMARK  0 active torsions:
REMARK  status: ('A' for Active; 'I' for Inactive)
ROOT
ATOM      1  C   UNL d   1      -4.098   5.945   0.393  0.00  0.00     0.023 A 
ATOM      2  C1  UNL d   1      -5.478   5.922   0.596  0.00  0.00     0.003 A 
ATOM      3  C2  UNL d   1      -5.995   5.935   1.894  0.00  0.00     0.048 A 
ATOM      4  C3  UNL d   1      -5.125   5.973   2.983  0.00  0.00     0.023 A 
ATOM      5  C4  UNL d   1      -3.744   5.997   2.785  0.00  0.00     0.048 A 
ATOM      6  C5  UNL d   1      -3.232   5.982   1.486  0.00  0.00     0.003 A 
ATOM      7  I   UNL d   1      -5.891   5.993   4.915  0.00  0.00    -0.146 I 
ENDROOT
TORSDOF 0
ENDMDL
