MODEL 1
REMARK minimizedAffinity 5.31819773
REMARK minimizedRMSD -1
REMARK  0 active torsions:
REMARK  status: ('A' for Active; 'I' for Inactive)
ROOT
ATOM      1  C   UNL d   1       0.661  -4.432   6.000  0.00  0.00     0.023 A 
ATOM      2  C1  UNL d   1       1.867  -3.731   5.993  0.00  0.00     0.003 A 
ATOM      3  C2  UNL d   1       1.896  -2.393   5.596  0.00  0.00     0.048 A 
ATOM      4  C3  UNL d   1       0.715  -1.761   5.208  0.00  0.00     0.023 A 
ATOM      5  C4  UNL d   1      -0.495  -2.458   5.215  0.00  0.00     0.048 A 
ATOM      6  C5  UNL d   1      -0.518  -3.796   5.611  0.00  0.00     0.003 A 
ATOM      7  I   UNL d   1       0.755   0.231   4.617  0.00  0.00    -0.146 I 
ENDROOT
TORSDOF 0
ENDMDL
