MODEL 1
REMARK minimizedAffinity -0.359737456
REMARK minimizedRMSD -1
REMARK  0 active torsions:
REMARK  status: ('A' for Active; 'I' for Inactive)
ROOT
ATOM      1  C   UNL d   1      -3.839   5.950   1.561  0.00  0.00     0.023 A 
ATOM      2  C1  UNL d   1      -3.066   5.927   2.722  0.00  0.00     0.003 A 
ATOM      3  C2  UNL d   1      -3.684   5.940   3.974  0.00  0.00     0.048 A 
ATOM      4  C3  UNL d   1      -5.075   5.974   4.058  0.00  0.00     0.023 A 
ATOM      5  C4  UNL d   1      -5.853   5.997   2.899  0.00  0.00     0.048 A 
ATOM      6  C5  UNL d   1      -5.230   5.985   1.650  0.00  0.00     0.003 A 
ATOM      7  I   UNL d   1      -5.997   5.993   5.921  0.00  0.00    -0.146 I 
ENDROOT
TORSDOF 0
ENDMDL
