MODEL 1
REMARK minimizedAffinity -2.1594615
REMARK minimizedRMSD -1
REMARK  1 active torsions:
REMARK  status: ('A' for Active; 'I' for Inactive)
REMARK    1  A    between atoms: N_2  and  C1_3 
ROOT
ATOM      1  C1  UNL d   1       0.308   0.114   0.024  0.00  0.00     0.143 A 
ATOM      2  C2  UNL d   1       1.504   0.475  -0.606  0.00  0.00    -0.057 A 
ATOM      3  C3  UNL d   1       2.722  -0.114  -0.245  0.00  0.00     0.033 A 
ATOM      4  C4  UNL d   1       2.769  -1.057   0.776  0.00  0.00    -0.042 A 
ATOM      5  C5  UNL d   1       1.596  -1.413   1.433  0.00  0.00     0.033 A 
ATOM      6  C6  UNL d   1       0.383  -0.826   1.063  0.00  0.00    -0.057 A 
ENDROOT
BRANCH   1   7
ATOM      7  N   UNL d   1      -0.919   0.735  -0.222  0.00  0.00    -0.732 N 
ATOM      8  C   UNL d   1      -1.100   1.572  -1.389  0.00  0.00     0.284 C 
ATOM      9  H3  UNL d   1      -1.709   0.128  -0.019  0.00  0.00     0.395 HD
ENDBRANCH   1   7
TORSDOF 1
ENDMDL
