MODEL 1
REMARK minimizedAffinity -3.52345967
REMARK minimizedRMSD -1
REMARK  1 active torsions:
REMARK  status: ('A' for Active; 'I' for Inactive)
REMARK    1  A    between atoms: N_2  and  C1_3 
ROOT
ATOM      1  C1  UNL d   1      -0.497   0.358  -0.668  0.00  0.00     0.143 A 
ATOM      2  C2  UNL d   1       0.011  -0.892  -1.039  0.00  0.00    -0.057 A 
ATOM      3  C3  UNL d   1       1.333  -1.253  -0.752  0.00  0.00     0.033 A 
ATOM      4  C4  UNL d   1       2.182  -0.356  -0.112  0.00  0.00    -0.042 A 
ATOM      5  C5  UNL d   1       1.706   0.901   0.243  0.00  0.00     0.033 A 
ATOM      6  C6  UNL d   1       0.383   1.253  -0.041  0.00  0.00    -0.057 A 
ENDROOT
BRANCH   1   7
ATOM      7  N   UNL d   1      -1.772   0.812  -1.013  0.00  0.00    -0.732 N 
ATOM      8  C   UNL d   1      -1.999   1.486  -2.273  0.00  0.00     0.284 C 
ATOM      9  H3  UNL d   1      -2.502   0.151  -0.758  0.00  0.00     0.395 HD
ENDBRANCH   1   7
TORSDOF 1
ENDMDL
