MODEL 1
REMARK minimizedAffinity -2.94585466
REMARK minimizedRMSD -1
REMARK  1 active torsions:
REMARK  status: ('A' for Active; 'I' for Inactive)
REMARK    1  A    between atoms: N_2  and  C1_3 
ROOT
ATOM      1  C1  UNL d   1      -0.896   1.142  -1.183  0.00  0.00     0.143 A 
ATOM      2  C2  UNL d   1      -1.360   2.382  -1.634  0.00  0.00    -0.057 A 
ATOM      3  C3  UNL d   1      -2.081   2.496  -2.829  0.00  0.00     0.033 A 
ATOM      4  C4  UNL d   1      -2.326   1.372  -3.611  0.00  0.00    -0.042 A 
ATOM      5  C5  UNL d   1      -1.852   0.133  -3.195  0.00  0.00     0.033 A 
ATOM      6  C6  UNL d   1      -1.139   0.024  -1.997  0.00  0.00    -0.057 A 
ENDROOT
BRANCH   1   7
ATOM      7  N   UNL d   1      -0.090   0.977  -0.054  0.00  0.00    -0.732 N 
ATOM      8  C   UNL d   1       1.093   0.145  -0.108  0.00  0.00     0.284 C 
ATOM      9  H3  UNL d   1       0.035   1.844   0.464  0.00  0.00     0.395 HD
ENDBRANCH   1   7
TORSDOF 1
ENDMDL
