MODEL 1
REMARK minimizedAffinity -4.12126589
REMARK minimizedRMSD -1
REMARK  1 active torsions:
REMARK  status: ('A' for Active; 'I' for Inactive)
REMARK    1  A    between atoms: N_2  and  C1_3 
ROOT
ATOM      1  C1  UNL d   1       0.289   0.298   0.249  0.00  0.00     0.143 A 
ATOM      2  C2  UNL d   1       1.624   0.495  -0.120  0.00  0.00    -0.057 A 
ATOM      3  C3  UNL d   1       2.592  -0.492   0.102  0.00  0.00     0.033 A 
ATOM      4  C4  UNL d   1       2.245  -1.686   0.726  0.00  0.00    -0.042 A 
ATOM      5  C5  UNL d   1       0.929  -1.893   1.124  0.00  0.00     0.033 A 
ATOM      6  C6  UNL d   1      -0.034  -0.906   0.893  0.00  0.00    -0.057 A 
ENDROOT
BRANCH   1   7
ATOM      7  N   UNL d   1      -0.700   1.280   0.144  0.00  0.00    -0.732 N 
ATOM      8  C   UNL d   1      -1.043   1.846  -1.142  0.00  0.00     0.284 C 
ATOM      9  H3  UNL d   1      -1.501   1.089   0.742  0.00  0.00     0.395 HD
ENDBRANCH   1   7
TORSDOF 1
ENDMDL
