MODEL 1
REMARK minimizedAffinity -4.22707796
REMARK minimizedRMSD -1
REMARK  1 active torsions:
REMARK  status: ('A' for Active; 'I' for Inactive)
REMARK    1  A    between atoms: N_2  and  C1_3 
ROOT
ATOM      1  C1  UNL d   1      -0.797   0.630  -0.988  0.00  0.00     0.143 A 
ATOM      2  C2  UNL d   1      -0.530   1.901  -1.508  0.00  0.00    -0.057 A 
ATOM      3  C3  UNL d   1      -1.135   2.343  -2.691  0.00  0.00     0.033 A 
ATOM      4  C4  UNL d   1      -1.997   1.508  -3.392  0.00  0.00    -0.042 A 
ATOM      5  C5  UNL d   1      -2.257   0.231  -2.908  0.00  0.00     0.033 A 
ATOM      6  C6  UNL d   1      -1.656  -0.202  -1.722  0.00  0.00    -0.057 A 
ENDROOT
BRANCH   1   7
ATOM      7  N   UNL d   1      -0.151   0.096   0.130  0.00  0.00    -0.732 N 
ATOM      8  C   UNL d   1       1.260  -0.221   0.086  0.00  0.00     0.284 C 
ATOM      9  H3  UNL d   1      -0.452   0.534   0.998  0.00  0.00     0.395 HD
ENDBRANCH   1   7
TORSDOF 1
ENDMDL
