MODEL 1
REMARK minimizedAffinity -4.08735657
REMARK minimizedRMSD -1
REMARK  1 active torsions:
REMARK  status: ('A' for Active; 'I' for Inactive)
REMARK    1  A    between atoms: N_2  and  C1_3 
ROOT
ATOM      1  C1  UNL d   1       0.195   0.417   0.375  0.00  0.00     0.143 A 
ATOM      2  C2  UNL d   1       1.561   0.327   0.086  0.00  0.00    -0.057 A 
ATOM      3  C3  UNL d   1       2.311  -0.793   0.464  0.00  0.00     0.033 A 
ATOM      4  C4  UNL d   1       1.712  -1.834   1.166  0.00  0.00    -0.042 A 
ATOM      5  C5  UNL d   1       0.361  -1.755   1.486  0.00  0.00     0.033 A 
ATOM      6  C6  UNL d   1      -0.384  -0.637   1.100  0.00  0.00    -0.057 A 
ENDROOT
BRANCH   1   7
ATOM      7  N   UNL d   1      -0.583   1.547   0.113  0.00  0.00    -0.732 N 
ATOM      8  C   UNL d   1      -1.256   1.701  -1.159  0.00  0.00     0.284 C 
ATOM      9  H3  UNL d   1      -1.142   1.829   0.916  0.00  0.00     0.395 HD
ENDBRANCH   1   7
TORSDOF 1
ENDMDL
