MODEL 1
REMARK minimizedAffinity -0.176546529
REMARK minimizedRMSD -1
REMARK  1 active torsions:
REMARK  status: ('A' for Active; 'I' for Inactive)
REMARK    1  A    between atoms: N_2  and  C1_3 
ROOT
ATOM      1  C1  UNL d   1       1.230  -1.661   1.039  0.00  0.00     0.143 A 
ATOM      2  C2  UNL d   1       1.586  -0.694   0.093  0.00  0.00    -0.057 A 
ATOM      3  C3  UNL d   1       2.909  -0.254  -0.034  0.00  0.00     0.033 A 
ATOM      4  C4  UNL d   1       3.898  -0.754   0.807  0.00  0.00    -0.042 A 
ATOM      5  C5  UNL d   1       3.563  -1.698   1.772  0.00  0.00     0.033 A 
ATOM      6  C6  UNL d   1       2.241  -2.138   1.889  0.00  0.00    -0.057 A 
ENDROOT
BRANCH   1   7
ATOM      7  N   UNL d   1      -0.085  -2.067   1.280  0.00  0.00    -0.732 N 
ATOM      8  C   UNL d   1      -1.122  -1.092   1.538  0.00  0.00     0.284 C 
ATOM      9  H3  UNL d   1      -0.374  -2.830   0.671  0.00  0.00     0.395 HD
ENDBRANCH   1   7
TORSDOF 1
ENDMDL
