MODEL 1
REMARK minimizedAffinity -3.12500358
REMARK minimizedRMSD -1
REMARK  1 active torsions:
REMARK  status: ('A' for Active; 'I' for Inactive)
REMARK    1  A    between atoms: N_2  and  C1_3 
ROOT
ATOM      1  C1  UNL d   1       1.212  -0.813   0.472  0.00  0.00     0.143 A 
ATOM      2  C2  UNL d   1       0.849  -2.048   1.022  0.00  0.00    -0.057 A 
ATOM      3  C3  UNL d   1      -0.493  -2.375   1.249  0.00  0.00     0.033 A 
ATOM      4  C4  UNL d   1      -1.498  -1.458   0.957  0.00  0.00    -0.042 A 
ATOM      5  C5  UNL d   1      -1.159  -0.216   0.433  0.00  0.00     0.033 A 
ATOM      6  C6  UNL d   1       0.183   0.103   0.203  0.00  0.00    -0.057 A 
ENDROOT
BRANCH   1   7
ATOM      7  N   UNL d   1       2.534  -0.391   0.315  0.00  0.00    -0.732 N 
ATOM      8  C   UNL d   1       3.585  -0.928   1.153  0.00  0.00     0.284 C 
ATOM      9  H3  UNL d   1       2.794  -0.287  -0.664  0.00  0.00     0.395 HD
ENDBRANCH   1   7
TORSDOF 1
ENDMDL
