MODEL 1
REMARK minimizedAffinity -4.34317303
REMARK minimizedRMSD -1
REMARK  1 active torsions:
REMARK  status: ('A' for Active; 'I' for Inactive)
REMARK    1  A    between atoms: N_2  and  C1_3 
ROOT
ATOM      1  C1  UNL d   1       2.424  -1.220   1.109  0.00  0.00     0.143 A 
ATOM      2  C2  UNL d   1       1.718  -2.358   1.513  0.00  0.00    -0.057 A 
ATOM      3  C3  UNL d   1       0.400  -2.582   1.097  0.00  0.00     0.033 A 
ATOM      4  C4  UNL d   1      -0.247  -1.654   0.288  0.00  0.00    -0.042 A 
ATOM      5  C5  UNL d   1       0.426  -0.503  -0.106  0.00  0.00     0.033 A 
ATOM      6  C6  UNL d   1       1.744  -0.289   0.308  0.00  0.00    -0.057 A 
ENDROOT
BRANCH   1   7
ATOM      7  N   UNL d   1       3.701  -0.893   1.569  0.00  0.00    -0.732 N 
ATOM      8  C   UNL d   1       3.987  -0.858   2.987  0.00  0.00     0.284 C 
ATOM      9  H3  UNL d   1       4.437  -1.315   1.007  0.00  0.00     0.395 HD
ENDBRANCH   1   7
TORSDOF 1
ENDMDL
