MODEL 1
REMARK minimizedAffinity -2.7297821
REMARK minimizedRMSD -1
REMARK  1 active torsions:
REMARK  status: ('A' for Active; 'I' for Inactive)
REMARK    1  A    between atoms: N_2  and  C1_3 
ROOT
ATOM      1  C1  UNL d   1      -0.593   0.876  -0.276  0.00  0.00     0.143 A 
ATOM      2  C2  UNL d   1      -1.004  -0.188   0.534  0.00  0.00    -0.057 A 
ATOM      3  C3  UNL d   1      -0.107  -1.186   0.933  0.00  0.00     0.033 A 
ATOM      4  C4  UNL d   1       1.216  -1.152   0.504  0.00  0.00    -0.042 A 
ATOM      5  C5  UNL d   1       1.641  -0.118  -0.322  0.00  0.00     0.033 A 
ATOM      6  C6  UNL d   1       0.742   0.879  -0.712  0.00  0.00    -0.057 A 
ENDROOT
BRANCH   1   7
ATOM      7  N   UNL d   1      -1.460   1.844  -0.788  0.00  0.00    -0.732 N 
ATOM      8  C   UNL d   1      -2.329   1.540  -1.904  0.00  0.00     0.284 C 
ATOM      9  H3  UNL d   1      -1.901   2.396  -0.056  0.00  0.00     0.395 HD
ENDBRANCH   1   7
TORSDOF 1
ENDMDL
