MODEL 1
REMARK minimizedAffinity 6.42939281
REMARK minimizedRMSD -1
REMARK  0 active torsions:
REMARK  status: ('A' for Active; 'I' for Inactive)
ROOT
ATOM      1  C   UNL d   1      -6.000  -1.587  -1.639  0.00  0.00     0.172 C 
ATOM      2  N   UNL d   1      -5.257  -0.719  -0.756  0.00  0.00    -0.070 N 
ATOM      3  C1  UNL d   1      -4.172  -1.083  -0.004  0.00  0.00    -0.004 A 
ATOM      4  C2  UNL d   1      -3.753   0.027   0.697  0.00  0.00    -0.047 A 
ATOM      5  C3  UNL d   1      -4.617   1.095   0.356  0.00  0.00    -0.047 A 
ATOM      6  C4  UNL d   1      -5.539   0.605  -0.545  0.00  0.00    -0.004 A 
ENDROOT
TORSDOF 0
ENDMDL
