MODEL 1
REMARK minimizedAffinity 0.286046594
REMARK minimizedRMSD -1
REMARK  0 active torsions:
REMARK  status: ('A' for Active; 'I' for Inactive)
ROOT
ATOM      1  C   UNL d   1      -1.113  -5.968   5.973  0.00  0.00     0.172 C 
ATOM      2  N   UNL d   1      -0.172  -4.873   5.983  0.00  0.00    -0.070 N 
ATOM      3  C1  UNL d   1       1.192  -4.993   5.985  0.00  0.00    -0.004 A 
ATOM      4  C2  UNL d   1       1.728  -3.723   5.995  0.00  0.00    -0.047 A 
ATOM      5  C3  UNL d   1       0.648  -2.808   6.000  0.00  0.00    -0.047 A 
ATOM      6  C4  UNL d   1      -0.516  -3.547   5.992  0.00  0.00    -0.004 A 
ENDROOT
TORSDOF 0
ENDMDL
