MODEL 1
REMARK minimizedAffinity 2.83105421
REMARK minimizedRMSD -1
REMARK  0 active torsions:
REMARK  status: ('A' for Active; 'I' for Inactive)
ROOT
ATOM      1  C   UNL d   1       0.324  -2.629  -1.103  0.00  0.00     0.172 C 
ATOM      2  N   UNL d   1       1.227  -1.935  -0.216  0.00  0.00    -0.070 N 
ATOM      3  C1  UNL d   1       1.575  -2.339   1.045  0.00  0.00    -0.004 A 
ATOM      4  C2  UNL d   1       2.454  -1.410   1.559  0.00  0.00    -0.047 A 
ATOM      5  C3  UNL d   1       2.639  -0.412   0.573  0.00  0.00    -0.047 A 
ATOM      6  C4  UNL d   1       1.869  -0.762  -0.516  0.00  0.00    -0.004 A 
ENDROOT
TORSDOF 0
ENDMDL
