MODEL 1
REMARK minimizedAffinity 0.0321890078
REMARK minimizedRMSD -1
REMARK  0 active torsions:
REMARK  status: ('A' for Active; 'I' for Inactive)
ROOT
ATOM      1  C   UNL d   1      -0.623  -2.207  -1.652  0.00  0.00     0.172 C 
ATOM      2  N   UNL d   1       0.075  -1.257  -0.817  0.00  0.00    -0.070 N 
ATOM      3  C1  UNL d   1       1.431  -1.197  -0.638  0.00  0.00    -0.004 A 
ATOM      4  C2  UNL d   1       1.697  -0.158   0.227  0.00  0.00    -0.047 A 
ATOM      5  C3  UNL d   1       0.457   0.426   0.581  0.00  0.00    -0.047 A 
ATOM      6  C4  UNL d   1      -0.530  -0.274  -0.079  0.00  0.00    -0.004 A 
ENDROOT
TORSDOF 0
ENDMDL
