MODEL 1
REMARK minimizedAffinity -0.611666501
REMARK minimizedRMSD -1
REMARK  0 active torsions:
REMARK  status: ('A' for Active; 'I' for Inactive)
ROOT
ATOM      1  C   UNL d   1      -1.096  -5.223   5.972  0.00  0.00     0.172 C 
ATOM      2  N   UNL d   1      -0.276  -4.034   5.982  0.00  0.00    -0.070 N 
ATOM      3  C1  UNL d   1      -0.739  -2.745   5.986  0.00  0.00    -0.004 A 
ATOM      4  C2  UNL d   1       0.353  -1.904   5.996  0.00  0.00    -0.047 A 
ATOM      5  C3  UNL d   1       1.512  -2.716   5.996  0.00  0.00    -0.047 A 
ATOM      6  C4  UNL d   1       1.094  -4.030   5.987  0.00  0.00    -0.004 A 
ENDROOT
TORSDOF 0
ENDMDL
