MODEL 1
REMARK minimizedAffinity -3.38775301
REMARK minimizedRMSD -1
REMARK  0 active torsions:
REMARK  status: ('A' for Active; 'I' for Inactive)
ROOT
ATOM      1  C   UNL d   1      -0.772  -4.722   3.903  0.00  0.00     0.172 C 
ATOM      2  N   UNL d   1      -0.924  -4.846   2.472  0.00  0.00    -0.070 N 
ATOM      3  C1  UNL d   1      -1.292  -3.841   1.618  0.00  0.00    -0.004 A 
ATOM      4  C2  UNL d   1      -1.322  -4.361   0.342  0.00  0.00    -0.047 A 
ATOM      5  C3  UNL d   1      -0.961  -5.726   0.433  0.00  0.00    -0.047 A 
ATOM      6  C4  UNL d   1      -0.720  -6.000   1.762  0.00  0.00    -0.004 A 
ENDROOT
TORSDOF 0
ENDMDL
