MODEL 1
REMARK minimizedAffinity 0.00796999317
REMARK minimizedRMSD -1
REMARK  0 active torsions:
REMARK  status: ('A' for Active; 'I' for Inactive)
ROOT
ATOM      1  C   UNL d   1      -0.024   0.368  -1.135  0.00  0.00     0.172 C 
ATOM      2  N   UNL d   1       1.071  -0.106  -0.322  0.00  0.00    -0.070 N 
ATOM      3  C1  UNL d   1       1.273   0.195   0.999  0.00  0.00    -0.004 A 
ATOM      4  C2  UNL d   1       2.421  -0.449   1.407  0.00  0.00    -0.047 A 
ATOM      5  C3  UNL d   1       2.927  -1.161   0.293  0.00  0.00    -0.047 A 
ATOM      6  C4  UNL d   1       2.072  -0.931  -0.764  0.00  0.00    -0.004 A 
ENDROOT
TORSDOF 0
ENDMDL
