MODEL 1
REMARK minimizedAffinity 0.638875902
REMARK minimizedRMSD -1
REMARK  0 active torsions:
REMARK  status: ('A' for Active; 'I' for Inactive)
ROOT
ATOM      1  C   UNL d   1       1.183  -1.874   5.991  0.00  0.00     0.172 C 
ATOM      2  N   UNL d   1       0.149  -2.882   5.991  0.00  0.00    -0.070 N 
ATOM      3  C1  UNL d   1      -1.199  -2.643   5.992  0.00  0.00    -0.004 A 
ATOM      4  C2  UNL d   1      -1.844  -3.861   5.992  0.00  0.00    -0.047 A 
ATOM      5  C3  UNL d   1      -0.848  -4.867   5.992  0.00  0.00    -0.047 A 
ATOM      6  C4  UNL d   1       0.376  -4.233   5.992  0.00  0.00    -0.004 A 
ENDROOT
TORSDOF 0
ENDMDL
