MODEL 1
REMARK minimizedAffinity -0.499530971
REMARK minimizedRMSD -1
REMARK  0 active torsions:
REMARK  status: ('A' for Active; 'I' for Inactive)
ROOT
ATOM      1  C   UNL d   1      -0.818  -5.170   5.991  0.00  0.00     0.172 C 
ATOM      2  N   UNL d   1       0.048  -4.014   5.994  0.00  0.00    -0.070 N 
ATOM      3  C1  UNL d   1       1.417  -4.043   5.998  0.00  0.00    -0.004 A 
ATOM      4  C2  UNL d   1       1.867  -2.740   5.999  0.00  0.00    -0.047 A 
ATOM      5  C3  UNL d   1       0.728  -1.900   5.997  0.00  0.00    -0.047 A 
ATOM      6  C4  UNL d   1      -0.384  -2.714   5.994  0.00  0.00    -0.004 A 
ENDROOT
TORSDOF 0
ENDMDL
