MODEL 1
REMARK minimizedAffinity -3.02907515
REMARK minimizedRMSD -1
REMARK  1 active torsions:
REMARK  status: ('A' for Active; 'I' for Inactive)
REMARK    1  A    between atoms: N_2  and  C1_3 
ROOT
ATOM      1  C1  UNL d   1       0.126   0.131   0.065  0.00  0.00     0.143 A 
ATOM      2  C2  UNL d   1       1.070   1.148   0.239  0.00  0.00    -0.057 A 
ATOM      3  C3  UNL d   1       2.390   0.859   0.606  0.00  0.00     0.033 A 
ATOM      4  C4  UNL d   1       2.783  -0.456   0.834  0.00  0.00    -0.042 A 
ATOM      5  C5  UNL d   1       1.855  -1.482   0.691  0.00  0.00     0.033 A 
ATOM      6  C6  UNL d   1       0.540  -1.186   0.318  0.00  0.00    -0.057 A 
ENDROOT
BRANCH   1   7
ATOM      7  N   UNL d   1      -1.226   0.362  -0.202  0.00  0.00    -0.732 N 
ATOM      8  C   UNL d   1      -1.698   0.479  -1.565  0.00  0.00     0.284 C 
ATOM      9  H3  UNL d   1      -1.839  -0.176   0.406  0.00  0.00     0.395 HD
ENDBRANCH   1   7
TORSDOF 1
ENDMDL
