MODEL 1
REMARK minimizedAffinity -2.97566676
REMARK minimizedRMSD -1
REMARK  1 active torsions:
REMARK  status: ('A' for Active; 'I' for Inactive)
REMARK    1  A    between atoms: N_2  and  C1_3 
ROOT
ATOM      1  C1  UNL d   1       0.775   0.504   0.370  0.00  0.00     0.143 A 
ATOM      2  C2  UNL d   1      -0.260   1.391   0.054  0.00  0.00    -0.057 A 
ATOM      3  C3  UNL d   1      -1.600   0.991   0.102  0.00  0.00     0.033 A 
ATOM      4  C4  UNL d   1      -1.929  -0.318   0.441  0.00  0.00    -0.042 A 
ATOM      5  C5  UNL d   1      -0.916  -1.224   0.735  0.00  0.00     0.033 A 
ATOM      6  C6  UNL d   1       0.420  -0.816   0.691  0.00  0.00    -0.057 A 
ENDROOT
BRANCH   1   7
ATOM      7  N   UNL d   1       2.131   0.814   0.245  0.00  0.00    -0.732 N 
ATOM      8  C   UNL d   1       3.083   0.378   1.244  0.00  0.00     0.284 C 
ATOM      9  H3  UNL d   1       2.463   0.725  -0.713  0.00  0.00     0.395 HD
ENDBRANCH   1   7
TORSDOF 1
ENDMDL
