MODEL 1
REMARK minimizedAffinity -5.09523582
REMARK minimizedRMSD -1
REMARK  1 active torsions:
REMARK  status: ('A' for Active; 'I' for Inactive)
REMARK    1  A    between atoms: N_2  and  C1_3 
ROOT
ATOM      1  C1  UNL d   1       1.082  -0.061   0.487  0.00  0.00     0.143 A 
ATOM      2  C2  UNL d   1       1.186  -0.926   1.581  0.00  0.00    -0.057 A 
ATOM      3  C3  UNL d   1       2.419  -1.175   2.196  0.00  0.00     0.033 A 
ATOM      4  C4  UNL d   1       3.579  -0.584   1.706  0.00  0.00    -0.042 A 
ATOM      5  C5  UNL d   1       3.503   0.260   0.603  0.00  0.00     0.033 A 
ATOM      6  C6  UNL d   1       2.268   0.510  -0.002  0.00  0.00    -0.057 A 
ENDROOT
BRANCH   1   7
ATOM      7  N   UNL d   1      -0.099   0.150  -0.229  0.00  0.00    -0.732 N 
ATOM      8  C   UNL d   1      -1.356   0.337   0.463  0.00  0.00     0.284 C 
ATOM      9  H3  UNL d   1       0.034   0.770  -1.024  0.00  0.00     0.395 HD
ENDBRANCH   1   7
TORSDOF 1
ENDMDL
