MODEL 1
REMARK minimizedAffinity -3.30327988
REMARK minimizedRMSD -1
REMARK  1 active torsions:
REMARK  status: ('A' for Active; 'I' for Inactive)
REMARK    1  A    between atoms: N_2  and  C1_3 
ROOT
ATOM      1  C1  UNL d   1       0.329  -0.179   0.721  0.00  0.00     0.143 A 
ATOM      2  C2  UNL d   1       1.082  -1.335   0.490  0.00  0.00    -0.057 A 
ATOM      3  C3  UNL d   1       2.476  -1.281   0.365  0.00  0.00     0.033 A 
ATOM      4  C4  UNL d   1       3.140  -0.061   0.440  0.00  0.00    -0.042 A 
ATOM      5  C5  UNL d   1       2.410   1.104   0.645  0.00  0.00     0.033 A 
ATOM      6  C6  UNL d   1       1.019   1.043   0.776  0.00  0.00    -0.057 A 
ENDROOT
BRANCH   1   7
ATOM      7  N   UNL d   1      -1.067  -0.154   0.756  0.00  0.00    -0.732 N 
ATOM      8  C   UNL d   1      -1.835  -0.140  -0.470  0.00  0.00     0.284 C 
ATOM      9  H3  UNL d   1      -1.448  -0.761   1.478  0.00  0.00     0.395 HD
ENDBRANCH   1   7
TORSDOF 1
ENDMDL
