MODEL 1
REMARK minimizedAffinity -5.36911774
REMARK minimizedRMSD -1
REMARK  1 active torsions:
REMARK  status: ('A' for Active; 'I' for Inactive)
REMARK    1  A    between atoms: N_2  and  C1_3 
ROOT
ATOM      1  C1  UNL d   1       0.486   0.673   0.478  0.00  0.00     0.143 A 
ATOM      2  C2  UNL d   1       1.168   1.613   1.258  0.00  0.00    -0.057 A 
ATOM      3  C3  UNL d   1       2.481   1.384   1.689  0.00  0.00     0.033 A 
ATOM      4  C4  UNL d   1       3.126   0.194   1.371  0.00  0.00    -0.042 A 
ATOM      5  C5  UNL d   1       2.458  -0.766   0.618  0.00  0.00     0.033 A 
ATOM      6  C6  UNL d   1       1.150  -0.528   0.185  0.00  0.00    -0.057 A 
ENDROOT
BRANCH   1   7
ATOM      7  N   UNL d   1      -0.853   0.800   0.102  0.00  0.00    -0.732 N 
ATOM      8  C   UNL d   1      -1.281   0.437  -1.232  0.00  0.00     0.284 C 
ATOM      9  H3  UNL d   1      -1.492   0.508   0.837  0.00  0.00     0.395 HD
ENDBRANCH   1   7
TORSDOF 1
ENDMDL
