MODEL 1
REMARK minimizedAffinity 10.698801
REMARK minimizedRMSD -1
REMARK  0 active torsions:
REMARK  status: ('A' for Active; 'I' for Inactive)
ROOT
ATOM      1  C4' PXY d   1       4.398   4.687  -4.343  0.00  0.00     0.077 C 
ATOM      2  C1' PXY d   1       2.101  -0.602  -3.934  0.00  0.00     0.077 C 
ATOM      3  C1  PXY d   1       2.710   0.781  -4.052  0.00  0.00    -0.082 A 
ATOM      4  C2  PXY d   1       2.781   1.558  -2.983  0.00  0.00     0.003 A 
ATOM      5  C3  PXY d   1       3.299   2.824  -3.078  0.00  0.00     0.003 A 
ATOM      6  C4  PXY d   1       3.800   3.280  -4.269  0.00  0.00    -0.082 A 
ATOM      7  C5  PXY d   1       3.741   2.489  -5.361  0.00  0.00     0.003 A 
ATOM      8  C6  PXY d   1       3.173   1.223  -5.253  0.00  0.00     0.003 A 
ENDROOT
TORSDOF 0
ENDMDL
