MODEL 1
REMARK minimizedAffinity 2.53160763
REMARK minimizedRMSD -1
REMARK  0 active torsions:
REMARK  status: ('A' for Active; 'I' for Inactive)
ROOT
ATOM      1  C4' PXY d   1       5.823  -5.916   5.484  0.00  0.00     0.077 C 
ATOM      2  C1' PXY d   1       0.775  -5.272   2.740  0.00  0.00     0.077 C 
ATOM      3  C1  PXY d   1       2.105  -5.443   3.448  0.00  0.00    -0.082 A 
ATOM      4  C2  PXY d   1       2.130  -5.871   4.700  0.00  0.00     0.003 A 
ATOM      5  C3  PXY d   1       3.321  -6.000   5.366  0.00  0.00     0.003 A 
ATOM      6  C4  PXY d   1       4.504  -5.739   4.727  0.00  0.00    -0.082 A 
ATOM      7  C5  PXY d   1       4.488  -5.312   3.446  0.00  0.00     0.003 A 
ATOM      8  C6  PXY d   1       3.265  -5.148   2.801  0.00  0.00     0.003 A 
ENDROOT
TORSDOF 0
ENDMDL
