MODEL 1
REMARK minimizedAffinity 6.7313118
REMARK minimizedRMSD -1
REMARK  0 active torsions:
REMARK  status: ('A' for Active; 'I' for Inactive)
ROOT
ATOM      1  C4' PXY d   1       4.143   4.859  -4.105  0.00  0.00     0.077 C 
ATOM      2  C1' PXY d   1       0.743   1.324  -1.045  0.00  0.00     0.077 C 
ATOM      3  C1  PXY d   1       1.629   2.261  -1.842  0.00  0.00    -0.082 A 
ATOM      4  C2  PXY d   1       2.180   1.841  -2.969  0.00  0.00     0.003 A 
ATOM      5  C3  PXY d   1       3.009   2.664  -3.686  0.00  0.00     0.003 A 
ATOM      6  C4  PXY d   1       3.234   3.950  -3.272  0.00  0.00    -0.082 A 
ATOM      7  C5  PXY d   1       2.667   4.391  -2.129  0.00  0.00     0.003 A 
ATOM      8  C6  PXY d   1       1.862   3.525  -1.395  0.00  0.00     0.003 A 
ENDROOT
TORSDOF 0
ENDMDL
