MODEL 1
REMARK minimizedAffinity 12.7059097
REMARK minimizedRMSD -1
REMARK  0 active torsions:
REMARK  status: ('A' for Active; 'I' for Inactive)
ROOT
ATOM      1  C4' PXY d   1       0.770   6.000  -4.971  0.00  0.00     0.077 C 
ATOM      2  C1' PXY d   1       6.000   3.539  -4.886  0.00  0.00     0.077 C 
ATOM      3  C1  PXY d   1       4.631   4.190  -4.896  0.00  0.00    -0.082 A 
ATOM      4  C2  PXY d   1       3.670   3.679  -5.649  0.00  0.00     0.003 A 
ATOM      5  C3  PXY d   1       2.435   4.273  -5.695  0.00  0.00     0.003 A 
ATOM      6  C4  PXY d   1       2.165   5.371  -4.922  0.00  0.00    -0.082 A 
ATOM      7  C5  PXY d   1       3.137   5.891  -4.143  0.00  0.00     0.003 A 
ATOM      8  C6  PXY d   1       4.396   5.298  -4.142  0.00  0.00     0.003 A 
ENDROOT
TORSDOF 0
ENDMDL
