MODEL 1
REMARK minimizedAffinity 13.6066122
REMARK minimizedRMSD -1
REMARK  0 active torsions:
REMARK  status: ('A' for Active; 'I' for Inactive)
ROOT
ATOM      1  C4' PXY d   1      -2.775  -3.455  -6.000  0.00  0.00     0.077 C 
ATOM      2  C1' PXY d   1       2.016  -0.614  -4.456  0.00  0.00     0.077 C 
ATOM      3  C1  PXY d   1       0.753  -1.349  -4.857  0.00  0.00    -0.082 A 
ATOM      4  C2  PXY d   1       0.737  -2.672  -4.855  0.00  0.00     0.003 A 
ATOM      5  C3  PXY d   1      -0.388  -3.352  -5.247  0.00  0.00     0.003 A 
ATOM      6  C4  PXY d   1      -1.524  -2.671  -5.592  0.00  0.00    -0.082 A 
ATOM      7  C5  PXY d   1      -1.519  -1.322  -5.587  0.00  0.00     0.003 A 
ATOM      8  C6  PXY d   1      -0.355  -0.649  -5.226  0.00  0.00     0.003 A 
ENDROOT
TORSDOF 0
ENDMDL
