MODEL 1
REMARK minimizedAffinity 12.9640112
REMARK minimizedRMSD -1
REMARK  0 active torsions:
REMARK  status: ('A' for Active; 'I' for Inactive)
ROOT
ATOM      1  C4' PXY d   1       6.000  -5.345   5.311  0.00  0.00     0.077 C 
ATOM      2  C1' PXY d   1       5.756   0.286   4.028  0.00  0.00     0.077 C 
ATOM      3  C1  PXY d   1       5.826  -1.188   4.376  0.00  0.00    -0.082 A 
ATOM      4  C2  PXY d   1       5.781  -2.091   3.410  0.00  0.00     0.003 A 
ATOM      5  C3  PXY d   1       5.810  -3.428   3.708  0.00  0.00     0.003 A 
ATOM      6  C4  PXY d   1       5.942  -3.846   5.006  0.00  0.00    -0.082 A 
ATOM      7  C5  PXY d   1       5.999  -2.930   5.997  0.00  0.00     0.003 A 
ATOM      8  C6  PXY d   1       5.926  -1.578   5.675  0.00  0.00     0.003 A 
ENDROOT
TORSDOF 0
ENDMDL
