MODEL 1
REMARK minimizedAffinity 7.06493425
REMARK minimizedRMSD -1
REMARK  0 active torsions:
REMARK  status: ('A' for Active; 'I' for Inactive)
ROOT
ATOM      1  C4' PXY d   1      -5.592  -5.999  -1.919  0.00  0.00     0.077 C 
ATOM      2  C1' PXY d   1      -3.940  -1.289   0.998  0.00  0.00     0.077 C 
ATOM      3  C1  PXY d   1      -4.362  -2.530   0.236  0.00  0.00    -0.082 A 
ATOM      4  C2  PXY d   1      -5.275  -2.434  -0.717  0.00  0.00     0.003 A 
ATOM      5  C3  PXY d   1      -5.691  -3.551  -1.394  0.00  0.00     0.003 A 
ATOM      6  C4  PXY d   1      -5.129  -4.771  -1.130  0.00  0.00    -0.082 A 
ATOM      7  C5  PXY d   1      -4.189  -4.876  -0.167  0.00  0.00     0.003 A 
ATOM      8  C6  PXY d   1      -3.810  -3.737   0.538  0.00  0.00     0.003 A 
ENDROOT
TORSDOF 0
ENDMDL
