MODEL 1
REMARK minimizedAffinity 12.0530348
REMARK minimizedRMSD -1
REMARK  0 active torsions:
REMARK  status: ('A' for Active; 'I' for Inactive)
ROOT
ATOM      1  C4' PXY d   1      -3.980  -5.998  -5.974  0.00  0.00     0.077 C 
ATOM      2  C1' PXY d   1       0.174  -1.979  -5.999  0.00  0.00     0.077 C 
ATOM      3  C1  PXY d   1      -0.907  -3.041  -5.998  0.00  0.00    -0.082 A 
ATOM      4  C2  PXY d   1      -2.180  -2.679  -5.996  0.00  0.00     0.003 A 
ATOM      5  C3  PXY d   1      -3.170  -3.627  -5.963  0.00  0.00     0.003 A 
ATOM      6  C4  PXY d   1      -2.855  -4.959  -5.985  0.00  0.00    -0.082 A 
ATOM      7  C5  PXY d   1      -1.559  -5.337  -5.998  0.00  0.00     0.003 A 
ATOM      8  C6  PXY d   1      -0.568  -4.359  -5.990  0.00  0.00     0.003 A 
ENDROOT
TORSDOF 0
ENDMDL
