MODEL 1
REMARK minimizedAffinity 2.31888247
REMARK minimizedRMSD -1
REMARK  0 active torsions:
REMARK  status: ('A' for Active; 'I' for Inactive)
ROOT
ATOM      1  C4' PXY d   1      -1.539  -3.131  -5.631  0.00  0.00     0.077 C 
ATOM      2  C1' PXY d   1       1.650   0.660  -2.651  0.00  0.00     0.077 C 
ATOM      3  C1  PXY d   1       0.804  -0.326  -3.432  0.00  0.00    -0.082 A 
ATOM      4  C2  PXY d   1       1.058  -1.621  -3.343  0.00  0.00     0.003 A 
ATOM      5  C3  PXY d   1       0.323  -2.524  -4.068  0.00  0.00     0.003 A 
ATOM      6  C4  PXY d   1      -0.717  -2.100  -4.852  0.00  0.00    -0.082 A 
ATOM      7  C5  PXY d   1      -0.989  -0.781  -4.940  0.00  0.00     0.003 A 
ATOM      8  C6  PXY d   1      -0.205   0.122  -4.228  0.00  0.00     0.003 A 
ENDROOT
TORSDOF 0
ENDMDL
