MODEL 1
REMARK minimizedAffinity 14.2472467
REMARK minimizedRMSD -1
REMARK  0 active torsions:
REMARK  status: ('A' for Active; 'I' for Inactive)
ROOT
ATOM      1  C4' PXY d   1       3.052   4.148  -6.000  0.00  0.00     0.077 C 
ATOM      2  C1' PXY d   1       2.511   2.822  -0.399  0.00  0.00     0.077 C 
ATOM      3  C1  PXY d   1       2.660   3.180  -1.865  0.00  0.00    -0.082 A 
ATOM      4  C2  PXY d   1       1.725   2.813  -2.726  0.00  0.00     0.003 A 
ATOM      5  C3  PXY d   1       1.860   3.101  -4.060  0.00  0.00     0.003 A 
ATOM      6  C4  PXY d   1       2.938   3.817  -4.509  0.00  0.00    -0.082 A 
ATOM      7  C5  PXY d   1       3.890   4.204  -3.635  0.00  0.00     0.003 A 
ATOM      8  C6  PXY d   1       3.755   3.866  -2.291  0.00  0.00     0.003 A 
ENDROOT
TORSDOF 0
ENDMDL
