MODEL 1
REMARK minimizedAffinity 13.2134523
REMARK minimizedRMSD -1
REMARK  0 active torsions:
REMARK  status: ('A' for Active; 'I' for Inactive)
ROOT
ATOM      1  C4' PXY d   1       0.764  -2.286  -3.454  0.00  0.00     0.077 C 
ATOM      2  C1' PXY d   1       3.539   2.102  -5.997  0.00  0.00     0.077 C 
ATOM      3  C1  PXY d   1       2.821   0.943  -5.333  0.00  0.00    -0.082 A 
ATOM      4  C2  PXY d   1       1.503   0.970  -5.218  0.00  0.00     0.003 A 
ATOM      5  C3  PXY d   1       0.841  -0.055  -4.592  0.00  0.00     0.003 A 
ATOM      6  C4  PXY d   1       1.530  -1.142  -4.126  0.00  0.00    -0.082 A 
ATOM      7  C5  PXY d   1       2.874  -1.182  -4.249  0.00  0.00     0.003 A 
ATOM      8  C6  PXY d   1       3.531  -0.113  -4.851  0.00  0.00     0.003 A 
ENDROOT
TORSDOF 0
ENDMDL
