MODEL 1
REMARK minimizedAffinity 11.3950653
REMARK minimizedRMSD -1
REMARK  0 active torsions:
REMARK  status: ('A' for Active; 'I' for Inactive)
ROOT
ATOM      1  C4' PXY d   1      -5.805  -5.592  -1.783  0.00  0.00     0.077 C 
ATOM      2  C1' PXY d   1      -4.595  -0.182  -3.422  0.00  0.00     0.077 C 
ATOM      3  C1  PXY d   1      -4.912  -1.597  -2.980  0.00  0.00    -0.082 A 
ATOM      4  C2  PXY d   1      -4.613  -2.613  -3.773  0.00  0.00     0.003 A 
ATOM      5  C3  PXY d   1      -4.922  -3.896  -3.403  0.00  0.00     0.003 A 
ATOM      6  C4  PXY d   1      -5.495  -4.147  -2.185  0.00  0.00    -0.082 A 
ATOM      7  C5  PXY d   1      -5.793  -3.117  -1.365  0.00  0.00     0.003 A 
ATOM      8  C6  PXY d   1      -5.508  -1.818  -1.777  0.00  0.00     0.003 A 
ENDROOT
TORSDOF 0
ENDMDL
