MODEL 1
REMARK minimizedAffinity 7.1251812
REMARK minimizedRMSD -1
REMARK  0 active torsions:
REMARK  status: ('A' for Active; 'I' for Inactive)
ROOT
ATOM      1  C4' PXY d   1       2.116   3.074  -0.425  0.00  0.00     0.077 C 
ATOM      2  C1' PXY d   1       1.481  -1.103  -4.371  0.00  0.00     0.077 C 
ATOM      3  C1  PXY d   1       1.660  -0.009  -3.337  0.00  0.00    -0.082 A 
ATOM      4  C2  PXY d   1       0.674   0.267  -2.498  0.00  0.00     0.003 A 
ATOM      5  C3  PXY d   1       0.808   1.274  -1.578  0.00  0.00     0.003 A 
ATOM      6  C4  PXY d   1       1.982   1.971  -1.479  0.00  0.00    -0.082 A 
ATOM      7  C5  PXY d   1       2.997   1.689  -2.324  0.00  0.00     0.003 A 
ATOM      8  C6  PXY d   1       2.826   0.690  -3.279  0.00  0.00     0.003 A 
ENDROOT
TORSDOF 0
ENDMDL
