MODEL 1
REMARK minimizedAffinity 1.70278049
REMARK minimizedRMSD -1
REMARK  0 active torsions:
REMARK  status: ('A' for Active; 'I' for Inactive)
ROOT
ATOM      1  C4' PXY d   1      -0.772  -3.478  -5.527  0.00  0.00     0.077 C 
ATOM      2  C1' PXY d   1       0.813   1.055  -2.309  0.00  0.00     0.077 C 
ATOM      3  C1  PXY d   1       0.386  -0.128  -3.156  0.00  0.00    -0.082 A 
ATOM      4  C2  PXY d   1       0.836  -1.338  -2.865  0.00  0.00     0.003 A 
ATOM      5  C3  PXY d   1       0.486  -2.413  -3.640  0.00  0.00     0.003 A 
ATOM      6  C4  PXY d   1      -0.376  -2.257  -4.693  0.00  0.00    -0.082 A 
ATOM      7  C5  PXY d   1      -0.848  -1.028  -4.990  0.00  0.00     0.003 A 
ATOM      8  C6  PXY d   1      -0.447   0.057  -4.215  0.00  0.00     0.003 A 
ENDROOT
TORSDOF 0
ENDMDL
