MODEL 1
REMARK minimizedAffinity 11.4273176
REMARK minimizedRMSD -1
REMARK  0 active torsions:
REMARK  status: ('A' for Active; 'I' for Inactive)
ROOT
ATOM      1  C4' PXY d   1      -1.465  -3.350  -6.000  0.00  0.00     0.077 C 
ATOM      2  C1' PXY d   1       2.134   0.333  -3.373  0.00  0.00     0.077 C 
ATOM      3  C1  PXY d   1       1.182  -0.623  -4.064  0.00  0.00    -0.082 A 
ATOM      4  C2  PXY d   1       1.241  -1.917  -3.790  0.00  0.00     0.003 A 
ATOM      5  C3  PXY d   1       0.408  -2.799  -4.430  0.00  0.00     0.003 A 
ATOM      6  C4  PXY d   1      -0.529  -2.347  -5.319  0.00  0.00    -0.082 A 
ATOM      7  C5  PXY d   1      -0.602  -1.028  -5.596  0.00  0.00     0.003 A 
ATOM      8  C6  PXY d   1       0.279  -0.153  -4.966  0.00  0.00     0.003 A 
ENDROOT
TORSDOF 0
ENDMDL
