MODEL 1
REMARK minimizedAffinity 11.5234871
REMARK minimizedRMSD -1
REMARK  0 active torsions:
REMARK  status: ('A' for Active; 'I' for Inactive)
ROOT
ATOM      1  C4' PXY d   1       2.592   1.885  -1.430  0.00  0.00     0.077 C 
ATOM      2  C1' PXY d   1       0.248  -2.683  -4.086  0.00  0.00     0.077 C 
ATOM      3  C1  PXY d   1       0.875  -1.490  -3.393  0.00  0.00    -0.082 A 
ATOM      4  C2  PXY d   1       0.205  -0.860  -2.441  0.00  0.00     0.003 A 
ATOM      5  C3  PXY d   1       0.744   0.240  -1.825  0.00  0.00     0.003 A 
ATOM      6  C4  PXY d   1       2.003   0.669  -2.151  0.00  0.00    -0.082 A 
ATOM      7  C5  PXY d   1       2.697   0.026  -3.114  0.00  0.00     0.003 A 
ATOM      8  C6  PXY d   1       2.115  -1.064  -3.755  0.00  0.00     0.003 A 
ENDROOT
TORSDOF 0
ENDMDL
