MODEL 1
REMARK minimizedAffinity 11.1361132
REMARK minimizedRMSD -1
REMARK  0 active torsions:
REMARK  status: ('A' for Active; 'I' for Inactive)
ROOT
ATOM      1  C4' PXY d   1      -0.487   1.029   0.735  0.00  0.00     0.077 C 
ATOM      2  C1' PXY d   1       1.785  -0.572  -4.333  0.00  0.00     0.077 C 
ATOM      3  C1  PXY d   1       1.196  -0.140  -3.005  0.00  0.00    -0.082 A 
ATOM      4  C2  PXY d   1       0.805  -1.057  -2.134  0.00  0.00     0.003 A 
ATOM      5  C3  PXY d   1       0.241  -0.685  -0.942  0.00  0.00     0.003 A 
ATOM      6  C4  PXY d   1       0.123   0.640  -0.614  0.00  0.00    -0.082 A 
ATOM      7  C5  PXY d   1       0.529   1.581  -1.493  0.00  0.00     0.003 A 
ATOM      8  C6  PXY d   1       1.061   1.182  -2.716  0.00  0.00     0.003 A 
ENDROOT
TORSDOF 0
ENDMDL
