MODEL 1
REMARK minimizedAffinity 10.8001261
REMARK minimizedRMSD -1
REMARK  0 active torsions:
REMARK  status: ('A' for Active; 'I' for Inactive)
ROOT
ATOM      1  C4' PXY d   1       2.094   3.933  -1.518  0.00  0.00     0.077 C 
ATOM      2  C1' PXY d   1       1.696  -1.300  -3.940  0.00  0.00     0.077 C 
ATOM      3  C1  PXY d   1       1.787   0.073  -3.304  0.00  0.00    -0.082 A 
ATOM      4  C2  PXY d   1       2.873   0.806  -3.485  0.00  0.00     0.003 A 
ATOM      5  C3  PXY d   1       2.986   2.037  -2.891  0.00  0.00     0.003 A 
ATOM      6  C4  PXY d   1       1.954   2.545  -2.148  0.00  0.00    -0.082 A 
ATOM      7  C5  PXY d   1       0.838   1.807  -1.968  0.00  0.00     0.003 A 
ATOM      8  C6  PXY d   1       0.760   0.543  -2.545  0.00  0.00     0.003 A 
ENDROOT
TORSDOF 0
ENDMDL
