MODEL 1
REMARK minimizedAffinity 15.3819971
REMARK minimizedRMSD -1
REMARK  0 active torsions:
REMARK  status: ('A' for Active; 'I' for Inactive)
ROOT
ATOM      1  C4' PXY d   1       0.418   0.897  -1.174  0.00  0.00     0.077 C 
ATOM      2  C1' PXY d   1       2.631  -2.206  -5.520  0.00  0.00     0.077 C 
ATOM      3  C1  PXY d   1       2.043  -1.402  -4.378  0.00  0.00    -0.082 A 
ATOM      4  C2  PXY d   1       2.122  -0.081  -4.398  0.00  0.00     0.003 A 
ATOM      5  C3  PXY d   1       1.624   0.660  -3.358  0.00  0.00     0.003 A 
ATOM      6  C4  PXY d   1       0.990   0.046  -2.311  0.00  0.00    -0.082 A 
ATOM      7  C5  PXY d   1       0.896  -1.301  -2.288  0.00  0.00     0.003 A 
ATOM      8  C6  PXY d   1       1.445  -2.037  -3.334  0.00  0.00     0.003 A 
ENDROOT
TORSDOF 0
ENDMDL
