MODEL 1
REMARK minimizedAffinity 10.2103643
REMARK minimizedRMSD -1
REMARK  0 active torsions:
REMARK  status: ('A' for Active; 'I' for Inactive)
ROOT
ATOM      1  C4' PXY d   1      -1.897  -3.384  -6.000  0.00  0.00     0.077 C 
ATOM      2  C1' PXY d   1       1.662   0.125  -3.095  0.00  0.00     0.077 C 
ATOM      3  C1  PXY d   1       0.723  -0.785  -3.862  0.00  0.00    -0.082 A 
ATOM      4  C2  PXY d   1       0.477  -2.004  -3.409  0.00  0.00     0.003 A 
ATOM      5  C3  PXY d   1      -0.345  -2.851  -4.107  0.00  0.00     0.003 A 
ATOM      6  C4  PXY d   1      -0.963  -2.428  -5.253  0.00  0.00    -0.082 A 
ATOM      7  C5  PXY d   1      -0.726  -1.182  -5.716  0.00  0.00     0.003 A 
ATOM      8  C6  PXY d   1       0.144  -0.352  -5.015  0.00  0.00     0.003 A 
ENDROOT
TORSDOF 0
ENDMDL
