MODEL 1
REMARK minimizedAffinity 9.11102486
REMARK minimizedRMSD -1
REMARK  0 active torsions:
REMARK  status: ('A' for Active; 'I' for Inactive)
ROOT
ATOM      1  C   UNL d   1       3.433  -0.311   1.851  0.00  0.00     0.077 C 
ATOM      2  C1  UNL d   1       3.570   0.040   0.399  0.00  0.00    -0.074 A 
ATOM      3  C2  UNL d   1       2.605  -0.360  -0.531  0.00  0.00    -0.005 A 
ATOM      4  C3  UNL d   1       2.741  -0.018  -1.876  0.00  0.00     0.006 A 
ATOM      5  C4  UNL d   1       3.841   0.725  -2.305  0.00  0.00    -0.005 A 
ATOM      6  C5  UNL d   1       4.816   1.134  -1.389  0.00  0.00    -0.074 A 
ATOM      7  C6  UNL d   1       6.000   1.942  -1.831  0.00  0.00     0.077 C 
ATOM      8  C7  UNL d   1       4.668   0.793  -0.038  0.00  0.00    -0.001 A 
ENDROOT
TORSDOF 0
ENDMDL
