MODEL 1
REMARK minimizedAffinity 6.01104641
REMARK minimizedRMSD -1
REMARK  0 active torsions:
REMARK  status: ('A' for Active; 'I' for Inactive)
ROOT
ATOM      1  C   UNL d   1       6.000   2.155  -2.629  0.00  0.00     0.077 C 
ATOM      2  C1  UNL d   1       5.152   1.539  -1.557  0.00  0.00    -0.074 A 
ATOM      3  C2  UNL d   1       5.378   1.826  -0.207  0.00  0.00    -0.005 A 
ATOM      4  C3  UNL d   1       4.574   1.253   0.779  0.00  0.00     0.006 A 
ATOM      5  C4  UNL d   1       3.538   0.388   0.425  0.00  0.00    -0.005 A 
ATOM      6  C5  UNL d   1       3.296   0.089  -0.920  0.00  0.00    -0.074 A 
ATOM      7  C6  UNL d   1       2.181  -0.831  -1.318  0.00  0.00     0.077 C 
ATOM      8  C7  UNL d   1       4.104   0.675  -1.905  0.00  0.00    -0.001 A 
ENDROOT
TORSDOF 0
ENDMDL
