MODEL 1
REMARK minimizedAffinity 8.28403473
REMARK minimizedRMSD -1
REMARK  0 active torsions:
REMARK  status: ('A' for Active; 'I' for Inactive)
ROOT
ATOM      1  C   UNL d   1      -5.558   6.000   4.979  0.00  0.00     0.077 C 
ATOM      2  C1  UNL d   1      -5.361   5.262   3.689  0.00  0.00    -0.074 A 
ATOM      3  C2  UNL d   1      -5.714   3.914   3.570  0.00  0.00    -0.005 A 
ATOM      4  C3  UNL d   1      -5.533   3.244   2.360  0.00  0.00     0.006 A 
ATOM      5  C4  UNL d   1      -4.999   3.914   1.258  0.00  0.00    -0.005 A 
ATOM      6  C5  UNL d   1      -4.641   5.262   1.358  0.00  0.00    -0.074 A 
ATOM      7  C6  UNL d   1      -4.074   5.999   0.181  0.00  0.00     0.077 C 
ATOM      8  C7  UNL d   1      -4.832   5.930   2.575  0.00  0.00    -0.001 A 
ENDROOT
TORSDOF 0
ENDMDL
