MODEL 1
REMARK minimizedAffinity 5.88125229
REMARK minimizedRMSD -1
REMARK  0 active torsions:
REMARK  status: ('A' for Active; 'I' for Inactive)
ROOT
ATOM      1  C   UNL d   1      -1.670   1.412  -0.375  0.00  0.00     0.077 C 
ATOM      2  C1  UNL d   1      -3.058   1.226   0.161  0.00  0.00    -0.074 A 
ATOM      3  C2  UNL d   1      -3.577   2.092   1.129  0.00  0.00    -0.005 A 
ATOM      4  C3  UNL d   1      -4.873   1.912   1.611  0.00  0.00     0.006 A 
ATOM      5  C4  UNL d   1      -5.662   0.866   1.132  0.00  0.00    -0.005 A 
ATOM      6  C5  UNL d   1      -5.161  -0.010   0.164  0.00  0.00    -0.074 A 
ATOM      7  C6  UNL d   1      -5.999  -1.133  -0.369  0.00  0.00     0.077 C 
ATOM      8  C7  UNL d   1      -3.860   0.182  -0.321  0.00  0.00    -0.001 A 
ENDROOT
TORSDOF 0
ENDMDL
