MODEL 1
REMARK minimizedAffinity 8.22505379
REMARK minimizedRMSD -1
REMARK  0 active torsions:
REMARK  status: ('A' for Active; 'I' for Inactive)
ROOT
ATOM      1  C   UNL d   1       3.185   1.642   0.351  0.00  0.00     0.077 C 
ATOM      2  C1  UNL d   1       2.279   2.430   1.249  0.00  0.00    -0.074 A 
ATOM      3  C2  UNL d   1       1.381   3.364   0.723  0.00  0.00    -0.005 A 
ATOM      4  C3  UNL d   1       0.537   4.083   1.570  0.00  0.00     0.006 A 
ATOM      5  C4  UNL d   1       0.583   3.875   2.949  0.00  0.00    -0.005 A 
ATOM      6  C5  UNL d   1       1.475   2.945   3.493  0.00  0.00    -0.074 A 
ATOM      7  C6  UNL d   1       1.530   2.702   4.972  0.00  0.00     0.077 C 
ATOM      8  C7  UNL d   1       2.314   2.221   2.635  0.00  0.00    -0.001 A 
ENDROOT
TORSDOF 0
ENDMDL
