MODEL 1
REMARK minimizedAffinity 7.67659283
REMARK minimizedRMSD -1
REMARK  0 active torsions:
REMARK  status: ('A' for Active; 'I' for Inactive)
ROOT
ATOM      1  C   UNL d   1       5.862   2.660  -2.605  0.00  0.00     0.077 C 
ATOM      2  C1  UNL d   1       5.266   2.223  -1.300  0.00  0.00    -0.074 A 
ATOM      3  C2  UNL d   1       5.883   2.540  -0.086  0.00  0.00    -0.005 A 
ATOM      4  C3  UNL d   1       5.312   2.135   1.120  0.00  0.00     0.006 A 
ATOM      5  C4  UNL d   1       4.119   1.411   1.125  0.00  0.00    -0.005 A 
ATOM      6  C5  UNL d   1       3.486   1.086  -0.079  0.00  0.00    -0.074 A 
ATOM      7  C6  UNL d   1       2.199   0.318  -0.092  0.00  0.00     0.077 C 
ATOM      8  C7  UNL d   1       4.063   1.503  -1.287  0.00  0.00    -0.001 A 
ENDROOT
TORSDOF 0
ENDMDL
