MODEL 1
REMARK minimizedAffinity 11.9601002
REMARK minimizedRMSD -1
REMARK  0 active torsions:
REMARK  status: ('A' for Active; 'I' for Inactive)
ROOT
ATOM      1  C   UNL d   1       5.999   2.594  -3.104  0.00  0.00     0.077 C 
ATOM      2  C1  UNL d   1       5.307   2.206  -1.831  0.00  0.00    -0.074 A 
ATOM      3  C2  UNL d   1       5.772   2.660  -0.593  0.00  0.00    -0.005 A 
ATOM      4  C3  UNL d   1       5.112   2.298   0.581  0.00  0.00     0.006 A 
ATOM      5  C4  UNL d   1       3.983   1.480   0.529  0.00  0.00    -0.005 A 
ATOM      6  C5  UNL d   1       3.503   1.017  -0.700  0.00  0.00    -0.074 A 
ATOM      7  C6  UNL d   1       2.285   0.145  -0.774  0.00  0.00     0.077 C 
ATOM      8  C7  UNL d   1       4.168   1.390  -1.876  0.00  0.00    -0.001 A 
ENDROOT
TORSDOF 0
ENDMDL
