MODEL 1
REMARK minimizedAffinity 0.585037768
REMARK minimizedRMSD -1
REMARK  0 active torsions:
REMARK  status: ('A' for Active; 'I' for Inactive)
ROOT
ATOM      1  C   UNL d   1      -1.656   0.371   1.246  0.00  0.00     0.172 C 
ATOM      2  N   UNL d   1      -0.215   0.316   1.316  0.00  0.00    -0.070 N 
ATOM      3  C1  UNL d   1       0.554  -0.793   1.082  0.00  0.00    -0.004 A 
ATOM      4  C2  UNL d   1       1.874  -0.435   1.249  0.00  0.00    -0.047 A 
ATOM      5  C3  UNL d   1       1.899   0.937   1.597  0.00  0.00    -0.047 A 
ATOM      6  C4  UNL d   1       0.593   1.376   1.632  0.00  0.00    -0.004 A 
ENDROOT
TORSDOF 0
ENDMDL
