MODEL 1
REMARK minimizedAffinity 1.40043294
REMARK minimizedRMSD -1
REMARK  0 active torsions:
REMARK  status: ('A' for Active; 'I' for Inactive)
ROOT
ATOM      1  C   UNL d   1       1.523   0.667  -5.040  0.00  0.00     0.172 C 
ATOM      2  N   UNL d   1       2.272   0.504  -3.816  0.00  0.00    -0.070 N 
ATOM      3  C1  UNL d   1       3.561   0.051  -3.724  0.00  0.00    -0.004 A 
ATOM      4  C2  UNL d   1       3.910   0.040  -2.390  0.00  0.00    -0.047 A 
ATOM      5  C3  UNL d   1       2.791   0.502  -1.656  0.00  0.00    -0.047 A 
ATOM      6  C4  UNL d   1       1.791   0.781  -2.564  0.00  0.00    -0.004 A 
ENDROOT
TORSDOF 0
ENDMDL
