MODEL 1
REMARK minimizedAffinity 3.09063673
REMARK minimizedRMSD -1
REMARK  0 active torsions:
REMARK  status: ('A' for Active; 'I' for Inactive)
ROOT
ATOM      1  C   UNL d   1       0.471  -0.043  -5.769  0.00  0.00     0.172 C 
ATOM      2  N   UNL d   1       1.436   0.322  -4.759  0.00  0.00    -0.070 N 
ATOM      3  C1  UNL d   1       2.760   0.591  -4.981  0.00  0.00    -0.004 A 
ATOM      4  C2  UNL d   1       3.338   0.897  -3.768  0.00  0.00    -0.047 A 
ATOM      5  C3  UNL d   1       2.326   0.809  -2.783  0.00  0.00    -0.047 A 
ATOM      6  C4  UNL d   1       1.159   0.450  -3.424  0.00  0.00    -0.004 A 
ENDROOT
TORSDOF 0
ENDMDL
