MODEL 1
REMARK minimizedAffinity 3.10415959
REMARK minimizedRMSD -1
REMARK  0 active torsions:
REMARK  status: ('A' for Active; 'I' for Inactive)
ROOT
ATOM      1  C   UNL d   1       0.417  -2.506  -0.771  0.00  0.00     0.172 C 
ATOM      2  N   UNL d   1       1.289  -1.922   0.220  0.00  0.00    -0.070 N 
ATOM      3  C1  UNL d   1       2.650  -2.060   0.267  0.00  0.00    -0.004 A 
ATOM      4  C2  UNL d   1       3.109  -1.354   1.358  0.00  0.00    -0.047 A 
ATOM      5  C3  UNL d   1       1.985  -0.773   1.989  0.00  0.00    -0.047 A 
ATOM      6  C4  UNL d   1       0.871  -1.140   1.265  0.00  0.00    -0.004 A 
ENDROOT
TORSDOF 0
ENDMDL
