MODEL 1
REMARK minimizedAffinity 1.47994387
REMARK minimizedRMSD -1
REMARK  0 active torsions:
REMARK  status: ('A' for Active; 'I' for Inactive)
ROOT
ATOM      1  C   UNL d   1       1.873   1.135  -2.050  0.00  0.00     0.172 C 
ATOM      2  N   UNL d   1       1.844   0.622  -0.701  0.00  0.00    -0.070 N 
ATOM      3  C1  UNL d   1       1.581  -0.673  -0.344  0.00  0.00    -0.004 A 
ATOM      4  C2  UNL d   1       1.648  -0.755   1.030  0.00  0.00    -0.047 A 
ATOM      5  C3  UNL d   1       1.961   0.537   1.516  0.00  0.00    -0.047 A 
ATOM      6  C4  UNL d   1       2.076   1.370   0.424  0.00  0.00    -0.004 A 
ENDROOT
TORSDOF 0
ENDMDL
