MODEL 1
REMARK minimizedAffinity 1.45534587
REMARK minimizedRMSD -1
REMARK  0 active torsions:
REMARK  status: ('A' for Active; 'I' for Inactive)
ROOT
ATOM      1  C   UNL d   1       0.310  -0.198  -4.889  0.00  0.00     0.172 C 
ATOM      2  N   UNL d   1       1.482   0.243  -4.171  0.00  0.00    -0.070 N 
ATOM      3  C1  UNL d   1       1.486   1.082  -3.088  0.00  0.00    -0.004 A 
ATOM      4  C2  UNL d   1       2.795   1.257  -2.695  0.00  0.00    -0.047 A 
ATOM      5  C3  UNL d   1       3.606   0.498  -3.572  0.00  0.00    -0.047 A 
ATOM      6  C4  UNL d   1       2.767  -0.120  -4.476  0.00  0.00    -0.004 A 
ENDROOT
TORSDOF 0
ENDMDL
