MODEL 1
REMARK minimizedAffinity 6.05683041
REMARK minimizedRMSD -1
REMARK  0 active torsions:
REMARK  status: ('A' for Active; 'I' for Inactive)
ROOT
ATOM      1  C   UNL d   1       0.451   0.123  -4.493  0.00  0.00     0.172 C 
ATOM      2  N   UNL d   1       1.669   0.655  -3.929  0.00  0.00    -0.070 N 
ATOM      3  C1  UNL d   1       1.779   1.824  -3.224  0.00  0.00    -0.004 A 
ATOM      4  C2  UNL d   1       3.100   1.976  -2.861  0.00  0.00    -0.047 A 
ATOM      5  C3  UNL d   1       3.808   0.860  -3.365  0.00  0.00    -0.047 A 
ATOM      6  C4  UNL d   1       2.899   0.058  -4.022  0.00  0.00    -0.004 A 
ENDROOT
TORSDOF 0
ENDMDL
