MODEL 1
REMARK minimizedAffinity 2.05196261
REMARK minimizedRMSD -1
REMARK  0 active torsions:
REMARK  status: ('A' for Active; 'I' for Inactive)
ROOT
ATOM      1  C   UNL d   1       1.641  -0.242   1.337  0.00  0.00     0.172 C 
ATOM      2  N   UNL d   1       0.427   0.296   1.904  0.00  0.00    -0.070 N 
ATOM      3  C1  UNL d   1      -0.837  -0.183   1.686  0.00  0.00    -0.004 A 
ATOM      4  C2  UNL d   1      -1.715   0.600   2.403  0.00  0.00    -0.047 A 
ATOM      5  C3  UNL d   1      -0.953   1.585   3.075  0.00  0.00    -0.047 A 
ATOM      6  C4  UNL d   1       0.370   1.374   2.748  0.00  0.00    -0.004 A 
ENDROOT
TORSDOF 0
ENDMDL
