MODEL 1
REMARK minimizedAffinity 2.88319588
REMARK minimizedRMSD -1
REMARK  0 active torsions:
REMARK  status: ('A' for Active; 'I' for Inactive)
ROOT
ATOM      1  C   UNL d   1       4.196  -1.296  -3.836  0.00  0.00     0.172 C 
ATOM      2  N   UNL d   1       3.425  -0.093  -3.633  0.00  0.00    -0.070 N 
ATOM      3  C1  UNL d   1       3.937   1.149  -3.369  0.00  0.00    -0.004 A 
ATOM      4  C2  UNL d   1       2.880   2.024  -3.241  0.00  0.00    -0.047 A 
ATOM      5  C3  UNL d   1       1.690   1.282  -3.434  0.00  0.00    -0.047 A 
ATOM      6  C4  UNL d   1       2.057  -0.026  -3.675  0.00  0.00    -0.004 A 
ENDROOT
TORSDOF 0
ENDMDL
