MODEL 1
REMARK minimizedAffinity -5.1512394
REMARK minimizedRMSD -1
REMARK  0 active torsions:
REMARK  status: ('A' for Active; 'I' for Inactive)
ROOT
ATOM      1  C   UNL d   1      -0.641   0.185  -0.514  0.00  0.00     0.078 C 
ATOM      2  C1  UNL d   1       0.271  -0.308   0.569  0.00  0.00    -0.077 A 
ATOM      3  C2  UNL d   1       1.575  -0.729   0.277  0.00  0.00    -0.001 A 
ATOM      4  C3  UNL d   1       2.410  -1.195   1.294  0.00  0.00     0.003 A 
ATOM      5  C4  UNL d   1       1.951  -1.245   2.609  0.00  0.00    -0.005 A 
ATOM      6  C5  UNL d   1       0.655  -0.831   2.908  0.00  0.00     0.003 A 
ATOM      7  C6  UNL d   1      -0.182  -0.364   1.893  0.00  0.00    -0.001 A 
ENDROOT
TORSDOF 0
ENDMDL
