MODEL 1
REMARK minimizedAffinity -5.63181877
REMARK minimizedRMSD -1
REMARK  0 active torsions:
REMARK  status: ('A' for Active; 'I' for Inactive)
ROOT
ATOM      1  C   UNL d   1       1.088   0.098  -1.062  0.00  0.00     0.078 C 
ATOM      2  C1  UNL d   1       1.387  -0.453   0.300  0.00  0.00    -0.077 A 
ATOM      3  C2  UNL d   1       2.572  -1.157   0.549  0.00  0.00    -0.001 A 
ATOM      4  C3  UNL d   1       2.833  -1.672   1.820  0.00  0.00     0.003 A 
ATOM      5  C4  UNL d   1       1.914  -1.491   2.851  0.00  0.00    -0.005 A 
ATOM      6  C5  UNL d   1       0.731  -0.793   2.612  0.00  0.00     0.003 A 
ATOM      7  C6  UNL d   1       0.468  -0.277   1.342  0.00  0.00    -0.001 A 
ENDROOT
TORSDOF 0
ENDMDL
