MODEL 1
REMARK minimizedAffinity -5.24425411
REMARK minimizedRMSD -1
REMARK  0 active torsions:
REMARK  status: ('A' for Active; 'I' for Inactive)
ROOT
ATOM      1  C   UNL d   1      -0.425   0.487   0.360  0.00  0.00     0.078 C 
ATOM      2  C1  UNL d   1       0.647  -0.398   0.923  0.00  0.00    -0.077 A 
ATOM      3  C2  UNL d   1       0.782  -0.577   2.305  0.00  0.00    -0.001 A 
ATOM      4  C3  UNL d   1       1.790  -1.396   2.815  0.00  0.00     0.003 A 
ATOM      5  C4  UNL d   1       2.672  -2.041   1.951  0.00  0.00    -0.005 A 
ATOM      6  C5  UNL d   1       2.547  -1.867   0.574  0.00  0.00     0.003 A 
ATOM      7  C6  UNL d   1       1.539  -1.049   0.062  0.00  0.00    -0.001 A 
ENDROOT
TORSDOF 0
ENDMDL
