MODEL 1
REMARK minimizedAffinity -4.91330147
REMARK minimizedRMSD -1
REMARK  0 active torsions:
REMARK  status: ('A' for Active; 'I' for Inactive)
ROOT
ATOM      1  C   UNL d   1      -0.296   0.701  -1.432  0.00  0.00     0.078 C 
ATOM      2  C1  UNL d   1       0.125   0.136  -0.108  0.00  0.00    -0.077 A 
ATOM      3  C2  UNL d   1      -0.824  -0.247   0.847  0.00  0.00    -0.001 A 
ATOM      4  C3  UNL d   1      -0.417  -0.762   2.079  0.00  0.00     0.003 A 
ATOM      5  C4  UNL d   1       0.939  -0.898   2.367  0.00  0.00    -0.005 A 
ATOM      6  C5  UNL d   1       1.891  -0.517   1.423  0.00  0.00     0.003 A 
ATOM      7  C6  UNL d   1       1.486  -0.002   0.191  0.00  0.00    -0.001 A 
ENDROOT
TORSDOF 0
ENDMDL
