MODEL 1
REMARK minimizedAffinity -4.65892076
REMARK minimizedRMSD -1
REMARK  0 active torsions:
REMARK  status: ('A' for Active; 'I' for Inactive)
ROOT
ATOM      1  C   UNL d   1      -0.262  -0.233  -0.807  0.00  0.00     0.078 C 
ATOM      2  C1  UNL d   1       0.448  -1.089   0.199  0.00  0.00    -0.077 A 
ATOM      3  C2  UNL d   1       0.008  -1.156   1.527  0.00  0.00    -0.001 A 
ATOM      4  C3  UNL d   1       0.684  -1.949   2.455  0.00  0.00     0.003 A 
ATOM      5  C4  UNL d   1       1.806  -2.679   2.066  0.00  0.00    -0.005 A 
ATOM      6  C5  UNL d   1       2.252  -2.617   0.748  0.00  0.00     0.003 A 
ATOM      7  C6  UNL d   1       1.577  -1.825  -0.182  0.00  0.00    -0.001 A 
ENDROOT
TORSDOF 0
ENDMDL
