MODEL 1
REMARK minimizedAffinity -5.21767855
REMARK minimizedRMSD -1
REMARK  0 active torsions:
REMARK  status: ('A' for Active; 'I' for Inactive)
ROOT
ATOM      1  C   UNL d   1       1.212  -1.024   3.056  0.00  0.00     0.078 C 
ATOM      2  C1  UNL d   1       0.613  -0.766   1.706  0.00  0.00    -0.077 A 
ATOM      3  C2  UNL d   1       1.419  -0.672   0.565  0.00  0.00    -0.001 A 
ATOM      4  C3  UNL d   1       0.848  -0.421  -0.684  0.00  0.00     0.003 A 
ATOM      5  C4  UNL d   1      -0.531  -0.262  -0.803  0.00  0.00    -0.005 A 
ATOM      6  C5  UNL d   1      -1.341  -0.352   0.327  0.00  0.00     0.003 A 
ATOM      7  C6  UNL d   1      -0.772  -0.602   1.577  0.00  0.00    -0.001 A 
ENDROOT
TORSDOF 0
ENDMDL
