MODEL 1
REMARK minimizedAffinity -4.51065016
REMARK minimizedRMSD -1
REMARK  0 active torsions:
REMARK  status: ('A' for Active; 'I' for Inactive)
ROOT
ATOM      1  C   UNL d   1       0.051   0.342  -0.829  0.00  0.00     0.078 C 
ATOM      2  C1  UNL d   1       0.484  -0.223   0.491  0.00  0.00    -0.077 A 
ATOM      3  C2  UNL d   1       1.833  -0.486   0.756  0.00  0.00    -0.001 A 
ATOM      4  C3  UNL d   1       2.221  -1.020   1.986  0.00  0.00     0.003 A 
ATOM      5  C4  UNL d   1       1.264  -1.297   2.960  0.00  0.00    -0.005 A 
ATOM      6  C5  UNL d   1      -0.081  -1.041   2.706  0.00  0.00     0.003 A 
ATOM      7  C6  UNL d   1      -0.471  -0.507   1.476  0.00  0.00    -0.001 A 
ENDROOT
TORSDOF 0
ENDMDL
