MODEL 1
REMARK minimizedAffinity -4.3263154
REMARK minimizedRMSD -1
REMARK  0 active torsions:
REMARK  status: ('A' for Active; 'I' for Inactive)
ROOT
ATOM      1  C   UNL d   1      -0.115   0.343  -1.068  0.00  0.00     0.078 C 
ATOM      2  C1  UNL d   1       0.479  -0.387   0.099  0.00  0.00    -0.077 A 
ATOM      3  C2  UNL d   1       1.611  -1.196  -0.057  0.00  0.00    -0.001 A 
ATOM      4  C3  UNL d   1       2.148  -1.878   1.037  0.00  0.00     0.003 A 
ATOM      5  C4  UNL d   1       1.558  -1.758   2.294  0.00  0.00    -0.005 A 
ATOM      6  C5  UNL d   1       0.430  -0.957   2.458  0.00  0.00     0.003 A 
ATOM      7  C6  UNL d   1      -0.108  -0.275   1.366  0.00  0.00    -0.001 A 
ENDROOT
TORSDOF 0
ENDMDL
