MODEL 1
REMARK minimizedAffinity -5.46186638
REMARK minimizedRMSD -1
REMARK  0 active torsions:
REMARK  status: ('A' for Active; 'I' for Inactive)
ROOT
ATOM      1  C   UNL d   1       2.735  -2.140   0.523  0.00  0.00     0.078 C 
ATOM      2  C1  UNL d   1       1.566  -1.298   0.938  0.00  0.00    -0.077 A 
ATOM      3  C2  UNL d   1       1.428  -0.856   2.260  0.00  0.00    -0.001 A 
ATOM      4  C3  UNL d   1       0.330  -0.081   2.635  0.00  0.00     0.003 A 
ATOM      5  C4  UNL d   1      -0.641   0.258   1.694  0.00  0.00    -0.005 A 
ATOM      6  C5  UNL d   1      -0.514  -0.179   0.377  0.00  0.00     0.003 A 
ATOM      7  C6  UNL d   1       0.584  -0.954   0.001  0.00  0.00    -0.001 A 
ENDROOT
TORSDOF 0
ENDMDL
