MODEL 1
REMARK minimizedAffinity -5.48060942
REMARK minimizedRMSD -1
REMARK  0 active torsions:
REMARK  status: ('A' for Active; 'I' for Inactive)
ROOT
ATOM      1  C   UNL d   1      -2.748  -0.825   0.680  0.00  0.00     0.078 C 
ATOM      2  C1  UNL d   1      -1.306  -0.600   1.025  0.00  0.00    -0.077 A 
ATOM      3  C2  UNL d   1      -0.444   0.048   0.132  0.00  0.00    -0.001 A 
ATOM      4  C3  UNL d   1       0.899   0.241   0.462  0.00  0.00     0.003 A 
ATOM      5  C4  UNL d   1       1.391  -0.212   1.685  0.00  0.00    -0.005 A 
ATOM      6  C5  UNL d   1       0.541  -0.860   2.578  0.00  0.00     0.003 A 
ATOM      7  C6  UNL d   1      -0.802  -1.054   2.250  0.00  0.00    -0.001 A 
ENDROOT
TORSDOF 0
ENDMDL
