MODEL 1
REMARK minimizedAffinity 0.950161517
REMARK minimizedRMSD -1
REMARK  2 active torsions:
REMARK  status: ('A' for Active; 'I' for Inactive)
REMARK    1  A    between atoms: C1_2  and  C2_3 
REMARK    2  A    between atoms: C2_3  and  C3_4 
ROOT
ATOM      1  C3  UNL d   1       4.973  -3.265  -1.239  0.00  0.00    -0.075 A 
ATOM      2  C4  UNL d   1       4.306  -3.008  -2.445  0.00  0.00     0.002 A 
ATOM      3  C5  UNL d   1       3.826  -4.059  -3.227  0.00  0.00     0.002 A 
ATOM      4  C6  UNL d   1       4.015  -5.378  -2.820  0.00  0.00    -0.004 A 
ATOM      5  C7  UNL d   1       4.691  -5.645  -1.631  0.00  0.00     0.002 A 
ATOM      6  C8  UNL d   1       5.168  -4.596  -0.844  0.00  0.00     0.002 A 
ENDROOT
BRANCH   1   7
ATOM      7  C2  UNL d   1       5.468  -2.132  -0.373  0.00  0.00     0.056 C 
BRANCH   7   8
ATOM      8  C1  UNL d   1       4.358  -1.388   0.377  0.00  0.00     0.007 C 
ATOM      9  C   UNL d   1       2.997  -2.061   0.257  0.00  0.00     0.009 C 
ENDBRANCH   7   8
ENDBRANCH   1   7
TORSDOF 2
ENDMDL
