MODEL 1
REMARK minimizedAffinity 0.399679661
REMARK minimizedRMSD -1
REMARK  2 active torsions:
REMARK  status: ('A' for Active; 'I' for Inactive)
REMARK    1  A    between atoms: C1_2  and  C2_3 
REMARK    2  A    between atoms: C2_3  and  C3_4 
ROOT
ATOM      1  C3  UNL d   1       3.610  -4.910  -2.400  0.00  0.00    -0.075 A 
ATOM      2  C4  UNL d   1       4.652  -5.548  -1.712  0.00  0.00     0.002 A 
ATOM      3  C5  UNL d   1       5.680  -4.803  -1.134  0.00  0.00     0.002 A 
ATOM      4  C6  UNL d   1       5.685  -3.414  -1.245  0.00  0.00    -0.004 A 
ATOM      5  C7  UNL d   1       4.664  -2.771  -1.940  0.00  0.00     0.002 A 
ATOM      6  C8  UNL d   1       3.631  -3.513  -2.515  0.00  0.00     0.002 A 
ENDROOT
BRANCH   1   7
ATOM      7  C2  UNL d   1       2.478  -5.708  -3.002  0.00  0.00     0.056 C 
BRANCH   7   8
ATOM      8  C1  UNL d   1       1.092  -5.320  -2.476  0.00  0.00     0.007 C 
ATOM      9  C   UNL d   1       0.944  -5.517  -0.973  0.00  0.00     0.009 C 
ENDBRANCH   7   8
ENDBRANCH   1   7
TORSDOF 2
ENDMDL
