MODEL 1
REMARK minimizedAffinity -1.44642568
REMARK minimizedRMSD -1
REMARK  2 active torsions:
REMARK  status: ('A' for Active; 'I' for Inactive)
REMARK    1  A    between atoms: C1_2  and  C2_3 
REMARK    2  A    between atoms: C2_3  and  C3_4 
ROOT
ATOM      1  C3  UNL d   1      -3.325   1.071  -1.540  0.00  0.00    -0.075 A 
ATOM      2  C4  UNL d   1      -4.448   1.890  -1.352  0.00  0.00     0.002 A 
ATOM      3  C5  UNL d   1      -5.561   1.417  -0.656  0.00  0.00     0.002 A 
ATOM      4  C6  UNL d   1      -5.570   0.119  -0.150  0.00  0.00    -0.004 A 
ATOM      5  C7  UNL d   1      -4.467  -0.709  -0.346  0.00  0.00     0.002 A 
ATOM      6  C8  UNL d   1      -3.350  -0.236  -1.038  0.00  0.00     0.002 A 
ENDROOT
BRANCH   1   7
ATOM      7  C2  UNL d   1      -2.106   1.587  -2.267  0.00  0.00     0.056 C 
BRANCH   7   8
ATOM      8  C1  UNL d   1      -0.847   1.664  -1.396  0.00  0.00     0.007 C 
ATOM      9  C   UNL d   1      -0.182   3.034  -1.422  0.00  0.00     0.009 C 
ENDBRANCH   7   8
ENDBRANCH   1   7
TORSDOF 2
ENDMDL
