MODEL 1
REMARK minimizedAffinity 0.538032532
REMARK minimizedRMSD -1
REMARK  2 active torsions:
REMARK  status: ('A' for Active; 'I' for Inactive)
REMARK    1  A    between atoms: C1_2  and  C2_3 
REMARK    2  A    between atoms: C2_3  and  C3_4 
ROOT
ATOM      1  C3  UNL d   1       3.890  -3.970  -2.554  0.00  0.00    -0.075 A 
ATOM      2  C4  UNL d   1       3.745  -2.638  -2.142  0.00  0.00     0.002 A 
ATOM      3  C5  UNL d   1       4.460  -2.153  -1.047  0.00  0.00     0.002 A 
ATOM      4  C6  UNL d   1       5.321  -2.995  -0.345  0.00  0.00    -0.004 A 
ATOM      5  C7  UNL d   1       5.460  -4.325  -0.736  0.00  0.00     0.002 A 
ATOM      6  C8  UNL d   1       4.749  -4.812  -1.834  0.00  0.00     0.002 A 
ENDROOT
BRANCH   1   7
ATOM      7  C2  UNL d   1       3.141  -4.493  -3.757  0.00  0.00     0.056 C 
BRANCH   7   8
ATOM      8  C1  UNL d   1       4.046  -4.965  -4.899  0.00  0.00     0.007 C 
ATOM      9  C   UNL d   1       5.075  -5.999  -4.462  0.00  0.00     0.009 C 
ENDBRANCH   7   8
ENDBRANCH   1   7
TORSDOF 2
ENDMDL
