MODEL 1
REMARK minimizedAffinity -0.679860353
REMARK minimizedRMSD -1
REMARK  2 active torsions:
REMARK  status: ('A' for Active; 'I' for Inactive)
REMARK    1  A    between atoms: C1_2  and  C2_3 
REMARK    2  A    between atoms: C2_3  and  C3_4 
ROOT
ATOM      1  C3  UNL d   1       4.278  -2.940  -2.363  0.00  0.00    -0.075 A 
ATOM      2  C4  UNL d   1       3.688  -4.029  -3.021  0.00  0.00     0.002 A 
ATOM      3  C5  UNL d   1       4.156  -5.326  -2.805  0.00  0.00     0.002 A 
ATOM      4  C6  UNL d   1       5.223  -5.549  -1.938  0.00  0.00    -0.004 A 
ATOM      5  C7  UNL d   1       5.828  -4.473  -1.291  0.00  0.00     0.002 A 
ATOM      6  C8  UNL d   1       5.359  -3.175  -1.502  0.00  0.00     0.002 A 
ENDROOT
BRANCH   1   7
ATOM      7  C2  UNL d   1       3.758  -1.538  -2.570  0.00  0.00     0.056 C 
BRANCH   7   8
ATOM      8  C1  UNL d   1       2.699  -1.108  -1.549  0.00  0.00     0.007 C 
ATOM      9  C   UNL d   1       2.800  -1.858  -0.228  0.00  0.00     0.009 C 
ENDBRANCH   7   8
ENDBRANCH   1   7
TORSDOF 2
ENDMDL
