MODEL 1
REMARK minimizedAffinity 3.53561211
REMARK minimizedRMSD -1
REMARK  2 active torsions:
REMARK  status: ('A' for Active; 'I' for Inactive)
REMARK    1  A    between atoms: C1_2  and  C2_3 
REMARK    2  A    between atoms: C2_3  and  C3_4 
ROOT
ATOM      1  C3  UNL d   1       3.415  -3.568  -0.420  0.00  0.00    -0.075 A 
ATOM      2  C4  UNL d   1       3.329  -4.005   0.910  0.00  0.00     0.002 A 
ATOM      3  C5  UNL d   1       2.427  -5.007   1.269  0.00  0.00     0.002 A 
ATOM      4  C6  UNL d   1       1.594  -5.576   0.308  0.00  0.00    -0.004 A 
ATOM      5  C7  UNL d   1       1.660  -5.138  -1.013  0.00  0.00     0.002 A 
ATOM      6  C8  UNL d   1       2.564  -4.139  -1.376  0.00  0.00     0.002 A 
ENDROOT
BRANCH   1   7
ATOM      7  C2  UNL d   1       4.409  -2.505  -0.821  0.00  0.00     0.056 C 
BRANCH   7   8
ATOM      8  C1  UNL d   1       5.366  -2.935  -1.939  0.00  0.00     0.007 C 
ATOM      9  C   UNL d   1       4.724  -2.913  -3.320  0.00  0.00     0.009 C 
ENDBRANCH   7   8
ENDBRANCH   1   7
TORSDOF 2
ENDMDL
