MODEL 1
REMARK minimizedAffinity 0.651501775
REMARK minimizedRMSD -1
REMARK  2 active torsions:
REMARK  status: ('A' for Active; 'I' for Inactive)
REMARK    1  A    between atoms: C1_2  and  C2_3 
REMARK    2  A    between atoms: C2_3  and  C3_4 
ROOT
ATOM      1  C3  UNL d   1       3.790  -4.454  -0.854  0.00  0.00    -0.075 A 
ATOM      2  C4  UNL d   1       3.114  -4.759  -2.044  0.00  0.00     0.002 A 
ATOM      3  C5  UNL d   1       1.764  -5.110  -2.021  0.00  0.00     0.002 A 
ATOM      4  C6  UNL d   1       1.077  -5.172  -0.810  0.00  0.00    -0.004 A 
ATOM      5  C7  UNL d   1       1.744  -4.887   0.379  0.00  0.00     0.002 A 
ATOM      6  C8  UNL d   1       3.094  -4.531   0.359  0.00  0.00     0.002 A 
ENDROOT
BRANCH   1   7
ATOM      7  C2  UNL d   1       5.244  -4.044  -0.875  0.00  0.00     0.056 C 
BRANCH   7   8
ATOM      8  C1  UNL d   1       5.464  -2.537  -1.046  0.00  0.00     0.007 C 
ATOM      9  C   UNL d   1       4.166  -1.753  -1.186  0.00  0.00     0.009 C 
ENDBRANCH   7   8
ENDBRANCH   1   7
TORSDOF 2
ENDMDL
