MODEL 1
REMARK minimizedAffinity 7.39105463
REMARK minimizedRMSD -1
REMARK  2 active torsions:
REMARK  status: ('A' for Active; 'I' for Inactive)
REMARK    1  A    between atoms: C1_2  and  C2_3 
REMARK    2  A    between atoms: C2_3  and  C3_4 
ROOT
ATOM      1  C3  UNL d   1      -0.116   2.502   0.363  0.00  0.00    -0.075 A 
ATOM      2  C4  UNL d   1       0.212   3.853   0.175  0.00  0.00     0.002 A 
ATOM      3  C5  UNL d   1       0.086   4.444  -1.083  0.00  0.00     0.002 A 
ATOM      4  C6  UNL d   1      -0.357   3.692  -2.168  0.00  0.00    -0.004 A 
ATOM      5  C7  UNL d   1      -0.670   2.345  -1.996  0.00  0.00     0.002 A 
ATOM      6  C8  UNL d   1      -0.550   1.752  -0.738  0.00  0.00     0.002 A 
ENDROOT
BRANCH   1   7
ATOM      7  C2  UNL d   1      -0.010   1.864   1.727  0.00  0.00     0.056 C 
BRANCH   7   8
ATOM      8  C1  UNL d   1       1.374   1.288   2.041  0.00  0.00     0.007 C 
ATOM      9  C   UNL d   1       2.227   2.209   2.904  0.00  0.00     0.009 C 
ENDBRANCH   7   8
ENDBRANCH   1   7
TORSDOF 2
ENDMDL
