MODEL 1
REMARK minimizedAffinity 6.34209776
REMARK minimizedRMSD -1
REMARK  2 active torsions:
REMARK  status: ('A' for Active; 'I' for Inactive)
REMARK    1  A    between atoms: C1_2  and  C2_3 
REMARK    2  A    between atoms: C2_3  and  C3_4 
ROOT
ATOM      1  C3  UNL d   1       3.497  -3.686  -2.010  0.00  0.00    -0.075 A 
ATOM      2  C4  UNL d   1       3.544  -4.230  -3.301  0.00  0.00     0.002 A 
ATOM      3  C5  UNL d   1       3.876  -3.431  -4.395  0.00  0.00     0.002 A 
ATOM      4  C6  UNL d   1       4.156  -2.078  -4.214  0.00  0.00    -0.004 A 
ATOM      5  C7  UNL d   1       4.096  -1.523  -2.938  0.00  0.00     0.002 A 
ATOM      6  C8  UNL d   1       3.768  -2.321  -1.841  0.00  0.00     0.002 A 
ENDROOT
BRANCH   1   7
ATOM      7  C2  UNL d   1       3.167  -4.552  -0.818  0.00  0.00     0.056 C 
BRANCH   7   8
ATOM      8  C1  UNL d   1       1.924  -4.100  -0.044  0.00  0.00     0.007 C 
ATOM      9  C   UNL d   1       0.618  -4.501  -0.717  0.00  0.00     0.009 C 
ENDBRANCH   7   8
ENDBRANCH   1   7
TORSDOF 2
ENDMDL
