MODEL 1
REMARK minimizedAffinity 8.451828
REMARK minimizedRMSD -1
REMARK  2 active torsions:
REMARK  status: ('A' for Active; 'I' for Inactive)
REMARK    1  A    between atoms: C1_2  and  C2_3 
REMARK    2  A    between atoms: C2_3  and  C3_4 
ROOT
ATOM      1  C3  UNL d   1      -0.015   2.714   0.553  0.00  0.00    -0.075 A 
ATOM      2  C4  UNL d   1       0.289   4.073   0.720  0.00  0.00     0.002 A 
ATOM      3  C5  UNL d   1       0.385   4.919  -0.385  0.00  0.00     0.002 A 
ATOM      4  C6  UNL d   1       0.189   4.416  -1.669  0.00  0.00    -0.004 A 
ATOM      5  C7  UNL d   1      -0.097   3.064  -1.849  0.00  0.00     0.002 A 
ATOM      6  C8  UNL d   1      -0.198   2.217  -0.744  0.00  0.00     0.002 A 
ENDROOT
BRANCH   1   7
ATOM      7  C2  UNL d   1      -0.148   1.800   1.747  0.00  0.00     0.056 C 
BRANCH   7   8
ATOM      8  C1  UNL d   1      -1.317   2.151   2.674  0.00  0.00     0.007 C 
ATOM      9  C   UNL d   1      -2.588   1.375   2.359  0.00  0.00     0.009 C 
ENDBRANCH   7   8
ENDBRANCH   1   7
TORSDOF 2
ENDMDL
