MODEL 1
REMARK minimizedAffinity -2.33608437
REMARK minimizedRMSD -1
REMARK  1 active torsions:
REMARK  status: ('A' for Active; 'I' for Inactive)
REMARK    1  A    between atoms: N_2  and  C1_3 
ROOT
ATOM      1  C1  UNL d   1      -3.603   1.646  -5.923  0.00  0.00     0.143 A 
ATOM      2  C2  UNL d   1      -2.236   1.941  -5.951  0.00  0.00    -0.057 A 
ATOM      3  C3  UNL d   1      -1.779   3.265  -5.973  0.00  0.00     0.033 A 
ATOM      4  C4  UNL d   1      -2.686   4.319  -5.996  0.00  0.00    -0.042 A 
ATOM      5  C5  UNL d   1      -4.050   4.049  -5.994  0.00  0.00     0.033 A 
ATOM      6  C6  UNL d   1      -4.500   2.726  -5.966  0.00  0.00    -0.057 A 
ENDROOT
BRANCH   1   7
ATOM      7  N   UNL d   1      -4.121   0.351  -6.000  0.00  0.00    -0.732 N 
ATOM      8  C   UNL d   1      -4.894  -0.200  -4.907  0.00  0.00     0.284 C 
ATOM      9  H3  UNL d   1      -4.493   0.135  -6.922  0.00  0.00     0.395 HD
ENDBRANCH   1   7
TORSDOF 1
ENDMDL
