MODEL 1
REMARK minimizedAffinity 1.26183844
REMARK minimizedRMSD -1
REMARK  1 active torsions:
REMARK  status: ('A' for Active; 'I' for Inactive)
REMARK    1  A    between atoms: N_2  and  C1_3 
ROOT
ATOM      1  C1  UNL d   1      -1.704   1.605  -5.716  0.00  0.00     0.143 A 
ATOM      2  C2  UNL d   1      -2.897   0.875  -5.694  0.00  0.00    -0.057 A 
ATOM      3  C3  UNL d   1      -4.137   1.506  -5.849  0.00  0.00     0.033 A 
ATOM      4  C4  UNL d   1      -4.208   2.887  -6.000  0.00  0.00    -0.042 A 
ATOM      5  C5  UNL d   1      -3.036   3.635  -6.000  0.00  0.00     0.033 A 
ATOM      6  C6  UNL d   1      -1.800   2.999  -5.852  0.00  0.00    -0.057 A 
ENDROOT
BRANCH   1   7
ATOM      7  N   UNL d   1      -0.447   1.048  -5.469  0.00  0.00    -0.732 N 
ATOM      8  C   UNL d   1      -0.293  -0.031  -4.517  0.00  0.00     0.284 C 
ATOM      9  H3  UNL d   1       0.101   0.934  -6.319  0.00  0.00     0.395 HD
ENDBRANCH   1   7
TORSDOF 1
ENDMDL
