MODEL 1
REMARK minimizedAffinity 3.02434874
REMARK minimizedRMSD -1
REMARK  1 active torsions:
REMARK  status: ('A' for Active; 'I' for Inactive)
REMARK    1  A    between atoms: N_2  and  C1_3 
ROOT
ATOM      1  C1  UNL d   1       2.636   0.041  -1.090  0.00  0.00     0.143 A 
ATOM      2  C2  UNL d   1       1.677   0.534  -0.198  0.00  0.00    -0.057 A 
ATOM      3  C3  UNL d   1       0.309   0.448  -0.482  0.00  0.00     0.033 A 
ATOM      4  C4  UNL d   1      -0.125  -0.109  -1.680  0.00  0.00    -0.042 A 
ATOM      5  C5  UNL d   1       0.810  -0.582  -2.593  0.00  0.00     0.033 A 
ATOM      6  C6  UNL d   1       2.175  -0.499  -2.301  0.00  0.00    -0.057 A 
ENDROOT
BRANCH   1   7
ATOM      7  N   UNL d   1       4.013   0.187  -0.910  0.00  0.00    -0.732 N 
ATOM      8  C   UNL d   1       4.606   1.501  -0.787  0.00  0.00     0.284 C 
ATOM      9  H3  UNL d   1       4.396  -0.504  -0.269  0.00  0.00     0.395 HD
ENDBRANCH   1   7
TORSDOF 1
ENDMDL
