MODEL 1
REMARK minimizedAffinity -2.11280727
REMARK minimizedRMSD -1
REMARK  1 active torsions:
REMARK  status: ('A' for Active; 'I' for Inactive)
REMARK    1  A    between atoms: N_2  and  C1_3 
ROOT
ATOM      1  C1  UNL d   1      -4.469   2.112  -5.907  0.00  0.00     0.143 A 
ATOM      2  C2  UNL d   1      -3.106   2.416  -5.996  0.00  0.00    -0.057 A 
ATOM      3  C3  UNL d   1      -2.658   3.743  -5.997  0.00  0.00     0.033 A 
ATOM      4  C4  UNL d   1      -3.569   4.792  -5.938  0.00  0.00    -0.042 A 
ATOM      5  C5  UNL d   1      -4.930   4.513  -5.875  0.00  0.00     0.033 A 
ATOM      6  C6  UNL d   1      -5.371   3.186  -5.867  0.00  0.00    -0.057 A 
ENDROOT
BRANCH   1   7
ATOM      7  N   UNL d   1      -4.984   0.816  -6.000  0.00  0.00    -0.732 N 
ATOM      8  C   UNL d   1      -4.101  -0.330  -5.990  0.00  0.00     0.284 C 
ATOM      9  H3  UNL d   1      -5.830   0.694  -5.448  0.00  0.00     0.395 HD
ENDBRANCH   1   7
TORSDOF 1
ENDMDL
