MODEL 1
REMARK minimizedAffinity -1.80736315
REMARK minimizedRMSD -1
REMARK  1 active torsions:
REMARK  status: ('A' for Active; 'I' for Inactive)
REMARK    1  A    between atoms: N_2  and  C1_3 
ROOT
ATOM      1  C1  UNL d   1      -3.564  -4.246  -6.000  0.00  0.00     0.143 A 
ATOM      2  C2  UNL d   1      -4.815  -4.870  -5.983  0.00  0.00    -0.057 A 
ATOM      3  C3  UNL d   1      -6.000  -4.123  -5.997  0.00  0.00     0.033 A 
ATOM      4  C4  UNL d   1      -5.952  -2.733  -5.998  0.00  0.00    -0.042 A 
ATOM      5  C5  UNL d   1      -4.719  -2.091  -5.989  0.00  0.00     0.033 A 
ATOM      6  C6  UNL d   1      -3.540  -2.842  -5.983  0.00  0.00    -0.057 A 
ENDROOT
BRANCH   1   7
ATOM      7  N   UNL d   1      -2.351  -4.931  -5.888  0.00  0.00    -0.732 N 
ATOM      8  C   UNL d   1      -1.840  -5.318  -4.590  0.00  0.00     0.284 C 
ATOM      9  H3  UNL d   1      -2.239  -5.641  -6.608  0.00  0.00     0.395 HD
ENDBRANCH   1   7
TORSDOF 1
ENDMDL
