MODEL 1
REMARK minimizedAffinity 5.65471506
REMARK minimizedRMSD -1
REMARK  1 active torsions:
REMARK  status: ('A' for Active; 'I' for Inactive)
REMARK    1  A    between atoms: N_2  and  C1_3 
ROOT
ATOM      1  C1  UNL d   1      -2.904   2.360  -5.958  0.00  0.00     0.143 A 
ATOM      2  C2  UNL d   1      -2.062   1.243  -5.987  0.00  0.00    -0.057 A 
ATOM      3  C3  UNL d   1      -2.581  -0.057  -5.987  0.00  0.00     0.033 A 
ATOM      4  C4  UNL d   1      -3.955  -0.264  -5.929  0.00  0.00    -0.042 A 
ATOM      5  C5  UNL d   1      -4.810   0.831  -5.875  0.00  0.00     0.033 A 
ATOM      6  C6  UNL d   1      -4.286   2.127  -5.881  0.00  0.00    -0.057 A 
ENDROOT
BRANCH   1   7
ATOM      7  N   UNL d   1      -2.447   3.677  -5.856  0.00  0.00    -0.732 N 
ATOM      8  C   UNL d   1      -1.817   4.146  -4.641  0.00  0.00     0.284 C 
ATOM      9  H3  UNL d   1      -1.996   3.998  -6.710  0.00  0.00     0.395 HD
ENDBRANCH   1   7
TORSDOF 1
ENDMDL
