MODEL 1
REMARK minimizedAffinity 3.24642658
REMARK minimizedRMSD -1
REMARK  1 active torsions:
REMARK  status: ('A' for Active; 'I' for Inactive)
REMARK    1  A    between atoms: N_2  and  C1_3 
ROOT
ATOM      1  C1  UNL d   1      -3.478   2.705  -5.917  0.00  0.00     0.143 A 
ATOM      2  C2  UNL d   1      -3.008   4.023  -5.943  0.00  0.00    -0.057 A 
ATOM      3  C3  UNL d   1      -3.891   5.109  -5.970  0.00  0.00     0.033 A 
ATOM      4  C4  UNL d   1      -5.265   4.895  -6.000  0.00  0.00    -0.042 A 
ATOM      5  C5  UNL d   1      -5.755   3.594  -6.000  0.00  0.00     0.033 A 
ATOM      6  C6  UNL d   1      -4.868   2.513  -5.967  0.00  0.00    -0.057 A 
ENDROOT
BRANCH   1   7
ATOM      7  N   UNL d   1      -2.650   1.582  -5.990  0.00  0.00    -0.732 N 
ATOM      8  C   UNL d   1      -2.609   0.626  -4.905  0.00  0.00     0.284 C 
ATOM      9  H3  UNL d   1      -2.648   1.161  -6.916  0.00  0.00     0.395 HD
ENDBRANCH   1   7
TORSDOF 1
ENDMDL
