MODEL 1
REMARK minimizedAffinity -2.63233948
REMARK minimizedRMSD -1
REMARK  1 active torsions:
REMARK  status: ('A' for Active; 'I' for Inactive)
REMARK    1  A    between atoms: N_2  and  C1_3 
ROOT
ATOM      1  C1  UNL d   1      -4.404   0.552  -5.749  0.00  0.00     0.143 A 
ATOM      2  C2  UNL d   1      -3.030   0.637  -5.999  0.00  0.00    -0.057 A 
ATOM      3  C3  UNL d   1      -2.333   1.839  -5.825  0.00  0.00     0.033 A 
ATOM      4  C4  UNL d   1      -3.006   2.988  -5.424  0.00  0.00    -0.042 A 
ATOM      5  C5  UNL d   1      -4.377   2.933  -5.195  0.00  0.00     0.033 A 
ATOM      6  C6  UNL d   1      -5.065   1.728  -5.364  0.00  0.00    -0.057 A 
ENDROOT
BRANCH   1   7
ATOM      7  N   UNL d   1      -5.171  -0.589  -5.999  0.00  0.00    -0.732 N 
ATOM      8  C   UNL d   1      -4.563  -1.902  -5.989  0.00  0.00     0.284 C 
ATOM      9  H3  UNL d   1      -6.083  -0.549  -5.550  0.00  0.00     0.395 HD
ENDBRANCH   1   7
TORSDOF 1
ENDMDL
