MODEL 1
REMARK minimizedAffinity 1.31030416
REMARK minimizedRMSD -1
REMARK  1 active torsions:
REMARK  status: ('A' for Active; 'I' for Inactive)
REMARK    1  A    between atoms: N_2  and  C1_3 
ROOT
ATOM      1  C1  UNL d   1       2.800  -0.137  -0.819  0.00  0.00     0.143 A 
ATOM      2  C2  UNL d   1       1.644   0.378  -0.222  0.00  0.00    -0.057 A 
ATOM      3  C3  UNL d   1       0.374   0.115  -0.750  0.00  0.00     0.033 A 
ATOM      4  C4  UNL d   1       0.240  -0.646  -1.907  0.00  0.00    -0.042 A 
ATOM      5  C5  UNL d   1       1.376  -1.147  -2.532  0.00  0.00     0.033 A 
ATOM      6  C6  UNL d   1       2.641  -0.887  -1.995  0.00  0.00    -0.057 A 
ENDROOT
BRANCH   1   7
ATOM      7  N   UNL d   1       4.096   0.170  -0.399  0.00  0.00    -0.732 N 
ATOM      8  C   UNL d   1       4.652   1.487  -0.625  0.00  0.00     0.284 C 
ATOM      9  H3  UNL d   1       4.310  -0.219   0.517  0.00  0.00     0.395 HD
ENDBRANCH   1   7
TORSDOF 1
ENDMDL
