MODEL 1
REMARK minimizedAffinity 0.878609598
REMARK minimizedRMSD -1
REMARK  1 active torsions:
REMARK  status: ('A' for Active; 'I' for Inactive)
REMARK    1  A    between atoms: N_2  and  C1_3 
ROOT
ATOM      1  C1  UNL d   1      -4.185  -0.464  -5.864  0.00  0.00     0.143 A 
ATOM      2  C2  UNL d   1      -2.831  -0.126  -5.967  0.00  0.00    -0.057 A 
ATOM      3  C3  UNL d   1      -2.417   1.212  -5.998  0.00  0.00     0.033 A 
ATOM      4  C4  UNL d   1      -3.355   2.238  -5.954  0.00  0.00    -0.042 A 
ATOM      5  C5  UNL d   1      -4.708   1.925  -5.876  0.00  0.00     0.033 A 
ATOM      6  C6  UNL d   1      -5.115   0.588  -5.840  0.00  0.00    -0.057 A 
ENDROOT
BRANCH   1   7
ATOM      7  N   UNL d   1      -4.667  -1.773  -5.929  0.00  0.00    -0.732 N 
ATOM      8  C   UNL d   1      -4.383  -2.716  -4.868  0.00  0.00     0.284 C 
ATOM      9  H3  UNL d   1      -5.620  -1.820  -6.282  0.00  0.00     0.395 HD
ENDBRANCH   1   7
TORSDOF 1
ENDMDL
