MODEL 1
REMARK minimizedAffinity -1.33652735
REMARK minimizedRMSD -1
REMARK  1 active torsions:
REMARK  status: ('A' for Active; 'I' for Inactive)
REMARK    1  A    between atoms: N_2  and  C1_3 
ROOT
ATOM      1  C1  UNL d   1      -3.904   1.612  -5.924  0.00  0.00     0.143 A 
ATOM      2  C2  UNL d   1      -4.783   0.524  -5.967  0.00  0.00    -0.057 A 
ATOM      3  C3  UNL d   1      -4.309  -0.793  -5.990  0.00  0.00     0.033 A 
ATOM      4  C4  UNL d   1      -2.941  -1.045  -5.999  0.00  0.00    -0.042 A 
ATOM      5  C5  UNL d   1      -2.048   0.020  -5.981  0.00  0.00     0.033 A 
ATOM      6  C6  UNL d   1      -2.528   1.333  -5.952  0.00  0.00    -0.057 A 
ENDROOT
BRANCH   1   7
ATOM      7  N   UNL d   1      -4.312   2.946  -6.000  0.00  0.00    -0.732 N 
ATOM      8  C   UNL d   1      -3.339   4.017  -5.979  0.00  0.00     0.284 C 
ATOM      9  H3  UNL d   1      -5.068   3.083  -6.667  0.00  0.00     0.395 HD
ENDBRANCH   1   7
TORSDOF 1
ENDMDL
