MODEL 1
REMARK minimizedAffinity -4.14178467
REMARK minimizedRMSD -1
REMARK  1 active torsions:
REMARK  status: ('A' for Active; 'I' for Inactive)
REMARK    1  A    between atoms: C1_2  and  C2_3 
ROOT
ATOM      1  C2  UNL d   1       0.927   0.125   2.057  0.00  0.00    -0.077 A 
ATOM      2  C3  UNL d   1      -0.128   0.610   2.842  0.00  0.00     0.002 A 
ATOM      3  C4  UNL d   1      -1.384   0.835   2.275  0.00  0.00     0.002 A 
ATOM      4  C5  UNL d   1      -1.597   0.574   0.923  0.00  0.00    -0.004 A 
ATOM      5  C6  UNL d   1      -0.553   0.094   0.134  0.00  0.00     0.002 A 
ATOM      6  C7  UNL d   1       0.703  -0.131   0.698  0.00  0.00     0.002 A 
ENDROOT
BRANCH   1   7
ATOM      7  C1  UNL d   1       2.269  -0.166   2.677  0.00  0.00     0.055 C 
ATOM      8  C   UNL d   1       3.155  -0.962   1.731  0.00  0.00     0.019 C 
ENDBRANCH   1   7
TORSDOF 1
ENDMDL
