MODEL 1
REMARK minimizedAffinity -6.35240126
REMARK minimizedRMSD -1
REMARK  1 active torsions:
REMARK  status: ('A' for Active; 'I' for Inactive)
REMARK    1  A    between atoms: C1_2  and  C2_3 
ROOT
ATOM      1  C2  UNL d   1       0.388  -0.312   1.068  0.00  0.00    -0.077 A 
ATOM      2  C3  UNL d   1       1.157  -0.252   2.238  0.00  0.00     0.002 A 
ATOM      3  C4  UNL d   1       0.675   0.411   3.368  0.00  0.00     0.002 A 
ATOM      4  C5  UNL d   1      -0.580   1.016   3.339  0.00  0.00    -0.004 A 
ATOM      5  C6  UNL d   1      -1.352   0.964   2.180  0.00  0.00     0.002 A 
ATOM      6  C7  UNL d   1      -0.871   0.302   1.049  0.00  0.00     0.002 A 
ENDROOT
BRANCH   1   7
ATOM      7  C1  UNL d   1       0.885  -1.070  -0.136  0.00  0.00     0.055 C 
ATOM      8  C   UNL d   1       0.289  -0.518  -1.422  0.00  0.00     0.019 C 
ENDBRANCH   1   7
TORSDOF 1
ENDMDL
