MODEL 1
REMARK minimizedAffinity -4.51821995
REMARK minimizedRMSD -1
REMARK  1 active torsions:
REMARK  status: ('A' for Active; 'I' for Inactive)
REMARK    1  A    between atoms: C1_2  and  C2_3 
ROOT
ATOM      1  C2  UNL d   1      -0.808  -0.254   1.280  0.00  0.00    -0.077 A 
ATOM      2  C3  UNL d   1       0.541  -0.585   1.089  0.00  0.00     0.002 A 
ATOM      3  C4  UNL d   1       0.905  -1.550   0.148  0.00  0.00     0.002 A 
ATOM      4  C5  UNL d   1      -0.073  -2.188  -0.612  0.00  0.00    -0.004 A 
ATOM      5  C6  UNL d   1      -1.417  -1.868  -0.428  0.00  0.00     0.002 A 
ATOM      6  C7  UNL d   1      -1.783  -0.905   0.513  0.00  0.00     0.002 A 
ENDROOT
BRANCH   1   7
ATOM      7  C1  UNL d   1      -1.199   0.821   2.260  0.00  0.00     0.055 C 
ATOM      8  C   UNL d   1      -0.401   2.096   2.029  0.00  0.00     0.019 C 
ENDBRANCH   1   7
TORSDOF 1
ENDMDL
