MODEL 1
REMARK minimizedAffinity -5.52123022
REMARK minimizedRMSD -1
REMARK  1 active torsions:
REMARK  status: ('A' for Active; 'I' for Inactive)
REMARK    1  A    between atoms: C1_2  and  C2_3 
ROOT
ATOM      1  C2  UNL d   1       0.105  -0.518   0.345  0.00  0.00    -0.077 A 
ATOM      2  C3  UNL d   1       1.003  -0.097   1.336  0.00  0.00     0.002 A 
ATOM      3  C4  UNL d   1       0.542   0.586   2.464  0.00  0.00     0.002 A 
ATOM      4  C5  UNL d   1      -0.818   0.850   2.612  0.00  0.00    -0.004 A 
ATOM      5  C6  UNL d   1      -1.719   0.438   1.631  0.00  0.00     0.002 A 
ATOM      6  C7  UNL d   1      -1.260  -0.244   0.504  0.00  0.00     0.002 A 
ENDROOT
BRANCH   1   7
ATOM      7  C1  UNL d   1       0.594  -1.298  -0.847  0.00  0.00     0.055 C 
ATOM      8  C   UNL d   1       1.037  -0.371  -1.970  0.00  0.00     0.019 C 
ENDBRANCH   1   7
TORSDOF 1
ENDMDL
