MODEL 1
REMARK minimizedAffinity -3.19212198
REMARK minimizedRMSD -1
REMARK  1 active torsions:
REMARK  status: ('A' for Active; 'I' for Inactive)
REMARK    1  A    between atoms: C1_2  and  C2_3 
ROOT
ATOM      1  C2  UNL d   1      -0.096  -0.058   0.009  0.00  0.00    -0.077 A 
ATOM      2  C3  UNL d   1       0.674   1.032   0.439  0.00  0.00     0.002 A 
ATOM      3  C4  UNL d   1       0.318   1.738   1.590  0.00  0.00     0.002 A 
ATOM      4  C5  UNL d   1      -0.805   1.358   2.322  0.00  0.00    -0.004 A 
ATOM      5  C6  UNL d   1      -1.578   0.277   1.902  0.00  0.00     0.002 A 
ATOM      6  C7  UNL d   1      -1.224  -0.429   0.750  0.00  0.00     0.002 A 
ENDROOT
BRANCH   1   7
ATOM      7  C1  UNL d   1       0.315  -0.850  -1.205  0.00  0.00     0.055 C 
ATOM      8  C   UNL d   1       0.679   0.064  -2.366  0.00  0.00     0.019 C 
ENDBRANCH   1   7
TORSDOF 1
ENDMDL
