MODEL 1
REMARK minimizedAffinity -0.581310213
REMARK minimizedRMSD -1
REMARK  1 active torsions:
REMARK  status: ('A' for Active; 'I' for Inactive)
REMARK    1  A    between atoms: C1_2  and  C2_3 
ROOT
ATOM      1  C2  UNL d   1       0.002  -0.475  -4.116  0.00  0.00    -0.077 A 
ATOM      2  C3  UNL d   1      -0.623   0.105  -5.228  0.00  0.00     0.002 A 
ATOM      3  C4  UNL d   1      -1.523  -0.634  -5.997  0.00  0.00     0.002 A 
ATOM      4  C5  UNL d   1      -1.810  -1.955  -5.660  0.00  0.00    -0.004 A 
ATOM      5  C6  UNL d   1      -1.192  -2.541  -4.556  0.00  0.00     0.002 A 
ATOM      6  C7  UNL d   1      -0.291  -1.804  -3.787  0.00  0.00     0.002 A 
ENDROOT
BRANCH   1   7
ATOM      7  C1  UNL d   1       0.937   0.336  -3.256  0.00  0.00     0.055 C 
ATOM      8  C   UNL d   1       2.089   0.902  -4.073  0.00  0.00     0.019 C 
ENDBRANCH   1   7
TORSDOF 1
ENDMDL
