MODEL 1
REMARK minimizedAffinity 2.87259364
REMARK minimizedRMSD -1
REMARK  1 active torsions:
REMARK  status: ('A' for Active; 'I' for Inactive)
REMARK    1  A    between atoms: C1_2  and  C2_3 
ROOT
ATOM      1  C2  UNL d   1       3.293   3.371  -5.271  0.00  0.00    -0.076 A 
ATOM      2  C3  UNL d   1       3.681   4.553  -5.925  0.00  0.00     0.004 A 
ATOM      3  C4  UNL d   1       5.023   4.924  -6.000  0.00  0.00    -0.003 A 
ATOM      4  C5  UNL d   1       5.998   4.118  -5.423  0.00  0.00     0.000 A 
ATOM      5  C6  UNL d   1       5.632   2.933  -4.785  0.00  0.00     0.000 A 
ATOM      6  C7  UNL d   1       4.286   2.536  -4.715  0.00  0.00    -0.073 A 
ATOM      7  C8  UNL d   1       3.948   1.251  -4.010  0.00  0.00     0.078 C 
ENDROOT
BRANCH   1   8
ATOM      8  C1  UNL d   1       1.821   3.034  -5.197  0.00  0.00     0.053 C 
ATOM      9  C   UNL d   1       0.941   4.146  -5.748  0.00  0.00     0.018 C 
ENDBRANCH   1   8
TORSDOF 1
ENDMDL
