MODEL 1
REMARK minimizedAffinity -0.00160461257
REMARK minimizedRMSD -1
REMARK  1 active torsions:
REMARK  status: ('A' for Active; 'I' for Inactive)
REMARK    1  A    between atoms: C1_2  and  C2_3 
ROOT
ATOM      1  C2  UNL d   1       3.140   4.216  -5.434  0.00  0.00    -0.076 A 
ATOM      2  C3  UNL d   1       2.824   2.861  -5.234  0.00  0.00     0.004 A 
ATOM      3  C4  UNL d   1       3.786   1.867  -5.407  0.00  0.00    -0.003 A 
ATOM      4  C5  UNL d   1       5.079   2.213  -5.782  0.00  0.00     0.000 A 
ATOM      5  C6  UNL d   1       5.415   3.554  -5.967  0.00  0.00     0.000 A 
ATOM      6  C7  UNL d   1       4.461   4.569  -5.781  0.00  0.00    -0.073 A 
ATOM      7  C8  UNL d   1       4.876   5.998  -6.000  0.00  0.00     0.078 C 
ENDROOT
BRANCH   1   8
ATOM      8  C1  UNL d   1       2.048   5.248  -5.258  0.00  0.00     0.053 C 
ATOM      9  C   UNL d   1       0.762   4.863  -5.973  0.00  0.00     0.018 C 
ENDBRANCH   1   8
TORSDOF 1
ENDMDL
