MODEL 1
REMARK minimizedAffinity -0.737061203
REMARK minimizedRMSD -1
REMARK  1 active torsions:
REMARK  status: ('A' for Active; 'I' for Inactive)
REMARK    1  A    between atoms: C1_2  and  C2_3 
ROOT
ATOM      1  C2  UNL d   1       2.946   4.466  -5.626  0.00  0.00    -0.076 A 
ATOM      2  C3  UNL d   1       2.435   3.165  -5.478  0.00  0.00     0.004 A 
ATOM      3  C4  UNL d   1       3.268   2.051  -5.574  0.00  0.00    -0.003 A 
ATOM      4  C5  UNL d   1       4.626   2.221  -5.820  0.00  0.00     0.000 A 
ATOM      5  C6  UNL d   1       5.153   3.505  -5.953  0.00  0.00     0.000 A 
ATOM      6  C7  UNL d   1       4.330   4.639  -5.842  0.00  0.00    -0.073 A 
ATOM      7  C8  UNL d   1       4.951   6.000  -6.000  0.00  0.00     0.078 C 
ENDROOT
BRANCH   1   8
ATOM      8  C1  UNL d   1       1.990   5.634  -5.538  0.00  0.00     0.053 C 
ATOM      9  C   UNL d   1       0.576   5.262  -5.958  0.00  0.00     0.018 C 
ENDBRANCH   1   8
TORSDOF 1
ENDMDL
