MODEL 1
REMARK minimizedAffinity -2.04390955
REMARK minimizedRMSD -1
REMARK  1 active torsions:
REMARK  status: ('A' for Active; 'I' for Inactive)
REMARK    1  A    between atoms: C1_2  and  C2_3 
ROOT
ATOM      1  C2  UNL d   1       2.651   3.724  -5.624  0.00  0.00    -0.076 A 
ATOM      2  C3  UNL d   1       3.179   4.972  -5.999  0.00  0.00     0.004 A 
ATOM      3  C4  UNL d   1       4.554   5.198  -6.000  0.00  0.00    -0.003 A 
ATOM      4  C5  UNL d   1       5.424   4.179  -5.626  0.00  0.00     0.000 A 
ATOM      5  C6  UNL d   1       4.919   2.930  -5.268  0.00  0.00     0.000 A 
ATOM      6  C7  UNL d   1       3.536   2.681  -5.278  0.00  0.00    -0.073 A 
ATOM      7  C8  UNL d   1       3.046   1.316  -4.877  0.00  0.00     0.078 C 
ENDROOT
BRANCH   1   8
ATOM      8  C1  UNL d   1       1.150   3.546  -5.616  0.00  0.00     0.053 C 
ATOM      9  C   UNL d   1       0.409   4.824  -5.979  0.00  0.00     0.018 C 
ENDBRANCH   1   8
TORSDOF 1
ENDMDL
