MODEL 1
REMARK minimizedAffinity -3.20056701
REMARK minimizedRMSD -1
REMARK  1 active torsions:
REMARK  status: ('A' for Active; 'I' for Inactive)
REMARK    1  A    between atoms: C1_2  and  C2_3 
ROOT
ATOM      1  C2  UNL d   1       2.690   4.093  -5.174  0.00  0.00    -0.076 A 
ATOM      2  C3  UNL d   1       3.131   5.357  -5.602  0.00  0.00     0.004 A 
ATOM      3  C4  UNL d   1       4.452   5.559  -6.000  0.00  0.00    -0.003 A 
ATOM      4  C5  UNL d   1       5.352   4.500  -5.976  0.00  0.00     0.000 A 
ATOM      5  C6  UNL d   1       4.928   3.235  -5.571  0.00  0.00     0.000 A 
ATOM      6  C7  UNL d   1       3.596   3.011  -5.183  0.00  0.00    -0.073 A 
ATOM      7  C8  UNL d   1       3.194   1.628  -4.749  0.00  0.00     0.078 C 
ENDROOT
BRANCH   1   8
ATOM      8  C1  UNL d   1       1.253   3.940  -4.728  0.00  0.00     0.053 C 
ATOM      9  C   UNL d   1       0.270   4.570  -5.704  0.00  0.00     0.018 C 
ENDBRANCH   1   8
TORSDOF 1
ENDMDL
