MODEL 1
REMARK minimizedAffinity -2.62552357
REMARK minimizedRMSD -1
REMARK  1 active torsions:
REMARK  status: ('A' for Active; 'I' for Inactive)
REMARK    1  A    between atoms: C1_2  and  C2_3 
ROOT
ATOM      1  C2  UNL d   1       3.955   4.435  -5.695  0.00  0.00    -0.076 A 
ATOM      2  C3  UNL d   1       3.215   5.599  -5.965  0.00  0.00     0.004 A 
ATOM      3  C4  UNL d   1       1.823   5.600  -5.885  0.00  0.00    -0.003 A 
ATOM      4  C5  UNL d   1       1.149   4.435  -5.534  0.00  0.00     0.000 A 
ATOM      5  C6  UNL d   1       1.868   3.276  -5.246  0.00  0.00     0.000 A 
ATOM      6  C7  UNL d   1       3.272   3.263  -5.305  0.00  0.00    -0.073 A 
ATOM      7  C8  UNL d   1       3.996   1.983  -4.990  0.00  0.00     0.078 C 
ENDROOT
BRANCH   1   8
ATOM      8  C1  UNL d   1       5.460   4.488  -5.824  0.00  0.00     0.053 C 
ATOM      9  C   UNL d   1       5.981   5.906  -5.997  0.00  0.00     0.018 C 
ENDBRANCH   1   8
TORSDOF 1
ENDMDL
