MODEL 1
REMARK minimizedAffinity 10.3140736
REMARK minimizedRMSD -1
REMARK  1 active torsions:
REMARK  status: ('A' for Active; 'I' for Inactive)
REMARK    1  A    between atoms: C1_2  and  C2_3 
ROOT
ATOM      1  C2  UNL d   1       3.211   4.019  -5.609  0.00  0.00    -0.076 A 
ATOM      2  C3  UNL d   1       4.405   3.281  -5.533  0.00  0.00     0.004 A 
ATOM      3  C4  UNL d   1       4.401   1.894  -5.668  0.00  0.00    -0.003 A 
ATOM      4  C5  UNL d   1       3.203   1.222  -5.883  0.00  0.00     0.000 A 
ATOM      5  C6  UNL d   1       2.011   1.939  -5.978  0.00  0.00     0.000 A 
ATOM      6  C7  UNL d   1       2.000   3.340  -5.860  0.00  0.00    -0.073 A 
ATOM      7  C8  UNL d   1       0.685   4.062  -5.965  0.00  0.00     0.078 C 
ENDROOT
BRANCH   1   8
ATOM      8  C1  UNL d   1       3.274   5.518  -5.427  0.00  0.00     0.053 C 
ATOM      9  C   UNL d   1       2.427   6.000  -4.259  0.00  0.00     0.018 C 
ENDBRANCH   1   8
TORSDOF 1
ENDMDL
