MODEL 1
REMARK minimizedAffinity -0.846900821
REMARK minimizedRMSD -1
REMARK  1 active torsions:
REMARK  status: ('A' for Active; 'I' for Inactive)
REMARK    1  A    between atoms: C1_2  and  C2_3 
ROOT
ATOM      1  C2  UNL d   1       3.771   4.210  -5.744  0.00  0.00    -0.076 A 
ATOM      2  C3  UNL d   1       2.971   5.338  -6.000  0.00  0.00     0.004 A 
ATOM      3  C4  UNL d   1       1.590   5.295  -5.813  0.00  0.00    -0.003 A 
ATOM      4  C5  UNL d   1       0.987   4.125  -5.366  0.00  0.00     0.000 A 
ATOM      5  C6  UNL d   1       1.767   3.002  -5.090  0.00  0.00     0.000 A 
ATOM      6  C7  UNL d   1       3.162   3.033  -5.258  0.00  0.00    -0.073 A 
ATOM      7  C8  UNL d   1       3.954   1.792  -4.952  0.00  0.00     0.078 C 
ENDROOT
BRANCH   1   8
ATOM      8  C1  UNL d   1       5.259   4.307  -5.991  0.00  0.00     0.053 C 
ATOM      9  C   UNL d   1       5.757   5.744  -5.998  0.00  0.00     0.018 C 
ENDBRANCH   1   8
TORSDOF 1
ENDMDL
