MODEL 1
REMARK minimizedAffinity 12.8776093
REMARK minimizedRMSD -1
REMARK  1 active torsions:
REMARK  status: ('A' for Active; 'I' for Inactive)
REMARK    1  A    between atoms: C1_2  and  C2_3 
ROOT
ATOM      1  C2  UNL d   1      -2.962  -3.781   4.804  0.00  0.00    -0.076 A 
ATOM      2  C3  UNL d   1      -2.993  -2.411   5.117  0.00  0.00     0.004 A 
ATOM      3  C4  UNL d   1      -2.206  -1.497   4.418  0.00  0.00    -0.003 A 
ATOM      4  C5  UNL d   1      -1.375  -1.938   3.395  0.00  0.00     0.000 A 
ATOM      5  C6  UNL d   1      -1.344  -3.291   3.059  0.00  0.00     0.000 A 
ATOM      6  C7  UNL d   1      -2.143  -4.223   3.743  0.00  0.00    -0.073 A 
ATOM      7  C8  UNL d   1      -2.065  -5.672   3.343  0.00  0.00     0.078 C 
ENDROOT
BRANCH   1   8
ATOM      8  C1  UNL d   1      -3.817  -4.729   5.614  0.00  0.00     0.053 C 
ATOM      9  C   UNL d   1      -3.075  -5.999   5.998  0.00  0.00     0.018 C 
ENDBRANCH   1   8
TORSDOF 1
ENDMDL
