MODEL 1
REMARK minimizedAffinity 1.37291908
REMARK minimizedRMSD -1
REMARK  1 active torsions:
REMARK  status: ('A' for Active; 'I' for Inactive)
REMARK    1  A    between atoms: C1_2  and  C2_3 
ROOT
ATOM      1  C2  UNL d   1       3.217   4.313  -5.974  0.00  0.00    -0.076 A 
ATOM      2  C3  UNL d   1       2.603   3.048  -5.957  0.00  0.00     0.004 A 
ATOM      3  C4  UNL d   1       3.365   1.881  -5.969  0.00  0.00    -0.003 A 
ATOM      4  C5  UNL d   1       4.753   1.960  -6.000  0.00  0.00     0.000 A 
ATOM      5  C6  UNL d   1       5.379   3.206  -6.000  0.00  0.00     0.000 A 
ATOM      6  C7  UNL d   1       4.626   4.392  -5.971  0.00  0.00    -0.073 A 
ATOM      7  C8  UNL d   1       5.353   5.709  -5.978  0.00  0.00     0.078 C 
ENDROOT
BRANCH   1   8
ATOM      8  C1  UNL d   1       2.339   5.544  -5.987  0.00  0.00     0.053 C 
ATOM      9  C   UNL d   1       0.857   5.202  -6.000  0.00  0.00     0.018 C 
ENDBRANCH   1   8
TORSDOF 1
ENDMDL
