MODEL 1
REMARK minimizedAffinity -1.9232235
REMARK minimizedRMSD -1
REMARK  1 active torsions:
REMARK  status: ('A' for Active; 'I' for Inactive)
REMARK    1  A    between atoms: C1_2  and  C2_3 
ROOT
ATOM      1  C2  UNL d   1       3.719   4.011  -5.979  0.00  0.00    -0.076 A 
ATOM      2  C3  UNL d   1       3.208   2.701  -5.977  0.00  0.00     0.004 A 
ATOM      3  C4  UNL d   1       4.060   1.598  -5.987  0.00  0.00    -0.003 A 
ATOM      4  C5  UNL d   1       5.438   1.787  -5.999  0.00  0.00     0.000 A 
ATOM      5  C6  UNL d   1       5.962   3.079  -5.984  0.00  0.00     0.000 A 
ATOM      6  C7  UNL d   1       5.117   4.202  -5.957  0.00  0.00    -0.073 A 
ATOM      7  C8  UNL d   1       5.738   5.572  -5.947  0.00  0.00     0.078 C 
ENDROOT
BRANCH   1   8
ATOM      8  C1  UNL d   1       2.746   5.168  -5.995  0.00  0.00     0.053 C 
ATOM      9  C   UNL d   1       1.296   4.710  -5.992  0.00  0.00     0.018 C 
ENDBRANCH   1   8
TORSDOF 1
ENDMDL
