MODEL 1
REMARK minimizedAffinity -3.41130733
REMARK minimizedRMSD -1
REMARK  1 active torsions:
REMARK  status: ('A' for Active; 'I' for Inactive)
REMARK    1  A    between atoms: C1_2  and  C2_3 
ROOT
ATOM      1  C2  UNL d   1       3.984   4.460  -5.751  0.00  0.00    -0.076 A 
ATOM      2  C3  UNL d   1       3.215   5.637  -5.729  0.00  0.00     0.004 A 
ATOM      3  C4  UNL d   1       1.828   5.589  -5.849  0.00  0.00    -0.003 A 
ATOM      4  C5  UNL d   1       1.186   4.364  -5.993  0.00  0.00     0.000 A 
ATOM      5  C6  UNL d   1       1.932   3.185  -5.999  0.00  0.00     0.000 A 
ATOM      6  C7  UNL d   1       3.330   3.215  -5.863  0.00  0.00    -0.073 A 
ATOM      7  C8  UNL d   1       4.085   1.914  -5.883  0.00  0.00     0.078 C 
ENDROOT
BRANCH   1   8
ATOM      8  C1  UNL d   1       5.488   4.576  -5.644  0.00  0.00     0.053 C 
ATOM      9  C   UNL d   1       5.990   5.973  -5.973  0.00  0.00     0.018 C 
ENDBRANCH   1   8
TORSDOF 1
ENDMDL
