MODEL 1
REMARK minimizedAffinity -2.94630933
REMARK minimizedRMSD -1
REMARK  1 active torsions:
REMARK  status: ('A' for Active; 'I' for Inactive)
REMARK    1  A    between atoms: C1_2  and  C2_3 
ROOT
ATOM      1  C2  UNL d   1       3.244   3.831  -5.175  0.00  0.00    -0.076 A 
ATOM      2  C3  UNL d   1       4.147   4.879  -4.925  0.00  0.00     0.004 A 
ATOM      3  C4  UNL d   1       5.513   4.718  -5.151  0.00  0.00    -0.003 A 
ATOM      4  C5  UNL d   1       5.998   3.507  -5.633  0.00  0.00     0.000 A 
ATOM      5  C6  UNL d   1       5.114   2.463  -5.903  0.00  0.00     0.000 A 
ATOM      6  C7  UNL d   1       3.733   2.614  -5.696  0.00  0.00    -0.073 A 
ATOM      7  C8  UNL d   1       2.826   1.452  -5.998  0.00  0.00     0.078 C 
ENDROOT
BRANCH   1   8
ATOM      8  C1  UNL d   1       1.777   4.055  -4.884  0.00  0.00     0.053 C 
ATOM      9  C   UNL d   1       1.085   4.866  -5.969  0.00  0.00     0.018 C 
ENDBRANCH   1   8
TORSDOF 1
ENDMDL
