MODEL 1
REMARK minimizedAffinity 13.9409227
REMARK minimizedRMSD -1
REMARK  0 active torsions:
REMARK  status: ('A' for Active; 'I' for Inactive)
ROOT
ATOM      1  C   UNL d   1       1.097   5.389   1.531  0.00  0.00     0.077 C 
ATOM      2  C1  UNL d   1       1.156   4.048   2.200  0.00  0.00    -0.074 A 
ATOM      3  C2  UNL d   1       2.025   3.816   3.271  0.00  0.00    -0.005 A 
ATOM      4  C3  UNL d   1       2.063   2.567   3.890  0.00  0.00     0.006 A 
ATOM      5  C4  UNL d   1       1.233   1.537   3.444  0.00  0.00    -0.005 A 
ATOM      6  C5  UNL d   1       0.357   1.750   2.375  0.00  0.00    -0.074 A 
ATOM      7  C6  UNL d   1      -0.549   0.657   1.890  0.00  0.00     0.077 C 
ATOM      8  C7  UNL d   1       0.320   3.011   1.763  0.00  0.00    -0.001 A 
ENDROOT
TORSDOF 0
ENDMDL
