MODEL 1
REMARK minimizedAffinity 13.2086983
REMARK minimizedRMSD -1
REMARK  0 active torsions:
REMARK  status: ('A' for Active; 'I' for Inactive)
ROOT
ATOM      1  C   UNL d   1      -1.828  -0.368  -2.643  0.00  0.00     0.077 C 
ATOM      2  C1  UNL d   1      -1.312   0.022  -1.290  0.00  0.00    -0.074 A 
ATOM      3  C2  UNL d   1      -1.992   0.956  -0.502  0.00  0.00    -0.005 A 
ATOM      4  C3  UNL d   1      -1.505   1.301   0.759  0.00  0.00     0.006 A 
ATOM      5  C4  UNL d   1      -0.334   0.716   1.244  0.00  0.00    -0.005 A 
ATOM      6  C5  UNL d   1       0.359  -0.220   0.471  0.00  0.00    -0.074 A 
ATOM      7  C6  UNL d   1       1.614  -0.865   0.981  0.00  0.00     0.077 C 
ATOM      8  C7  UNL d   1      -0.140  -0.567  -0.792  0.00  0.00    -0.001 A 
ENDROOT
TORSDOF 0
ENDMDL
