MODEL 1
REMARK minimizedAffinity 6.36755466
REMARK minimizedRMSD -1
REMARK  0 active torsions:
REMARK  status: ('A' for Active; 'I' for Inactive)
ROOT
ATOM      1  C   UNL d   1       2.082   2.895   3.707  0.00  0.00     0.077 C 
ATOM      2  C1  UNL d   1       1.123   2.244   2.754  0.00  0.00    -0.074 A 
ATOM      3  C2  UNL d   1       0.341   3.012   1.885  0.00  0.00    -0.005 A 
ATOM      4  C3  UNL d   1      -0.540   2.393   0.999  0.00  0.00     0.006 A 
ATOM      5  C4  UNL d   1      -0.648   1.002   0.972  0.00  0.00    -0.005 A 
ATOM      6  C5  UNL d   1       0.126   0.218   1.833  0.00  0.00    -0.074 A 
ATOM      7  C6  UNL d   1       0.029  -1.279   1.811  0.00  0.00     0.077 C 
ATOM      8  C7  UNL d   1       1.014   0.847   2.716  0.00  0.00    -0.001 A 
ENDROOT
TORSDOF 0
ENDMDL
