MODEL 1
REMARK minimizedAffinity 10.8840609
REMARK minimizedRMSD -1
REMARK  0 active torsions:
REMARK  status: ('A' for Active; 'I' for Inactive)
ROOT
ATOM      1  C   UNL d   1       2.581   3.245   4.093  0.00  0.00     0.077 C 
ATOM      2  C1  UNL d   1       1.783   3.376   2.830  0.00  0.00    -0.074 A 
ATOM      3  C2  UNL d   1       1.657   4.611   2.185  0.00  0.00    -0.005 A 
ATOM      4  C3  UNL d   1       0.919   4.716   1.005  0.00  0.00     0.006 A 
ATOM      5  C4  UNL d   1       0.302   3.590   0.460  0.00  0.00    -0.005 A 
ATOM      6  C5  UNL d   1       0.418   2.347   1.091  0.00  0.00    -0.074 A 
ATOM      7  C6  UNL d   1      -0.231   1.125   0.512  0.00  0.00     0.077 C 
ATOM      8  C7  UNL d   1       1.166   2.248   2.271  0.00  0.00    -0.001 A 
ENDROOT
TORSDOF 0
ENDMDL
