MODEL 1
REMARK minimizedAffinity -2.8670671
REMARK minimizedRMSD -1
REMARK  0 active torsions:
REMARK  status: ('A' for Active; 'I' for Inactive)
ROOT
ATOM      1  C   UNL d   1       1.712   3.030   2.670  0.00  0.00     0.077 C 
ATOM      2  C1  UNL d   1       0.671   2.498   1.731  0.00  0.00    -0.074 A 
ATOM      3  C2  UNL d   1      -0.414   3.288   1.338  0.00  0.00    -0.005 A 
ATOM      4  C3  UNL d   1      -1.370   2.782   0.456  0.00  0.00     0.006 A 
ATOM      5  C4  UNL d   1      -1.250   1.484  -0.041  0.00  0.00    -0.005 A 
ATOM      6  C5  UNL d   1      -0.171   0.679   0.340  0.00  0.00    -0.074 A 
ATOM      7  C6  UNL d   1      -0.022  -0.715  -0.192  0.00  0.00     0.077 C 
ATOM      8  C7  UNL d   1       0.789   1.197   1.221  0.00  0.00    -0.001 A 
ENDROOT
TORSDOF 0
ENDMDL
