MODEL 1
REMARK minimizedAffinity -3.50928211
REMARK minimizedRMSD -1
REMARK  0 active torsions:
REMARK  status: ('A' for Active; 'I' for Inactive)
ROOT
ATOM      1  C   UNL d   1       0.125  -0.899  -1.074  0.00  0.00     0.077 C 
ATOM      2  C1  UNL d   1       0.115   0.091   0.051  0.00  0.00    -0.074 A 
ATOM      3  C2  UNL d   1       0.781  -0.177   1.251  0.00  0.00    -0.005 A 
ATOM      4  C3  UNL d   1       0.771   0.758   2.286  0.00  0.00     0.006 A 
ATOM      5  C4  UNL d   1       0.095   1.969   2.132  0.00  0.00    -0.005 A 
ATOM      6  C5  UNL d   1      -0.576   2.256   0.939  0.00  0.00    -0.074 A 
ATOM      7  C6  UNL d   1      -1.299   3.557   0.753  0.00  0.00     0.077 C 
ATOM      8  C7  UNL d   1      -0.556   1.314  -0.099  0.00  0.00    -0.001 A 
ENDROOT
TORSDOF 0
ENDMDL
