MODEL 1
REMARK minimizedAffinity 1.83636475
REMARK minimizedRMSD -1
REMARK  0 active torsions:
REMARK  status: ('A' for Active; 'I' for Inactive)
ROOT
ATOM      1  C   UNL d   1      -0.422  -3.501  -0.736  0.00  0.00     0.077 C 
ATOM      2  C1  UNL d   1      -0.215  -2.025  -0.571  0.00  0.00    -0.074 A 
ATOM      3  C2  UNL d   1       0.863  -1.529   0.170  0.00  0.00    -0.005 A 
ATOM      4  C3  UNL d   1       1.048  -0.153   0.307  0.00  0.00     0.006 A 
ATOM      5  C4  UNL d   1       0.159   0.739  -0.294  0.00  0.00    -0.005 A 
ATOM      6  C5  UNL d   1      -0.924   0.261  -1.039  0.00  0.00    -0.074 A 
ATOM      7  C6  UNL d   1      -1.884   1.206  -1.699  0.00  0.00     0.077 C 
ATOM      8  C7  UNL d   1      -1.100  -1.122  -1.178  0.00  0.00    -0.001 A 
ENDROOT
TORSDOF 0
ENDMDL
