MODEL 1
REMARK minimizedAffinity -1.97735226
REMARK minimizedRMSD -1
REMARK  0 active torsions:
REMARK  status: ('A' for Active; 'I' for Inactive)
ROOT
ATOM      1  C   UNL d   1      -0.380   0.746  -1.103  0.00  0.00     0.077 C 
ATOM      2  C1  UNL d   1       0.115   0.860   0.308  0.00  0.00    -0.074 A 
ATOM      3  C2  UNL d   1       0.052   2.076   0.996  0.00  0.00    -0.005 A 
ATOM      4  C3  UNL d   1       0.508   2.165   2.311  0.00  0.00     0.006 A 
ATOM      5  C4  UNL d   1       1.031   1.041   2.951  0.00  0.00    -0.005 A 
ATOM      6  C5  UNL d   1       1.102  -0.184   2.279  0.00  0.00    -0.074 A 
ATOM      7  C6  UNL d   1       1.652  -1.404   2.956  0.00  0.00     0.077 C 
ATOM      8  C7  UNL d   1       0.635  -0.267   0.960  0.00  0.00    -0.001 A 
ENDROOT
TORSDOF 0
ENDMDL
