MODEL 1
REMARK minimizedAffinity -3.9039278
REMARK minimizedRMSD -1
REMARK  1 active torsions:
REMARK  status: ('A' for Active; 'I' for Inactive)
REMARK    1  A    between atoms: C1_2  and  C2_3 
ROOT
ATOM      1  C2  UNL d   1       1.063  -1.344   1.017  0.00  0.00    -0.077 A 
ATOM      2  C3  UNL d   1       0.464  -1.237   2.280  0.00  0.00     0.002 A 
ATOM      3  C4  UNL d   1      -0.714  -0.506   2.443  0.00  0.00     0.002 A 
ATOM      4  C5  UNL d   1      -1.305   0.121   1.348  0.00  0.00    -0.004 A 
ATOM      5  C6  UNL d   1      -0.716   0.022   0.088  0.00  0.00     0.002 A 
ATOM      6  C7  UNL d   1       0.462  -0.708  -0.077  0.00  0.00     0.002 A 
ENDROOT
BRANCH   1   7
ATOM      7  C1  UNL d   1       2.306  -2.173   0.830  0.00  0.00     0.055 C 
ATOM      8  C   UNL d   1       2.756  -2.176  -0.624  0.00  0.00     0.019 C 
ENDBRANCH   1   7
TORSDOF 1
ENDMDL
