MODEL 1
REMARK minimizedAffinity -3.44581914
REMARK minimizedRMSD -1
REMARK  1 active torsions:
REMARK  status: ('A' for Active; 'I' for Inactive)
REMARK    1  A    between atoms: C1_2  and  C2_3 
ROOT
ATOM      1  C2  UNL d   1      -0.016   0.024   0.681  0.00  0.00    -0.077 A 
ATOM      2  C3  UNL d   1       1.240   0.643   0.743  0.00  0.00     0.002 A 
ATOM      3  C4  UNL d   1       2.165   0.265   1.719  0.00  0.00     0.002 A 
ATOM      4  C5  UNL d   1       1.845  -0.734   2.636  0.00  0.00    -0.004 A 
ATOM      5  C6  UNL d   1       0.597  -1.353   2.583  0.00  0.00     0.002 A 
ATOM      6  C7  UNL d   1      -0.329  -0.977   1.609  0.00  0.00     0.002 A 
ENDROOT
BRANCH   1   7
ATOM      7  C1  UNL d   1      -0.997   0.395  -0.401  0.00  0.00     0.055 C 
ATOM      8  C   UNL d   1      -0.358   1.308  -1.437  0.00  0.00     0.019 C 
ENDBRANCH   1   7
TORSDOF 1
ENDMDL
