MODEL 1
REMARK minimizedAffinity -6.3104353
REMARK minimizedRMSD -1
REMARK  1 active torsions:
REMARK  status: ('A' for Active; 'I' for Inactive)
REMARK    1  A    between atoms: C1_2  and  C2_3 
ROOT
ATOM      1  C2  UNL d   1       0.734  -0.846   0.172  0.00  0.00    -0.077 A 
ATOM      2  C3  UNL d   1       1.989  -1.413   0.431  0.00  0.00     0.002 A 
ATOM      3  C4  UNL d   1       2.397  -1.656   1.744  0.00  0.00     0.002 A 
ATOM      4  C5  UNL d   1       1.555  -1.339   2.807  0.00  0.00    -0.004 A 
ATOM      5  C6  UNL d   1       0.305  -0.772   2.560  0.00  0.00     0.002 A 
ATOM      6  C7  UNL d   1      -0.104  -0.528   1.248  0.00  0.00     0.002 A 
ENDROOT
BRANCH   1   7
ATOM      7  C1  UNL d   1       0.271  -0.629  -1.245  0.00  0.00     0.055 C 
ATOM      8  C   UNL d   1      -0.399   0.728  -1.407  0.00  0.00     0.019 C 
ENDBRANCH   1   7
TORSDOF 1
ENDMDL
