MODEL 1
REMARK minimizedAffinity -3.56145215
REMARK minimizedRMSD -1
REMARK  1 active torsions:
REMARK  status: ('A' for Active; 'I' for Inactive)
REMARK    1  A    between atoms: C1_2  and  C2_3 
ROOT
ATOM      1  C2  UNL d   1       1.100  -1.202  -0.131  0.00  0.00    -0.077 A 
ATOM      2  C3  UNL d   1       0.329  -0.421  -1.003  0.00  0.00     0.002 A 
ATOM      3  C4  UNL d   1      -0.833   0.207  -0.550  0.00  0.00     0.002 A 
ATOM      4  C5  UNL d   1      -1.231   0.063   0.778  0.00  0.00    -0.004 A 
ATOM      5  C6  UNL d   1      -0.473  -0.713   1.653  0.00  0.00     0.002 A 
ATOM      6  C7  UNL d   1       0.688  -1.342   1.201  0.00  0.00     0.002 A 
ENDROOT
BRANCH   1   7
ATOM      7  C1  UNL d   1       2.379  -1.840  -0.605  0.00  0.00     0.055 C 
ATOM      8  C   UNL d   1       2.932  -2.809   0.429  0.00  0.00     0.019 C 
ENDBRANCH   1   7
TORSDOF 1
ENDMDL
