MODEL 1
REMARK minimizedAffinity -2.92512774
REMARK minimizedRMSD -1
REMARK  1 active torsions:
REMARK  status: ('A' for Active; 'I' for Inactive)
REMARK    1  A    between atoms: C1_2  and  C2_3 
ROOT
ATOM      1  C2  UNL d   1      -0.099  -0.169  -0.162  0.00  0.00    -0.077 A 
ATOM      2  C3  UNL d   1       0.934  -0.984   0.323  0.00  0.00     0.002 A 
ATOM      3  C4  UNL d   1       0.899  -1.463   1.634  0.00  0.00     0.002 A 
ATOM      4  C5  UNL d   1      -0.167  -1.135   2.469  0.00  0.00    -0.004 A 
ATOM      5  C6  UNL d   1      -1.198  -0.323   1.996  0.00  0.00     0.002 A 
ATOM      6  C7  UNL d   1      -1.164   0.157   0.686  0.00  0.00     0.002 A 
ENDROOT
BRANCH   1   7
ATOM      7  C1  UNL d   1      -0.088   0.308  -1.591  0.00  0.00     0.055 C 
ATOM      8  C   UNL d   1      -0.820   1.634  -1.738  0.00  0.00     0.019 C 
ENDBRANCH   1   7
TORSDOF 1
ENDMDL
