MODEL 1
REMARK minimizedAffinity -4.14335299
REMARK minimizedRMSD -1
REMARK  1 active torsions:
REMARK  status: ('A' for Active; 'I' for Inactive)
REMARK    1  A    between atoms: C1_2  and  C2_3 
ROOT
ATOM      1  C2  UNL d   1      -0.746   1.349  -1.151  0.00  0.00    -0.077 A 
ATOM      2  C3  UNL d   1      -1.970   1.808  -0.642  0.00  0.00     0.002 A 
ATOM      3  C4  UNL d   1      -2.587   2.932  -1.194  0.00  0.00     0.002 A 
ATOM      4  C5  UNL d   1      -1.991   3.605  -2.258  0.00  0.00    -0.004 A 
ATOM      5  C6  UNL d   1      -0.773   3.158  -2.769  0.00  0.00     0.002 A 
ATOM      6  C7  UNL d   1      -0.154   2.035  -2.219  0.00  0.00     0.002 A 
ENDROOT
BRANCH   1   7
ATOM      7  C1  UNL d   1      -0.104   0.108  -0.590  0.00  0.00     0.055 C 
ATOM      8  C   UNL d   1      -0.799  -0.348   0.685  0.00  0.00     0.019 C 
ENDBRANCH   1   7
TORSDOF 1
ENDMDL
