MODEL 1
REMARK minimizedAffinity 10.1886158
REMARK minimizedRMSD -1
REMARK  0 active torsions:
REMARK  status: ('A' for Active; 'I' for Inactive)
ROOT
ATOM      1  C2' OXE d   1      -3.945  -1.200   3.705  0.00  0.00     0.078 C 
ATOM      2  C1' OXE d   1      -1.263  -0.939   4.493  0.00  0.00     0.078 C 
ATOM      3  C1  OXE d   1      -1.630  -0.510   3.095  0.00  0.00    -0.078 A 
ATOM      4  C2  OXE d   1      -2.935  -0.684   2.702  0.00  0.00    -0.078 A 
ATOM      5  C3  OXE d   1      -3.339  -0.254   1.441  0.00  0.00     0.003 A 
ATOM      6  C4  OXE d   1      -2.398   0.212   0.516  0.00  0.00    -0.002 A 
ATOM      7  C5  OXE d   1      -1.056   0.360   0.882  0.00  0.00    -0.002 A 
ATOM      8  C6  OXE d   1      -0.664   0.045   2.179  0.00  0.00     0.003 A 
ENDROOT
TORSDOF 0
ENDMDL
