MODEL 1
REMARK minimizedAffinity -3.45937967
REMARK minimizedRMSD -1
REMARK  0 active torsions:
REMARK  status: ('A' for Active; 'I' for Inactive)
ROOT
ATOM      1  C2' OXE d   1       1.118   0.223   1.190  0.00  0.00     0.078 C 
ATOM      2  C1' OXE d   1      -1.650   0.686   1.116  0.00  0.00     0.078 C 
ATOM      3  C1  OXE d   1      -1.107  -0.155   2.244  0.00  0.00    -0.078 A 
ATOM      4  C2  OXE d   1       0.242  -0.416   2.246  0.00  0.00    -0.078 A 
ATOM      5  C3  OXE d   1       0.803  -1.141   3.294  0.00  0.00     0.003 A 
ATOM      6  C4  OXE d   1      -0.016  -1.736   4.262  0.00  0.00    -0.002 A 
ATOM      7  C5  OXE d   1      -1.397  -1.516   4.255  0.00  0.00    -0.002 A 
ATOM      8  C6  OXE d   1      -1.952  -0.695   3.280  0.00  0.00     0.003 A 
ENDROOT
TORSDOF 0
ENDMDL
