MODEL 1
REMARK minimizedAffinity 0.0938541368
REMARK minimizedRMSD -1
REMARK  0 active torsions:
REMARK  status: ('A' for Active; 'I' for Inactive)
ROOT
ATOM      1  C2' OXE d   1       1.268  -0.364   1.962  0.00  0.00     0.078 C 
ATOM      2  C1' OXE d   1      -1.360   0.466   1.430  0.00  0.00     0.078 C 
ATOM      3  C1  OXE d   1      -1.122  -0.365   2.666  0.00  0.00    -0.078 A 
ATOM      4  C2  OXE d   1       0.159  -0.806   2.893  0.00  0.00    -0.078 A 
ATOM      5  C3  OXE d   1       0.445  -1.530   4.048  0.00  0.00     0.003 A 
ATOM      6  C4  OXE d   1      -0.588  -1.943   4.898  0.00  0.00    -0.002 A 
ATOM      7  C5  OXE d   1      -1.906  -1.538   4.664  0.00  0.00    -0.002 A 
ATOM      8  C6  OXE d   1      -2.183  -0.715   3.577  0.00  0.00     0.003 A 
ENDROOT
TORSDOF 0
ENDMDL
