MODEL 1
REMARK minimizedAffinity 6.39898968
REMARK minimizedRMSD -1
REMARK  0 active torsions:
REMARK  status: ('A' for Active; 'I' for Inactive)
ROOT
ATOM      1  C2' OXE d   1      -2.620  -0.173  -0.575  0.00  0.00     0.078 C 
ATOM      2  C1' OXE d   1      -1.999   0.793   1.987  0.00  0.00     0.078 C 
ATOM      3  C1  OXE d   1      -0.867   0.270   1.138  0.00  0.00    -0.078 A 
ATOM      4  C2  OXE d   1      -1.186  -0.243  -0.095  0.00  0.00    -0.078 A 
ATOM      5  C3  OXE d   1      -0.173  -0.688  -0.940  0.00  0.00     0.003 A 
ATOM      6  C4  OXE d   1       1.149  -0.759  -0.485  0.00  0.00    -0.002 A 
ATOM      7  C5  OXE d   1       1.490  -0.278   0.784  0.00  0.00    -0.002 A 
ATOM      8  C6  OXE d   1       0.503   0.278   1.590  0.00  0.00     0.003 A 
ENDROOT
TORSDOF 0
ENDMDL
