MODEL 1
REMARK minimizedAffinity 10.0749893
REMARK minimizedRMSD -1
REMARK  0 active torsions:
REMARK  status: ('A' for Active; 'I' for Inactive)
ROOT
ATOM      1  C2' OXE d   1       2.590   3.030   1.358  0.00  0.00     0.078 C 
ATOM      2  C1' OXE d   1       3.971   2.319  -0.981  0.00  0.00     0.078 C 
ATOM      3  C1  OXE d   1       3.248   1.228  -0.231  0.00  0.00    -0.078 A 
ATOM      4  C2  OXE d   1       2.614   1.576   0.937  0.00  0.00    -0.078 A 
ATOM      5  C3  OXE d   1       1.886   0.619   1.638  0.00  0.00     0.003 A 
ATOM      6  C4  OXE d   1       1.922  -0.725   1.248  0.00  0.00    -0.002 A 
ATOM      7  C5  OXE d   1       2.594  -1.108   0.082  0.00  0.00    -0.002 A 
ATOM      8  C6  OXE d   1       3.225  -0.139  -0.690  0.00  0.00     0.003 A 
ENDROOT
TORSDOF 0
ENDMDL
