MODEL 1
REMARK minimizedAffinity -0.0176032074
REMARK minimizedRMSD -1
REMARK  0 active torsions:
REMARK  status: ('A' for Active; 'I' for Inactive)
ROOT
ATOM      1  C2' OXE d   1       1.468  -0.233   0.338  0.00  0.00     0.078 C 
ATOM      2  C1' OXE d   1      -1.236   0.260  -0.235  0.00  0.00     0.078 C 
ATOM      3  C1  OXE d   1      -0.881  -0.173   1.166  0.00  0.00    -0.078 A 
ATOM      4  C2  OXE d   1       0.438  -0.457   1.425  0.00  0.00    -0.078 A 
ATOM      5  C3  OXE d   1       0.827  -0.807   2.715  0.00  0.00     0.003 A 
ATOM      6  C4  OXE d   1      -0.133  -1.022   3.711  0.00  0.00    -0.002 A 
ATOM      7  C5  OXE d   1      -1.486  -0.776   3.457  0.00  0.00    -0.002 A 
ATOM      8  C6  OXE d   1      -1.872  -0.311   2.205  0.00  0.00     0.003 A 
ENDROOT
TORSDOF 0
ENDMDL
