MODEL 1
REMARK minimizedAffinity 1.38141799
REMARK minimizedRMSD -1
REMARK  0 active torsions:
REMARK  status: ('A' for Active; 'I' for Inactive)
ROOT
ATOM      1  C2' OXE d   1      -1.434  -1.772   5.733  0.00  0.00     0.078 C 
ATOM      2  C1' OXE d   1       0.800  -1.058   4.190  0.00  0.00     0.078 C 
ATOM      3  C1  OXE d   1      -0.567  -0.796   3.611  0.00  0.00    -0.078 A 
ATOM      4  C2  OXE d   1      -1.655  -1.192   4.352  0.00  0.00    -0.078 A 
ATOM      5  C3  OXE d   1      -2.939  -0.924   3.888  0.00  0.00     0.003 A 
ATOM      6  C4  OXE d   1      -3.135  -0.396   2.606  0.00  0.00    -0.002 A 
ATOM      7  C5  OXE d   1      -2.041  -0.024   1.818  0.00  0.00    -0.002 A 
ATOM      8  C6  OXE d   1      -0.754  -0.177   2.322  0.00  0.00     0.003 A 
ENDROOT
TORSDOF 0
ENDMDL
