MODEL 1
REMARK minimizedAffinity -3.37310958
REMARK minimizedRMSD -1
REMARK  1 active torsions:
REMARK  status: ('A' for Active; 'I' for Inactive)
REMARK    1  A    between atoms: C1_2  and  C2_3 
ROOT
ATOM      1  C2  UNL d   1       4.844  -3.138  -5.230  0.00  0.00    -0.077 A 
ATOM      2  C3  UNL d   1       5.752  -3.550  -4.244  0.00  0.00     0.002 A 
ATOM      3  C4  UNL d   1       5.996  -4.908  -4.033  0.00  0.00     0.002 A 
ATOM      4  C5  UNL d   1       5.341  -5.864  -4.806  0.00  0.00    -0.004 A 
ATOM      5  C6  UNL d   1       4.434  -5.464  -5.787  0.00  0.00     0.002 A 
ATOM      6  C7  UNL d   1       4.188  -4.107  -5.999  0.00  0.00     0.002 A 
ENDROOT
BRANCH   1   7
ATOM      7  C1  UNL d   1       4.616  -1.672  -5.493  0.00  0.00     0.055 C 
ATOM      8  C   UNL d   1       5.926  -0.949  -5.770  0.00  0.00     0.019 C 
ENDBRANCH   1   7
TORSDOF 1
ENDMDL
