MODEL 1
REMARK minimizedAffinity -3.65856624
REMARK minimizedRMSD -1
REMARK  1 active torsions:
REMARK  status: ('A' for Active; 'I' for Inactive)
REMARK    1  A    between atoms: C1_2  and  C2_3 
ROOT
ATOM      1  C2  UNL d   1       5.361  -2.248  -5.082  0.00  0.00    -0.077 A 
ATOM      2  C3  UNL d   1       6.000  -3.090  -4.162  0.00  0.00     0.002 A 
ATOM      3  C4  UNL d   1       5.739  -4.462  -4.161  0.00  0.00     0.002 A 
ATOM      4  C5  UNL d   1       4.843  -5.003  -5.081  0.00  0.00    -0.004 A 
ATOM      5  C6  UNL d   1       4.201  -4.173  -5.999  0.00  0.00     0.002 A 
ATOM      6  C7  UNL d   1       4.459  -2.801  -6.000  0.00  0.00     0.002 A 
ENDROOT
BRANCH   1   7
ATOM      7  C1  UNL d   1       5.678  -0.775  -5.116  0.00  0.00     0.055 C 
ATOM      8  C   UNL d   1       4.692  -0.017  -5.994  0.00  0.00     0.019 C 
ENDBRANCH   1   7
TORSDOF 1
ENDMDL
