MODEL 1
REMARK minimizedAffinity -1.39938951
REMARK minimizedRMSD -1
REMARK  1 active torsions:
REMARK  status: ('A' for Active; 'I' for Inactive)
REMARK    1  A    between atoms: C1_2  and  C2_3 
ROOT
ATOM      1  C2  UNL d   1       4.569  -3.543  -4.650  0.00  0.00    -0.077 A 
ATOM      2  C3  UNL d   1       3.406  -4.326  -4.670  0.00  0.00     0.002 A 
ATOM      3  C4  UNL d   1       3.389  -5.548  -5.345  0.00  0.00     0.002 A 
ATOM      4  C5  UNL d   1       4.533  -6.000  -6.000  0.00  0.00    -0.004 A 
ATOM      5  C6  UNL d   1       5.693  -5.228  -5.987  0.00  0.00     0.002 A 
ATOM      6  C7  UNL d   1       5.712  -4.005  -5.315  0.00  0.00     0.002 A 
ENDROOT
BRANCH   1   7
ATOM      7  C1  UNL d   1       4.604  -2.247  -3.882  0.00  0.00     0.055 C 
ATOM      8  C   UNL d   1       5.999  -1.958  -3.348  0.00  0.00     0.019 C 
ENDBRANCH   1   7
TORSDOF 1
ENDMDL
