MODEL 1
REMARK minimizedAffinity -1.37835562
REMARK minimizedRMSD -1
REMARK  1 active torsions:
REMARK  status: ('A' for Active; 'I' for Inactive)
REMARK    1  A    between atoms: C1_2  and  C2_3 
ROOT
ATOM      1  C2  UNL d   1       5.361  -3.483  -5.197  0.00  0.00    -0.077 A 
ATOM      2  C3  UNL d   1       5.999  -4.608  -5.738  0.00  0.00     0.002 A 
ATOM      3  C4  UNL d   1       5.384  -5.861  -5.689  0.00  0.00     0.002 A 
ATOM      4  C5  UNL d   1       4.128  -6.000  -5.104  0.00  0.00    -0.004 A 
ATOM      5  C6  UNL d   1       3.485  -4.888  -4.561  0.00  0.00     0.002 A 
ATOM      6  C7  UNL d   1       4.099  -3.635  -4.608  0.00  0.00     0.002 A 
ENDROOT
BRANCH   1   7
ATOM      7  C1  UNL d   1       6.000  -2.123  -5.293  0.00  0.00     0.055 C 
ATOM      8  C   UNL d   1       4.954  -1.018  -5.279  0.00  0.00     0.019 C 
ENDBRANCH   1   7
TORSDOF 1
ENDMDL
