MODEL 1
REMARK minimizedAffinity -2.84825921
REMARK minimizedRMSD -1
REMARK  1 active torsions:
REMARK  status: ('A' for Active; 'I' for Inactive)
REMARK    1  A    between atoms: C1_2  and  C2_3 
ROOT
ATOM      1  C2  UNL d   1       5.154  -3.212  -5.395  0.00  0.00    -0.077 A 
ATOM      2  C3  UNL d   1       5.966  -3.508  -4.292  0.00  0.00     0.002 A 
ATOM      3  C4  UNL d   1       5.996  -4.800  -3.763  0.00  0.00     0.002 A 
ATOM      4  C5  UNL d   1       5.219  -5.806  -4.334  0.00  0.00    -0.004 A 
ATOM      5  C6  UNL d   1       4.407  -5.521  -5.430  0.00  0.00     0.002 A 
ATOM      6  C7  UNL d   1       4.375  -4.230  -5.959  0.00  0.00     0.002 A 
ENDROOT
BRANCH   1   7
ATOM      7  C1  UNL d   1       5.158  -1.831  -5.998  0.00  0.00     0.055 C 
ATOM      8  C   UNL d   1       3.763  -1.223  -5.996  0.00  0.00     0.019 C 
ENDBRANCH   1   7
TORSDOF 1
ENDMDL
