MODEL 1
REMARK minimizedAffinity -3.16339183
REMARK minimizedRMSD -1
REMARK  1 active torsions:
REMARK  status: ('A' for Active; 'I' for Inactive)
REMARK    1  A    between atoms: N_2  and  C1_3 
ROOT
ATOM      1  C1  UNL d   1      -1.424   0.646  -0.294  0.00  0.00     0.143 A 
ATOM      2  C2  UNL d   1      -0.395   1.584  -0.430  0.00  0.00    -0.057 A 
ATOM      3  C3  UNL d   1       0.950   1.196  -0.403  0.00  0.00     0.033 A 
ATOM      4  C4  UNL d   1       1.291  -0.138  -0.209  0.00  0.00    -0.042 A 
ATOM      5  C5  UNL d   1       0.286  -1.084  -0.047  0.00  0.00     0.033 A 
ATOM      6  C6  UNL d   1      -1.056  -0.692  -0.081  0.00  0.00    -0.057 A 
ENDROOT
BRANCH   1   7
ATOM      7  N   UNL d   1      -2.778   0.982  -0.213  0.00  0.00    -0.732 N 
ATOM      8  C   UNL d   1      -3.443   1.062   1.070  0.00  0.00     0.284 C 
ATOM      9  H3  UNL d   1      -3.033   1.725  -0.860  0.00  0.00     0.395 HD
ENDBRANCH   1   7
TORSDOF 1
ENDMDL
