MODEL 1
REMARK minimizedAffinity -3.97969222
REMARK minimizedRMSD -1
REMARK  1 active torsions:
REMARK  status: ('A' for Active; 'I' for Inactive)
REMARK    1  A    between atoms: N_2  and  C1_3 
ROOT
ATOM      1  C1  UNL d   1      -0.335   0.543  -0.263  0.00  0.00     0.143 A 
ATOM      2  C2  UNL d   1       0.764   0.558   0.603  0.00  0.00    -0.057 A 
ATOM      3  C3  UNL d   1       1.686  -0.495   0.625  0.00  0.00     0.033 A 
ATOM      4  C4  UNL d   1       1.508  -1.600  -0.202  0.00  0.00    -0.042 A 
ATOM      5  C5  UNL d   1       0.410  -1.648  -1.053  0.00  0.00     0.033 A 
ATOM      6  C6  UNL d   1      -0.504  -0.590  -1.075  0.00  0.00    -0.057 A 
ENDROOT
BRANCH   1   7
ATOM      7  N   UNL d   1      -1.340   1.513  -0.262  0.00  0.00    -0.732 N 
ATOM      8  C   UNL d   1      -2.734   1.131  -0.203  0.00  0.00     0.284 C 
ATOM      9  H3  UNL d   1      -1.104   2.316   0.318  0.00  0.00     0.395 HD
ENDBRANCH   1   7
TORSDOF 1
ENDMDL
