MODEL 1
REMARK minimizedAffinity -5.31821346
REMARK minimizedRMSD -1
REMARK  1 active torsions:
REMARK  status: ('A' for Active; 'I' for Inactive)
REMARK    1  A    between atoms: N_2  and  C1_3 
ROOT
ATOM      1  C1  UNL d   1       0.041  -0.055   0.062  0.00  0.00     0.143 A 
ATOM      2  C2  UNL d   1       0.301  -1.371  -0.333  0.00  0.00    -0.057 A 
ATOM      3  C3  UNL d   1       1.528  -1.984  -0.055  0.00  0.00     0.033 A 
ATOM      4  C4  UNL d   1       2.532  -1.279   0.600  0.00  0.00    -0.042 A 
ATOM      5  C5  UNL d   1       2.305   0.039   0.980  0.00  0.00     0.033 A 
ATOM      6  C6  UNL d   1       1.075   0.644   0.706  0.00  0.00    -0.057 A 
ENDROOT
BRANCH   1   7
ATOM      7  N   UNL d   1      -1.123   0.642  -0.272  0.00  0.00    -0.732 N 
ATOM      8  C   UNL d   1      -2.172   0.835   0.705  0.00  0.00     0.284 C 
ATOM      9  H3  UNL d   1      -0.934   1.461  -0.846  0.00  0.00     0.395 HD
ENDBRANCH   1   7
TORSDOF 1
ENDMDL
