MODEL 1
REMARK minimizedAffinity -2.82890487
REMARK minimizedRMSD -1
REMARK  1 active torsions:
REMARK  status: ('A' for Active; 'I' for Inactive)
REMARK    1  A    between atoms: N_2  and  C1_3 
ROOT
ATOM      1  C1  UNL d   1      -0.048   0.127  -0.260  0.00  0.00     0.143 A 
ATOM      2  C2  UNL d   1       0.734   0.315   0.885  0.00  0.00    -0.057 A 
ATOM      3  C3  UNL d   1       1.830  -0.513   1.160  0.00  0.00     0.033 A 
ATOM      4  C4  UNL d   1       2.145  -1.565   0.307  0.00  0.00    -0.042 A 
ATOM      5  C5  UNL d   1       1.366  -1.786  -0.824  0.00  0.00     0.033 A 
ATOM      6  C6  UNL d   1       0.278  -0.952  -1.097  0.00  0.00    -0.057 A 
ENDROOT
BRANCH   1   7
ATOM      7  N   UNL d   1      -1.208   0.855  -0.537  0.00  0.00    -0.732 N 
ATOM      8  C   UNL d   1      -2.309   0.872   0.402  0.00  0.00     0.284 C 
ATOM      9  H3  UNL d   1      -1.007   1.758  -0.960  0.00  0.00     0.395 HD
ENDBRANCH   1   7
TORSDOF 1
ENDMDL
