MODEL 1
REMARK minimizedAffinity -3.57298422
REMARK minimizedRMSD -1
REMARK  1 active torsions:
REMARK  status: ('A' for Active; 'I' for Inactive)
REMARK    1  A    between atoms: N_2  and  C1_3 
ROOT
ATOM      1  C1  UNL d   1      -0.743   0.965  -0.297  0.00  0.00     0.143 A 
ATOM      2  C2  UNL d   1       0.144   2.036  -0.148  0.00  0.00    -0.057 A 
ATOM      3  C3  UNL d   1       1.483   1.827   0.203  0.00  0.00     0.033 A 
ATOM      4  C4  UNL d   1       1.952   0.539   0.442  0.00  0.00    -0.042 A 
ATOM      5  C5  UNL d   1       1.082  -0.539   0.325  0.00  0.00     0.033 A 
ATOM      6  C6  UNL d   1      -0.252  -0.324  -0.033  0.00  0.00    -0.057 A 
ENDROOT
BRANCH   1   7
ATOM      7  N   UNL d   1      -2.109   1.115  -0.548  0.00  0.00    -0.732 N 
ATOM      8  C   UNL d   1      -3.006   1.564   0.496  0.00  0.00     0.284 C 
ATOM      9  H3  UNL d   1      -2.293   1.527  -1.460  0.00  0.00     0.395 HD
ENDBRANCH   1   7
TORSDOF 1
ENDMDL
