MODEL 1
REMARK minimizedAffinity 29.8509445
REMARK minimizedRMSD -1
REMARK  0 active torsions:
REMARK  status: ('A' for Active; 'I' for Inactive)
ROOT
ATOM      1  C   UNL d   1       3.323   0.571  -0.576  0.00  0.00     0.124 A 
ATOM      2  C1  UNL d   1       4.495   1.068  -0.023  0.00  0.00     0.062 A 
ATOM      3  C2  UNL d   1       4.862   0.716   1.273  0.00  0.00     0.162 A 
ATOM      4  C3  UNL d   1       4.055  -0.138   2.025  0.00  0.00    -0.034 A 
ATOM      5  C4  UNL d   1       2.877  -0.633   1.463  0.00  0.00     0.162 A 
ATOM      6  C5  UNL d   1       2.515  -0.278   0.167  0.00  0.00     0.062 A 
ATOM      7  F   UNL d   1       1.382  -0.759  -0.365  0.00  0.00    -0.097 F 
ATOM      8  F1  UNL d   1       2.079  -1.456   2.158  0.00  0.00    -0.096 F 
ATOM      9  I   UNL d   1       4.600  -0.666   3.963  0.00  0.00    -0.060 I 
ATOM     10  F2  UNL d   1       6.000   1.211   1.782  0.00  0.00    -0.096 F 
ATOM     11  F3  UNL d   1       5.276   1.889  -0.738  0.00  0.00    -0.097 F 
ATOM     12  F4  UNL d   1       2.972   0.912  -1.822  0.00  0.00    -0.092 F 
ENDROOT
TORSDOF 0
ENDMDL
