MODEL 1
REMARK minimizedAffinity 18.3082104
REMARK minimizedRMSD -1
REMARK  0 active torsions:
REMARK  status: ('A' for Active; 'I' for Inactive)
ROOT
ATOM      1  C   UNL d   1       2.919  -0.241  -0.065  0.00  0.00     0.124 A 
ATOM      2  C1  UNL d   1       3.023  -0.280  -1.449  0.00  0.00     0.062 A 
ATOM      3  C2  UNL d   1       3.902   0.574  -2.109  0.00  0.00     0.162 A 
ATOM      4  C3  UNL d   1       4.685   1.474  -1.386  0.00  0.00    -0.034 A 
ATOM      5  C4  UNL d   1       4.574   1.508   0.005  0.00  0.00     0.162 A 
ATOM      6  C5  UNL d   1       3.695   0.652   0.660  0.00  0.00     0.062 A 
ATOM      7  F   UNL d   1       3.596   0.691   1.997  0.00  0.00    -0.097 F 
ATOM      8  F1  UNL d   1       5.312   2.361   0.731  0.00  0.00    -0.096 F 
ATOM      9  I   UNL d   1       6.000   2.753  -2.369  0.00  0.00    -0.060 I 
ATOM     10  F2  UNL d   1       3.982   0.515  -3.446  0.00  0.00    -0.096 F 
ATOM     11  F3  UNL d   1       2.275  -1.142  -2.152  0.00  0.00    -0.097 F 
ATOM     12  F4  UNL d   1       2.073  -1.064   0.568  0.00  0.00    -0.092 F 
ENDROOT
TORSDOF 0
ENDMDL
