MODEL 1
REMARK minimizedAffinity 22.0228252
REMARK minimizedRMSD -1
REMARK  0 active torsions:
REMARK  status: ('A' for Active; 'I' for Inactive)
ROOT
ATOM      1  C   UNL d   1       2.930  -0.088   0.229  0.00  0.00     0.124 A 
ATOM      2  C1  UNL d   1       2.870  -0.225  -1.151  0.00  0.00     0.062 A 
ATOM      3  C2  UNL d   1       3.744   0.490  -1.964  0.00  0.00     0.162 A 
ATOM      4  C3  UNL d   1       4.688   1.348  -1.399  0.00  0.00    -0.034 A 
ATOM      5  C4  UNL d   1       4.742   1.481  -0.010  0.00  0.00     0.162 A 
ATOM      6  C5  UNL d   1       3.866   0.764   0.798  0.00  0.00     0.062 A 
ATOM      7  F   UNL d   1       3.925   0.897   2.131  0.00  0.00    -0.097 F 
ATOM      8  F1  UNL d   1       5.637   2.298   0.566  0.00  0.00    -0.096 F 
ATOM      9  I   UNL d   1       5.997   2.420  -2.611  0.00  0.00    -0.060 I 
ATOM     10  F2  UNL d   1       3.663   0.339  -3.294  0.00  0.00    -0.096 F 
ATOM     11  F3  UNL d   1       1.966  -1.047  -1.703  0.00  0.00    -0.097 F 
ATOM     12  F4  UNL d   1       2.087  -0.777   1.009  0.00  0.00    -0.092 F 
ENDROOT
TORSDOF 0
ENDMDL
