MODEL 1
REMARK minimizedAffinity 20.6080589
REMARK minimizedRMSD -1
REMARK  0 active torsions:
REMARK  status: ('A' for Active; 'I' for Inactive)
ROOT
ATOM      1  C   UNL d   1      -3.327  -3.038  -4.454  0.00  0.00     0.124 A 
ATOM      2  C1  UNL d   1      -2.611  -3.946  -3.686  0.00  0.00     0.062 A 
ATOM      3  C2  UNL d   1      -1.686  -3.493  -2.749  0.00  0.00     0.162 A 
ATOM      4  C3  UNL d   1      -1.472  -2.126  -2.574  0.00  0.00    -0.034 A 
ATOM      5  C4  UNL d   1      -2.195  -1.220  -3.351  0.00  0.00     0.162 A 
ATOM      6  C5  UNL d   1      -3.119  -1.677  -4.286  0.00  0.00     0.062 A 
ATOM      7  F   UNL d   1      -3.810  -0.798  -5.027  0.00  0.00    -0.097 F 
ATOM      8  F1  UNL d   1      -2.015   0.102  -3.209  0.00  0.00    -0.096 F 
ATOM      9  I   UNL d   1      -0.090  -1.446  -1.175  0.00  0.00    -0.060 I 
ATOM     10  F2  UNL d   1      -1.008  -4.393  -2.021  0.00  0.00    -0.096 F 
ATOM     11  F3  UNL d   1      -2.809  -5.262  -3.846  0.00  0.00    -0.097 F 
ATOM     12  F4  UNL d   1      -4.216  -3.476  -5.355  0.00  0.00    -0.092 F 
ENDROOT
TORSDOF 0
ENDMDL
