MODEL 1
REMARK minimizedAffinity 19.5068092
REMARK minimizedRMSD -1
REMARK  0 active torsions:
REMARK  status: ('A' for Active; 'I' for Inactive)
ROOT
ATOM      1  C   UNL d   1       3.468   0.183   0.502  0.00  0.00     0.124 A 
ATOM      2  C1  UNL d   1       4.391   1.158   0.856  0.00  0.00     0.062 A 
ATOM      3  C2  UNL d   1       5.115   1.827  -0.127  0.00  0.00     0.162 A 
ATOM      4  C3  UNL d   1       4.919   1.524  -1.474  0.00  0.00    -0.034 A 
ATOM      5  C4  UNL d   1       3.989   0.542  -1.823  0.00  0.00     0.162 A 
ATOM      6  C5  UNL d   1       3.268  -0.124  -0.837  0.00  0.00     0.062 A 
ATOM      7  F   UNL d   1       2.377  -1.065  -1.181  0.00  0.00    -0.097 F 
ATOM      8  F1  UNL d   1       3.776   0.226  -3.109  0.00  0.00    -0.096 F 
ATOM      9  I   UNL d   1       5.999   2.522  -2.947  0.00  0.00    -0.060 I 
ATOM     10  F2  UNL d   1       6.000   2.764   0.245  0.00  0.00    -0.096 F 
ATOM     11  F3  UNL d   1       4.586   1.456   2.149  0.00  0.00    -0.097 F 
ATOM     12  F4  UNL d   1       2.774  -0.459   1.449  0.00  0.00    -0.092 F 
ENDROOT
TORSDOF 0
ENDMDL
