MODEL 1
REMARK minimizedAffinity 21.0009995
REMARK minimizedRMSD -1
REMARK  0 active torsions:
REMARK  status: ('A' for Active; 'I' for Inactive)
ROOT
ATOM      1  C   UNL d   1       3.019   0.192   0.123  0.00  0.00     0.124 A 
ATOM      2  C1  UNL d   1       3.942   1.099   0.625  0.00  0.00     0.062 A 
ATOM      3  C2  UNL d   1       4.794   1.782  -0.238  0.00  0.00     0.162 A 
ATOM      4  C3  UNL d   1       4.727   1.561  -1.613  0.00  0.00    -0.034 A 
ATOM      5  C4  UNL d   1       3.797   0.646  -2.111  0.00  0.00     0.162 A 
ATOM      6  C5  UNL d   1       2.948  -0.034  -1.245  0.00  0.00     0.062 A 
ATOM      7  F   UNL d   1       2.057  -0.910  -1.732  0.00  0.00    -0.097 F 
ATOM      8  F1  UNL d   1       3.706   0.409  -3.428  0.00  0.00    -0.096 F 
ATOM      9  I   UNL d   1       6.000   2.579  -2.907  0.00  0.00    -0.060 I 
ATOM     10  F2  UNL d   1       5.676   2.653   0.276  0.00  0.00    -0.096 F 
ATOM     11  F3  UNL d   1       4.013   1.318   1.946  0.00  0.00    -0.097 F 
ATOM     12  F4  UNL d   1       2.201  -0.464   0.956  0.00  0.00    -0.092 F 
ENDROOT
TORSDOF 0
ENDMDL
