MODEL 1
REMARK minimizedAffinity 16.0674763
REMARK minimizedRMSD -1
REMARK  0 active torsions:
REMARK  status: ('A' for Active; 'I' for Inactive)
ROOT
ATOM      1  C   UNL d   1       4.770   1.589  -2.397  0.00  0.00     0.124 A 
ATOM      2  C1  UNL d   1       5.140   2.207  -1.211  0.00  0.00     0.062 A 
ATOM      3  C2  UNL d   1       4.622   1.762   0.002  0.00  0.00     0.162 A 
ATOM      4  C3  UNL d   1       3.728   0.692   0.035  0.00  0.00    -0.034 A 
ATOM      5  C4  UNL d   1       3.359   0.076  -1.162  0.00  0.00     0.162 A 
ATOM      6  C5  UNL d   1       3.880   0.524  -2.371  0.00  0.00     0.062 A 
ATOM      7  F   UNL d   1       3.520  -0.074  -3.516  0.00  0.00    -0.097 F 
ATOM      8  F1  UNL d   1       2.502  -0.955  -1.166  0.00  0.00    -0.096 F 
ATOM      9  I   UNL d   1       2.951   0.024   1.847  0.00  0.00    -0.060 I 
ATOM     10  F2  UNL d   1       4.998   2.378   1.133  0.00  0.00    -0.096 F 
ATOM     11  F3  UNL d   1       5.999   3.236  -1.233  0.00  0.00    -0.097 F 
ATOM     12  F4  UNL d   1       5.269   2.019  -3.563  0.00  0.00    -0.092 F 
ENDROOT
TORSDOF 0
ENDMDL
