MODEL 1
REMARK minimizedAffinity 12.1781435
REMARK minimizedRMSD -1
REMARK  0 active torsions:
REMARK  status: ('A' for Active; 'I' for Inactive)
ROOT
ATOM      1  C   UNL d   1       2.249  -0.051   0.210  0.00  0.00     0.124 A 
ATOM      2  C1  UNL d   1       2.532  -0.330  -1.120  0.00  0.00     0.062 A 
ATOM      3  C2  UNL d   1       3.599   0.298  -1.755  0.00  0.00     0.162 A 
ATOM      4  C3  UNL d   1       4.393   1.211  -1.060  0.00  0.00    -0.034 A 
ATOM      5  C4  UNL d   1       4.101   1.487   0.277  0.00  0.00     0.162 A 
ATOM      6  C5  UNL d   1       3.033   0.857   0.907  0.00  0.00     0.062 A 
ATOM      7  F   UNL d   1       2.761   1.127   2.192  0.00  0.00    -0.097 F 
ATOM      8  F1  UNL d   1       4.843   2.360   0.975  0.00  0.00    -0.096 F 
ATOM      9  I   UNL d   1       5.990   2.153  -2.006  0.00  0.00    -0.060 I 
ATOM     10  F2  UNL d   1       3.850   0.010  -3.041  0.00  0.00    -0.096 F 
ATOM     11  F3  UNL d   1       1.775  -1.206  -1.796  0.00  0.00    -0.097 F 
ATOM     12  F4  UNL d   1       1.220  -0.656   0.818  0.00  0.00    -0.092 F 
ENDROOT
TORSDOF 0
ENDMDL
