MODEL 1
REMARK minimizedAffinity 17.9881649
REMARK minimizedRMSD -1
REMARK  0 active torsions:
REMARK  status: ('A' for Active; 'I' for Inactive)
ROOT
ATOM      1  C   UNL d   1       3.251   0.761   0.626  0.00  0.00     0.124 A 
ATOM      2  C1  UNL d   1       4.249   1.661   0.974  0.00  0.00     0.062 A 
ATOM      3  C2  UNL d   1       5.036   2.250  -0.012  0.00  0.00     0.162 A 
ATOM      4  C3  UNL d   1       4.826   1.943  -1.356  0.00  0.00    -0.034 A 
ATOM      5  C4  UNL d   1       3.821   1.036  -1.699  0.00  0.00     0.162 A 
ATOM      6  C5  UNL d   1       3.038   0.450  -0.710  0.00  0.00     0.062 A 
ATOM      7  F   UNL d   1       2.075  -0.419  -1.048  0.00  0.00    -0.097 F 
ATOM      8  F1  UNL d   1       3.593   0.718  -2.982  0.00  0.00    -0.096 F 
ATOM      9  I   UNL d   1       6.000   2.822  -2.833  0.00  0.00    -0.060 I 
ATOM     10  F2  UNL d   1       5.993   3.116   0.353  0.00  0.00    -0.096 F 
ATOM     11  F3  UNL d   1       4.458   1.963   2.263  0.00  0.00    -0.097 F 
ATOM     12  F4  UNL d   1       2.497   0.195   1.576  0.00  0.00    -0.092 F 
ENDROOT
TORSDOF 0
ENDMDL
