MODEL 1
REMARK minimizedAffinity -5.52904367
REMARK minimizedRMSD -1
REMARK  2 active torsions:
REMARK  status: ('A' for Active; 'I' for Inactive)
REMARK    1  A    between atoms: C1_2  and  C2_3 
REMARK    2  A    between atoms: C2_3  and  C3_4 
ROOT
ATOM      1  C3  UNL d   1      -0.288   0.255  -0.033  0.00  0.00    -0.075 A 
ATOM      2  C4  UNL d   1       1.046   0.683  -0.086  0.00  0.00     0.002 A 
ATOM      3  C5  UNL d   1       2.088  -0.215   0.147  0.00  0.00     0.002 A 
ATOM      4  C6  UNL d   1       1.810  -1.547   0.445  0.00  0.00    -0.004 A 
ATOM      5  C7  UNL d   1       0.488  -1.980   0.517  0.00  0.00     0.002 A 
ATOM      6  C8  UNL d   1      -0.557  -1.084   0.280  0.00  0.00     0.002 A 
ENDROOT
BRANCH   1   7
ATOM      7  C2  UNL d   1      -1.420   1.215  -0.313  0.00  0.00     0.056 C 
BRANCH   7   8
ATOM      8  C1  UNL d   1      -2.351   0.769  -1.445  0.00  0.00     0.007 C 
ATOM      9  C   UNL d   1      -1.825   1.122  -2.830  0.00  0.00     0.009 C 
ENDBRANCH   7   8
ENDBRANCH   1   7
TORSDOF 2
ENDMDL
