MODEL 1
REMARK minimizedAffinity -2.2369225
REMARK minimizedRMSD -1
REMARK  2 active torsions:
REMARK  status: ('A' for Active; 'I' for Inactive)
REMARK    1  A    between atoms: C1_2  and  C2_3 
REMARK    2  A    between atoms: C2_3  and  C3_4 
ROOT
ATOM      1  C3  UNL d   1       1.136  -1.664   0.837  0.00  0.00    -0.075 A 
ATOM      2  C4  UNL d   1       1.451  -0.636  -0.065  0.00  0.00     0.002 A 
ATOM      3  C5  UNL d   1       0.455   0.217  -0.541  0.00  0.00     0.002 A 
ATOM      4  C6  UNL d   1      -0.866   0.049  -0.131  0.00  0.00    -0.004 A 
ATOM      5  C7  UNL d   1      -1.192  -0.979   0.751  0.00  0.00     0.002 A 
ATOM      6  C8  UNL d   1      -0.197  -1.832   1.232  0.00  0.00     0.002 A 
ENDROOT
BRANCH   1   7
ATOM      7  C2  UNL d   1       2.214  -2.573   1.378  0.00  0.00     0.056 C 
BRANCH   7   8
ATOM      8  C1  UNL d   1       3.452  -1.833   1.896  0.00  0.00     0.007 C 
ATOM      9  C   UNL d   1       3.288  -1.309   3.317  0.00  0.00     0.009 C 
ENDBRANCH   7   8
ENDBRANCH   1   7
TORSDOF 2
ENDMDL
