MODEL 1
REMARK minimizedAffinity -3.91906261
REMARK minimizedRMSD -1
REMARK  2 active torsions:
REMARK  status: ('A' for Active; 'I' for Inactive)
REMARK    1  A    between atoms: C1_2  and  C2_3 
REMARK    2  A    between atoms: C2_3  and  C3_4 
ROOT
ATOM      1  C3  UNL d   1       1.900  -0.342  -0.084  0.00  0.00    -0.075 A 
ATOM      2  C4  UNL d   1       2.306  -1.460   0.658  0.00  0.00     0.002 A 
ATOM      3  C5  UNL d   1       1.360  -2.302   1.245  0.00  0.00     0.002 A 
ATOM      4  C6  UNL d   1       0.001  -2.032   1.106  0.00  0.00    -0.004 A 
ATOM      5  C7  UNL d   1      -0.414  -0.915   0.384  0.00  0.00     0.002 A 
ATOM      6  C8  UNL d   1       0.530  -0.073  -0.208  0.00  0.00     0.002 A 
ENDROOT
BRANCH   1   7
ATOM      7  C2  UNL d   1       2.917   0.557  -0.746  0.00  0.00     0.056 C 
BRANCH   7   8
ATOM      8  C1  UNL d   1       4.159  -0.179  -1.259  0.00  0.00     0.007 C 
ATOM      9  C   UNL d   1       5.014   0.665  -2.195  0.00  0.00     0.009 C 
ENDBRANCH   7   8
ENDBRANCH   1   7
TORSDOF 2
ENDMDL
