MODEL 1
REMARK minimizedAffinity -4.72287989
REMARK minimizedRMSD -1
REMARK  2 active torsions:
REMARK  status: ('A' for Active; 'I' for Inactive)
REMARK    1  A    between atoms: C1_2  and  C2_3 
REMARK    2  A    between atoms: C2_3  and  C3_4 
ROOT
ATOM      1  C3  UNL d   1      -0.041  -0.218  -0.215  0.00  0.00    -0.075 A 
ATOM      2  C4  UNL d   1       1.355  -0.340  -0.273  0.00  0.00     0.002 A 
ATOM      3  C5  UNL d   1       1.989  -1.469   0.247  0.00  0.00     0.002 A 
ATOM      4  C6  UNL d   1       1.239  -2.483   0.839  0.00  0.00    -0.004 A 
ATOM      5  C7  UNL d   1      -0.147  -2.365   0.916  0.00  0.00     0.002 A 
ATOM      6  C8  UNL d   1      -0.785  -1.238   0.393  0.00  0.00     0.002 A 
ENDROOT
BRANCH   1   7
ATOM      7  C2  UNL d   1      -0.736   0.987  -0.802  0.00  0.00     0.056 C 
BRANCH   7   8
ATOM      8  C1  UNL d   1      -1.908   0.643  -1.726  0.00  0.00     0.007 C 
ATOM      9  C   UNL d   1      -1.840   1.352  -3.072  0.00  0.00     0.009 C 
ENDBRANCH   7   8
ENDBRANCH   1   7
TORSDOF 2
ENDMDL
