MODEL 1
REMARK minimizedAffinity -3.72016597
REMARK minimizedRMSD -1
REMARK  2 active torsions:
REMARK  status: ('A' for Active; 'I' for Inactive)
REMARK    1  A    between atoms: C1_2  and  C2_3 
REMARK    2  A    between atoms: C2_3  and  C3_4 
ROOT
ATOM      1  C3  UNL d   1      -0.267  -0.043   0.029  0.00  0.00    -0.075 A 
ATOM      2  C4  UNL d   1       1.124  -0.016  -0.147  0.00  0.00     0.002 A 
ATOM      3  C5  UNL d   1       1.888  -1.161   0.076  0.00  0.00     0.002 A 
ATOM      4  C6  UNL d   1       1.275  -2.343   0.486  0.00  0.00    -0.004 A 
ATOM      5  C7  UNL d   1      -0.104  -2.377   0.680  0.00  0.00     0.002 A 
ATOM      6  C8  UNL d   1      -0.872  -1.234   0.453  0.00  0.00     0.002 A 
ENDROOT
BRANCH   1   7
ATOM      7  C2  UNL d   1      -1.104   1.185  -0.239  0.00  0.00     0.056 C 
BRANCH   7   8
ATOM      8  C1  UNL d   1      -1.040   1.679  -1.688  0.00  0.00     0.007 C 
ATOM      9  C   UNL d   1      -2.220   1.216  -2.533  0.00  0.00     0.009 C 
ENDBRANCH   7   8
ENDBRANCH   1   7
TORSDOF 2
ENDMDL
