MODEL 1
REMARK minimizedAffinity -5.19384289
REMARK minimizedRMSD -1
REMARK  2 active torsions:
REMARK  status: ('A' for Active; 'I' for Inactive)
REMARK    1  A    between atoms: C1_2  and  C2_3 
REMARK    2  A    between atoms: C2_3  and  C3_4 
ROOT
ATOM      1  C3  UNL d   1       0.156   0.353  -0.225  0.00  0.00    -0.075 A 
ATOM      2  C4  UNL d   1      -0.297  -0.721   0.554  0.00  0.00     0.002 A 
ATOM      3  C5  UNL d   1       0.600  -1.676   1.035  0.00  0.00     0.002 A 
ATOM      4  C6  UNL d   1       1.957  -1.575   0.734  0.00  0.00    -0.004 A 
ATOM      5  C7  UNL d   1       2.416  -0.521  -0.054  0.00  0.00     0.002 A 
ATOM      6  C8  UNL d   1       1.521   0.438  -0.532  0.00  0.00     0.002 A 
ENDROOT
BRANCH   1   7
ATOM      7  C2  UNL d   1      -0.805   1.405  -0.723  0.00  0.00     0.056 C 
BRANCH   7   8
ATOM      8  C1  UNL d   1      -1.644   0.964  -1.927  0.00  0.00     0.007 C 
ATOM      9  C   UNL d   1      -2.283   2.128  -2.673  0.00  0.00     0.009 C 
ENDBRANCH   7   8
ENDBRANCH   1   7
TORSDOF 2
ENDMDL
