MODEL 1
REMARK minimizedAffinity -3.62006688
REMARK minimizedRMSD -1
REMARK  2 active torsions:
REMARK  status: ('A' for Active; 'I' for Inactive)
REMARK    1  A    between atoms: C1_2  and  C2_3 
REMARK    2  A    between atoms: C2_3  and  C3_4 
ROOT
ATOM      1  C3  UNL d   1      -1.051   0.327   0.234  0.00  0.00    -0.075 A 
ATOM      2  C4  UNL d   1       0.073  -0.217  -0.404  0.00  0.00     0.002 A 
ATOM      3  C5  UNL d   1       0.602  -1.439   0.013  0.00  0.00     0.002 A 
ATOM      4  C6  UNL d   1       0.023  -2.125   1.079  0.00  0.00    -0.004 A 
ATOM      5  C7  UNL d   1      -1.084  -1.585   1.731  0.00  0.00     0.002 A 
ATOM      6  C8  UNL d   1      -1.618  -0.365   1.312  0.00  0.00     0.002 A 
ENDROOT
BRANCH   1   7
ATOM      7  C2  UNL d   1      -1.646   1.634  -0.232  0.00  0.00     0.056 C 
BRANCH   7   8
ATOM      8  C1  UNL d   1      -1.251   2.026  -1.659  0.00  0.00     0.007 C 
ATOM      9  C   UNL d   1      -2.413   1.966  -2.642  0.00  0.00     0.009 C 
ENDBRANCH   7   8
ENDBRANCH   1   7
TORSDOF 2
ENDMDL
