MODEL 1
REMARK minimizedAffinity -4.97604752
REMARK minimizedRMSD -1
REMARK  2 active torsions:
REMARK  status: ('A' for Active; 'I' for Inactive)
REMARK    1  A    between atoms: C1_2  and  C2_3 
REMARK    2  A    between atoms: C2_3  and  C3_4 
ROOT
ATOM      1  C3  UNL d   1       0.025   0.328  -0.226  0.00  0.00    -0.075 A 
ATOM      2  C4  UNL d   1       1.380   0.687  -0.279  0.00  0.00     0.002 A 
ATOM      3  C5  UNL d   1       2.365  -0.203   0.152  0.00  0.00     0.002 A 
ATOM      4  C6  UNL d   1       2.009  -1.455   0.648  0.00  0.00    -0.004 A 
ATOM      5  C7  UNL d   1       0.665  -1.815   0.720  0.00  0.00     0.002 A 
ATOM      6  C8  UNL d   1      -0.322  -0.929   0.286  0.00  0.00     0.002 A 
ENDROOT
BRANCH   1   7
ATOM      7  C2  UNL d   1      -1.044   1.275  -0.718  0.00  0.00     0.056 C 
BRANCH   7   8
ATOM      8  C1  UNL d   1      -0.912   1.650  -2.198  0.00  0.00     0.007 C 
ATOM      9  C   UNL d   1      -2.247   1.688  -2.929  0.00  0.00     0.009 C 
ENDBRANCH   7   8
ENDBRANCH   1   7
TORSDOF 2
ENDMDL
