MODEL 1
REMARK minimizedAffinity -4.53000832
REMARK minimizedRMSD -1
REMARK  2 active torsions:
REMARK  status: ('A' for Active; 'I' for Inactive)
REMARK    1  A    between atoms: C1_2  and  C2_3 
REMARK    2  A    between atoms: C2_3  and  C3_4 
ROOT
ATOM      1  C3  UNL d   1       0.258  -0.124  -0.178  0.00  0.00    -0.075 A 
ATOM      2  C4  UNL d   1       1.599   0.227   0.032  0.00  0.00     0.002 A 
ATOM      3  C5  UNL d   1       2.517  -0.722   0.485  0.00  0.00     0.002 A 
ATOM      4  C6  UNL d   1       2.104  -2.027   0.742  0.00  0.00    -0.004 A 
ATOM      5  C7  UNL d   1       0.771  -2.382   0.553  0.00  0.00     0.002 A 
ATOM      6  C8  UNL d   1      -0.149  -1.437   0.096  0.00  0.00     0.002 A 
ENDROOT
BRANCH   1   7
ATOM      7  C2  UNL d   1      -0.734   0.890  -0.696  0.00  0.00     0.056 C 
BRANCH   7   8
ATOM      8  C1  UNL d   1      -1.795   0.303  -1.632  0.00  0.00     0.007 C 
ATOM      9  C   UNL d   1      -1.995   1.120  -2.901  0.00  0.00     0.009 C 
ENDBRANCH   7   8
ENDBRANCH   1   7
TORSDOF 2
ENDMDL
