MODEL 1
REMARK minimizedAffinity -4.26119661
REMARK minimizedRMSD -1
REMARK  2 active torsions:
REMARK  status: ('A' for Active; 'I' for Inactive)
REMARK    1  A    between atoms: C1_2  and  C2_3 
REMARK    2  A    between atoms: C2_3  and  C3_4 
ROOT
ATOM      1  C3  UNL d   1      -0.269  -0.046  -0.178  0.00  0.00    -0.075 A 
ATOM      2  C4  UNL d   1      -0.920  -1.028   0.583  0.00  0.00     0.002 A 
ATOM      3  C5  UNL d   1      -0.208  -2.113   1.095  0.00  0.00     0.002 A 
ATOM      4  C6  UNL d   1       1.157  -2.236   0.845  0.00  0.00    -0.004 A 
ATOM      5  C7  UNL d   1       1.810  -1.275   0.076  0.00  0.00     0.002 A 
ATOM      6  C8  UNL d   1       1.101  -0.185  -0.434  0.00  0.00     0.002 A 
ENDROOT
BRANCH   1   7
ATOM      7  C2  UNL d   1      -1.027   1.147  -0.711  0.00  0.00     0.056 C 
BRANCH   7   8
ATOM      8  C1  UNL d   1      -1.965   0.819  -1.878  0.00  0.00     0.007 C 
ATOM      9  C   UNL d   1      -2.079   1.951  -2.892  0.00  0.00     0.009 C 
ENDBRANCH   7   8
ENDBRANCH   1   7
TORSDOF 2
ENDMDL
