MODEL 1
REMARK minimizedAffinity -4.20548105
REMARK minimizedRMSD -1
REMARK  2 active torsions:
REMARK  status: ('A' for Active; 'I' for Inactive)
REMARK    1  A    between atoms: C1_2  and  C2_3 
REMARK    2  A    between atoms: C2_3  and  C3_4 
ROOT
ATOM      1  C3  UNL d   1       0.036   0.044  -0.076  0.00  0.00    -0.075 A 
ATOM      2  C4  UNL d   1       1.432   0.121  -0.179  0.00  0.00     0.002 A 
ATOM      3  C5  UNL d   1       2.232  -0.952   0.216  0.00  0.00     0.002 A 
ATOM      4  C6  UNL d   1       1.647  -2.109   0.728  0.00  0.00    -0.004 A 
ATOM      5  C7  UNL d   1       0.262  -2.190   0.850  0.00  0.00     0.002 A 
ATOM      6  C8  UNL d   1      -0.541  -1.119   0.451  0.00  0.00     0.002 A 
ENDROOT
BRANCH   1   7
ATOM      7  C2  UNL d   1      -0.837   1.190  -0.530  0.00  0.00     0.056 C 
BRANCH   7   8
ATOM      8  C1  UNL d   1      -1.925   0.788  -1.531  0.00  0.00     0.007 C 
ATOM      9  C   UNL d   1      -1.979   1.691  -2.755  0.00  0.00     0.009 C 
ENDBRANCH   7   8
ENDBRANCH   1   7
TORSDOF 2
ENDMDL
