MODEL 1
REMARK minimizedAffinity -5.53751087
REMARK minimizedRMSD -1
REMARK  2 active torsions:
REMARK  status: ('A' for Active; 'I' for Inactive)
REMARK    1  A    between atoms: C1_2  and  C2_3 
REMARK    2  A    between atoms: C2_3  and  C3_4 
ROOT
ATOM      1  C3  UNL d   1      -0.313  -0.025   0.187  0.00  0.00    -0.075 A 
ATOM      2  C4  UNL d   1      -0.620  -1.235   0.827  0.00  0.00     0.002 A 
ATOM      3  C5  UNL d   1       0.374  -2.188   1.054  0.00  0.00     0.002 A 
ATOM      4  C6  UNL d   1       1.681  -1.949   0.636  0.00  0.00    -0.004 A 
ATOM      5  C7  UNL d   1       1.994  -0.758  -0.016  0.00  0.00     0.002 A 
ATOM      6  C8  UNL d   1       1.003   0.199  -0.240  0.00  0.00     0.002 A 
ENDROOT
BRANCH   1   7
ATOM      7  C2  UNL d   1      -1.377   1.023  -0.036  0.00  0.00     0.056 C 
BRANCH   7   8
ATOM      8  C1  UNL d   1      -1.478   1.512  -1.485  0.00  0.00     0.007 C 
ATOM      9  C   UNL d   1      -2.800   1.154  -2.149  0.00  0.00     0.009 C 
ENDBRANCH   7   8
ENDBRANCH   1   7
TORSDOF 2
ENDMDL
