MODEL 1
REMARK minimizedAffinity -4.16081095
REMARK minimizedRMSD -1
REMARK  2 active torsions:
REMARK  status: ('A' for Active; 'I' for Inactive)
REMARK    1  A    between atoms: C1_2  and  C2_3 
REMARK    2  A    between atoms: C2_3  and  C3_4 
ROOT
ATOM      1  C3  UNL d   1      -1.329   1.371  -1.222  0.00  0.00    -0.075 A 
ATOM      2  C4  UNL d   1      -2.512   0.856  -1.771  0.00  0.00     0.002 A 
ATOM      3  C5  UNL d   1      -2.927   1.241  -3.047  0.00  0.00     0.002 A 
ATOM      4  C6  UNL d   1      -2.172   2.151  -3.783  0.00  0.00    -0.004 A 
ATOM      5  C7  UNL d   1      -1.004   2.681  -3.241  0.00  0.00     0.002 A 
ATOM      6  C8  UNL d   1      -0.584   2.295  -1.966  0.00  0.00     0.002 A 
ENDROOT
BRANCH   1   7
ATOM      7  C2  UNL d   1      -0.859   0.937   0.146  0.00  0.00     0.056 C 
BRANCH   7   8
ATOM      8  C1  UNL d   1      -0.751  -0.582   0.315  0.00  0.00     0.007 C 
ATOM      9  C   UNL d   1       0.683  -1.066   0.487  0.00  0.00     0.009 C 
ENDBRANCH   7   8
ENDBRANCH   1   7
TORSDOF 2
ENDMDL
