MODEL 1
REMARK minimizedAffinity -2.37676954
REMARK minimizedRMSD -1
REMARK  2 active torsions:
REMARK  status: ('A' for Active; 'I' for Inactive)
REMARK    1  A    between atoms: C1_2  and  C2_3 
REMARK    2  A    between atoms: C2_3  and  C3_4 
ROOT
ATOM      1  C3  UNL d   1      -0.224  -1.027   0.711  0.00  0.00    -0.075 A 
ATOM      2  C4  UNL d   1      -1.194  -1.042   1.723  0.00  0.00     0.002 A 
ATOM      3  C5  UNL d   1      -1.043  -1.869   2.837  0.00  0.00     0.002 A 
ATOM      4  C6  UNL d   1       0.072  -2.696   2.948  0.00  0.00    -0.004 A 
ATOM      5  C7  UNL d   1       1.034  -2.702   1.940  0.00  0.00     0.002 A 
ATOM      6  C8  UNL d   1       0.888  -1.872   0.827  0.00  0.00     0.002 A 
ENDROOT
BRANCH   1   7
ATOM      7  C2  UNL d   1      -0.367  -0.113  -0.483  0.00  0.00     0.056 C 
BRANCH   7   8
ATOM      8  C1  UNL d   1      -1.405   0.999  -0.296  0.00  0.00     0.007 C 
ATOM      9  C   UNL d   1      -2.007   1.484  -1.608  0.00  0.00     0.009 C 
ENDBRANCH   7   8
ENDBRANCH   1   7
TORSDOF 2
ENDMDL
