MODEL 1
REMARK minimizedAffinity -1.78237069
REMARK minimizedRMSD -1
REMARK  0 active torsions:
REMARK  status: ('A' for Active; 'I' for Inactive)
ROOT
ATOM      1  C   UNL d   1      -1.246  -1.911   0.999  0.00  0.00     0.124 A 
ATOM      2  C1  UNL d   1       0.113  -2.136   0.831  0.00  0.00     0.062 A 
ATOM      3  C2  UNL d   1       0.864  -1.305   0.005  0.00  0.00     0.162 A 
ATOM      4  C3  UNL d   1       0.257  -0.239  -0.660  0.00  0.00    -0.034 A 
ATOM      5  C4  UNL d   1      -1.111  -0.020  -0.487  0.00  0.00     0.162 A 
ATOM      6  C5  UNL d   1      -1.857  -0.853   0.340  0.00  0.00     0.062 A 
ATOM      7  F   UNL d   1      -3.170  -0.634   0.501  0.00  0.00    -0.097 F 
ATOM      8  F1  UNL d   1      -1.726   0.996  -1.111  0.00  0.00    -0.096 F 
ATOM      9  I   UNL d   1       1.376   1.006  -1.896  0.00  0.00    -0.060 I 
ATOM     10  F2  UNL d   1       2.175  -1.546  -0.138  0.00  0.00    -0.096 F 
ATOM     11  F3  UNL d   1       0.705  -3.158   1.466  0.00  0.00    -0.097 F 
ATOM     12  F4  UNL d   1      -1.967  -2.713   1.794  0.00  0.00    -0.092 F 
ENDROOT
TORSDOF 0
ENDMDL
