MODEL 1
REMARK minimizedAffinity -0.197118729
REMARK minimizedRMSD -1
REMARK  0 active torsions:
REMARK  status: ('A' for Active; 'I' for Inactive)
ROOT
ATOM      1  C   UNL d   1      -0.015   1.587   0.457  0.00  0.00     0.124 A 
ATOM      2  C1  UNL d   1      -1.309   1.542   0.958  0.00  0.00     0.062 A 
ATOM      3  C2  UNL d   1      -1.897   0.318   1.266  0.00  0.00     0.162 A 
ATOM      4  C3  UNL d   1      -1.192  -0.870   1.074  0.00  0.00    -0.034 A 
ATOM      5  C4  UNL d   1       0.108  -0.816   0.569  0.00  0.00     0.162 A 
ATOM      6  C5  UNL d   1       0.692   0.409   0.263  0.00  0.00     0.062 A 
ATOM      7  F   UNL d   1       1.942   0.451  -0.221  0.00  0.00    -0.097 F 
ATOM      8  F1  UNL d   1       0.814  -1.939   0.373  0.00  0.00    -0.096 F 
ATOM      9  I   UNL d   1      -2.069  -2.701   1.533  0.00  0.00    -0.060 I 
ATOM     10  F2  UNL d   1      -3.149   0.304   1.749  0.00  0.00    -0.096 F 
ATOM     11  F3  UNL d   1      -1.994   2.679   1.146  0.00  0.00    -0.097 F 
ATOM     12  F4  UNL d   1       0.549   2.766   0.161  0.00  0.00    -0.092 F 
ENDROOT
TORSDOF 0
ENDMDL
