MODEL 1
REMARK minimizedAffinity -2.56942034
REMARK minimizedRMSD -1
REMARK  0 active torsions:
REMARK  status: ('A' for Active; 'I' for Inactive)
ROOT
ATOM      1  C   UNL d   1      -1.083  -1.330   1.370  0.00  0.00     0.124 A 
ATOM      2  C1  UNL d   1      -0.003  -1.913   0.721  0.00  0.00     0.062 A 
ATOM      3  C2  UNL d   1       0.802  -1.151  -0.121  0.00  0.00     0.162 A 
ATOM      4  C3  UNL d   1       0.532   0.203  -0.318  0.00  0.00    -0.034 A 
ATOM      5  C4  UNL d   1      -0.557   0.782   0.337  0.00  0.00     0.162 A 
ATOM      6  C5  UNL d   1      -1.359   0.016   1.177  0.00  0.00     0.062 A 
ATOM      7  F   UNL d   1      -2.402   0.581   1.803  0.00  0.00    -0.097 F 
ATOM      8  F1  UNL d   1      -0.845   2.081   0.170  0.00  0.00    -0.096 F 
ATOM      9  I   UNL d   1       1.734   1.345  -1.575  0.00  0.00    -0.060 I 
ATOM     10  F2  UNL d   1       1.839  -1.741  -0.735  0.00  0.00    -0.096 F 
ATOM     11  F3  UNL d   1       0.265  -3.214   0.904  0.00  0.00    -0.097 F 
ATOM     12  F4  UNL d   1      -1.857  -2.065   2.178  0.00  0.00    -0.092 F 
ENDROOT
TORSDOF 0
ENDMDL
