MODEL 1
REMARK minimizedAffinity -2.53149867
REMARK minimizedRMSD -1
REMARK  0 active torsions:
REMARK  status: ('A' for Active; 'I' for Inactive)
ROOT
ATOM      1  C   UNL d   1      -1.398  -2.172   1.791  0.00  0.00     0.124 A 
ATOM      2  C1  UNL d   1      -0.074  -2.223   1.377  0.00  0.00     0.062 A 
ATOM      3  C2  UNL d   1       0.486  -1.153   0.687  0.00  0.00     0.162 A 
ATOM      4  C3  UNL d   1      -0.278  -0.020   0.406  0.00  0.00    -0.034 A 
ATOM      5  C4  UNL d   1      -1.609   0.024   0.824  0.00  0.00     0.162 A 
ATOM      6  C5  UNL d   1      -2.164  -1.048   1.513  0.00  0.00     0.062 A 
ATOM      7  F   UNL d   1      -3.444  -0.997   1.912  0.00  0.00    -0.097 F 
ATOM      8  F1  UNL d   1      -2.372   1.098   0.570  0.00  0.00    -0.096 F 
ATOM      9  I   UNL d   1       0.555   1.584  -0.627  0.00  0.00    -0.060 I 
ATOM     10  F2  UNL d   1       1.768  -1.230   0.299  0.00  0.00    -0.096 F 
ATOM     11  F3  UNL d   1       0.668  -3.308   1.643  0.00  0.00    -0.097 F 
ATOM     12  F4  UNL d   1      -1.935  -3.204   2.454  0.00  0.00    -0.092 F 
ENDROOT
TORSDOF 0
ENDMDL
