MODEL 1
REMARK minimizedAffinity -2.82293344
REMARK minimizedRMSD -1
REMARK  0 active torsions:
REMARK  status: ('A' for Active; 'I' for Inactive)
ROOT
ATOM      1  C   UNL d   1      -1.383  -0.994   1.798  0.00  0.00     0.124 A 
ATOM      2  C1  UNL d   1      -0.450  -1.640   0.999  0.00  0.00     0.062 A 
ATOM      3  C2  UNL d   1       0.330  -0.912   0.106  0.00  0.00     0.162 A 
ATOM      4  C3  UNL d   1       0.182   0.472   0.007  0.00  0.00    -0.034 A 
ATOM      5  C4  UNL d   1      -0.759   1.114   0.813  0.00  0.00     0.162 A 
ATOM      6  C5  UNL d   1      -1.537   0.382   1.705  0.00  0.00     0.062 A 
ATOM      7  F   UNL d   1      -2.438   1.008   2.476  0.00  0.00    -0.097 F 
ATOM      8  F1  UNL d   1      -0.928   2.443   0.744  0.00  0.00    -0.096 F 
ATOM      9  I   UNL d   1       1.347   1.564  -1.328  0.00  0.00    -0.060 I 
ATOM     10  F2  UNL d   1       1.224  -1.562  -0.654  0.00  0.00    -0.096 F 
ATOM     11  F3  UNL d   1      -0.300  -2.969   1.087  0.00  0.00    -0.097 F 
ATOM     12  F4  UNL d   1      -2.133  -1.697   2.657  0.00  0.00    -0.092 F 
ENDROOT
TORSDOF 0
ENDMDL
