MODEL 1
REMARK minimizedAffinity -2.41740799
REMARK minimizedRMSD -1
REMARK  0 active torsions:
REMARK  status: ('A' for Active; 'I' for Inactive)
ROOT
ATOM      1  C   UNL d   1      -1.185  -0.967   1.784  0.00  0.00     0.124 A 
ATOM      2  C1  UNL d   1      -0.275  -1.507   0.885  0.00  0.00     0.062 A 
ATOM      3  C2  UNL d   1       0.312  -0.701  -0.086  0.00  0.00     0.162 A 
ATOM      4  C3  UNL d   1      -0.009   0.654  -0.163  0.00  0.00    -0.034 A 
ATOM      5  C4  UNL d   1      -0.926   1.190   0.743  0.00  0.00     0.162 A 
ATOM      6  C5  UNL d   1      -1.510   0.380   1.712  0.00  0.00     0.062 A 
ATOM      7  F   UNL d   1      -2.389   0.903   2.579  0.00  0.00    -0.097 F 
ATOM      8  F1  UNL d   1      -1.256   2.489   0.697  0.00  0.00    -0.096 F 
ATOM      9  I   UNL d   1       0.867   1.863  -1.614  0.00  0.00    -0.060 I 
ATOM     10  F2  UNL d   1       1.188  -1.250  -0.941  0.00  0.00    -0.096 F 
ATOM     11  F3  UNL d   1       0.039  -2.809   0.952  0.00  0.00    -0.097 F 
ATOM     12  F4  UNL d   1      -1.749  -1.745   2.716  0.00  0.00    -0.092 F 
ENDROOT
TORSDOF 0
ENDMDL
