MODEL 1
REMARK minimizedAffinity -3.68526745
REMARK minimizedRMSD -1
REMARK  0 active torsions:
REMARK  status: ('A' for Active; 'I' for Inactive)
ROOT
ATOM      1  C   UNL d   1      -0.661  -1.322   1.159  0.00  0.00     0.124 A 
ATOM      2  C1  UNL d   1      -0.864   0.051   1.130  0.00  0.00     0.062 A 
ATOM      3  C2  UNL d   1      -0.188   0.839   0.203  0.00  0.00     0.162 A 
ATOM      4  C3  UNL d   1       0.696   0.255  -0.705  0.00  0.00    -0.034 A 
ATOM      5  C4  UNL d   1       0.895  -1.126  -0.669  0.00  0.00     0.162 A 
ATOM      6  C5  UNL d   1       0.217  -1.909   0.260  0.00  0.00     0.062 A 
ATOM      7  F   UNL d   1       0.414  -3.235   0.286  0.00  0.00    -0.097 F 
ATOM      8  F1  UNL d   1       1.738  -1.720  -1.528  0.00  0.00    -0.096 F 
ATOM      9  I   UNL d   1       1.708   1.430  -2.093  0.00  0.00    -0.060 I 
ATOM     10  F2  UNL d   1      -0.403   2.163   0.198  0.00  0.00    -0.096 F 
ATOM     11  F3  UNL d   1      -1.711   0.621   1.999  0.00  0.00    -0.097 F 
ATOM     12  F4  UNL d   1      -1.312  -2.078   2.053  0.00  0.00    -0.092 F 
ENDROOT
TORSDOF 0
ENDMDL
