MODEL 1
REMARK minimizedAffinity -2.57378125
REMARK minimizedRMSD -1
REMARK  0 active torsions:
REMARK  status: ('A' for Active; 'I' for Inactive)
ROOT
ATOM      1  C   UNL d   1      -1.487  -1.905   1.484  0.00  0.00     0.124 A 
ATOM      2  C1  UNL d   1      -1.848  -0.565   1.467  0.00  0.00     0.062 A 
ATOM      3  C2  UNL d   1      -1.116   0.347   0.713  0.00  0.00     0.162 A 
ATOM      4  C3  UNL d   1      -0.015  -0.078  -0.032  0.00  0.00    -0.034 A 
ATOM      5  C4  UNL d   1       0.342  -1.427  -0.009  0.00  0.00     0.162 A 
ATOM      6  C5  UNL d   1      -0.393  -2.335   0.747  0.00  0.00     0.062 A 
ATOM      7  F   UNL d   1      -0.042  -3.629   0.762  0.00  0.00    -0.097 F 
ATOM      8  F1  UNL d   1       1.395  -1.869  -0.713  0.00  0.00    -0.096 F 
ATOM      9  I   UNL d   1       1.082   1.283  -1.161  0.00  0.00    -0.060 I 
ATOM     10  F2  UNL d   1      -1.487   1.636   0.715  0.00  0.00    -0.096 F 
ATOM     11  F3  UNL d   1      -2.904  -0.148   2.180  0.00  0.00    -0.097 F 
ATOM     12  F4  UNL d   1      -2.192  -2.781   2.212  0.00  0.00    -0.092 F 
ENDROOT
TORSDOF 0
ENDMDL
