MODEL 1
REMARK minimizedAffinity 1.84305894
REMARK minimizedRMSD -1
REMARK  0 active torsions:
REMARK  status: ('A' for Active; 'I' for Inactive)
ROOT
ATOM      1  C   UNL d   1       0.607   1.213   0.246  0.00  0.00     0.124 A 
ATOM      2  C1  UNL d   1      -0.760   1.367   0.064  0.00  0.00     0.062 A 
ATOM      3  C2  UNL d   1      -1.616   0.282   0.235  0.00  0.00     0.162 A 
ATOM      4  C3  UNL d   1      -1.106  -0.966   0.591  0.00  0.00    -0.034 A 
ATOM      5  C4  UNL d   1       0.270  -1.114   0.771  0.00  0.00     0.162 A 
ATOM      6  C5  UNL d   1       1.121  -0.027   0.599  0.00  0.00     0.062 A 
ATOM      7  F   UNL d   1       2.442  -0.178   0.775  0.00  0.00    -0.097 F 
ATOM      8  F1  UNL d   1       0.793  -2.301   1.114  0.00  0.00    -0.096 F 
ATOM      9  I   UNL d   1      -2.382  -2.590   0.848  0.00  0.00    -0.060 I 
ATOM     10  F2  UNL d   1      -2.933   0.460   0.053  0.00  0.00    -0.096 F 
ATOM     11  F3  UNL d   1      -1.259   2.563  -0.278  0.00  0.00    -0.097 F 
ATOM     12  F4  UNL d   1       1.428   2.258   0.079  0.00  0.00    -0.092 F 
ENDROOT
TORSDOF 0
ENDMDL
