MODEL 1
REMARK minimizedAffinity 0.553444922
REMARK minimizedRMSD -1
REMARK  0 active torsions:
REMARK  status: ('A' for Active; 'I' for Inactive)
ROOT
ATOM      1  C   UNL d   1       0.483  -1.260   0.943  0.00  0.00     0.124 A 
ATOM      2  C1  UNL d   1      -0.463  -1.381  -0.065  0.00  0.00     0.062 A 
ATOM      3  C2  UNL d   1      -0.491  -0.463  -1.112  0.00  0.00     0.162 A 
ATOM      4  C3  UNL d   1       0.431   0.582  -1.156  0.00  0.00    -0.034 A 
ATOM      5  C4  UNL d   1       1.379   0.697  -0.137  0.00  0.00     0.162 A 
ATOM      6  C5  UNL d   1       1.402  -0.222   0.907  0.00  0.00     0.062 A 
ATOM      7  F   UNL d   1       2.317  -0.104   1.881  0.00  0.00    -0.097 F 
ATOM      8  F1  UNL d   1       2.280   1.691  -0.148  0.00  0.00    -0.096 F 
ATOM      9  I   UNL d   1       0.393   1.956  -2.719  0.00  0.00    -0.060 I 
ATOM     10  F2  UNL d   1      -1.416  -0.604  -2.073  0.00  0.00    -0.096 F 
ATOM     11  F3  UNL d   1      -1.353  -2.383  -0.032  0.00  0.00    -0.097 F 
ATOM     12  F4  UNL d   1       0.506  -2.144   1.950  0.00  0.00    -0.092 F 
ENDROOT
TORSDOF 0
ENDMDL
