MODEL 1
REMARK minimizedAffinity -0.961790025
REMARK minimizedRMSD -1
REMARK  0 active torsions:
REMARK  status: ('A' for Active; 'I' for Inactive)
ROOT
ATOM      1  C   UNL d   1      -0.509  -1.077   0.988  0.00  0.00     0.124 A 
ATOM      2  C1  UNL d   1       0.443  -1.822   0.306  0.00  0.00     0.062 A 
ATOM      3  C2  UNL d   1       1.175  -1.245  -0.728  0.00  0.00     0.162 A 
ATOM      4  C3  UNL d   1       0.958   0.086  -1.086  0.00  0.00    -0.034 A 
ATOM      5  C4  UNL d   1      -0.001   0.829  -0.395  0.00  0.00     0.162 A 
ATOM      6  C5  UNL d   1      -0.730   0.247   0.637  0.00  0.00     0.062 A 
ATOM      7  F   UNL d   1      -1.649   0.968   1.295  0.00  0.00    -0.097 F 
ATOM      8  F1  UNL d   1      -0.235   2.111  -0.713  0.00  0.00    -0.096 F 
ATOM      9  I   UNL d   1       2.051   0.953  -2.631  0.00  0.00    -0.060 I 
ATOM     10  F2  UNL d   1       2.088  -1.988  -1.370  0.00  0.00    -0.096 F 
ATOM     11  F3  UNL d   1       0.658  -3.102   0.642  0.00  0.00    -0.097 F 
ATOM     12  F4  UNL d   1      -1.212  -1.636   1.981  0.00  0.00    -0.092 F 
ENDROOT
TORSDOF 0
ENDMDL
