MODEL 1
REMARK minimizedAffinity 0.269236773
REMARK minimizedRMSD -1
REMARK  0 active torsions:
REMARK  status: ('A' for Active; 'I' for Inactive)
ROOT
ATOM      1  C   UNL d   1      -1.152  -1.486   1.161  0.00  0.00     0.124 A 
ATOM      2  C1  UNL d   1       0.115  -1.912   0.787  0.00  0.00     0.062 A 
ATOM      3  C2  UNL d   1       0.965  -1.057   0.092  0.00  0.00     0.162 A 
ATOM      4  C3  UNL d   1       0.551   0.235  -0.234  0.00  0.00    -0.034 A 
ATOM      5  C4  UNL d   1      -0.725   0.656   0.145  0.00  0.00     0.162 A 
ATOM      6  C5  UNL d   1      -1.571  -0.203   0.840  0.00  0.00     0.062 A 
ATOM      7  F   UNL d   1      -2.794   0.211   1.200  0.00  0.00    -0.097 F 
ATOM      8  F1  UNL d   1      -1.156   1.892  -0.152  0.00  0.00    -0.096 F 
ATOM      9  I   UNL d   1       1.818   1.518  -1.273  0.00  0.00    -0.060 I 
ATOM     10  F2  UNL d   1       2.184  -1.495  -0.257  0.00  0.00    -0.096 F 
ATOM     11  F3  UNL d   1       0.522  -3.152   1.095  0.00  0.00    -0.097 F 
ATOM     12  F4  UNL d   1      -1.967  -2.312   1.829  0.00  0.00    -0.092 F 
ENDROOT
TORSDOF 0
ENDMDL
