MODEL 1
REMARK minimizedAffinity -3.70657754
REMARK minimizedRMSD -1
REMARK  0 active torsions:
REMARK  status: ('A' for Active; 'I' for Inactive)
ROOT
ATOM      1  C   UNL d   1      -2.588  -1.422   1.492  0.00  0.00     0.124 A 
ATOM      2  C1  UNL d   1      -1.607  -2.071   0.757  0.00  0.00     0.062 A 
ATOM      3  C2  UNL d   1      -0.632  -1.336   0.088  0.00  0.00     0.162 A 
ATOM      4  C3  UNL d   1      -0.633   0.057   0.152  0.00  0.00    -0.034 A 
ATOM      5  C4  UNL d   1      -1.624   0.703   0.893  0.00  0.00     0.162 A 
ATOM      6  C5  UNL d   1      -2.596  -0.036   1.560  0.00  0.00     0.062 A 
ATOM      7  F   UNL d   1      -3.544   0.594   2.270  0.00  0.00    -0.097 F 
ATOM      8  F1  UNL d   1      -1.655   2.042   0.976  0.00  0.00    -0.096 F 
ATOM      9  I   UNL d   1       0.822   1.160  -0.847  0.00  0.00    -0.060 I 
ATOM     10  F2  UNL d   1       0.304  -1.990  -0.616  0.00  0.00    -0.096 F 
ATOM     11  F3  UNL d   1      -1.597  -3.410   0.689  0.00  0.00    -0.097 F 
ATOM     12  F4  UNL d   1      -3.525  -2.131   2.134  0.00  0.00    -0.092 F 
ENDROOT
TORSDOF 0
ENDMDL
