MODEL 1
REMARK minimizedAffinity 1.04788327
REMARK minimizedRMSD -1
REMARK  0 active torsions:
REMARK  status: ('A' for Active; 'I' for Inactive)
ROOT
ATOM      1  C   UNL d   1       0.201  -1.086  -0.692  0.00  0.00     0.124 A 
ATOM      2  C1  UNL d   1       0.427   0.200  -0.221  0.00  0.00     0.062 A 
ATOM      3  C2  UNL d   1      -0.532   0.839   0.558  0.00  0.00     0.162 A 
ATOM      4  C3  UNL d   1      -1.728   0.193   0.873  0.00  0.00    -0.034 A 
ATOM      5  C4  UNL d   1      -1.948  -1.100   0.396  0.00  0.00     0.162 A 
ATOM      6  C5  UNL d   1      -0.986  -1.735  -0.383  0.00  0.00     0.062 A 
ATOM      7  F   UNL d   1      -1.207  -2.977  -0.836  0.00  0.00    -0.097 F 
ATOM      8  F1  UNL d   1      -3.086  -1.751   0.680  0.00  0.00    -0.096 F 
ATOM      9  I   UNL d   1      -3.165   1.146   2.039  0.00  0.00    -0.060 I 
ATOM     10  F2  UNL d   1      -0.287   2.082   0.999  0.00  0.00    -0.096 F 
ATOM     11  F3  UNL d   1       1.573   0.829  -0.519  0.00  0.00    -0.097 F 
ATOM     12  F4  UNL d   1       1.126  -1.698  -1.442  0.00  0.00    -0.092 F 
ENDROOT
TORSDOF 0
ENDMDL
