MODEL 1
REMARK minimizedAffinity -2.60823894
REMARK minimizedRMSD -1
REMARK  0 active torsions:
REMARK  status: ('A' for Active; 'I' for Inactive)
ROOT
ATOM      1  C   UNL d   1      -1.445  -1.459   1.392  0.00  0.00     0.124 A 
ATOM      2  C1  UNL d   1      -0.250  -1.971   0.904  0.00  0.00     0.062 A 
ATOM      3  C2  UNL d   1       0.592  -1.172   0.136  0.00  0.00     0.162 A 
ATOM      4  C3  UNL d   1       0.243   0.148  -0.148  0.00  0.00    -0.034 A 
ATOM      5  C4  UNL d   1      -0.961   0.656   0.345  0.00  0.00     0.162 A 
ATOM      6  C5  UNL d   1      -1.799  -0.147   1.112  0.00  0.00     0.062 A 
ATOM      7  F   UNL d   1      -2.952   0.349   1.582  0.00  0.00    -0.097 F 
ATOM      8  F1  UNL d   1      -1.327   1.921   0.091  0.00  0.00    -0.096 F 
ATOM      9  I   UNL d   1       1.499   1.347  -1.296  0.00  0.00    -0.060 I 
ATOM     10  F2  UNL d   1       1.740  -1.692  -0.322  0.00  0.00    -0.096 F 
ATOM     11  F3  UNL d   1       0.094  -3.239   1.172  0.00  0.00    -0.097 F 
ATOM     12  F4  UNL d   1      -2.253  -2.231   2.129  0.00  0.00    -0.092 F 
ENDROOT
TORSDOF 0
ENDMDL
