MODEL 1
REMARK minimizedAffinity -4.37235737
REMARK minimizedRMSD -1
REMARK  0 active torsions:
REMARK  status: ('A' for Active; 'I' for Inactive)
ROOT
ATOM      1  C   UNL d   1      -2.018  -1.398   1.553  0.00  0.00     0.124 A 
ATOM      2  C1  UNL d   1      -2.165  -0.018   1.565  0.00  0.00     0.062 A 
ATOM      3  C2  UNL d   1      -1.298   0.785   0.829  0.00  0.00     0.162 A 
ATOM      4  C3  UNL d   1      -0.275   0.210   0.075  0.00  0.00    -0.034 A 
ATOM      5  C4  UNL d   1      -0.133  -1.179   0.070  0.00  0.00     0.162 A 
ATOM      6  C5  UNL d   1      -1.002  -1.977   0.806  0.00  0.00     0.062 A 
ATOM      7  F   UNL d   1      -0.857  -3.310   0.794  0.00  0.00    -0.097 F 
ATOM      8  F1  UNL d   1       0.840  -1.765  -0.645  0.00  0.00    -0.096 F 
ATOM      9  I   UNL d   1       1.023   1.406  -1.026  0.00  0.00    -0.060 I 
ATOM     10  F2  UNL d   1      -1.465   2.116   0.858  0.00  0.00    -0.096 F 
ATOM     11  F3  UNL d   1      -3.146   0.544   2.286  0.00  0.00    -0.097 F 
ATOM     12  F4  UNL d   1      -2.853  -2.168   2.263  0.00  0.00    -0.092 F 
ENDROOT
TORSDOF 0
ENDMDL
