MODEL 1
REMARK minimizedAffinity -1.87596786
REMARK minimizedRMSD -1
REMARK  0 active torsions:
REMARK  status: ('A' for Active; 'I' for Inactive)
ROOT
ATOM      1  C   UNL d   1      -1.269  -2.011   0.822  0.00  0.00     0.124 A 
ATOM      2  C1  UNL d   1      -1.940  -0.920   0.286  0.00  0.00     0.062 A 
ATOM      3  C2  UNL d   1      -1.225   0.132  -0.281  0.00  0.00     0.162 A 
ATOM      4  C3  UNL d   1       0.169   0.097  -0.315  0.00  0.00    -0.034 A 
ATOM      5  C4  UNL d   1       0.836  -1.003   0.226  0.00  0.00     0.162 A 
ATOM      6  C5  UNL d   1       0.117  -2.051   0.791  0.00  0.00     0.062 A 
ATOM      7  F   UNL d   1       0.767  -3.104   1.308  0.00  0.00    -0.097 F 
ATOM      8  F1  UNL d   1       2.176  -1.068   0.209  0.00  0.00    -0.096 F 
ATOM      9  I   UNL d   1       1.241   1.668  -1.162  0.00  0.00    -0.060 I 
ATOM     10  F2  UNL d   1      -1.899   1.173  -0.791  0.00  0.00    -0.096 F 
ATOM     11  F3  UNL d   1      -3.280  -0.878   0.315  0.00  0.00    -0.097 F 
ATOM     12  F4  UNL d   1      -1.959  -3.021   1.367  0.00  0.00    -0.092 F 
ENDROOT
TORSDOF 0
ENDMDL
