MODEL 1
REMARK minimizedAffinity -5.16780567
REMARK minimizedRMSD -1
REMARK  1 active torsions:
REMARK  status: ('A' for Active; 'I' for Inactive)
REMARK    1  A    between atoms: N_2  and  C1_3 
ROOT
ATOM      1  C1  UNL d   1      -1.006   0.012   1.019  0.00  0.00     0.143 A 
ATOM      2  C2  UNL d   1      -1.400   0.491   2.274  0.00  0.00    -0.057 A 
ATOM      3  C3  UNL d   1      -0.471   0.679   3.304  0.00  0.00     0.033 A 
ATOM      4  C4  UNL d   1       0.869   0.363   3.106  0.00  0.00    -0.042 A 
ATOM      5  C5  UNL d   1       1.279  -0.138   1.875  0.00  0.00     0.033 A 
ATOM      6  C6  UNL d   1       0.347  -0.317   0.848  0.00  0.00    -0.057 A 
ENDROOT
BRANCH   1   7
ATOM      7  N   UNL d   1      -1.898  -0.289  -0.013  0.00  0.00    -0.732 N 
ATOM      8  C   UNL d   1      -2.001  -1.637  -0.528  0.00  0.00     0.284 C 
ATOM      9  H3  UNL d   1      -2.792   0.184   0.095  0.00  0.00     0.395 HD
ENDBRANCH   1   7
TORSDOF 1
ENDMDL
