MODEL 1
REMARK minimizedAffinity -0.920553684
REMARK minimizedRMSD -1
REMARK  1 active torsions:
REMARK  status: ('A' for Active; 'I' for Inactive)
REMARK    1  A    between atoms: N_2  and  C1_3 
ROOT
ATOM      1  C1  UNL d   1      -1.061  -1.266  -0.620  0.00  0.00     0.143 A 
ATOM      2  C2  UNL d   1      -2.405  -1.005  -0.336  0.00  0.00    -0.057 A 
ATOM      3  C3  UNL d   1      -3.416  -1.891  -0.730  0.00  0.00     0.033 A 
ATOM      4  C4  UNL d   1      -3.100  -3.043  -1.443  0.00  0.00    -0.042 A 
ATOM      5  C5  UNL d   1      -1.773  -3.310  -1.758  0.00  0.00     0.033 A 
ATOM      6  C6  UNL d   1      -0.768  -2.425  -1.356  0.00  0.00    -0.057 A 
ENDROOT
BRANCH   1   7
ATOM      7  N   UNL d   1      -0.020  -0.377  -0.342  0.00  0.00    -0.732 N 
ATOM      8  C   UNL d   1       0.845  -0.588   0.799  0.00  0.00     0.284 C 
ATOM      9  H3  UNL d   1       0.467  -0.073  -1.182  0.00  0.00     0.395 HD
ENDBRANCH   1   7
TORSDOF 1
ENDMDL
