MODEL 1
REMARK minimizedAffinity -1.08073854
REMARK minimizedRMSD -1
REMARK  1 active torsions:
REMARK  status: ('A' for Active; 'I' for Inactive)
REMARK    1  A    between atoms: N_2  and  C1_3 
ROOT
ATOM      1  C1  UNL d   1       2.055   0.741  -1.122  0.00  0.00     0.143 A 
ATOM      2  C2  UNL d   1       2.659   0.617   0.134  0.00  0.00    -0.057 A 
ATOM      3  C3  UNL d   1       1.939   0.157   1.244  0.00  0.00     0.033 A 
ATOM      4  C4  UNL d   1       0.591  -0.161   1.122  0.00  0.00    -0.042 A 
ATOM      5  C5  UNL d   1      -0.037  -0.022  -0.111  0.00  0.00     0.033 A 
ATOM      6  C6  UNL d   1       0.689   0.432  -1.216  0.00  0.00    -0.057 A 
ENDROOT
BRANCH   1   7
ATOM      7  N   UNL d   1       2.691   1.286  -2.240  0.00  0.00    -0.732 N 
ATOM      8  C   UNL d   1       2.000   1.380  -3.508  0.00  0.00     0.284 C 
ATOM      9  H3  UNL d   1       3.249   2.105  -2.009  0.00  0.00     0.395 HD
ENDBRANCH   1   7
TORSDOF 1
ENDMDL
