MODEL 1
REMARK minimizedAffinity -4.63111019
REMARK minimizedRMSD -1
REMARK  1 active torsions:
REMARK  status: ('A' for Active; 'I' for Inactive)
REMARK    1  A    between atoms: N_2  and  C1_3 
ROOT
ATOM      1  C1  UNL d   1      -1.591   0.088   0.805  0.00  0.00     0.143 A 
ATOM      2  C2  UNL d   1      -0.345   0.495   0.317  0.00  0.00    -0.057 A 
ATOM      3  C3  UNL d   1       0.536   1.241   1.109  0.00  0.00     0.033 A 
ATOM      4  C4  UNL d   1       0.173   1.619   2.398  0.00  0.00    -0.042 A 
ATOM      5  C5  UNL d   1      -1.071   1.246   2.894  0.00  0.00     0.033 A 
ATOM      6  C6  UNL d   1      -1.944   0.496   2.101  0.00  0.00    -0.057 A 
ENDROOT
BRANCH   1   7
ATOM      7  N   UNL d   1      -2.551  -0.571   0.032  0.00  0.00    -0.732 N 
ATOM      8  C   UNL d   1      -2.259  -1.853  -0.572  0.00  0.00     0.284 C 
ATOM      9  H3  UNL d   1      -3.485  -0.503   0.432  0.00  0.00     0.395 HD
ENDBRANCH   1   7
TORSDOF 1
ENDMDL
