MODEL 1
REMARK minimizedAffinity -4.44702339
REMARK minimizedRMSD -1
REMARK  1 active torsions:
REMARK  status: ('A' for Active; 'I' for Inactive)
REMARK    1  A    between atoms: N_2  and  C1_3 
ROOT
ATOM      1  C1  UNL d   1      -1.339  -0.201   0.949  0.00  0.00     0.143 A 
ATOM      2  C2  UNL d   1      -0.064   0.068   0.439  0.00  0.00    -0.057 A 
ATOM      3  C3  UNL d   1       0.892   0.754   1.198  0.00  0.00     0.033 A 
ATOM      4  C4  UNL d   1       0.578   1.210   2.475  0.00  0.00    -0.042 A 
ATOM      5  C5  UNL d   1      -0.691   0.976   2.992  0.00  0.00     0.033 A 
ATOM      6  C6  UNL d   1      -1.639   0.284   2.231  0.00  0.00    -0.057 A 
ENDROOT
BRANCH   1   7
ATOM      7  N   UNL d   1      -2.365  -0.791   0.206  0.00  0.00    -0.732 N 
ATOM      8  C   UNL d   1      -2.186  -2.099  -0.388  0.00  0.00     0.284 C 
ATOM      9  H3  UNL d   1      -3.280  -0.646   0.626  0.00  0.00     0.395 HD
ENDBRANCH   1   7
TORSDOF 1
ENDMDL
