MODEL 1
REMARK minimizedAffinity -3.61282873
REMARK minimizedRMSD -1
REMARK  1 active torsions:
REMARK  status: ('A' for Active; 'I' for Inactive)
REMARK    1  A    between atoms: N_2  and  C1_3 
ROOT
ATOM      1  C1  UNL d   1       0.120   1.269   1.816  0.00  0.00     0.143 A 
ATOM      2  C2  UNL d   1       1.356   0.723   2.179  0.00  0.00    -0.057 A 
ATOM      3  C3  UNL d   1       2.017  -0.193   1.351  0.00  0.00     0.033 A 
ATOM      4  C4  UNL d   1       1.437  -0.601   0.154  0.00  0.00    -0.042 A 
ATOM      5  C5  UNL d   1       0.198  -0.091  -0.215  0.00  0.00     0.033 A 
ATOM      6  C6  UNL d   1      -0.454   0.828   0.613  0.00  0.00    -0.057 A 
ENDROOT
BRANCH   1   7
ATOM      7  N   UNL d   1      -0.632   2.107   2.642  0.00  0.00    -0.732 N 
ATOM      8  C   UNL d   1      -1.052   1.666   3.955  0.00  0.00     0.284 C 
ATOM      9  H3  UNL d   1      -0.312   3.072   2.611  0.00  0.00     0.395 HD
ENDBRANCH   1   7
TORSDOF 1
ENDMDL
