MODEL 1
REMARK minimizedAffinity 0.395179957
REMARK minimizedRMSD -1
REMARK  1 active torsions:
REMARK  status: ('A' for Active; 'I' for Inactive)
REMARK    1  A    between atoms: N_2  and  C1_3 
ROOT
ATOM      1  C1  UNL d   1       1.590  -0.961   5.051  0.00  0.00     0.143 A 
ATOM      2  C2  UNL d   1       1.927   0.268   4.473  0.00  0.00    -0.057 A 
ATOM      3  C3  UNL d   1       1.127   1.402   4.662  0.00  0.00     0.033 A 
ATOM      4  C4  UNL d   1      -0.042   1.320   5.409  0.00  0.00    -0.042 A 
ATOM      5  C5  UNL d   1      -0.410   0.102   5.972  0.00  0.00     0.033 A 
ATOM      6  C6  UNL d   1       0.396  -1.025   5.786  0.00  0.00    -0.057 A 
ENDROOT
BRANCH   1   7
ATOM      7  N   UNL d   1       2.291  -2.147   4.819  0.00  0.00    -0.732 N 
ATOM      8  C   UNL d   1       3.246  -2.640   5.788  0.00  0.00     0.284 C 
ATOM      9  H3  UNL d   1       1.705  -2.870   4.408  0.00  0.00     0.395 HD
ENDBRANCH   1   7
TORSDOF 1
ENDMDL
