MODEL 1
REMARK minimizedAffinity 10.8528347
REMARK minimizedRMSD -1
REMARK  0 active torsions:
REMARK  status: ('A' for Active; 'I' for Inactive)
ROOT
ATOM      1  C2' OXE d   1      -3.080   3.487  -4.004  0.00  0.00     0.078 C 
ATOM      2  C1' OXE d   1      -5.155   1.899  -5.029  0.00  0.00     0.078 C 
ATOM      3  C1  OXE d   1      -4.460   1.425  -3.777  0.00  0.00    -0.078 A 
ATOM      4  C2  OXE d   1      -3.415   2.185  -3.309  0.00  0.00    -0.078 A 
ATOM      5  C3  OXE d   1      -2.775   1.822  -2.127  0.00  0.00     0.003 A 
ATOM      6  C4  OXE d   1      -3.083   0.611  -1.496  0.00  0.00    -0.002 A 
ATOM      7  C5  OXE d   1      -4.118  -0.197  -1.979  0.00  0.00    -0.002 A 
ATOM      8  C6  OXE d   1      -4.842   0.216  -3.092  0.00  0.00     0.003 A 
ENDROOT
TORSDOF 0
ENDMDL
