MODEL 1
REMARK minimizedAffinity -1.08739591
REMARK minimizedRMSD -1
REMARK  0 active torsions:
REMARK  status: ('A' for Active; 'I' for Inactive)
ROOT
ATOM      1  C2' OXE d   1      -4.520   6.000   5.625  0.00  0.00     0.078 C 
ATOM      2  C1' OXE d   1      -1.735   5.988   5.970  0.00  0.00     0.078 C 
ATOM      3  C1  OXE d   1      -2.442   4.657   5.910  0.00  0.00    -0.078 A 
ATOM      4  C2  OXE d   1      -3.810   4.673   5.788  0.00  0.00    -0.078 A 
ATOM      5  C3  OXE d   1      -4.506   3.473   5.673  0.00  0.00     0.003 A 
ATOM      6  C4  OXE d   1      -3.843   2.251   5.834  0.00  0.00    -0.002 A 
ATOM      7  C5  OXE d   1      -2.454   2.213   6.000  0.00  0.00    -0.002 A 
ATOM      8  C6  OXE d   1      -1.735   3.403   5.997  0.00  0.00     0.003 A 
ENDROOT
TORSDOF 0
ENDMDL
