MODEL 1
REMARK minimizedAffinity 14.3939543
REMARK minimizedRMSD -1
REMARK  0 active torsions:
REMARK  status: ('A' for Active; 'I' for Inactive)
ROOT
ATOM      1  C2' OXE d   1       0.782  -0.230   3.011  0.00  0.00     0.078 C 
ATOM      2  C1' OXE d   1      -1.082  -2.189   2.256  0.00  0.00     0.078 C 
ATOM      3  C1  OXE d   1       0.308  -2.281   1.678  0.00  0.00    -0.078 A 
ATOM      4  C2  OXE d   1       1.200  -1.292   2.016  0.00  0.00    -0.078 A 
ATOM      5  C3  OXE d   1       2.511  -1.359   1.554  0.00  0.00     0.003 A 
ATOM      6  C4  OXE d   1       2.887  -2.338   0.627  0.00  0.00    -0.002 A 
ATOM      7  C5  OXE d   1       1.982  -3.332   0.238  0.00  0.00    -0.002 A 
ATOM      8  C6  OXE d   1       0.704  -3.343   0.786  0.00  0.00     0.003 A 
ENDROOT
TORSDOF 0
ENDMDL
