MODEL 1
REMARK minimizedAffinity 10.0534611
REMARK minimizedRMSD -1
REMARK  0 active torsions:
REMARK  status: ('A' for Active; 'I' for Inactive)
ROOT
ATOM      1  C2' OXE d   1       3.225  -2.178   5.089  0.00  0.00     0.078 C 
ATOM      2  C1' OXE d   1       5.926  -2.120   5.852  0.00  0.00     0.078 C 
ATOM      3  C1  OXE d   1       5.253  -3.466   5.748  0.00  0.00    -0.078 A 
ATOM      4  C2  OXE d   1       3.918  -3.482   5.420  0.00  0.00    -0.078 A 
ATOM      5  C3  OXE d   1       3.263  -4.699   5.257  0.00  0.00     0.003 A 
ATOM      6  C4  OXE d   1       3.909  -5.900   5.575  0.00  0.00    -0.002 A 
ATOM      7  C5  OXE d   1       5.257  -5.904   5.950  0.00  0.00    -0.002 A 
ATOM      8  C6  OXE d   1       5.953  -4.701   6.000  0.00  0.00     0.003 A 
ENDROOT
TORSDOF 0
ENDMDL
