MODEL 1
REMARK minimizedAffinity 5.68441868
REMARK minimizedRMSD -1
REMARK  0 active torsions:
REMARK  status: ('A' for Active; 'I' for Inactive)
ROOT
ATOM      1  C2' OXE d   1       1.419  -0.537   2.177  0.00  0.00     0.078 C 
ATOM      2  C1' OXE d   1      -0.804  -2.191   1.728  0.00  0.00     0.078 C 
ATOM      3  C1  OXE d   1       0.553  -2.712   1.327  0.00  0.00    -0.078 A 
ATOM      4  C2  OXE d   1       1.629  -1.877   1.507  0.00  0.00    -0.078 A 
ATOM      5  C3  OXE d   1       2.911  -2.329   1.204  0.00  0.00     0.003 A 
ATOM      6  C4  OXE d   1       3.096  -3.567   0.575  0.00  0.00    -0.002 A 
ATOM      7  C5  OXE d   1       2.008  -4.416   0.346  0.00  0.00    -0.002 A 
ATOM      8  C6  OXE d   1       0.738  -4.023   0.754  0.00  0.00     0.003 A 
ENDROOT
TORSDOF 0
ENDMDL
