MODEL 1
REMARK minimizedAffinity 17.3711166
REMARK minimizedRMSD -1
REMARK  0 active torsions:
REMARK  status: ('A' for Active; 'I' for Inactive)
ROOT
ATOM      1  C2' OXE d   1      -4.873  -2.235  -1.767  0.00  0.00     0.078 C 
ATOM      2  C1' OXE d   1      -5.997   0.200  -2.596  0.00  0.00     0.078 C 
ATOM      3  C1  OXE d   1      -5.605  -0.794  -3.662  0.00  0.00    -0.078 A 
ATOM      4  C2  OXE d   1      -5.013  -1.963  -3.249  0.00  0.00    -0.078 A 
ATOM      5  C3  OXE d   1      -4.682  -2.936  -4.187  0.00  0.00     0.003 A 
ATOM      6  C4  OXE d   1      -4.805  -2.672  -5.556  0.00  0.00    -0.002 A 
ATOM      7  C5  OXE d   1      -5.369  -1.471  -6.000  0.00  0.00    -0.002 A 
ATOM      8  C6  OXE d   1      -5.813  -0.541  -5.066  0.00  0.00     0.003 A 
ENDROOT
TORSDOF 0
ENDMDL
