MODEL 1
REMARK minimizedAffinity 5.66609335
REMARK minimizedRMSD -1
REMARK  0 active torsions:
REMARK  status: ('A' for Active; 'I' for Inactive)
ROOT
ATOM      1  C2' OXE d   1       4.695  -4.067   0.793  0.00  0.00     0.078 C 
ATOM      2  C1' OXE d   1       2.545  -5.701   0.025  0.00  0.00     0.078 C 
ATOM      3  C1  OXE d   1       2.251  -4.258   0.350  0.00  0.00    -0.078 A 
ATOM      4  C2  OXE d   1       3.301  -3.477   0.770  0.00  0.00    -0.078 A 
ATOM      5  C3  OXE d   1       3.095  -2.126   1.031  0.00  0.00     0.003 A 
ATOM      6  C4  OXE d   1       1.801  -1.591   1.017  0.00  0.00    -0.002 A 
ATOM      7  C5  OXE d   1       0.711  -2.378   0.630  0.00  0.00    -0.002 A 
ATOM      8  C6  OXE d   1       0.925  -3.699   0.254  0.00  0.00     0.003 A 
ENDROOT
TORSDOF 0
ENDMDL
