MODEL 1
REMARK minimizedAffinity 5.3100996
REMARK minimizedRMSD -1
REMARK  0 active torsions:
REMARK  status: ('A' for Active; 'I' for Inactive)
ROOT
ATOM      1  C2' OXE d   1       0.136  -1.649   1.071  0.00  0.00     0.078 C 
ATOM      2  C1' OXE d   1       2.045  -0.884   2.981  0.00  0.00     0.078 C 
ATOM      3  C1  OXE d   1       2.391  -2.026   2.059  0.00  0.00    -0.078 A 
ATOM      4  C2  OXE d   1       1.433  -2.424   1.158  0.00  0.00    -0.078 A 
ATOM      5  C3  OXE d   1       1.721  -3.437   0.248  0.00  0.00     0.003 A 
ATOM      6  C4  OXE d   1       2.919  -4.155   0.341  0.00  0.00    -0.002 A 
ATOM      7  C5  OXE d   1       3.893  -3.792   1.278  0.00  0.00    -0.002 A 
ATOM      8  C6  OXE d   1       3.663  -2.705   2.113  0.00  0.00     0.003 A 
ENDROOT
TORSDOF 0
ENDMDL
