MODEL 1
REMARK minimizedAffinity 15.5653563
REMARK minimizedRMSD -1
REMARK  0 active torsions:
REMARK  status: ('A' for Active; 'I' for Inactive)
ROOT
ATOM      1  C2' OXE d   1      -2.482   5.610   5.885  0.00  0.00     0.078 C 
ATOM      2  C1' OXE d   1      -5.262   5.989   5.981  0.00  0.00     0.078 C 
ATOM      3  C1  OXE d   1      -4.746   4.572   5.952  0.00  0.00    -0.078 A 
ATOM      4  C2  OXE d   1      -3.387   4.396   5.857  0.00  0.00    -0.078 A 
ATOM      5  C3  OXE d   1      -2.855   3.110   5.882  0.00  0.00     0.003 A 
ATOM      6  C4  OXE d   1      -3.698   1.994   5.847  0.00  0.00    -0.002 A 
ATOM      7  C5  OXE d   1      -5.087   2.151   5.902  0.00  0.00    -0.002 A 
ATOM      8  C6  OXE d   1      -5.625   3.430   5.998  0.00  0.00     0.003 A 
ENDROOT
TORSDOF 0
ENDMDL
