MODEL 1
REMARK minimizedAffinity 7.17019367
REMARK minimizedRMSD -1
REMARK  0 active torsions:
REMARK  status: ('A' for Active; 'I' for Inactive)
ROOT
ATOM      1  C2' OXE d   1      -1.420  -1.806   0.999  0.00  0.00     0.078 C 
ATOM      2  C1' OXE d   1      -0.012  -0.776   3.198  0.00  0.00     0.078 C 
ATOM      3  C1  OXE d   1       0.782  -1.453   2.108  0.00  0.00    -0.078 A 
ATOM      4  C2  OXE d   1       0.080  -1.995   1.058  0.00  0.00    -0.078 A 
ATOM      5  C3  OXE d   1       0.768  -2.582  -0.000  0.00  0.00     0.003 A 
ATOM      6  C4  OXE d   1       2.155  -2.762   0.068  0.00  0.00    -0.002 A 
ATOM      7  C5  OXE d   1       2.884  -2.252   1.147  0.00  0.00    -0.002 A 
ATOM      8  C6  OXE d   1       2.219  -1.559   2.153  0.00  0.00     0.003 A 
ENDROOT
TORSDOF 0
ENDMDL
