MODEL 1
REMARK minimizedAffinity 8.77911472
REMARK minimizedRMSD -1
REMARK  0 active torsions:
REMARK  status: ('A' for Active; 'I' for Inactive)
ROOT
ATOM      1  C2' OXE d   1      -5.626  -1.439  -5.206  0.00  0.00     0.078 C 
ATOM      2  C1' OXE d   1      -5.999  -1.142  -2.440  0.00  0.00     0.078 C 
ATOM      3  C1  OXE d   1      -5.891   0.110  -3.273  0.00  0.00    -0.078 A 
ATOM      4  C2  OXE d   1      -5.661  -0.044  -4.619  0.00  0.00    -0.078 A 
ATOM      5  C3  OXE d   1      -5.608   1.077  -5.443  0.00  0.00     0.003 A 
ATOM      6  C4  OXE d   1      -5.632   2.363  -4.891  0.00  0.00    -0.002 A 
ATOM      7  C5  OXE d   1      -5.825   2.543  -3.517  0.00  0.00    -0.002 A 
ATOM      8  C6  OXE d   1      -5.998   1.430  -2.702  0.00  0.00     0.003 A 
ENDROOT
TORSDOF 0
ENDMDL
