MODEL 1
REMARK minimizedAffinity 12.4219151
REMARK minimizedRMSD -1
REMARK  0 active torsions:
REMARK  status: ('A' for Active; 'I' for Inactive)
ROOT
ATOM      1  C2' OXE d   1      -1.460   1.031   1.121  0.00  0.00     0.078 C 
ATOM      2  C1' OXE d   1       1.169   0.175   1.607  0.00  0.00     0.078 C 
ATOM      3  C1  OXE d   1       0.374  -0.557   0.555  0.00  0.00    -0.078 A 
ATOM      4  C2  OXE d   1      -0.927  -0.162   0.357  0.00  0.00    -0.078 A 
ATOM      5  C3  OXE d   1      -1.687  -0.768  -0.640  0.00  0.00     0.003 A 
ATOM      6  C4  OXE d   1      -1.190  -1.876  -1.335  0.00  0.00    -0.002 A 
ATOM      7  C5  OXE d   1       0.119  -2.321  -1.120  0.00  0.00    -0.002 A 
ATOM      8  C6  OXE d   1       0.926  -1.647  -0.211  0.00  0.00     0.003 A 
ENDROOT
TORSDOF 0
ENDMDL
