MODEL 1
REMARK minimizedAffinity -0.0736721084
REMARK minimizedRMSD -1
REMARK  0 active torsions:
REMARK  status: ('A' for Active; 'I' for Inactive)
ROOT
ATOM      1  C2' OXE d   1       3.983  -2.620   6.000  0.00  0.00     0.078 C 
ATOM      2  C1' OXE d   1       5.913  -1.808   4.130  0.00  0.00     0.078 C 
ATOM      3  C1  OXE d   1       4.475  -1.444   3.860  0.00  0.00    -0.078 A 
ATOM      4  C2  OXE d   1       3.532  -1.886   4.756  0.00  0.00    -0.078 A 
ATOM      5  C3  OXE d   1       2.197  -1.530   4.583  0.00  0.00     0.003 A 
ATOM      6  C4  OXE d   1       1.786  -0.859   3.425  0.00  0.00    -0.002 A 
ATOM      7  C5  OXE d   1       2.726  -0.435   2.480  0.00  0.00    -0.002 A 
ATOM      8  C6  OXE d   1       4.076  -0.681   2.703  0.00  0.00     0.003 A 
ENDROOT
TORSDOF 0
ENDMDL
