MODEL 1
REMARK minimizedAffinity 5.45399761
REMARK minimizedRMSD -1
REMARK  0 active torsions:
REMARK  status: ('A' for Active; 'I' for Inactive)
ROOT
ATOM      1  C2' OXE d   1       1.692  -1.949   3.565  0.00  0.00     0.078 C 
ATOM      2  C1' OXE d   1       4.146  -2.865   4.572  0.00  0.00     0.078 C 
ATOM      3  C1  OXE d   1       2.952  -3.779   4.691  0.00  0.00    -0.078 A 
ATOM      4  C2  OXE d   1       1.745  -3.304   4.238  0.00  0.00    -0.078 A 
ATOM      5  C3  OXE d   1       0.623  -4.127   4.274  0.00  0.00     0.003 A 
ATOM      6  C4  OXE d   1       0.679  -5.374   4.907  0.00  0.00    -0.002 A 
ATOM      7  C5  OXE d   1       1.890  -5.861   5.412  0.00  0.00    -0.002 A 
ATOM      8  C6  OXE d   1       3.042  -5.095   5.274  0.00  0.00     0.003 A 
ENDROOT
TORSDOF 0
ENDMDL
