MODEL 1
REMARK minimizedAffinity 2.4475553
REMARK minimizedRMSD -1
REMARK  0 active torsions:
REMARK  status: ('A' for Active; 'I' for Inactive)
ROOT
ATOM      1  C2' OXE d   1       2.904  -5.941  -1.774  0.00  0.00     0.078 C 
ATOM      2  C1' OXE d   1       5.593  -5.947  -2.577  0.00  0.00     0.078 C 
ATOM      3  C1  OXE d   1       4.538  -5.937  -3.654  0.00  0.00    -0.078 A 
ATOM      4  C2  OXE d   1       3.224  -5.982  -3.252  0.00  0.00    -0.078 A 
ATOM      5  C3  OXE d   1       2.210  -5.919  -4.203  0.00  0.00     0.003 A 
ATOM      6  C4  OXE d   1       2.515  -5.967  -5.569  0.00  0.00    -0.002 A 
ATOM      7  C5  OXE d   1       3.846  -5.962  -6.000  0.00  0.00    -0.002 A 
ATOM      8  C6  OXE d   1       4.867  -5.904  -5.058  0.00  0.00     0.003 A 
ENDROOT
TORSDOF 0
ENDMDL
