MODEL 1
REMARK minimizedAffinity 3.23291469
REMARK minimizedRMSD -1
REMARK  0 active torsions:
REMARK  status: ('A' for Active; 'I' for Inactive)
ROOT
ATOM      1  C2' OXE d   1       2.642  -2.478  -2.995  0.00  0.00     0.078 C 
ATOM      2  C1' OXE d   1       3.983  -4.826  -3.747  0.00  0.00     0.078 C 
ATOM      3  C1  OXE d   1       3.232  -4.833  -2.439  0.00  0.00    -0.078 A 
ATOM      4  C2  OXE d   1       2.618  -3.665  -2.056  0.00  0.00    -0.078 A 
ATOM      5  C3  OXE d   1       1.866  -3.633  -0.886  0.00  0.00     0.003 A 
ATOM      6  C4  OXE d   1       1.856  -4.733  -0.019  0.00  0.00    -0.002 A 
ATOM      7  C5  OXE d   1       2.509  -5.919  -0.370  0.00  0.00    -0.002 A 
ATOM      8  C6  OXE d   1       3.164  -6.000  -1.594  0.00  0.00     0.003 A 
ENDROOT
TORSDOF 0
ENDMDL
