MODEL 1
REMARK minimizedAffinity 12.9192944
REMARK minimizedRMSD -1
REMARK  0 active torsions:
REMARK  status: ('A' for Active; 'I' for Inactive)
ROOT
ATOM      1  C2' OXE d   1       2.311  -5.356   5.412  0.00  0.00     0.078 C 
ATOM      2  C1' OXE d   1       3.318  -5.355   2.792  0.00  0.00     0.078 C 
ATOM      3  C1  OXE d   1       2.846  -4.042   3.365  0.00  0.00    -0.078 A 
ATOM      4  C2  OXE d   1       2.311  -4.060   4.631  0.00  0.00    -0.078 A 
ATOM      5  C3  OXE d   1       1.911  -2.868   5.227  0.00  0.00     0.003 A 
ATOM      6  C4  OXE d   1       1.906  -1.675   4.494  0.00  0.00    -0.002 A 
ATOM      7  C5  OXE d   1       2.410  -1.642   3.189  0.00  0.00    -0.002 A 
ATOM      8  C6  OXE d   1       2.922  -2.805   2.627  0.00  0.00     0.003 A 
ENDROOT
TORSDOF 0
ENDMDL
