MODEL 1
REMARK minimizedAffinity 12.1643867
REMARK minimizedRMSD -1
REMARK  1 active torsions:
REMARK  status: ('A' for Active; 'I' for Inactive)
REMARK    1  A    between atoms: C1_2  and  C2_3 
ROOT
ATOM      1  C2  UNL d   1      -0.150   1.964   0.005  0.00  0.00    -0.081 A 
ATOM      2  C3  UNL d   1       0.930   1.073   0.034  0.00  0.00     0.006 A 
ATOM      3  C4  UNL d   1       1.620   0.759  -1.139  0.00  0.00     0.002 A 
ATOM      4  C5  UNL d   1       1.247   1.335  -2.358  0.00  0.00    -0.080 A 
ATOM      5  C6  UNL d   1       1.999   1.030  -3.619  0.00  0.00     0.076 C 
ATOM      6  C7  UNL d   1       0.157   2.211  -2.390  0.00  0.00     0.002 A 
ATOM      7  C8  UNL d   1      -0.534   2.526  -1.217  0.00  0.00     0.006 A 
ENDROOT
BRANCH   1   8
ATOM      8  C1  UNL d   1      -0.856   2.355   1.279  0.00  0.00     0.054 C 
ATOM      9  C   UNL d   1      -0.022   2.005   2.503  0.00  0.00     0.018 C 
ENDBRANCH   1   8
TORSDOF 1
ENDMDL
