MODEL 1
REMARK minimizedAffinity 14.4172993
REMARK minimizedRMSD -1
REMARK  1 active torsions:
REMARK  status: ('A' for Active; 'I' for Inactive)
REMARK    1  A    between atoms: C1_2  and  C2_3 
ROOT
ATOM      1  C2  UNL d   1      -0.969  -3.035   5.419  0.00  0.00    -0.081 A 
ATOM      2  C3  UNL d   1      -2.024  -2.319   5.999  0.00  0.00     0.006 A 
ATOM      3  C4  UNL d   1      -2.279  -1.000   5.616  0.00  0.00     0.002 A 
ATOM      4  C5  UNL d   1      -1.491  -0.378   4.642  0.00  0.00    -0.080 A 
ATOM      5  C6  UNL d   1      -1.773   1.027   4.200  0.00  0.00     0.076 C 
ATOM      6  C7  UNL d   1      -0.426  -1.087   4.075  0.00  0.00     0.002 A 
ATOM      7  C8  UNL d   1      -0.170  -2.406   4.458  0.00  0.00     0.006 A 
ENDROOT
BRANCH   1   8
ATOM      8  C1  UNL d   1      -0.731  -4.478   5.782  0.00  0.00     0.054 C 
ATOM      9  C   UNL d   1       0.749  -4.757   5.999  0.00  0.00     0.018 C 
ENDBRANCH   1   8
TORSDOF 1
ENDMDL
