MODEL 1
REMARK minimizedAffinity 12.8995018
REMARK minimizedRMSD -1
REMARK  1 active torsions:
REMARK  status: ('A' for Active; 'I' for Inactive)
REMARK    1  A    between atoms: C1_2  and  C2_3 
ROOT
ATOM      1  C2  UNL d   1       1.322  -1.911   1.993  0.00  0.00    -0.081 A 
ATOM      2  C3  UNL d   1       1.014  -0.992   3.004  0.00  0.00     0.006 A 
ATOM      3  C4  UNL d   1       0.094  -1.320   4.003  0.00  0.00     0.002 A 
ATOM      4  C5  UNL d   1      -0.528  -2.573   4.011  0.00  0.00    -0.080 A 
ATOM      5  C6  UNL d   1      -1.495  -2.948   5.095  0.00  0.00     0.076 C 
ATOM      6  C7  UNL d   1      -0.234  -3.484   2.991  0.00  0.00     0.002 A 
ATOM      7  C8  UNL d   1       0.685  -3.157   1.992  0.00  0.00     0.006 A 
ENDROOT
BRANCH   1   8
ATOM      8  C1  UNL d   1       2.362  -1.585   0.952  0.00  0.00     0.054 C 
ATOM      9  C   UNL d   1       3.743  -2.055   1.383  0.00  0.00     0.018 C 
ENDBRANCH   1   8
TORSDOF 1
ENDMDL
