MODEL 1
REMARK minimizedAffinity 10.275033
REMARK minimizedRMSD -1
REMARK  1 active torsions:
REMARK  status: ('A' for Active; 'I' for Inactive)
REMARK    1  A    between atoms: C1_2  and  C2_3 
ROOT
ATOM      1  C2  UNL d   1      -3.557   3.007  -4.854  0.00  0.00    -0.081 A 
ATOM      2  C3  UNL d   1      -2.208   2.633  -4.847  0.00  0.00     0.006 A 
ATOM      3  C4  UNL d   1      -1.206   3.600  -4.735  0.00  0.00     0.002 A 
ATOM      4  C5  UNL d   1      -1.536   4.955  -4.622  0.00  0.00    -0.080 A 
ATOM      5  C6  UNL d   1      -0.471   6.000  -4.471  0.00  0.00     0.076 C 
ATOM      6  C7  UNL d   1      -2.884   5.330  -4.647  0.00  0.00     0.002 A 
ATOM      7  C8  UNL d   1      -3.886   4.363  -4.759  0.00  0.00     0.006 A 
ENDROOT
BRANCH   1   8
ATOM      8  C1  UNL d   1      -4.642   1.961  -4.910  0.00  0.00     0.054 C 
ATOM      9  C   UNL d   1      -5.830   2.439  -5.732  0.00  0.00     0.018 C 
ENDBRANCH   1   8
TORSDOF 1
ENDMDL
