MODEL 1
REMARK minimizedAffinity 17.6596127
REMARK minimizedRMSD -1
REMARK  1 active torsions:
REMARK  status: ('A' for Active; 'I' for Inactive)
REMARK    1  A    between atoms: C1_2  and  C2_3 
ROOT
ATOM      1  C2  UNL d   1       1.820  -4.048  -0.384  0.00  0.00    -0.081 A 
ATOM      2  C3  UNL d   1       3.156  -3.914   0.012  0.00  0.00     0.006 A 
ATOM      3  C4  UNL d   1       4.174  -4.554  -0.700  0.00  0.00     0.002 A 
ATOM      4  C5  UNL d   1       3.873  -5.331  -1.824  0.00  0.00    -0.080 A 
ATOM      5  C6  UNL d   1       4.958  -5.998  -2.615  0.00  0.00     0.076 C 
ATOM      6  C7  UNL d   1       2.536  -5.480  -2.209  0.00  0.00     0.002 A 
ATOM      7  C8  UNL d   1       1.519  -4.841  -1.497  0.00  0.00     0.006 A 
ENDROOT
BRANCH   1   8
ATOM      8  C1  UNL d   1       0.727  -3.307   0.343  0.00  0.00     0.054 C 
ATOM      9  C   UNL d   1       1.277  -2.095   1.081  0.00  0.00     0.018 C 
ENDBRANCH   1   8
TORSDOF 1
ENDMDL
