MODEL 1
REMARK minimizedAffinity 0.286996216
REMARK minimizedRMSD -1
REMARK  1 active torsions:
REMARK  status: ('A' for Active; 'I' for Inactive)
REMARK    1  A    between atoms: C1_2  and  C2_3 
ROOT
ATOM      1  C2  UNL d   1      -4.017   4.668  -5.176  0.00  0.00    -0.081 A 
ATOM      2  C3  UNL d   1      -5.256   4.597  -5.824  0.00  0.00     0.006 A 
ATOM      3  C4  UNL d   1      -5.895   3.367  -5.998  0.00  0.00     0.002 A 
ATOM      4  C5  UNL d   1      -5.310   2.190  -5.520  0.00  0.00    -0.080 A 
ATOM      5  C6  UNL d   1      -6.000   0.867  -5.674  0.00  0.00     0.076 C 
ATOM      6  C7  UNL d   1      -4.064   2.258  -4.888  0.00  0.00     0.002 A 
ATOM      7  C8  UNL d   1      -3.424   3.487  -4.714  0.00  0.00     0.006 A 
ENDROOT
BRANCH   1   8
ATOM      8  C1  UNL d   1      -3.356   6.000  -4.929  0.00  0.00     0.054 C 
ATOM      9  C   UNL d   1      -1.970   5.826  -4.324  0.00  0.00     0.018 C 
ENDBRANCH   1   8
TORSDOF 1
ENDMDL
