MODEL 1
REMARK minimizedAffinity 19.5021667
REMARK minimizedRMSD -1
REMARK  1 active torsions:
REMARK  status: ('A' for Active; 'I' for Inactive)
REMARK    1  A    between atoms: C1_2  and  C2_3 
ROOT
ATOM      1  C2  UNL d   1      -5.008   4.751   1.240  0.00  0.00    -0.081 A 
ATOM      2  C3  UNL d   1      -4.577   3.718   2.081  0.00  0.00     0.006 A 
ATOM      3  C4  UNL d   1      -3.699   2.740   1.609  0.00  0.00     0.002 A 
ATOM      4  C5  UNL d   1      -3.232   2.782   0.291  0.00  0.00    -0.080 A 
ATOM      5  C6  UNL d   1      -2.266   1.755  -0.220  0.00  0.00     0.076 C 
ATOM      6  C7  UNL d   1      -3.676   3.805  -0.555  0.00  0.00     0.002 A 
ATOM      7  C8  UNL d   1      -4.554   4.783  -0.083  0.00  0.00     0.006 A 
ENDROOT
BRANCH   1   8
ATOM      8  C1  UNL d   1      -5.904   5.844   1.765  0.00  0.00     0.054 C 
ATOM      9  C   UNL d   1      -5.761   6.000   3.273  0.00  0.00     0.018 C 
ENDBRANCH   1   8
TORSDOF 1
ENDMDL
