MODEL 1
REMARK minimizedAffinity 2.78749824
REMARK minimizedRMSD -1
REMARK  1 active torsions:
REMARK  status: ('A' for Active; 'I' for Inactive)
REMARK    1  A    between atoms: C1_2  and  C2_3 
ROOT
ATOM      1  C2  UNL d   1      -2.213   4.828  -4.917  0.00  0.00    -0.081 A 
ATOM      2  C3  UNL d   1      -3.548   5.010  -5.298  0.00  0.00     0.006 A 
ATOM      3  C4  UNL d   1      -4.437   3.933  -5.301  0.00  0.00     0.002 A 
ATOM      4  C5  UNL d   1      -4.009   2.658  -4.917  0.00  0.00    -0.080 A 
ATOM      5  C6  UNL d   1      -4.961   1.499  -4.887  0.00  0.00     0.076 C 
ATOM      6  C7  UNL d   1      -2.671   2.472  -4.553  0.00  0.00     0.002 A 
ATOM      7  C8  UNL d   1      -1.781   3.548  -4.550  0.00  0.00     0.006 A 
ENDROOT
BRANCH   1   8
ATOM      8  C1  UNL d   1      -1.268   6.000  -4.850  0.00  0.00     0.054 C 
ATOM      9  C   UNL d   1      -0.272   5.974  -6.000  0.00  0.00     0.018 C 
ENDBRANCH   1   8
TORSDOF 1
ENDMDL
