MODEL 1
REMARK minimizedAffinity 10.2258492
REMARK minimizedRMSD -1
REMARK  1 active torsions:
REMARK  status: ('A' for Active; 'I' for Inactive)
REMARK    1  A    between atoms: C1_2  and  C2_3 
ROOT
ATOM      1  C2  UNL d   1      -2.980  -2.740   5.226  0.00  0.00    -0.081 A 
ATOM      2  C3  UNL d   1      -4.151  -2.716   5.994  0.00  0.00     0.006 A 
ATOM      3  C4  UNL d   1      -5.133  -3.694   5.818  0.00  0.00     0.002 A 
ATOM      4  C5  UNL d   1      -4.958  -4.716   4.879  0.00  0.00    -0.080 A 
ATOM      5  C6  UNL d   1      -5.990  -5.789   4.701  0.00  0.00     0.076 C 
ATOM      6  C7  UNL d   1      -3.796  -4.730   4.100  0.00  0.00     0.002 A 
ATOM      7  C8  UNL d   1      -2.814  -3.752   4.274  0.00  0.00     0.006 A 
ENDROOT
BRANCH   1   8
ATOM      8  C1  UNL d   1      -1.891  -1.725   5.459  0.00  0.00     0.054 C 
ATOM      9  C   UNL d   1      -0.585  -2.396   5.859  0.00  0.00     0.018 C 
ENDBRANCH   1   8
TORSDOF 1
ENDMDL
