MODEL 1
REMARK minimizedAffinity 7.60097933
REMARK minimizedRMSD -1
REMARK  1 active torsions:
REMARK  status: ('A' for Active; 'I' for Inactive)
REMARK    1  A    between atoms: C1_2  and  C2_3 
ROOT
ATOM      1  C2  UNL d   1      -4.626  -3.625   5.289  0.00  0.00    -0.081 A 
ATOM      2  C3  UNL d   1      -3.620  -4.240   4.534  0.00  0.00     0.006 A 
ATOM      3  C4  UNL d   1      -2.331  -3.702   4.500  0.00  0.00     0.002 A 
ATOM      4  C5  UNL d   1      -2.025  -2.546   5.225  0.00  0.00    -0.080 A 
ATOM      5  C6  UNL d   1      -0.638  -1.975   5.220  0.00  0.00     0.076 C 
ATOM      6  C7  UNL d   1      -3.035  -1.921   5.965  0.00  0.00     0.002 A 
ATOM      7  C8  UNL d   1      -4.323  -2.458   5.999  0.00  0.00     0.006 A 
ENDROOT
BRANCH   1   8
ATOM      8  C1  UNL d   1      -6.000  -4.239   5.380  0.00  0.00     0.054 C 
ATOM      9  C   UNL d   1      -5.986  -5.693   4.933  0.00  0.00     0.018 C 
ENDBRANCH   1   8
TORSDOF 1
ENDMDL
