MODEL 1
REMARK minimizedAffinity 2.54866481
REMARK minimizedRMSD -1
REMARK  0 active torsions:
REMARK  status: ('A' for Active; 'I' for Inactive)
ROOT
ATOM      1  C1  BNZ d   1      -5.980   1.576   1.121  0.00  0.00     0.000 A 
ATOM      2  C2  BNZ d   1      -6.000   0.460   0.327  0.00  0.00     0.000 A 
ATOM      3  C3  BNZ d   1      -5.239   0.395  -0.807  0.00  0.00     0.000 A 
ATOM      4  C4  BNZ d   1      -4.491   1.458  -1.166  0.00  0.00     0.000 A 
ATOM      5  C5  BNZ d   1      -4.468   2.594  -0.381  0.00  0.00     0.000 A 
ATOM      6  C6  BNZ d   1      -5.205   2.641   0.780  0.00  0.00     0.000 A 
ENDROOT
TORSDOF 0
ENDMDL
