MODEL 1
REMARK minimizedAffinity 0.415605187
REMARK minimizedRMSD -1
REMARK  0 active torsions:
REMARK  status: ('A' for Active; 'I' for Inactive)
ROOT
ATOM      1  C1  BNZ d   1       2.339  -1.088  -0.356  0.00  0.00     0.000 A 
ATOM      2  C2  BNZ d   1       2.873   0.154  -0.134  0.00  0.00     0.000 A 
ATOM      3  C3  BNZ d   1       3.156   0.990  -1.178  0.00  0.00     0.000 A 
ATOM      4  C4  BNZ d   1       2.942   0.570  -2.441  0.00  0.00     0.000 A 
ATOM      5  C5  BNZ d   1       2.413  -0.682  -2.681  0.00  0.00     0.000 A 
ATOM      6  C6  BNZ d   1       2.093  -1.507  -1.627  0.00  0.00     0.000 A 
ENDROOT
TORSDOF 0
ENDMDL
