MODEL 1
REMARK minimizedAffinity 0.793777585
REMARK minimizedRMSD -1
REMARK  0 active torsions:
REMARK  status: ('A' for Active; 'I' for Inactive)
ROOT
ATOM      1  C1  BNZ d   1      -5.999   3.265   1.877  0.00  0.00     0.000 A 
ATOM      2  C2  BNZ d   1      -6.000   4.435   2.589  0.00  0.00     0.000 A 
ATOM      3  C3  BNZ d   1      -4.908   5.258   2.586  0.00  0.00     0.000 A 
ATOM      4  C4  BNZ d   1      -3.804   4.891   1.903  0.00  0.00     0.000 A 
ATOM      5  C5  BNZ d   1      -3.784   3.711   1.188  0.00  0.00     0.000 A 
ATOM      6  C6  BNZ d   1      -4.899   2.904   1.162  0.00  0.00     0.000 A 
ENDROOT
TORSDOF 0
ENDMDL
