MODEL 1
REMARK minimizedAffinity -0.159703776
REMARK minimizedRMSD -1
REMARK  0 active torsions:
REMARK  status: ('A' for Active; 'I' for Inactive)
ROOT
ATOM      1  C1  BNZ d   1       3.803   0.949  -0.397  0.00  0.00     0.000 A 
ATOM      2  C2  BNZ d   1       3.821   2.273  -0.048  0.00  0.00     0.000 A 
ATOM      3  C3  BNZ d   1       4.913   3.051  -0.312  0.00  0.00     0.000 A 
ATOM      4  C4  BNZ d   1       6.000   2.496  -0.887  0.00  0.00     0.000 A 
ATOM      5  C5  BNZ d   1       6.000   1.160  -1.237  0.00  0.00     0.000 A 
ATOM      6  C6  BNZ d   1       4.884   0.389  -1.005  0.00  0.00     0.000 A 
ENDROOT
TORSDOF 0
ENDMDL
