MODEL 1
REMARK minimizedAffinity -1.84869051
REMARK minimizedRMSD -1
REMARK  0 active torsions:
REMARK  status: ('A' for Active; 'I' for Inactive)
ROOT
ATOM      1  C1  BNZ d   1       1.442  -1.349   1.430  0.00  0.00     0.000 A 
ATOM      2  C2  BNZ d   1       0.954  -1.176   2.698  0.00  0.00     0.000 A 
ATOM      3  C3  BNZ d   1       0.850   0.073   3.244  0.00  0.00     0.000 A 
ATOM      4  C4  BNZ d   1       1.271   1.142   2.537  0.00  0.00     0.000 A 
ATOM      5  C5  BNZ d   1       1.774   0.983   1.261  0.00  0.00     0.000 A 
ATOM      6  C6  BNZ d   1       1.841  -0.272   0.700  0.00  0.00     0.000 A 
ENDROOT
TORSDOF 0
ENDMDL
