MODEL 1
REMARK minimizedAffinity -1.14040482
REMARK minimizedRMSD -1
REMARK  0 active torsions:
REMARK  status: ('A' for Active; 'I' for Inactive)
ROOT
ATOM      1  C1  BNZ d   1      -4.642   1.977  -3.052  0.00  0.00     0.000 A 
ATOM      2  C2  BNZ d   1      -3.502   1.327  -2.659  0.00  0.00     0.000 A 
ATOM      3  C3  BNZ d   1      -2.845   0.487  -3.514  0.00  0.00     0.000 A 
ATOM      4  C4  BNZ d   1      -3.349   0.267  -4.745  0.00  0.00     0.000 A 
ATOM      5  C5  BNZ d   1      -4.502   0.908  -5.153  0.00  0.00     0.000 A 
ATOM      6  C6  BNZ d   1      -5.139   1.783  -4.304  0.00  0.00     0.000 A 
ENDROOT
TORSDOF 0
ENDMDL
