MODEL 1
REMARK minimizedAffinity 0.0327499881
REMARK minimizedRMSD -1
REMARK  0 active torsions:
REMARK  status: ('A' for Active; 'I' for Inactive)
ROOT
ATOM      1  C1  BNZ d   1      -5.060   4.919   1.769  0.00  0.00     0.000 A 
ATOM      2  C2  BNZ d   1      -4.837   5.997   2.584  0.00  0.00     0.000 A 
ATOM      3  C3  BNZ d   1      -5.170   5.953   3.910  0.00  0.00     0.000 A 
ATOM      4  C4  BNZ d   1      -5.760   4.847   4.408  0.00  0.00     0.000 A 
ATOM      5  C5  BNZ d   1      -5.999   3.756   3.597  0.00  0.00     0.000 A 
ATOM      6  C6  BNZ d   1      -5.628   3.790   2.273  0.00  0.00     0.000 A 
ENDROOT
TORSDOF 0
ENDMDL
