MODEL 1
REMARK minimizedAffinity 2.8934257
REMARK minimizedRMSD -1
REMARK  0 active torsions:
REMARK  status: ('A' for Active; 'I' for Inactive)
ROOT
ATOM      1  C1  BNZ d   1      -3.583   2.167  -3.191  0.00  0.00     0.000 A 
ATOM      2  C2  BNZ d   1      -4.837   2.031  -3.724  0.00  0.00     0.000 A 
ATOM      3  C3  BNZ d   1      -5.140   0.977  -4.540  0.00  0.00     0.000 A 
ATOM      4  C4  BNZ d   1      -4.179   0.084  -4.854  0.00  0.00     0.000 A 
ATOM      5  C5  BNZ d   1      -2.907   0.213  -4.332  0.00  0.00     0.000 A 
ATOM      6  C6  BNZ d   1      -2.617   1.254  -3.480  0.00  0.00     0.000 A 
ENDROOT
TORSDOF 0
ENDMDL
