MODEL 1
REMARK minimizedAffinity 1.71441841
REMARK minimizedRMSD -1
REMARK  0 active torsions:
REMARK  status: ('A' for Active; 'I' for Inactive)
ROOT
ATOM      1  C1  BNZ d   1      -6.000   3.769   4.505  0.00  0.00     0.000 A 
ATOM      2  C2  BNZ d   1      -5.586   4.883   5.186  0.00  0.00     0.000 A 
ATOM      3  C3  BNZ d   1      -5.171   6.000   4.516  0.00  0.00     0.000 A 
ATOM      4  C4  BNZ d   1      -5.133   5.988   3.168  0.00  0.00     0.000 A 
ATOM      5  C5  BNZ d   1      -5.539   4.870   2.467  0.00  0.00     0.000 A 
ATOM      6  C6  BNZ d   1      -5.992   3.761   3.144  0.00  0.00     0.000 A 
ENDROOT
TORSDOF 0
ENDMDL
