MODEL 1
REMARK minimizedAffinity -1.62650585
REMARK minimizedRMSD -1
REMARK  0 active torsions:
REMARK  status: ('A' for Active; 'I' for Inactive)
ROOT
ATOM      1  C   UNL d   1      -2.629   0.949  -2.419  0.00  0.00     0.020 A 
ATOM      2  C1  UNL d   1      -3.141   1.608  -1.302  0.00  0.00     0.020 A 
ATOM      3  C2  UNL d   1      -3.483   2.959  -1.384  0.00  0.00     0.034 A 
ATOM      4  C3  UNL d   1      -3.315   3.656  -2.586  0.00  0.00     0.017 A 
ATOM      5  C4  UNL d   1      -2.801   2.994  -3.707  0.00  0.00     0.017 A 
ATOM      6  C5  UNL d   1      -2.460   1.641  -3.619  0.00  0.00     0.034 A 
ATOM      7 Cl   UNL d   1      -2.565   3.787  -5.224  0.00  0.00    -0.070 Cl
ATOM      8 Cl1  UNL d   1      -3.760   5.325  -2.616  0.00  0.00    -0.070 Cl
ENDROOT
TORSDOF 0
ENDMDL
