MODEL 1
REMARK minimizedAffinity -2.83773994
REMARK minimizedRMSD -1
REMARK  0 active torsions:
REMARK  status: ('A' for Active; 'I' for Inactive)
ROOT
ATOM      1  C   UNL d   1      -1.981   6.000  -4.609  0.00  0.00     0.020 A 
ATOM      2  C1  UNL d   1      -1.850   4.861  -5.402  0.00  0.00     0.020 A 
ATOM      3  C2  UNL d   1      -2.294   3.625  -4.928  0.00  0.00     0.034 A 
ATOM      4  C3  UNL d   1      -2.871   3.524  -3.657  0.00  0.00     0.017 A 
ATOM      5  C4  UNL d   1      -3.002   4.668  -2.861  0.00  0.00     0.017 A 
ATOM      6  C5  UNL d   1      -2.556   5.904  -3.341  0.00  0.00     0.034 A 
ATOM      7 Cl   UNL d   1      -3.704   4.624  -1.282  0.00  0.00    -0.070 Cl
ATOM      8 Cl1  UNL d   1      -3.398   1.964  -3.134  0.00  0.00    -0.070 Cl
ENDROOT
TORSDOF 0
ENDMDL
