MODEL 1
REMARK minimizedAffinity 1.74807596
REMARK minimizedRMSD -1
REMARK  0 active torsions:
REMARK  status: ('A' for Active; 'I' for Inactive)
ROOT
ATOM      1  C   UNL d   1      -2.433   4.505  -5.746  0.00  0.00     0.020 A 
ATOM      2  C1  UNL d   1      -3.367   5.533  -5.620  0.00  0.00     0.020 A 
ATOM      3  C2  UNL d   1      -3.747   5.979  -4.353  0.00  0.00     0.034 A 
ATOM      4  C3  UNL d   1      -3.194   5.397  -3.207  0.00  0.00     0.017 A 
ATOM      5  C4  UNL d   1      -2.257   4.365  -3.334  0.00  0.00     0.017 A 
ATOM      6  C5  UNL d   1      -1.880   3.922  -4.605  0.00  0.00     0.034 A 
ATOM      7 Cl   UNL d   1      -1.532   3.598  -1.966  0.00  0.00    -0.070 Cl
ATOM      8 Cl1  UNL d   1      -3.710   5.999  -1.671  0.00  0.00    -0.070 Cl
ENDROOT
TORSDOF 0
ENDMDL
