MODEL 1
REMARK minimizedAffinity -3.24745178
REMARK minimizedRMSD -1
REMARK  0 active torsions:
REMARK  status: ('A' for Active; 'I' for Inactive)
ROOT
ATOM      1  C   UNL d   1      -2.951  -0.138   2.714  0.00  0.00     0.020 A 
ATOM      2  C1  UNL d   1      -1.851  -0.288   3.558  0.00  0.00     0.020 A 
ATOM      3  C2  UNL d   1      -0.679  -0.879   3.079  0.00  0.00     0.034 A 
ATOM      4  C3  UNL d   1      -0.606  -1.323   1.754  0.00  0.00     0.017 A 
ATOM      5  C4  UNL d   1      -1.710  -1.172   0.908  0.00  0.00     0.017 A 
ATOM      6  C5  UNL d   1      -2.881  -0.579   1.392  0.00  0.00     0.034 A 
ATOM      7 Cl   UNL d   1      -1.695  -1.695  -0.739  0.00  0.00    -0.070 Cl
ATOM      8 Cl1  UNL d   1       0.874  -2.045   1.230  0.00  0.00    -0.070 Cl
ENDROOT
TORSDOF 0
ENDMDL
