MODEL 1
REMARK minimizedAffinity -0.738156974
REMARK minimizedRMSD -1
REMARK  0 active torsions:
REMARK  status: ('A' for Active; 'I' for Inactive)
ROOT
ATOM      1  C   UNL d   1      -2.661   0.059   2.832  0.00  0.00     0.020 A 
ATOM      2  C1  UNL d   1      -1.420  -0.004   3.464  0.00  0.00     0.020 A 
ATOM      3  C2  UNL d   1      -0.335  -0.595   2.814  0.00  0.00     0.034 A 
ATOM      4  C3  UNL d   1      -0.488  -1.126   1.528  0.00  0.00     0.017 A 
ATOM      5  C4  UNL d   1      -1.735  -1.062   0.894  0.00  0.00     0.017 A 
ATOM      6  C5  UNL d   1      -2.818  -0.469   1.550  0.00  0.00     0.034 A 
ATOM      7 Cl   UNL d   1      -2.001  -1.696  -0.692  0.00  0.00    -0.070 Cl
ATOM      8 Cl1  UNL d   1       0.897  -1.842   0.784  0.00  0.00    -0.070 Cl
ENDROOT
TORSDOF 0
ENDMDL
