MODEL 1
REMARK minimizedAffinity 2.04919076
REMARK minimizedRMSD -1
REMARK  0 active torsions:
REMARK  status: ('A' for Active; 'I' for Inactive)
ROOT
ATOM      1  C   UNL d   1      -2.655   4.467  -4.042  0.00  0.00     0.020 A 
ATOM      2  C1  UNL d   1      -3.987   4.851  -3.891  0.00  0.00     0.020 A 
ATOM      3  C2  UNL d   1      -4.773   4.269  -2.894  0.00  0.00     0.034 A 
ATOM      4  C3  UNL d   1      -4.228   3.298  -2.046  0.00  0.00     0.017 A 
ATOM      5  C4  UNL d   1      -2.891   2.912  -2.199  0.00  0.00     0.017 A 
ATOM      6  C5  UNL d   1      -2.109   3.499  -3.198  0.00  0.00     0.034 A 
ATOM      7 Cl   UNL d   1      -2.149   1.721  -1.191  0.00  0.00    -0.070 Cl
ATOM      8 Cl1  UNL d   1      -5.258   2.619  -0.836  0.00  0.00    -0.070 Cl
ENDROOT
TORSDOF 0
ENDMDL
