MODEL 1
REMARK minimizedAffinity 5.80789375
REMARK minimizedRMSD -1
REMARK  0 active torsions:
REMARK  status: ('A' for Active; 'I' for Inactive)
ROOT
ATOM      1  C   UNL d   1      -1.874  -0.190   2.767  0.00  0.00     0.020 A 
ATOM      2  C1  UNL d   1      -0.670  -0.526   3.382  0.00  0.00     0.020 A 
ATOM      3  C2  UNL d   1       0.327  -1.180   2.655  0.00  0.00     0.034 A 
ATOM      4  C3  UNL d   1       0.121  -1.500   1.308  0.00  0.00     0.017 A 
ATOM      5  C4  UNL d   1      -1.088  -1.162   0.691  0.00  0.00     0.017 A 
ATOM      6  C5  UNL d   1      -2.083  -0.507   1.424  0.00  0.00     0.034 A 
ATOM      7 Cl   UNL d   1      -1.416  -1.523  -0.967  0.00  0.00    -0.070 Cl
ATOM      8 Cl1  UNL d   1       1.397  -2.309   0.470  0.00  0.00    -0.070 Cl
ENDROOT
TORSDOF 0
ENDMDL
