MODEL 1
REMARK minimizedAffinity 2.22181702
REMARK minimizedRMSD -1
REMARK  0 active torsions:
REMARK  status: ('A' for Active; 'I' for Inactive)
ROOT
ATOM      1  C   UNL d   1      -3.245  -0.308   3.341  0.00  0.00     0.020 A 
ATOM      2  C1  UNL d   1      -2.255  -0.643   4.263  0.00  0.00     0.020 A 
ATOM      3  C2  UNL d   1      -1.041  -1.173   3.822  0.00  0.00     0.034 A 
ATOM      4  C3  UNL d   1      -0.814  -1.370   2.455  0.00  0.00     0.017 A 
ATOM      5  C4  UNL d   1      -1.809  -1.034   1.530  0.00  0.00     0.017 A 
ATOM      6  C5  UNL d   1      -3.023  -0.503   1.978  0.00  0.00     0.034 A 
ATOM      7 Cl   UNL d   1      -1.602  -1.249  -0.172  0.00  0.00    -0.070 Cl
ATOM      8 Cl1  UNL d   1       0.711  -2.030   1.981  0.00  0.00    -0.070 Cl
ENDROOT
TORSDOF 0
ENDMDL
