MODEL 1
REMARK minimizedAffinity -3.49571085
REMARK minimizedRMSD -1
REMARK  0 active torsions:
REMARK  status: ('A' for Active; 'I' for Inactive)
ROOT
ATOM      1  C   UNL d   1      -2.626   4.960  -3.926  0.00  0.00     0.020 A 
ATOM      2  C1  UNL d   1      -2.126   4.105  -4.907  0.00  0.00     0.020 A 
ATOM      3  C2  UNL d   1      -1.916   2.756  -4.617  0.00  0.00     0.034 A 
ATOM      4  C3  UNL d   1      -2.206   2.257  -3.342  0.00  0.00     0.017 A 
ATOM      5  C4  UNL d   1      -2.708   3.115  -2.357  0.00  0.00     0.017 A 
ATOM      6  C5  UNL d   1      -2.916   4.466  -2.653  0.00  0.00     0.034 A 
ATOM      7 Cl   UNL d   1      -3.089   2.573  -0.761  0.00  0.00    -0.070 Cl
ATOM      8 Cl1  UNL d   1      -1.923   0.577  -3.053  0.00  0.00    -0.070 Cl
ENDROOT
TORSDOF 0
ENDMDL
