MODEL 1
REMARK minimizedAffinity -3.09258366
REMARK minimizedRMSD -1
REMARK  0 active torsions:
REMARK  status: ('A' for Active; 'I' for Inactive)
ROOT
ATOM      1  C   UNL d   1      -2.671   2.068  -1.591  0.00  0.00     0.020 A 
ATOM      2  C1  UNL d   1      -1.739   1.516  -2.468  0.00  0.00     0.020 A 
ATOM      3  C2  UNL d   1      -1.251   2.273  -3.535  0.00  0.00     0.034 A 
ATOM      4  C3  UNL d   1      -1.695   3.586  -3.728  0.00  0.00     0.017 A 
ATOM      5  C4  UNL d   1      -2.632   4.139  -2.847  0.00  0.00     0.017 A 
ATOM      6  C5  UNL d   1      -3.117   3.376  -1.780  0.00  0.00     0.034 A 
ATOM      7 Cl   UNL d   1      -3.227   5.753  -3.019  0.00  0.00    -0.070 Cl
ATOM      8 Cl1  UNL d   1      -1.049   4.465  -5.068  0.00  0.00    -0.070 Cl
ENDROOT
TORSDOF 0
ENDMDL
