MODEL 1
REMARK minimizedAffinity 14.0246725
REMARK minimizedRMSD -1
REMARK  0 active torsions:
REMARK  status: ('A' for Active; 'I' for Inactive)
ROOT
ATOM      1  C1  DEN d   1       0.791  -4.612   5.932  0.00  0.00     0.130 A 
ATOM      2  C2  DEN d   1       1.111  -6.000   5.609  0.00  0.00    -0.031 A 
ATOM      3  C3  DEN d   1       2.034  -5.999   4.456  0.00  0.00     0.027 A 
ATOM      4  C4  DEN d   1       2.997  -3.995   3.150  0.00  0.00     0.027 A 
ATOM      5  C5  DEN d   1       3.005  -2.621   3.047  0.00  0.00    -0.003 A 
ATOM      6  C6  DEN d   1       2.255  -1.823   3.870  0.00  0.00     0.001 A 
ATOM      7  C7  DEN d   1       1.500  -2.390   4.862  0.00  0.00     0.017 A 
ATOM      8  C8  DEN d   1       1.481  -3.775   4.967  0.00  0.00    -0.094 A 
ATOM      9  C9  DEN d   1       2.256  -4.564   4.134  0.00  0.00    -0.072 A 
ENDROOT
TORSDOF 0
ENDMDL
