MODEL 1
REMARK minimizedAffinity 5.59534359
REMARK minimizedRMSD -1
REMARK  0 active torsions:
REMARK  status: ('A' for Active; 'I' for Inactive)
ROOT
ATOM      1  C1  DEN d   1       5.649  -1.994   3.881  0.00  0.00     0.130 A 
ATOM      2  C2  DEN d   1       5.997  -2.423   5.233  0.00  0.00    -0.031 A 
ATOM      3  C3  DEN d   1       4.745  -2.576   6.000  0.00  0.00     0.027 A 
ATOM      4  C4  DEN d   1       2.313  -2.197   5.228  0.00  0.00     0.027 A 
ATOM      5  C5  DEN d   1       1.517  -1.817   4.170  0.00  0.00    -0.003 A 
ATOM      6  C6  DEN d   1       2.041  -1.440   2.961  0.00  0.00     0.001 A 
ATOM      7  C7  DEN d   1       3.396  -1.478   2.767  0.00  0.00     0.017 A 
ATOM      8  C8  DEN d   1       4.205  -1.853   3.832  0.00  0.00    -0.094 A 
ATOM      9  C9  DEN d   1       3.656  -2.242   5.042  0.00  0.00    -0.072 A 
ENDROOT
TORSDOF 0
ENDMDL
