MODEL 1
REMARK minimizedAffinity 1.16233146
REMARK minimizedRMSD -1
REMARK  0 active torsions:
REMARK  status: ('A' for Active; 'I' for Inactive)
ROOT
ATOM      1  C1  DEN d   1       1.873  -2.264   4.676  0.00  0.00     0.130 A 
ATOM      2  C2  DEN d   1       1.722  -1.608   3.380  0.00  0.00    -0.031 A 
ATOM      3  C3  DEN d   1       3.070  -1.401   2.813  0.00  0.00     0.027 A 
ATOM      4  C4  DEN d   1       5.364  -2.034   3.809  0.00  0.00     0.027 A 
ATOM      5  C5  DEN d   1       6.000  -2.598   4.892  0.00  0.00    -0.003 A 
ATOM      6  C6  DEN d   1       5.313  -3.056   5.985  0.00  0.00     0.001 A 
ATOM      7  C7  DEN d   1       3.945  -2.999   6.000  0.00  0.00     0.017 A 
ATOM      8  C8  DEN d   1       3.296  -2.424   4.915  0.00  0.00    -0.094 A 
ATOM      9  C9  DEN d   1       4.008  -1.978   3.814  0.00  0.00    -0.072 A 
ENDROOT
TORSDOF 0
ENDMDL
