MODEL 1
REMARK minimizedAffinity 13.3730383
REMARK minimizedRMSD -1
REMARK  0 active torsions:
REMARK  status: ('A' for Active; 'I' for Inactive)
ROOT
ATOM      1  C1  DEN d   1       3.000  -0.932   3.580  0.00  0.00     0.130 A 
ATOM      2  C2  DEN d   1       1.927  -1.902   3.376  0.00  0.00    -0.031 A 
ATOM      3  C3  DEN d   1       2.279  -3.133   4.111  0.00  0.00     0.027 A 
ATOM      4  C4  DEN d   1       4.367  -3.629   5.541  0.00  0.00     0.027 A 
ATOM      5  C5  DEN d   1       5.562  -3.117   5.999  0.00  0.00    -0.003 A 
ATOM      6  C6  DEN d   1       5.998  -1.864   5.658  0.00  0.00     0.001 A 
ATOM      7  C7  DEN d   1       5.213  -1.063   4.871  0.00  0.00     0.017 A 
ATOM      8  C8  DEN d   1       4.011  -1.574   4.400  0.00  0.00    -0.094 A 
ATOM      9  C9  DEN d   1       3.582  -2.839   4.766  0.00  0.00    -0.072 A 
ENDROOT
TORSDOF 0
ENDMDL
