MODEL 1
REMARK minimizedAffinity 2.30071926
REMARK minimizedRMSD -1
REMARK  0 active torsions:
REMARK  status: ('A' for Active; 'I' for Inactive)
ROOT
ATOM      1  C1  DEN d   1       4.777  -3.018   6.000  0.00  0.00     0.130 A 
ATOM      2  C2  DEN d   1       5.999  -2.625   5.304  0.00  0.00    -0.031 A 
ATOM      3  C3  DEN d   1       5.613  -1.907   4.073  0.00  0.00     0.027 A 
ATOM      4  C4  DEN d   1       3.254  -1.365   3.183  0.00  0.00     0.027 A 
ATOM      5  C5  DEN d   1       1.904  -1.505   3.421  0.00  0.00    -0.003 A 
ATOM      6  C6  DEN d   1       1.422  -2.183   4.509  0.00  0.00     0.001 A 
ATOM      7  C7  DEN d   1       2.295  -2.708   5.424  0.00  0.00     0.017 A 
ATOM      8  C8  DEN d   1       3.657  -2.578   5.187  0.00  0.00    -0.094 A 
ATOM      9  C9  DEN d   1       4.125  -1.878   4.087  0.00  0.00    -0.072 A 
ENDROOT
TORSDOF 0
ENDMDL
