MODEL 1
REMARK minimizedAffinity 3.98245859
REMARK minimizedRMSD -1
REMARK  0 active torsions:
REMARK  status: ('A' for Active; 'I' for Inactive)
ROOT
ATOM      1  C1  DEN d   1       2.258  -3.639   3.886  0.00  0.00     0.130 A 
ATOM      2  C2  DEN d   1       1.396  -2.988   4.869  0.00  0.00    -0.031 A 
ATOM      3  C3  DEN d   1       2.259  -2.336   5.874  0.00  0.00     0.027 A 
ATOM      4  C4  DEN d   1       4.834  -2.266   6.000  0.00  0.00     0.027 A 
ATOM      5  C5  DEN d   1       6.000  -2.683   5.395  0.00  0.00    -0.003 A 
ATOM      6  C6  DEN d   1       5.999  -3.470   4.274  0.00  0.00     0.001 A 
ATOM      7  C7  DEN d   1       4.810  -3.827   3.696  0.00  0.00     0.017 A 
ATOM      8  C8  DEN d   1       3.631  -3.417   4.304  0.00  0.00    -0.094 A 
ATOM      9  C9  DEN d   1       3.652  -2.611   5.430  0.00  0.00    -0.072 A 
ENDROOT
TORSDOF 0
ENDMDL
