MODEL 1
REMARK minimizedAffinity 14.1804848
REMARK minimizedRMSD -1
REMARK  0 active torsions:
REMARK  status: ('A' for Active; 'I' for Inactive)
ROOT
ATOM      1  C1  DEN d   1       5.532  -2.251   3.571  0.00  0.00     0.130 A 
ATOM      2  C2  DEN d   1       6.000  -2.621   4.904  0.00  0.00    -0.031 A 
ATOM      3  C3  DEN d   1       4.827  -2.682   5.799  0.00  0.00     0.027 A 
ATOM      4  C4  DEN d   1       2.344  -2.247   5.252  0.00  0.00     0.027 A 
ATOM      5  C5  DEN d   1       1.459  -1.893   4.258  0.00  0.00    -0.003 A 
ATOM      6  C6  DEN d   1       1.870  -1.602   2.984  0.00  0.00     0.001 A 
ATOM      7  C7  DEN d   1       3.197  -1.705   2.659  0.00  0.00     0.017 A 
ATOM      8  C8  DEN d   1       4.096  -2.055   3.658  0.00  0.00    -0.094 A 
ATOM      9  C9  DEN d   1       3.659  -2.356   4.936  0.00  0.00    -0.072 A 
ENDROOT
TORSDOF 0
ENDMDL
