MODEL 1
REMARK minimizedAffinity 10.7788286
REMARK minimizedRMSD -1
REMARK  0 active torsions:
REMARK  status: ('A' for Active; 'I' for Inactive)
ROOT
ATOM      1  C1  DEN d   1       3.290  -4.497   2.952  0.00  0.00     0.130 A 
ATOM      2  C2  DEN d   1       3.779  -4.143   4.281  0.00  0.00    -0.031 A 
ATOM      3  C3  DEN d   1       3.302  -2.781   4.596  0.00  0.00     0.027 A 
ATOM      4  C4  DEN d   1       1.855  -1.198   3.163  0.00  0.00     0.027 A 
ATOM      5  C5  DEN d   1       1.207  -1.053   1.957  0.00  0.00    -0.003 A 
ATOM      6  C6  DEN d   1       1.236  -2.025   0.991  0.00  0.00     0.001 A 
ATOM      7  C7  DEN d   1       1.890  -3.204   1.234  0.00  0.00     0.017 A 
ATOM      8  C8  DEN d   1       2.552  -3.354   2.446  0.00  0.00    -0.094 A 
ATOM      9  C9  DEN d   1       2.500  -2.365   3.414  0.00  0.00    -0.072 A 
ENDROOT
TORSDOF 0
ENDMDL
