MODEL 1
REMARK minimizedAffinity 4.20391035
REMARK minimizedRMSD -1
REMARK  0 active torsions:
REMARK  status: ('A' for Active; 'I' for Inactive)
ROOT
ATOM      1  C1  DEN d   1       2.558  -1.241   1.570  0.00  0.00     0.130 A 
ATOM      2  C2  DEN d   1       2.120  -0.240   2.538  0.00  0.00    -0.031 A 
ATOM      3  C3  DEN d   1       1.900  -0.920   3.830  0.00  0.00     0.027 A 
ATOM      4  C4  DEN d   1       2.199  -3.413   4.423  0.00  0.00     0.027 A 
ATOM      5  C5  DEN d   1       2.543  -4.651   3.928  0.00  0.00    -0.003 A 
ATOM      6  C6  DEN d   1       2.880  -4.844   2.614  0.00  0.00     0.001 A 
ATOM      7  C7  DEN d   1       2.924  -3.773   1.761  0.00  0.00     0.017 A 
ATOM      8  C8  DEN d   1       2.572  -2.523   2.251  0.00  0.00    -0.094 A 
ATOM      9  C9  DEN d   1       2.246  -2.346   3.585  0.00  0.00    -0.072 A 
ENDROOT
TORSDOF 0
ENDMDL
