MODEL 1
REMARK minimizedAffinity 0.00751045905
REMARK minimizedRMSD -1
REMARK  1 active torsions:
REMARK  status: ('A' for Active; 'I' for Inactive)
REMARK    1  A    between atoms: N_2  and  C1_3 
ROOT
ATOM      1  C1  UNL d   1       2.132   5.144  -5.333  0.00  0.00     0.143 A 
ATOM      2  C2  UNL d   1       3.040   5.999  -5.967  0.00  0.00    -0.057 A 
ATOM      3  C3  UNL d   1       4.400   5.989  -5.635  0.00  0.00     0.033 A 
ATOM      4  C4  UNL d   1       4.873   5.141  -4.639  0.00  0.00    -0.042 A 
ATOM      5  C5  UNL d   1       3.985   4.300  -3.979  0.00  0.00     0.033 A 
ATOM      6  C6  UNL d   1       2.629   4.310  -4.319  0.00  0.00    -0.057 A 
ENDROOT
BRANCH   1   7
ATOM      7  N   UNL d   1       0.752   5.177  -5.549  0.00  0.00    -0.732 N 
ATOM      8  C   UNL d   1      -0.106   5.985  -4.711  0.00  0.00     0.284 C 
ATOM      9  H3  UNL d   1       0.515   5.205  -6.538  0.00  0.00     0.395 HD
ENDBRANCH   1   7
TORSDOF 1
ENDMDL
