MODEL 1
REMARK minimizedAffinity -3.25208306
REMARK minimizedRMSD -1
REMARK  1 active torsions:
REMARK  status: ('A' for Active; 'I' for Inactive)
REMARK    1  A    between atoms: N_2  and  C1_3 
ROOT
ATOM      1  C1  UNL d   1       3.177   4.874  -4.847  0.00  0.00     0.143 A 
ATOM      2  C2  UNL d   1       3.926   5.997  -5.216  0.00  0.00    -0.057 A 
ATOM      3  C3  UNL d   1       5.323   5.996  -5.135  0.00  0.00     0.033 A 
ATOM      4  C4  UNL d   1       5.998   4.878  -4.656  0.00  0.00    -0.042 A 
ATOM      5  C5  UNL d   1       5.273   3.759  -4.260  0.00  0.00     0.033 A 
ATOM      6  C6  UNL d   1       3.878   3.764  -4.350  0.00  0.00    -0.057 A 
ENDROOT
BRANCH   1   7
ATOM      7  N   UNL d   1       1.781   4.847  -4.812  0.00  0.00    -0.732 N 
ATOM      8  C   UNL d   1       1.019   4.518  -5.997  0.00  0.00     0.284 C 
ATOM      9  H3  UNL d   1       1.422   4.427  -3.957  0.00  0.00     0.395 HD
ENDBRANCH   1   7
TORSDOF 1
ENDMDL
