MODEL 1
REMARK minimizedAffinity 2.32588339
REMARK minimizedRMSD -1
REMARK  1 active torsions:
REMARK  status: ('A' for Active; 'I' for Inactive)
REMARK    1  A    between atoms: N_2  and  C1_3 
ROOT
ATOM      1  C1  UNL d   1       1.045   5.896  -5.322  0.00  0.00     0.143 A 
ATOM      2  C2  UNL d   1      -0.189   5.872  -5.982  0.00  0.00    -0.057 A 
ATOM      3  C3  UNL d   1      -1.394   5.937  -5.271  0.00  0.00     0.033 A 
ATOM      4  C4  UNL d   1      -1.386   5.999  -3.882  0.00  0.00    -0.042 A 
ATOM      5  C5  UNL d   1      -0.173   5.999  -3.204  0.00  0.00     0.033 A 
ATOM      6  C6  UNL d   1       1.027   5.941  -3.919  0.00  0.00    -0.057 A 
ENDROOT
BRANCH   1   7
ATOM      7  N   UNL d   1       2.274   5.735  -5.965  0.00  0.00    -0.732 N 
ATOM      8  C   UNL d   1       3.358   5.028  -5.317  0.00  0.00     0.284 C 
ATOM      9  H3  UNL d   1       2.170   5.519  -6.954  0.00  0.00     0.395 HD
ENDBRANCH   1   7
TORSDOF 1
ENDMDL
