MODEL 1
REMARK minimizedAffinity 1.73167825
REMARK minimizedRMSD -1
REMARK  1 active torsions:
REMARK  status: ('A' for Active; 'I' for Inactive)
REMARK    1  A    between atoms: N_2  and  C1_3 
ROOT
ATOM      1  C1  UNL d   1       2.209   5.976  -4.766  0.00  0.00     0.143 A 
ATOM      2  C2  UNL d   1       1.504   5.934  -5.974  0.00  0.00    -0.057 A 
ATOM      3  C3  UNL d   1       0.104   5.952  -5.999  0.00  0.00     0.033 A 
ATOM      4  C4  UNL d   1      -0.618   5.982  -4.811  0.00  0.00    -0.042 A 
ATOM      5  C5  UNL d   1       0.061   5.999  -3.598  0.00  0.00     0.033 A 
ATOM      6  C6  UNL d   1       1.459   5.988  -3.580  0.00  0.00    -0.057 A 
ENDROOT
BRANCH   1   7
ATOM      7  N   UNL d   1       3.598   5.862  -4.672  0.00  0.00    -0.732 N 
ATOM      8  C   UNL d   1       4.430   5.999  -5.848  0.00  0.00     0.284 C 
ATOM      9  H3  UNL d   1       3.970   6.320  -3.844  0.00  0.00     0.395 HD
ENDBRANCH   1   7
TORSDOF 1
ENDMDL
