MODEL 1
REMARK minimizedAffinity 1.5904429
REMARK minimizedRMSD -1
REMARK  1 active torsions:
REMARK  status: ('A' for Active; 'I' for Inactive)
REMARK    1  A    between atoms: N_2  and  C1_3 
ROOT
ATOM      1  C1  UNL d   1       1.103   5.129  -4.684  0.00  0.00     0.143 A 
ATOM      2  C2  UNL d   1       1.906   4.115  -4.150  0.00  0.00    -0.057 A 
ATOM      3  C3  UNL d   1       3.255   3.994  -4.505  0.00  0.00     0.033 A 
ATOM      4  C4  UNL d   1       3.819   4.871  -5.426  0.00  0.00    -0.042 A 
ATOM      5  C5  UNL d   1       3.034   5.872  -5.988  0.00  0.00     0.033 A 
ATOM      6  C6  UNL d   1       1.689   5.991  -5.624  0.00  0.00    -0.057 A 
ENDROOT
BRANCH   1   7
ATOM      7  N   UNL d   1      -0.269   5.241  -4.446  0.00  0.00    -0.732 N 
ATOM      8  C   UNL d   1      -0.761   5.971  -3.297  0.00  0.00     0.284 C 
ATOM      9  H3  UNL d   1      -0.799   5.403  -5.299  0.00  0.00     0.395 HD
ENDBRANCH   1   7
TORSDOF 1
ENDMDL
