MODEL 1
REMARK minimizedAffinity 3.7764411
REMARK minimizedRMSD -1
REMARK  1 active torsions:
REMARK  status: ('A' for Active; 'I' for Inactive)
REMARK    1  A    between atoms: N_2  and  C1_3 
ROOT
ATOM      1  C1  UNL d   1      -0.603   0.907   0.251  0.00  0.00     0.143 A 
ATOM      2  C2  UNL d   1       0.051   2.044  -0.237  0.00  0.00    -0.057 A 
ATOM      3  C3  UNL d   1       1.319   2.409   0.232  0.00  0.00     0.033 A 
ATOM      4  C4  UNL d   1       1.944   1.658   1.221  0.00  0.00    -0.042 A 
ATOM      5  C5  UNL d   1       1.302   0.538   1.738  0.00  0.00     0.033 A 
ATOM      6  C6  UNL d   1       0.039   0.175   1.261  0.00  0.00    -0.057 A 
ENDROOT
BRANCH   1   7
ATOM      7  N   UNL d   1      -1.905   0.547  -0.104  0.00  0.00    -0.732 N 
ATOM      8  C   UNL d   1      -2.143  -0.530  -1.040  0.00  0.00     0.284 C 
ATOM      9  H3  UNL d   1      -2.541   0.556   0.691  0.00  0.00     0.395 HD
ENDBRANCH   1   7
TORSDOF 1
ENDMDL
