MODEL 1
REMARK minimizedAffinity 6.49219084
REMARK minimizedRMSD -1
REMARK  1 active torsions:
REMARK  status: ('A' for Active; 'I' for Inactive)
REMARK    1  A    between atoms: N_2  and  C1_3 
ROOT
ATOM      1  C1  UNL d   1       3.820   5.146  -5.054  0.00  0.00     0.143 A 
ATOM      2  C2  UNL d   1       2.925   5.980  -5.733  0.00  0.00    -0.057 A 
ATOM      3  C3  UNL d   1       1.596   5.595  -5.950  0.00  0.00     0.033 A 
ATOM      4  C4  UNL d   1       1.146   4.353  -5.517  0.00  0.00    -0.042 A 
ATOM      5  C5  UNL d   1       2.025   3.497  -4.862  0.00  0.00     0.033 A 
ATOM      6  C6  UNL d   1       3.349   3.890  -4.642  0.00  0.00    -0.057 A 
ENDROOT
BRANCH   1   7
ATOM      7  N   UNL d   1       5.178   5.430  -4.893  0.00  0.00    -0.732 N 
ATOM      8  C   UNL d   1       5.962   5.936  -6.000  0.00  0.00     0.284 C 
ATOM      9  H3  UNL d   1       5.378   5.880  -4.003  0.00  0.00     0.395 HD
ENDBRANCH   1   7
TORSDOF 1
ENDMDL
