MODEL 1
REMARK minimizedAffinity 1.37578702
REMARK minimizedRMSD -1
REMARK  1 active torsions:
REMARK  status: ('A' for Active; 'I' for Inactive)
REMARK    1  A    between atoms: N_2  and  C1_3 
ROOT
ATOM      1  C1  UNL d   1      -1.205   5.925  -3.627  0.00  0.00     0.143 A 
ATOM      2  C2  UNL d   1      -1.454   5.977  -2.251  0.00  0.00    -0.057 A 
ATOM      3  C3  UNL d   1      -2.762   5.999  -1.751  0.00  0.00     0.033 A 
ATOM      4  C4  UNL d   1      -3.846   6.000  -2.622  0.00  0.00    -0.042 A 
ATOM      5  C5  UNL d   1      -3.622   5.974  -3.994  0.00  0.00     0.033 A 
ATOM      6  C6  UNL d   1      -2.314   5.945  -4.487  0.00  0.00    -0.057 A 
ENDROOT
BRANCH   1   7
ATOM      7  N   UNL d   1       0.072   6.000  -4.189  0.00  0.00    -0.732 N 
ATOM      8  C   UNL d   1       0.246   5.993  -5.626  0.00  0.00     0.284 C 
ATOM      9  H3  UNL d   1       0.674   6.659  -3.701  0.00  0.00     0.395 HD
ENDBRANCH   1   7
TORSDOF 1
ENDMDL
