MODEL 1
REMARK minimizedAffinity -0.934397221
REMARK minimizedRMSD -1
REMARK  1 active torsions:
REMARK  status: ('A' for Active; 'I' for Inactive)
REMARK    1  A    between atoms: N_2  and  C1_3 
ROOT
ATOM      1  C1  UNL d   1       2.896   4.928  -4.319  0.00  0.00     0.143 A 
ATOM      2  C2  UNL d   1       4.064   5.665  -4.091  0.00  0.00    -0.057 A 
ATOM      3  C3  UNL d   1       5.242   5.043  -3.660  0.00  0.00     0.033 A 
ATOM      4  C4  UNL d   1       5.265   3.673  -3.421  0.00  0.00    -0.042 A 
ATOM      5  C5  UNL d   1       4.109   2.925  -3.617  0.00  0.00     0.033 A 
ATOM      6  C6  UNL d   1       2.938   3.551  -4.054  0.00  0.00    -0.057 A 
ENDROOT
BRANCH   1   7
ATOM      7  N   UNL d   1       1.667   5.502  -4.653  0.00  0.00    -0.732 N 
ATOM      8  C   UNL d   1       1.139   5.383  -5.995  0.00  0.00     0.284 C 
ATOM      9  H3  UNL d   1       0.972   5.385  -3.920  0.00  0.00     0.395 HD
ENDBRANCH   1   7
TORSDOF 1
ENDMDL
