MODEL 1
REMARK minimizedAffinity 1.9192102
REMARK minimizedRMSD -1
REMARK  1 active torsions:
REMARK  status: ('A' for Active; 'I' for Inactive)
REMARK    1  A    between atoms: N_2  and  C1_3 
ROOT
ATOM      1  C1  UNL d   1      -0.071   5.713  -4.731  0.00  0.00     0.143 A 
ATOM      2  C2  UNL d   1       0.580   5.399  -5.929  0.00  0.00    -0.057 A 
ATOM      3  C3  UNL d   1       1.976   5.327  -5.999  0.00  0.00     0.033 A 
ATOM      4  C4  UNL d   1       2.750   5.597  -4.876  0.00  0.00    -0.042 A 
ATOM      5  C5  UNL d   1       2.126   5.936  -3.680  0.00  0.00     0.033 A 
ATOM      6  C6  UNL d   1       0.730   5.999  -3.615  0.00  0.00    -0.057 A 
ENDROOT
BRANCH   1   7
ATOM      7  N   UNL d   1      -1.452   5.896  -4.621  0.00  0.00    -0.732 N 
ATOM      8  C   UNL d   1      -2.084   5.967  -3.321  0.00  0.00     0.284 C 
ATOM      9  H3  UNL d   1      -1.809   6.569  -5.295  0.00  0.00     0.395 HD
ENDBRANCH   1   7
TORSDOF 1
ENDMDL
