MODEL 1
REMARK minimizedAffinity 7.0790472
REMARK minimizedRMSD -1
REMARK  0 active torsions:
REMARK  status: ('A' for Active; 'I' for Inactive)
ROOT
ATOM      1  N1  IND d   1      -0.217  -4.326   0.107  0.00  0.00    -0.196 N 
ATOM      2  C2  IND d   1      -0.871  -4.314  -1.094  0.00  0.00     0.054 A 
ATOM      3  C3  IND d   1      -0.333  -3.384  -1.913  0.00  0.00    -0.031 A 
ATOM      4  C4  IND d   1       1.689  -1.838  -1.528  0.00  0.00     0.051 A 
ATOM      5  C5  IND d   1       2.589  -1.459  -0.572  0.00  0.00    -0.031 A 
ATOM      6  C6  IND d   1       2.601  -2.030   0.684  0.00  0.00     0.015 A 
ATOM      7  C7  IND d   1       1.718  -3.013   1.029  0.00  0.00    -0.016 A 
ATOM      8  C8  IND d   1       0.798  -3.395   0.062  0.00  0.00    -0.047 A 
ATOM      9  C9  IND d   1       0.753  -2.790  -1.200  0.00  0.00    -0.096 A 
ATOM     10  HN1 IND d   1      -0.408  -4.829   0.777  0.00  0.00     0.298 HD
ENDROOT
TORSDOF 0
ENDMDL
