MODEL 1
REMARK minimizedAffinity 3.21739268
REMARK minimizedRMSD -1
REMARK  0 active torsions:
REMARK  status: ('A' for Active; 'I' for Inactive)
ROOT
ATOM      1  N1  IND d   1       4.121   0.860  -0.911  0.00  0.00    -0.196 N 
ATOM      2  C2  IND d   1       3.381   1.633  -0.060  0.00  0.00     0.054 A 
ATOM      3  C3  IND d   1       2.328   0.931   0.417  0.00  0.00    -0.031 A 
ATOM      4  C4  IND d   1       1.685  -1.529   0.014  0.00  0.00     0.051 A 
ATOM      5  C5  IND d   1       2.037  -2.629  -0.718  0.00  0.00    -0.031 A 
ATOM      6  C6  IND d   1       3.125  -2.622  -1.566  0.00  0.00     0.015 A 
ATOM      7  C7  IND d   1       3.912  -1.514  -1.707  0.00  0.00    -0.016 A 
ATOM      8  C8  IND d   1       3.554  -0.394  -0.971  0.00  0.00    -0.047 A 
ATOM      9  C9  IND d   1       2.425  -0.381  -0.140  0.00  0.00    -0.096 A 
ATOM     10  HN1 IND d   1       4.823   1.115  -1.337  0.00  0.00     0.298 HD
ENDROOT
TORSDOF 0
ENDMDL
