MODEL 1
REMARK minimizedAffinity 14.0022125
REMARK minimizedRMSD -1
REMARK  0 active torsions:
REMARK  status: ('A' for Active; 'I' for Inactive)
ROOT
ATOM      1  N1  IND d   1      -1.681   2.064  -1.222  0.00  0.00    -0.196 N 
ATOM      2  C2  IND d   1      -0.739   1.142  -0.861  0.00  0.00     0.054 A 
ATOM      3  C3  IND d   1      -0.247   1.427   0.366  0.00  0.00    -0.031 A 
ATOM      4  C4  IND d   1      -0.916   3.299   2.002  0.00  0.00     0.051 A 
ATOM      5  C5  IND d   1      -1.705   4.410   2.103  0.00  0.00    -0.031 A 
ATOM      6  C6  IND d   1      -2.546   4.802   1.081  0.00  0.00     0.015 A 
ATOM      7  C7  IND d   1      -2.637   4.088  -0.080  0.00  0.00    -0.016 A 
ATOM      8  C8  IND d   1      -1.832   2.964  -0.189  0.00  0.00    -0.047 A 
ATOM      9  C9  IND d   1      -0.945   2.585   0.827  0.00  0.00    -0.096 A 
ATOM     10  HN1 IND d   1      -2.107   2.080  -1.968  0.00  0.00     0.298 HD
ENDROOT
TORSDOF 0
ENDMDL
