MODEL 1
REMARK minimizedAffinity 9.34407711
REMARK minimizedRMSD -1
REMARK  0 active torsions:
REMARK  status: ('A' for Active; 'I' for Inactive)
ROOT
ATOM      1  N1  IND d   1      -0.824   2.059  -1.078  0.00  0.00    -0.196 N 
ATOM      2  C2  IND d   1      -1.070   2.886  -0.017  0.00  0.00     0.054 A 
ATOM      3  C3  IND d   1      -2.362   2.785   0.367  0.00  0.00    -0.031 A 
ATOM      4  C4  IND d   1      -4.223   1.252  -0.536  0.00  0.00     0.051 A 
ATOM      5  C5  IND d   1      -4.487   0.347  -1.525  0.00  0.00    -0.031 A 
ATOM      6  C6  IND d   1      -3.524  -0.044  -2.432  0.00  0.00     0.015 A 
ATOM      7  C7  IND d   1      -2.251   0.450  -2.377  0.00  0.00    -0.016 A 
ATOM      8  C8  IND d   1      -1.981   1.375  -1.378  0.00  0.00    -0.047 A 
ATOM      9  C9  IND d   1      -2.966   1.807  -0.481  0.00  0.00    -0.096 A 
ATOM     10  HN1 IND d   1      -0.072   1.980  -1.488  0.00  0.00     0.298 HD
ENDROOT
TORSDOF 0
ENDMDL
