MODEL 1
REMARK minimizedAffinity 2.43362284
REMARK minimizedRMSD -1
REMARK  0 active torsions:
REMARK  status: ('A' for Active; 'I' for Inactive)
ROOT
ATOM      1  N1  IND d   1      -0.369   1.254  -0.616  0.00  0.00    -0.196 N 
ATOM      2  C2  IND d   1      -1.619   1.788  -0.473  0.00  0.00     0.054 A 
ATOM      3  C3  IND d   1      -1.981   1.793   0.830  0.00  0.00    -0.031 A 
ATOM      4  C4  IND d   1      -0.640   1.068   2.904  0.00  0.00     0.051 A 
ATOM      5  C5  IND d   1       0.538   0.481   3.274  0.00  0.00    -0.031 A 
ATOM      6  C6  IND d   1       1.494   0.117   2.348  0.00  0.00     0.015 A 
ATOM      7  C7  IND d   1       1.312   0.337   1.012  0.00  0.00    -0.016 A 
ATOM      8  C8  IND d   1       0.114   0.927   0.632  0.00  0.00    -0.047 A 
ATOM      9  C9  IND d   1      -0.877   1.260   1.563  0.00  0.00    -0.096 A 
ATOM     10  HN1 IND d   1       0.046   1.141  -1.361  0.00  0.00     0.298 HD
ENDROOT
TORSDOF 0
ENDMDL
