MODEL 1
REMARK minimizedAffinity 7.7713666
REMARK minimizedRMSD -1
REMARK  0 active torsions:
REMARK  status: ('A' for Active; 'I' for Inactive)
ROOT
ATOM      1  N1  IND d   1      -0.921   0.894   3.631  0.00  0.00    -0.196 N 
ATOM      2  C2  IND d   1       0.266   0.446   4.141  0.00  0.00     0.054 A 
ATOM      3  C3  IND d   1       1.203   0.387   3.168  0.00  0.00    -0.031 A 
ATOM      4  C4  IND d   1       1.036   1.074   0.693  0.00  0.00     0.051 A 
ATOM      5  C5  IND d   1       0.143   1.508  -0.247  0.00  0.00    -0.031 A 
ATOM      6  C6  IND d   1      -1.176   1.766   0.065  0.00  0.00     0.015 A 
ATOM      7  C7  IND d   1      -1.651   1.612   1.336  0.00  0.00    -0.016 A 
ATOM      8  C8  IND d   1      -0.749   1.165   2.292  0.00  0.00    -0.047 A 
ATOM      9  C9  IND d   1       0.581   0.860   1.972  0.00  0.00    -0.096 A 
ATOM     10  HN1 IND d   1      -1.652   0.990   4.074  0.00  0.00     0.298 HD
ENDROOT
TORSDOF 0
ENDMDL
