MODEL 1
REMARK minimizedAffinity 2.73536825
REMARK minimizedRMSD -1
REMARK  0 active torsions:
REMARK  status: ('A' for Active; 'I' for Inactive)
ROOT
ATOM      1  N1  IND d   1       0.007   1.503  -0.439  0.00  0.00    -0.196 N 
ATOM      2  C2  IND d   1      -1.342   1.476  -0.660  0.00  0.00     0.054 A 
ATOM      3  C3  IND d   1      -2.008   1.360   0.511  0.00  0.00    -0.031 A 
ATOM      4  C4  IND d   1      -1.091   1.302   2.915  0.00  0.00     0.051 A 
ATOM      5  C5  IND d   1       0.078   1.262   3.621  0.00  0.00    -0.031 A 
ATOM      6  C6  IND d   1       1.309   1.304   2.998  0.00  0.00     0.015 A 
ATOM      7  C7  IND d   1       1.415   1.400   1.639  0.00  0.00    -0.016 A 
ATOM      8  C8  IND d   1       0.230   1.433   0.918  0.00  0.00    -0.047 A 
ATOM      9  C9  IND d   1      -1.021   1.348   1.543  0.00  0.00    -0.096 A 
ATOM     10  HN1 IND d   1       0.613   1.555  -1.046  0.00  0.00     0.298 HD
ENDROOT
TORSDOF 0
ENDMDL
