MODEL 1
REMARK minimizedAffinity -4.02710152
REMARK minimizedRMSD -1
REMARK  1 active torsions:
REMARK  status: ('A' for Active; 'I' for Inactive)
REMARK    1  A    between atoms: N_2  and  C1_3 
ROOT
ATOM      1  C1  UNL d   1      -0.092  -0.113  -0.058  0.00  0.00     0.143 A 
ATOM      2  C2  UNL d   1       0.286  -1.147  -0.921  0.00  0.00    -0.057 A 
ATOM      3  C3  UNL d   1       1.438  -1.907  -0.683  0.00  0.00     0.033 A 
ATOM      4  C4  UNL d   1       2.249  -1.626   0.411  0.00  0.00    -0.042 A 
ATOM      5  C5  UNL d   1       1.906  -0.587   1.269  0.00  0.00     0.033 A 
ATOM      6  C6  UNL d   1       0.751   0.164   1.029  0.00  0.00    -0.057 A 
ENDROOT
BRANCH   1   7
ATOM      7  N   UNL d   1      -1.171   0.742  -0.295  0.00  0.00    -0.732 N 
ATOM      8  C   UNL d   1      -2.386   0.629   0.484  0.00  0.00     0.284 C 
ATOM      9  H3  UNL d   1      -0.877   1.700  -0.469  0.00  0.00     0.395 HD
ENDBRANCH   1   7
TORSDOF 1
ENDMDL
