MODEL 1
REMARK minimizedAffinity -5.43426847
REMARK minimizedRMSD -1
REMARK  1 active torsions:
REMARK  status: ('A' for Active; 'I' for Inactive)
REMARK    1  A    between atoms: N_2  and  C1_3 
ROOT
ATOM      1  C1  UNL d   1       0.792   0.378   0.018  0.00  0.00     0.143 A 
ATOM      2  C2  UNL d   1       0.951  -0.979  -0.285  0.00  0.00    -0.057 A 
ATOM      3  C3  UNL d   1       2.101  -1.679   0.099  0.00  0.00     0.033 A 
ATOM      4  C4  UNL d   1       3.129  -1.025   0.770  0.00  0.00    -0.042 A 
ATOM      5  C5  UNL d   1       3.004   0.329   1.060  0.00  0.00     0.033 A 
ATOM      6  C6  UNL d   1       1.850   1.021   0.680  0.00  0.00    -0.057 A 
ENDROOT
BRANCH   1   7
ATOM      7  N   UNL d   1      -0.283   1.153  -0.423  0.00  0.00    -0.732 N 
ATOM      8  C   UNL d   1      -1.637   0.827  -0.029  0.00  0.00     0.284 C 
ATOM      9  H3  UNL d   1      -0.075   2.149  -0.410  0.00  0.00     0.395 HD
ENDBRANCH   1   7
TORSDOF 1
ENDMDL
