MODEL 1
REMARK minimizedAffinity 2.7436018
REMARK minimizedRMSD -1
REMARK  1 active torsions:
REMARK  status: ('A' for Active; 'I' for Inactive)
REMARK    1  A    between atoms: N_2  and  C1_3 
ROOT
ATOM      1  C1  UNL d   1      -0.555   0.739  -0.075  0.00  0.00     0.143 A 
ATOM      2  C2  UNL d   1      -0.099   2.060  -0.129  0.00  0.00    -0.057 A 
ATOM      3  C3  UNL d   1       1.237   2.378   0.143  0.00  0.00     0.033 A 
ATOM      4  C4  UNL d   1       2.137   1.380   0.503  0.00  0.00    -0.042 A 
ATOM      5  C5  UNL d   1       1.699   0.063   0.587  0.00  0.00     0.033 A 
ATOM      6  C6  UNL d   1       0.365  -0.249   0.308  0.00  0.00    -0.057 A 
ENDROOT
BRANCH   1   7
ATOM      7  N   UNL d   1      -1.893   0.371  -0.238  0.00  0.00    -0.732 N 
ATOM      8  C   UNL d   1      -2.923   0.942   0.603  0.00  0.00     0.284 C 
ATOM      9  H3  UNL d   1      -2.156   0.286  -1.217  0.00  0.00     0.395 HD
ENDBRANCH   1   7
TORSDOF 1
ENDMDL
