MODEL 1
REMARK minimizedAffinity -4.68789768
REMARK minimizedRMSD -1
REMARK  1 active torsions:
REMARK  status: ('A' for Active; 'I' for Inactive)
REMARK    1  A    between atoms: N_2  and  C1_3 
ROOT
ATOM      1  C1  UNL d   1      -0.300  -0.375  -0.172  0.00  0.00     0.143 A 
ATOM      2  C2  UNL d   1      -0.068  -1.698  -0.563  0.00  0.00    -0.057 A 
ATOM      3  C3  UNL d   1       1.161  -2.323  -0.317  0.00  0.00     0.033 A 
ATOM      4  C4  UNL d   1       2.192  -1.623   0.301  0.00  0.00    -0.042 A 
ATOM      5  C5  UNL d   1       1.992  -0.299   0.676  0.00  0.00     0.033 A 
ATOM      6  C6  UNL d   1       0.760   0.317   0.433  0.00  0.00    -0.057 A 
ENDROOT
BRANCH   1   7
ATOM      7  N   UNL d   1      -1.466   0.332  -0.476  0.00  0.00    -0.732 N 
ATOM      8  C   UNL d   1      -2.450   0.608   0.548  0.00  0.00     0.284 C 
ATOM      9  H3  UNL d   1      -1.293   1.112  -1.107  0.00  0.00     0.395 HD
ENDBRANCH   1   7
TORSDOF 1
ENDMDL
