MODEL 1
REMARK minimizedAffinity -2.80730128
REMARK minimizedRMSD -1
REMARK  1 active torsions:
REMARK  status: ('A' for Active; 'I' for Inactive)
REMARK    1  A    between atoms: N_2  and  C1_3 
ROOT
ATOM      1  C1  UNL d   1       1.532   0.889  -0.430  0.00  0.00     0.143 A 
ATOM      2  C2  UNL d   1       0.393   0.084  -0.544  0.00  0.00    -0.057 A 
ATOM      3  C3  UNL d   1       0.491  -1.312  -0.584  0.00  0.00     0.033 A 
ATOM      4  C4  UNL d   1       1.737  -1.929  -0.539  0.00  0.00    -0.042 A 
ATOM      5  C5  UNL d   1       2.884  -1.148  -0.451  0.00  0.00     0.033 A 
ATOM      6  C6  UNL d   1       2.779   0.245  -0.404  0.00  0.00    -0.057 A 
ENDROOT
BRANCH   1   7
ATOM      7  N   UNL d   1       1.507   2.285  -0.484  0.00  0.00    -0.732 N 
ATOM      8  C   UNL d   1       2.656   3.059  -0.066  0.00  0.00     0.284 C 
ATOM      9  H3  UNL d   1       1.055   2.632  -1.327  0.00  0.00     0.395 HD
ENDBRANCH   1   7
TORSDOF 1
ENDMDL
