MODEL 1
REMARK minimizedAffinity -5.41677427
REMARK minimizedRMSD -1
REMARK  1 active torsions:
REMARK  status: ('A' for Active; 'I' for Inactive)
REMARK    1  A    between atoms: N_2  and  C1_3 
ROOT
ATOM      1  C1  UNL d   1       1.097   0.012   0.366  0.00  0.00     0.143 A 
ATOM      2  C2  UNL d   1       1.482   1.350   0.227  0.00  0.00    -0.057 A 
ATOM      3  C3  UNL d   1       2.832   1.714   0.157  0.00  0.00     0.033 A 
ATOM      4  C4  UNL d   1       3.825   0.745   0.254  0.00  0.00    -0.042 A 
ATOM      5  C5  UNL d   1       3.467  -0.588   0.418  0.00  0.00     0.033 A 
ATOM      6  C6  UNL d   1       2.117  -0.946   0.480  0.00  0.00    -0.057 A 
ENDROOT
BRANCH   1   7
ATOM      7  N   UNL d   1      -0.225  -0.403   0.540  0.00  0.00    -0.732 N 
ATOM      8  C   UNL d   1      -1.296   0.209  -0.217  0.00  0.00     0.284 C 
ATOM      9  H3  UNL d   1      -0.307  -1.413   0.632  0.00  0.00     0.395 HD
ENDBRANCH   1   7
TORSDOF 1
ENDMDL
