MODEL 1
REMARK minimizedAffinity 6.44189978
REMARK minimizedRMSD -1
REMARK  0 active torsions:
REMARK  status: ('A' for Active; 'I' for Inactive)
ROOT
ATOM      1  C   UNL d   1       4.573  -0.346  -0.744  0.00  0.00     0.077 C 
ATOM      2  C1  UNL d   1       3.197  -0.925  -0.597  0.00  0.00    -0.074 A 
ATOM      3  C2  UNL d   1       3.012  -2.295  -0.388  0.00  0.00    -0.005 A 
ATOM      4  C3  UNL d   1       1.727  -2.817  -0.243  0.00  0.00     0.006 A 
ATOM      5  C4  UNL d   1       0.616  -1.976  -0.307  0.00  0.00    -0.005 A 
ATOM      6  C5  UNL d   1       0.781  -0.603  -0.515  0.00  0.00    -0.074 A 
ATOM      7  C6  UNL d   1      -0.403   0.316  -0.576  0.00  0.00     0.077 C 
ATOM      8  C7  UNL d   1       2.076  -0.085  -0.652  0.00  0.00    -0.001 A 
ENDROOT
TORSDOF 0
ENDMDL
