MODEL 1
REMARK minimizedAffinity -3.26536894
REMARK minimizedRMSD -1
REMARK  0 active torsions:
REMARK  status: ('A' for Active; 'I' for Inactive)
ROOT
ATOM      1  C   UNL d   1      -0.372   1.145   0.367  0.00  0.00     0.077 C 
ATOM      2  C1  UNL d   1       0.714   0.158   0.055  0.00  0.00    -0.074 A 
ATOM      3  C2  UNL d   1       0.439  -1.210  -0.030  0.00  0.00    -0.005 A 
ATOM      4  C3  UNL d   1       1.457  -2.115  -0.331  0.00  0.00     0.006 A 
ATOM      5  C4  UNL d   1       2.759  -1.660  -0.550  0.00  0.00    -0.005 A 
ATOM      6  C5  UNL d   1       3.052  -0.295  -0.471  0.00  0.00    -0.074 A 
ATOM      7  C6  UNL d   1       4.443   0.211  -0.713  0.00  0.00     0.077 C 
ATOM      8  C7  UNL d   1       2.022   0.608  -0.174  0.00  0.00    -0.001 A 
ENDROOT
TORSDOF 0
ENDMDL
