MODEL 1
REMARK minimizedAffinity -0.102022253
REMARK minimizedRMSD -1
REMARK  0 active torsions:
REMARK  status: ('A' for Active; 'I' for Inactive)
ROOT
ATOM      1  C   UNL d   1       4.495   0.054  -1.559  0.00  0.00     0.077 C 
ATOM      2  C1  UNL d   1       3.329  -0.444  -0.758  0.00  0.00    -0.074 A 
ATOM      3  C2  UNL d   1       2.865  -1.756  -0.904  0.00  0.00    -0.005 A 
ATOM      4  C3  UNL d   1       1.785  -2.208  -0.146  0.00  0.00     0.006 A 
ATOM      5  C4  UNL d   1       1.159  -1.356   0.764  0.00  0.00    -0.005 A 
ATOM      6  C5  UNL d   1       1.610  -0.041   0.924  0.00  0.00    -0.074 A 
ATOM      7  C6  UNL d   1       0.955   0.885   1.905  0.00  0.00     0.077 C 
ATOM      8  C7  UNL d   1       2.700   0.404   0.164  0.00  0.00    -0.001 A 
ENDROOT
TORSDOF 0
ENDMDL
