MODEL 1
REMARK minimizedAffinity 1.11972535
REMARK minimizedRMSD -1
REMARK  0 active torsions:
REMARK  status: ('A' for Active; 'I' for Inactive)
ROOT
ATOM      1  C   UNL d   1       2.740  -2.191  -0.386  0.00  0.00     0.077 C 
ATOM      2  C1  UNL d   1       1.513  -1.331  -0.453  0.00  0.00    -0.074 A 
ATOM      3  C2  UNL d   1       0.369  -1.764  -1.131  0.00  0.00    -0.005 A 
ATOM      4  C3  UNL d   1      -0.768  -0.957  -1.177  0.00  0.00     0.006 A 
ATOM      5  C4  UNL d   1      -0.773   0.287  -0.547  0.00  0.00    -0.005 A 
ATOM      6  C5  UNL d   1       0.361   0.736   0.137  0.00  0.00    -0.074 A 
ATOM      7  C6  UNL d   1       0.369   2.067   0.829  0.00  0.00     0.077 C 
ATOM      8  C7  UNL d   1       1.498  -0.083   0.185  0.00  0.00    -0.001 A 
ENDROOT
TORSDOF 0
ENDMDL
