MODEL 1
REMARK minimizedAffinity -4.68099356
REMARK minimizedRMSD -1
REMARK  0 active torsions:
REMARK  status: ('A' for Active; 'I' for Inactive)
ROOT
ATOM      1  C   UNL d   1      -0.719  -2.820  -1.554  0.00  0.00     0.077 C 
ATOM      2  C1  UNL d   1       0.174  -1.826  -0.873  0.00  0.00    -0.074 A 
ATOM      3  C2  UNL d   1       1.444  -2.193  -0.419  0.00  0.00    -0.005 A 
ATOM      4  C3  UNL d   1       2.267  -1.255   0.204  0.00  0.00     0.006 A 
ATOM      5  C4  UNL d   1       1.829   0.058   0.378  0.00  0.00    -0.005 A 
ATOM      6  C5  UNL d   1       0.562   0.444  -0.071  0.00  0.00    -0.074 A 
ATOM      7  C6  UNL d   1       0.079   1.854   0.100  0.00  0.00     0.077 C 
ATOM      8  C7  UNL d   1      -0.257  -0.502  -0.702  0.00  0.00    -0.001 A 
ENDROOT
TORSDOF 0
ENDMDL
