MODEL 1
REMARK minimizedAffinity 7.79012299
REMARK minimizedRMSD -1
REMARK  0 active torsions:
REMARK  status: ('A' for Active; 'I' for Inactive)
ROOT
ATOM      1  C   UNL d   1       4.837  -0.048  -1.714  0.00  0.00     0.077 C 
ATOM      2  C1  UNL d   1       3.912  -1.225  -1.811  0.00  0.00    -0.074 A 
ATOM      3  C2  UNL d   1       4.177  -2.277  -2.695  0.00  0.00    -0.005 A 
ATOM      4  C3  UNL d   1       3.313  -3.369  -2.767  0.00  0.00     0.006 A 
ATOM      5  C4  UNL d   1       2.177  -3.421  -1.958  0.00  0.00    -0.005 A 
ATOM      6  C5  UNL d   1       1.897  -2.380  -1.067  0.00  0.00    -0.074 A 
ATOM      7  C6  UNL d   1       0.686  -2.425  -0.183  0.00  0.00     0.077 C 
ATOM      8  C7  UNL d   1       2.774  -1.289  -0.996  0.00  0.00    -0.001 A 
ENDROOT
TORSDOF 0
ENDMDL
