MODEL 1
REMARK minimizedAffinity 7.50934458
REMARK minimizedRMSD -1
REMARK  0 active torsions:
REMARK  status: ('A' for Active; 'I' for Inactive)
ROOT
ATOM      1  C   UNL d   1       5.279   2.945   1.603  0.00  0.00     0.077 C 
ATOM      2  C1  UNL d   1       4.833   3.092   3.027  0.00  0.00    -0.074 A 
ATOM      3  C2  UNL d   1       3.905   2.207   3.585  0.00  0.00    -0.005 A 
ATOM      4  C3  UNL d   1       3.507   2.350   4.914  0.00  0.00     0.006 A 
ATOM      5  C4  UNL d   1       4.031   3.379   5.697  0.00  0.00    -0.005 A 
ATOM      6  C5  UNL d   1       4.960   4.274   5.157  0.00  0.00    -0.074 A 
ATOM      7  C6  UNL d   1       5.541   5.379   5.988  0.00  0.00     0.077 C 
ATOM      8  C7  UNL d   1       5.361   4.119   3.823  0.00  0.00    -0.001 A 
ENDROOT
TORSDOF 0
ENDMDL
