MODEL 1
REMARK minimizedAffinity 5.78807306
REMARK minimizedRMSD -1
REMARK  0 active torsions:
REMARK  status: ('A' for Active; 'I' for Inactive)
ROOT
ATOM      1  C   UNL d   1       0.840   0.886   0.293  0.00  0.00     0.077 C 
ATOM      2  C1  UNL d   1       1.549  -0.264  -0.360  0.00  0.00    -0.074 A 
ATOM      3  C2  UNL d   1       0.983  -1.542  -0.375  0.00  0.00    -0.005 A 
ATOM      4  C3  UNL d   1       1.649  -2.600  -0.994  0.00  0.00     0.006 A 
ATOM      5  C4  UNL d   1       2.887  -2.389  -1.604  0.00  0.00    -0.005 A 
ATOM      6  C5  UNL d   1       3.468  -1.117  -1.600  0.00  0.00    -0.074 A 
ATOM      7  C6  UNL d   1       4.792  -0.871  -2.259  0.00  0.00     0.077 C 
ATOM      8  C7  UNL d   1       2.789  -0.058  -0.982  0.00  0.00    -0.001 A 
ENDROOT
TORSDOF 0
ENDMDL
