MODEL 1
REMARK minimizedAffinity 10.5144424
REMARK minimizedRMSD -1
REMARK  0 active torsions:
REMARK  status: ('A' for Active; 'I' for Inactive)
ROOT
ATOM      1  C   UNL d   1      -2.629   0.762  -5.097  0.00  0.00     0.077 C 
ATOM      2  C1  UNL d   1      -3.806   1.007  -4.200  0.00  0.00    -0.074 A 
ATOM      3  C2  UNL d   1      -4.906   1.747  -4.645  0.00  0.00    -0.005 A 
ATOM      4  C3  UNL d   1      -5.998   1.959  -3.803  0.00  0.00     0.006 A 
ATOM      5  C4  UNL d   1      -5.999   1.435  -2.509  0.00  0.00    -0.005 A 
ATOM      6  C5  UNL d   1      -4.908   0.692  -2.047  0.00  0.00    -0.074 A 
ATOM      7  C6  UNL d   1      -4.898   0.114  -0.664  0.00  0.00     0.077 C 
ATOM      8  C7  UNL d   1      -3.818   0.477  -2.902  0.00  0.00    -0.001 A 
ENDROOT
TORSDOF 0
ENDMDL
