MODEL 1
REMARK minimizedAffinity 10.1915836
REMARK minimizedRMSD -1
REMARK  0 active torsions:
REMARK  status: ('A' for Active; 'I' for Inactive)
ROOT
ATOM      1  C   UNL d   1      -2.271  -5.865  -4.196  0.00  0.00     0.077 C 
ATOM      2  C1  UNL d   1      -1.613  -5.265  -2.989  0.00  0.00    -0.074 A 
ATOM      3  C2  UNL d   1      -1.478  -5.999  -1.805  0.00  0.00    -0.005 A 
ATOM      4  C3  UNL d   1      -0.856  -5.431  -0.694  0.00  0.00     0.006 A 
ATOM      5  C4  UNL d   1      -0.362  -4.127  -0.754  0.00  0.00    -0.005 A 
ATOM      6  C5  UNL d   1      -0.487  -3.379  -1.929  0.00  0.00    -0.074 A 
ATOM      7  C6  UNL d   1       0.046  -1.980  -2.013  0.00  0.00     0.077 C 
ATOM      8  C7  UNL d   1      -1.108  -3.959  -3.044  0.00  0.00    -0.001 A 
ENDROOT
TORSDOF 0
ENDMDL
