MODEL 1
REMARK minimizedAffinity -4.46952438
REMARK minimizedRMSD -1
REMARK  0 active torsions:
REMARK  status: ('A' for Active; 'I' for Inactive)
ROOT
ATOM      1  C   UNL d   1       2.427  -1.060   1.290  0.00  0.00     0.020 A 
ATOM      2  C1  UNL d   1       1.832  -1.058   2.551  0.00  0.00     0.020 A 
ATOM      3  C2  UNL d   1       0.478  -0.744   2.684  0.00  0.00     0.034 A 
ATOM      4  C3  UNL d   1      -0.286  -0.430   1.554  0.00  0.00     0.017 A 
ATOM      5  C4  UNL d   1       0.312  -0.432   0.288  0.00  0.00     0.017 A 
ATOM      6  C5  UNL d   1       1.668  -0.747   0.161  0.00  0.00     0.034 A 
ATOM      7 Cl   UNL d   1      -0.566  -0.055  -1.152  0.00  0.00    -0.070 Cl
ATOM      8 Cl1  UNL d   1      -1.955  -0.052   1.792  0.00  0.00    -0.070 Cl
ENDROOT
TORSDOF 0
ENDMDL
