MODEL 1
REMARK minimizedAffinity -4.40745878
REMARK minimizedRMSD -1
REMARK  0 active torsions:
REMARK  status: ('A' for Active; 'I' for Inactive)
ROOT
ATOM      1  C   UNL d   1      -1.841   0.172   1.090  0.00  0.00     0.020 A 
ATOM      2  C1  UNL d   1      -1.514   0.109  -0.263  0.00  0.00     0.020 A 
ATOM      3  C2  UNL d   1      -0.280  -0.410  -0.660  0.00  0.00     0.034 A 
ATOM      4  C3  UNL d   1       0.632  -0.868   0.298  0.00  0.00     0.017 A 
ATOM      5  C4  UNL d   1       0.303  -0.804   1.657  0.00  0.00     0.017 A 
ATOM      6  C5  UNL d   1      -0.935  -0.284   2.049  0.00  0.00     0.034 A 
ATOM      7 Cl   UNL d   1       1.375  -1.350   2.897  0.00  0.00    -0.070 Cl
ATOM      8 Cl1  UNL d   1       2.140  -1.498  -0.263  0.00  0.00    -0.070 Cl
ENDROOT
TORSDOF 0
ENDMDL
