MODEL 1
REMARK minimizedAffinity -3.17240167
REMARK minimizedRMSD -1
REMARK  0 active torsions:
REMARK  status: ('A' for Active; 'I' for Inactive)
ROOT
ATOM      1  C   UNL d   1      -1.231   0.142   0.801  0.00  0.00     0.020 A 
ATOM      2  C1  UNL d   1      -0.738   0.021  -0.497  0.00  0.00     0.020 A 
ATOM      3  C2  UNL d   1       0.548  -0.479  -0.711  0.00  0.00     0.034 A 
ATOM      4  C3  UNL d   1       1.346  -0.860   0.374  0.00  0.00     0.017 A 
ATOM      5  C4  UNL d   1       0.849  -0.738   1.677  0.00  0.00     0.017 A 
ATOM      6  C5  UNL d   1      -0.439  -0.237   1.886  0.00  0.00     0.034 A 
ATOM      7 Cl   UNL d   1       1.774  -1.187   3.067  0.00  0.00    -0.070 Cl
ATOM      8 Cl1  UNL d   1       2.926  -1.470   0.036  0.00  0.00    -0.070 Cl
ENDROOT
TORSDOF 0
ENDMDL
