MODEL 1
REMARK minimizedAffinity -0.00698028412
REMARK minimizedRMSD -1
REMARK  0 active torsions:
REMARK  status: ('A' for Active; 'I' for Inactive)
ROOT
ATOM      1  C   UNL d   1       2.595  -0.731   2.396  0.00  0.00     0.020 A 
ATOM      2  C1  UNL d   1       1.528  -0.628   3.288  0.00  0.00     0.020 A 
ATOM      3  C2  UNL d   1       0.216  -0.649   2.813  0.00  0.00     0.034 A 
ATOM      4  C3  UNL d   1      -0.034  -0.773   1.441  0.00  0.00     0.017 A 
ATOM      5  C4  UNL d   1       1.037  -0.876   0.546  0.00  0.00     0.017 A 
ATOM      6  C5  UNL d   1       2.350  -0.855   1.028  0.00  0.00     0.034 A 
ATOM      7 Cl   UNL d   1       0.808  -1.033  -1.160  0.00  0.00    -0.070 Cl
ATOM      8 Cl1  UNL d   1      -1.682  -0.792   0.923  0.00  0.00    -0.070 Cl
ENDROOT
TORSDOF 0
ENDMDL
