MODEL 1
REMARK minimizedAffinity 3.60433006
REMARK minimizedRMSD -1
REMARK  0 active torsions:
REMARK  status: ('A' for Active; 'I' for Inactive)
ROOT
ATOM      1  C   UNL d   1       2.707  -1.398   2.849  0.00  0.00     0.020 A 
ATOM      2  C1  UNL d   1       2.423  -0.034   2.904  0.00  0.00     0.020 A 
ATOM      3  C2  UNL d   1       1.097   0.404   2.906  0.00  0.00     0.034 A 
ATOM      4  C3  UNL d   1       0.050  -0.523   2.853  0.00  0.00     0.017 A 
ATOM      5  C4  UNL d   1       0.336  -1.892   2.797  0.00  0.00     0.017 A 
ATOM      6  C5  UNL d   1       1.665  -2.325   2.795  0.00  0.00     0.034 A 
ATOM      7 Cl   UNL d   1      -0.903  -3.095   2.729  0.00  0.00    -0.070 Cl
ATOM      8 Cl1  UNL d   1      -1.566   0.089   2.859  0.00  0.00    -0.070 Cl
ENDROOT
TORSDOF 0
ENDMDL
