MODEL 1
REMARK minimizedAffinity -1.575822
REMARK minimizedRMSD -1
REMARK  0 active torsions:
REMARK  status: ('A' for Active; 'I' for Inactive)
ROOT
ATOM      1  C   UNL d   1       1.287  -0.366   3.615  0.00  0.00     0.020 A 
ATOM      2  C1  UNL d   1       1.714  -1.168   2.557  0.00  0.00     0.020 A 
ATOM      3  C2  UNL d   1       0.859  -1.419   1.482  0.00  0.00     0.034 A 
ATOM      4  C3  UNL d   1      -0.427  -0.867   1.461  0.00  0.00     0.017 A 
ATOM      5  C4  UNL d   1      -0.855  -0.062   2.523  0.00  0.00     0.017 A 
ATOM      6  C5  UNL d   1       0.005   0.186   3.597  0.00  0.00     0.034 A 
ATOM      7 Cl   UNL d   1      -2.427   0.654   2.568  0.00  0.00    -0.070 Cl
ATOM      8 Cl1  UNL d   1      -1.430  -1.218   0.099  0.00  0.00    -0.070 Cl
ENDROOT
TORSDOF 0
ENDMDL
