MODEL 1
REMARK minimizedAffinity 6.23440409
REMARK minimizedRMSD -1
REMARK  0 active torsions:
REMARK  status: ('A' for Active; 'I' for Inactive)
ROOT
ATOM      1  C   UNL d   1       0.339  -0.419   2.874  0.00  0.00     0.020 A 
ATOM      2  C1  UNL d   1       1.364  -0.837   2.027  0.00  0.00     0.020 A 
ATOM      3  C2  UNL d   1       1.515  -2.193   1.730  0.00  0.00     0.034 A 
ATOM      4  C3  UNL d   1       0.640  -3.136   2.280  0.00  0.00     0.017 A 
ATOM      5  C4  UNL d   1      -0.389  -2.715   3.130  0.00  0.00     0.017 A 
ATOM      6  C5  UNL d   1      -0.536  -1.356   3.424  0.00  0.00     0.034 A 
ATOM      7 Cl   UNL d   1      -1.509  -3.820   3.847  0.00  0.00    -0.070 Cl
ATOM      8 Cl1  UNL d   1       0.886  -4.796   1.870  0.00  0.00    -0.070 Cl
ENDROOT
TORSDOF 0
ENDMDL
