MODEL 1
REMARK minimizedAffinity -2.92659163
REMARK minimizedRMSD -1
REMARK  1 active torsions:
REMARK  status: ('A' for Active; 'I' for Inactive)
REMARK    1  A    between atoms: C3_4  and  O_7 
ROOT
ATOM      1  C   UNL d   1       0.237  -3.741  -2.641  0.00  0.00    -0.033 A 
ATOM      2  C1  UNL d   1      -0.085  -2.545  -3.286  0.00  0.00     0.039 A 
ATOM      3  C2  UNL d   1       0.189  -1.323  -2.669  0.00  0.00    -0.080 A 
ATOM      4  C3  UNL d   1       0.784  -1.310  -1.411  0.00  0.00     0.150 A 
ATOM      5  C4  UNL d   1       1.110  -2.498  -0.765  0.00  0.00    -0.007 A 
ATOM      6  C5  UNL d   1       0.836  -3.718  -1.382  0.00  0.00     0.039 A 
ENDROOT
BRANCH   4   7
ATOM      7  O   UNL d   1       1.065  -0.142  -0.767  0.00  0.00    -0.526 OA
ATOM      8  H5  UNL d   1       0.759   0.596  -1.321  0.00  0.00     0.418 HD
ENDBRANCH   4   7
TORSDOF 1
ENDMDL
