MODEL 1
REMARK minimizedAffinity -3.44072437
REMARK minimizedRMSD -1
REMARK  1 active torsions:
REMARK  status: ('A' for Active; 'I' for Inactive)
REMARK    1  A    between atoms: C3_4  and  O_7 
ROOT
ATOM      1  C   UNL d   1       1.122   0.777  -0.921  0.00  0.00    -0.033 A 
ATOM      2  C1  UNL d   1       0.807  -0.284  -0.070  0.00  0.00     0.039 A 
ATOM      3  C2  UNL d   1      -0.060  -0.083   1.006  0.00  0.00    -0.080 A 
ATOM      4  C3  UNL d   1      -0.605   1.180   1.219  0.00  0.00     0.150 A 
ATOM      5  C4  UNL d   1      -0.298   2.240   0.372  0.00  0.00    -0.007 A 
ATOM      6  C5  UNL d   1       0.568   2.039  -0.701  0.00  0.00     0.039 A 
ENDROOT
BRANCH   4   7
ATOM      7  O   UNL d   1      -1.452   1.425   2.259  0.00  0.00    -0.526 OA
ATOM      8  H5  UNL d   1      -1.550   0.608   2.775  0.00  0.00     0.418 HD
ENDBRANCH   4   7
TORSDOF 1
ENDMDL
