MODEL 1
REMARK minimizedAffinity -2.46563077
REMARK minimizedRMSD -1
REMARK  1 active torsions:
REMARK  status: ('A' for Active; 'I' for Inactive)
REMARK    1  A    between atoms: C3_4  and  O_7 
ROOT
ATOM      1  C   UNL d   1      -0.128  -0.303   2.234  0.00  0.00    -0.033 A 
ATOM      2  C1  UNL d   1       0.850  -0.636   1.295  0.00  0.00     0.039 A 
ATOM      3  C2  UNL d   1       1.127   0.229   0.235  0.00  0.00    -0.080 A 
ATOM      4  C3  UNL d   1       0.420   1.424   0.126  0.00  0.00     0.150 A 
ATOM      5  C4  UNL d   1      -0.553   1.764   1.060  0.00  0.00    -0.007 A 
ATOM      6  C5  UNL d   1      -0.828   0.897   2.118  0.00  0.00     0.039 A 
ENDROOT
BRANCH   4   7
ATOM      7  O   UNL d   1       0.651   2.298  -0.894  0.00  0.00    -0.526 OA
ATOM      8  H5  UNL d   1       1.328   1.918  -1.477  0.00  0.00     0.418 HD
ENDBRANCH   4   7
TORSDOF 1
ENDMDL
