MODEL 1
REMARK minimizedAffinity -3.59499955
REMARK minimizedRMSD -1
REMARK  1 active torsions:
REMARK  status: ('A' for Active; 'I' for Inactive)
REMARK    1  A    between atoms: C3_4  and  O_7 
ROOT
ATOM      1  C   UNL d   1      -0.346  -0.319   1.592  0.00  0.00    -0.033 A 
ATOM      2  C1  UNL d   1       0.376  -0.507   0.411  0.00  0.00     0.039 A 
ATOM      3  C2  UNL d   1       0.699   0.587  -0.393  0.00  0.00    -0.080 A 
ATOM      4  C3  UNL d   1       0.297   1.863  -0.006  0.00  0.00     0.150 A 
ATOM      5  C4  UNL d   1      -0.418   2.058   1.171  0.00  0.00    -0.007 A 
ATOM      6  C5  UNL d   1      -0.741   0.964   1.972  0.00  0.00     0.039 A 
ENDROOT
BRANCH   4   7
ATOM      7  O   UNL d   1       0.585   2.961  -0.761  0.00  0.00    -0.526 OA
ATOM      8  H5  UNL d   1       1.058   2.670  -1.558  0.00  0.00     0.418 HD
ENDBRANCH   4   7
TORSDOF 1
ENDMDL
