MODEL 1
REMARK minimizedAffinity -1.84327579
REMARK minimizedRMSD -1
REMARK  1 active torsions:
REMARK  status: ('A' for Active; 'I' for Inactive)
REMARK    1  A    between atoms: C3_4  and  O_7 
ROOT
ATOM      1  C   UNL d   1       1.144  -2.217  -2.524  0.00  0.00    -0.033 A 
ATOM      2  C1  UNL d   1       1.810  -1.035  -2.192  0.00  0.00     0.039 A 
ATOM      3  C2  UNL d   1       1.728  -0.527  -0.894  0.00  0.00    -0.080 A 
ATOM      4  C3  UNL d   1       0.980  -1.209   0.061  0.00  0.00     0.150 A 
ATOM      5  C4  UNL d   1       0.318  -2.389  -0.262  0.00  0.00    -0.007 A 
ATOM      6  C5  UNL d   1       0.399  -2.895  -1.559  0.00  0.00     0.039 A 
ENDROOT
BRANCH   4   7
ATOM      7  O   UNL d   1       0.867  -0.749   1.339  0.00  0.00    -0.526 OA
ATOM      8  H5  UNL d   1       1.353   0.089   1.409  0.00  0.00     0.418 HD
ENDBRANCH   4   7
TORSDOF 1
ENDMDL
