MODEL 1
REMARK minimizedAffinity -2.6597116
REMARK minimizedRMSD -1
REMARK  1 active torsions:
REMARK  status: ('A' for Active; 'I' for Inactive)
REMARK    1  A    between atoms: C3_4  and  O_7 
ROOT
ATOM      1  C   UNL d   1       0.778  -3.250  -3.036  0.00  0.00    -0.033 A 
ATOM      2  C1  UNL d   1       0.050  -2.103  -3.359  0.00  0.00     0.039 A 
ATOM      3  C2  UNL d   1      -0.134  -1.100  -2.405  0.00  0.00    -0.080 A 
ATOM      4  C3  UNL d   1       0.414  -1.256  -1.135  0.00  0.00     0.150 A 
ATOM      5  C4  UNL d   1       1.143  -2.395  -0.808  0.00  0.00    -0.007 A 
ATOM      6  C5  UNL d   1       1.326  -3.395  -1.762  0.00  0.00     0.039 A 
ENDROOT
BRANCH   4   7
ATOM      7  O   UNL d   1       0.256  -0.307  -0.169  0.00  0.00    -0.526 OA
ATOM      8  H5  UNL d   1      -0.293   0.410  -0.529  0.00  0.00     0.418 HD
ENDBRANCH   4   7
TORSDOF 1
ENDMDL
