MODEL 1
REMARK minimizedAffinity -1.79588485
REMARK minimizedRMSD -1
REMARK  1 active torsions:
REMARK  status: ('A' for Active; 'I' for Inactive)
REMARK    1  A    between atoms: C3_4  and  O_7 
ROOT
ATOM      1  C   UNL d   1      -0.371  -3.920  -2.975  0.00  0.00    -0.033 A 
ATOM      2  C1  UNL d   1      -0.368  -2.619  -3.482  0.00  0.00     0.039 A 
ATOM      3  C2  UNL d   1       0.177  -1.577  -2.730  0.00  0.00    -0.080 A 
ATOM      4  C3  UNL d   1       0.715  -1.848  -1.475  0.00  0.00     0.150 A 
ATOM      5  C4  UNL d   1       0.718  -3.142  -0.965  0.00  0.00    -0.007 A 
ATOM      6  C5  UNL d   1       0.173  -4.182  -1.717  0.00  0.00     0.039 A 
ENDROOT
BRANCH   4   7
ATOM      7  O   UNL d   1       1.253  -0.862  -0.702  0.00  0.00    -0.526 OA
ATOM      8  H5  UNL d   1       1.155  -0.016  -1.170  0.00  0.00     0.418 HD
ENDBRANCH   4   7
TORSDOF 1
ENDMDL
