MODEL 1
REMARK minimizedAffinity -2.20223188
REMARK minimizedRMSD -1
REMARK  1 active torsions:
REMARK  status: ('A' for Active; 'I' for Inactive)
REMARK    1  A    between atoms: C3_4  and  O_7 
ROOT
ATOM      1  C   UNL d   1       0.658  -3.786  -2.605  0.00  0.00    -0.033 A 
ATOM      2  C1  UNL d   1       1.263  -3.524  -1.374  0.00  0.00     0.039 A 
ATOM      3  C2  UNL d   1       1.234  -2.234  -0.841  0.00  0.00    -0.080 A 
ATOM      4  C3  UNL d   1       0.597  -1.217  -1.548  0.00  0.00     0.150 A 
ATOM      5  C4  UNL d   1      -0.011  -1.472  -2.772  0.00  0.00    -0.007 A 
ATOM      6  C5  UNL d   1       0.020  -2.761  -3.303  0.00  0.00     0.039 A 
ENDROOT
BRANCH   4   7
ATOM      7  O   UNL d   1       0.547   0.059  -1.070  0.00  0.00    -0.526 OA
ATOM      8  H5  UNL d   1       1.033   0.092  -0.229  0.00  0.00     0.418 HD
ENDBRANCH   4   7
TORSDOF 1
ENDMDL
