MODEL 1
REMARK minimizedAffinity -3.10219169
REMARK minimizedRMSD -1
REMARK  1 active torsions:
REMARK  status: ('A' for Active; 'I' for Inactive)
REMARK    1  A    between atoms: C3_4  and  O_7 
ROOT
ATOM      1  C   UNL d   1      -1.113   1.562   1.753  0.00  0.00    -0.033 A 
ATOM      2  C1  UNL d   1      -1.289   0.209   2.051  0.00  0.00     0.039 A 
ATOM      3  C2  UNL d   1      -0.766  -0.768   1.201  0.00  0.00    -0.080 A 
ATOM      4  C3  UNL d   1      -0.070  -0.380   0.060  0.00  0.00     0.150 A 
ATOM      5  C4  UNL d   1       0.112   0.966  -0.241  0.00  0.00    -0.007 A 
ATOM      6  C5  UNL d   1      -0.411   1.940   0.608  0.00  0.00     0.039 A 
ENDROOT
BRANCH   4   7
ATOM      7  O   UNL d   1       0.454  -1.297  -0.802  0.00  0.00    -0.526 OA
ATOM      8  H5  UNL d   1       0.225  -2.186  -0.482  0.00  0.00     0.418 HD
ENDBRANCH   4   7
TORSDOF 1
ENDMDL
