MODEL 1
REMARK minimizedAffinity -2.52667284
REMARK minimizedRMSD -1
REMARK  1 active torsions:
REMARK  status: ('A' for Active; 'I' for Inactive)
REMARK    1  A    between atoms: C3_4  and  O_7 
ROOT
ATOM      1  C   UNL d   1      -0.800   1.974   1.347  0.00  0.00    -0.033 A 
ATOM      2  C1  UNL d   1      -0.749   0.705   1.929  0.00  0.00     0.039 A 
ATOM      3  C2  UNL d   1      -0.193  -0.365   1.226  0.00  0.00    -0.080 A 
ATOM      4  C3  UNL d   1       0.309  -0.155  -0.055  0.00  0.00     0.150 A 
ATOM      5  C4  UNL d   1       0.265   1.107  -0.639  0.00  0.00    -0.007 A 
ATOM      6  C5  UNL d   1      -0.291   2.175   0.064  0.00  0.00     0.039 A 
ENDROOT
BRANCH   4   7
ATOM      7  O   UNL d   1       0.857  -1.170  -0.782  0.00  0.00    -0.526 OA
ATOM      8  H5  UNL d   1       0.793  -1.989  -0.263  0.00  0.00     0.418 HD
ENDBRANCH   4   7
TORSDOF 1
ENDMDL
