MODEL 1
REMARK minimizedAffinity -3.29313636
REMARK minimizedRMSD -1
REMARK  1 active torsions:
REMARK  status: ('A' for Active; 'I' for Inactive)
REMARK    1  A    between atoms: C3_4  and  O_7 
ROOT
ATOM      1  C   UNL d   1       0.744  -1.707  -3.201  0.00  0.00    -0.033 A 
ATOM      2  C1  UNL d   1       1.485  -1.934  -2.039  0.00  0.00     0.039 A 
ATOM      3  C2  UNL d   1       1.332  -3.130  -1.334  0.00  0.00    -0.080 A 
ATOM      4  C3  UNL d   1       0.439  -4.089  -1.802  0.00  0.00     0.150 A 
ATOM      5  C4  UNL d   1      -0.299  -3.872  -2.960  0.00  0.00    -0.007 A 
ATOM      6  C5  UNL d   1      -0.147  -2.677  -3.663  0.00  0.00     0.039 A 
ENDROOT
BRANCH   4   7
ATOM      7  O   UNL d   1       0.252  -5.269  -1.145  0.00  0.00    -0.526 OA
ATOM      8  H5  UNL d   1       0.807  -5.268  -0.347  0.00  0.00     0.418 HD
ENDBRANCH   4   7
TORSDOF 1
ENDMDL
