MODEL 1
REMARK minimizedAffinity -3.71628332
REMARK minimizedRMSD -1
REMARK  1 active torsions:
REMARK  status: ('A' for Active; 'I' for Inactive)
REMARK    1  A    between atoms: C3_4  and  O_7 
ROOT
ATOM      1  C   UNL d   1      -0.130  -3.901  -2.257  0.00  0.00    -0.033 A 
ATOM      2  C1  UNL d   1       1.052  -3.952  -1.516  0.00  0.00     0.039 A 
ATOM      3  C2  UNL d   1       1.638  -2.773  -1.051  0.00  0.00    -0.080 A 
ATOM      4  C3  UNL d   1       1.033  -1.552  -1.333  0.00  0.00     0.150 A 
ATOM      5  C4  UNL d   1      -0.147  -1.493  -2.067  0.00  0.00    -0.007 A 
ATOM      6  C5  UNL d   1      -0.730  -2.671  -2.532  0.00  0.00     0.039 A 
ENDROOT
BRANCH   4   7
ATOM      7  O   UNL d   1       1.570  -0.374  -0.904  0.00  0.00    -0.526 OA
ATOM      8  H5  UNL d   1       2.399  -0.567  -0.435  0.00  0.00     0.418 HD
ENDBRANCH   4   7
TORSDOF 1
ENDMDL
