MODEL 1
REMARK minimizedAffinity -3.18580556
REMARK minimizedRMSD -1
REMARK  1 active torsions:
REMARK  status: ('A' for Active; 'I' for Inactive)
REMARK    1  A    between atoms: C3_4  and  O_7 
ROOT
ATOM      1  C   UNL d   1      -0.266  -0.573   1.201  0.00  0.00    -0.033 A 
ATOM      2  C1  UNL d   1      -0.886   0.612   1.602  0.00  0.00     0.039 A 
ATOM      3  C2  UNL d   1      -0.794   1.754   0.804  0.00  0.00    -0.080 A 
ATOM      4  C3  UNL d   1      -0.081   1.698  -0.390  0.00  0.00     0.150 A 
ATOM      5  C4  UNL d   1       0.536   0.520  -0.798  0.00  0.00    -0.007 A 
ATOM      6  C5  UNL d   1       0.443  -0.620   0.000  0.00  0.00     0.039 A 
ENDROOT
BRANCH   4   7
ATOM      7  O   UNL d   1       0.041   2.789  -1.199  0.00  0.00    -0.526 OA
ATOM      8  H5  UNL d   1      -0.411   3.538  -0.777  0.00  0.00     0.418 HD
ENDBRANCH   4   7
TORSDOF 1
ENDMDL
