MODEL 1
REMARK minimizedAffinity -3.17663956
REMARK minimizedRMSD -1
REMARK  1 active torsions:
REMARK  status: ('A' for Active; 'I' for Inactive)
REMARK    1  A    between atoms: C3_4  and  O_7 
ROOT
ATOM      1  C   UNL d   1      -0.811   1.681   1.763  0.00  0.00    -0.033 A 
ATOM      2  C1  UNL d   1      -0.139   2.109   0.616  0.00  0.00     0.039 A 
ATOM      3  C2  UNL d   1       0.290   1.178  -0.332  0.00  0.00    -0.080 A 
ATOM      4  C3  UNL d   1       0.040  -0.176  -0.122  0.00  0.00     0.150 A 
ATOM      5  C4  UNL d   1      -0.633  -0.608   1.016  0.00  0.00    -0.007 A 
ATOM      6  C5  UNL d   1      -1.059   0.323   1.962  0.00  0.00     0.039 A 
ENDROOT
BRANCH   4   7
ATOM      7  O   UNL d   1       0.443  -1.122  -1.017  0.00  0.00    -0.526 OA
ATOM      8  H5  UNL d   1       0.920  -0.679  -1.739  0.00  0.00     0.418 HD
ENDBRANCH   4   7
TORSDOF 1
ENDMDL
