MODEL 1
REMARK minimizedAffinity -4.17990017
REMARK minimizedRMSD -1
REMARK  1 active torsions:
REMARK  status: ('A' for Active; 'I' for Inactive)
REMARK    1  A    between atoms: C3_4  and  O_7 
ROOT
ATOM      1  C   UNL d   1      -1.507   2.159   1.543  0.00  0.00    -0.033 A 
ATOM      2  C1  UNL d   1      -0.843   2.512   0.366  0.00  0.00     0.039 A 
ATOM      3  C2  UNL d   1      -0.183   1.537  -0.384  0.00  0.00    -0.080 A 
ATOM      4  C3  UNL d   1      -0.194   0.215   0.052  0.00  0.00     0.150 A 
ATOM      5  C4  UNL d   1      -0.856  -0.144   1.222  0.00  0.00    -0.007 A 
ATOM      6  C5  UNL d   1      -1.514   0.831   1.970  0.00  0.00     0.039 A 
ENDROOT
BRANCH   4   7
ATOM      7  O   UNL d   1       0.440  -0.771  -0.644  0.00  0.00    -0.526 OA
ATOM      8  H5  UNL d   1       0.878  -0.371  -1.413  0.00  0.00     0.418 HD
ENDBRANCH   4   7
TORSDOF 1
ENDMDL
