MODEL 1
REMARK minimizedAffinity 3.48731995
REMARK minimizedRMSD -1
REMARK  0 active torsions:
REMARK  status: ('A' for Active; 'I' for Inactive)
ROOT
ATOM      1  C1  BNZ d   1      -2.140   1.324   2.480  0.00  0.00     0.000 A 
ATOM      2  C2  BNZ d   1      -2.542   1.434   1.176  0.00  0.00     0.000 A 
ATOM      3  C3  BNZ d   1      -2.178   0.497   0.249  0.00  0.00     0.000 A 
ATOM      4  C4  BNZ d   1      -1.381  -0.526   0.619  0.00  0.00     0.000 A 
ATOM      5  C5  BNZ d   1      -0.959  -0.646   1.928  0.00  0.00     0.000 A 
ATOM      6  C6  BNZ d   1      -1.360   0.278   2.866  0.00  0.00     0.000 A 
ENDROOT
TORSDOF 0
ENDMDL
