MODEL 1
REMARK minimizedAffinity -1.85265231
REMARK minimizedRMSD -1
REMARK  0 active torsions:
REMARK  status: ('A' for Active; 'I' for Inactive)
ROOT
ATOM      1  C1  BNZ d   1      -5.769   4.502  -1.819  0.00  0.00     0.000 A 
ATOM      2  C2  BNZ d   1      -5.862   3.451  -0.947  0.00  0.00     0.000 A 
ATOM      3  C3  BNZ d   1      -5.993   3.665   0.397  0.00  0.00     0.000 A 
ATOM      4  C4  BNZ d   1      -5.992   4.928   0.870  0.00  0.00     0.000 A 
ATOM      5  C5  BNZ d   1      -5.890   5.999   0.004  0.00  0.00     0.000 A 
ATOM      6  C6  BNZ d   1      -5.797   5.780  -1.352  0.00  0.00     0.000 A 
ENDROOT
TORSDOF 0
ENDMDL
