MODEL 1
REMARK minimizedAffinity 1.80304372
REMARK minimizedRMSD -1
REMARK  0 active torsions:
REMARK  status: ('A' for Active; 'I' for Inactive)
ROOT
ATOM      1  C1  BNZ d   1      -2.848   1.863   1.384  0.00  0.00     0.000 A 
ATOM      2  C2  BNZ d   1      -2.100   1.843   2.531  0.00  0.00     0.000 A 
ATOM      3  C3  BNZ d   1      -1.128   0.899   2.715  0.00  0.00     0.000 A 
ATOM      4  C4  BNZ d   1      -0.933  -0.045   1.773  0.00  0.00     0.000 A 
ATOM      5  C5  BNZ d   1      -1.685  -0.043   0.615  0.00  0.00     0.000 A 
ATOM      6  C6  BNZ d   1      -2.636   0.931   0.415  0.00  0.00     0.000 A 
ENDROOT
TORSDOF 0
ENDMDL
