MODEL 1
REMARK minimizedAffinity -3.46184802
REMARK minimizedRMSD -1
REMARK  0 active torsions:
REMARK  status: ('A' for Active; 'I' for Inactive)
ROOT
ATOM      1  C1  BNZ d   1      -0.601   1.070   3.059  0.00  0.00     0.000 A 
ATOM      2  C2  BNZ d   1       0.075   0.374   2.092  0.00  0.00     0.000 A 
ATOM      3  C3  BNZ d   1       1.263   0.836   1.598  0.00  0.00     0.000 A 
ATOM      4  C4  BNZ d   1       1.753   2.012   2.042  0.00  0.00     0.000 A 
ATOM      5  C5  BNZ d   1       1.078   2.730   3.010  0.00  0.00     0.000 A 
ATOM      6  C6  BNZ d   1      -0.098   2.242   3.532  0.00  0.00     0.000 A 
ENDROOT
TORSDOF 0
ENDMDL
