MODEL 1
REMARK minimizedAffinity -0.481186599
REMARK minimizedRMSD -1
REMARK  0 active torsions:
REMARK  status: ('A' for Active; 'I' for Inactive)
ROOT
ATOM      1  C1  BNZ d   1      -1.422   1.196   2.087  0.00  0.00     0.000 A 
ATOM      2  C2  BNZ d   1      -2.190   2.138   1.457  0.00  0.00     0.000 A 
ATOM      3  C3  BNZ d   1      -3.114   1.774   0.518  0.00  0.00     0.000 A 
ATOM      4  C4  BNZ d   1      -3.241   0.475   0.182  0.00  0.00     0.000 A 
ATOM      5  C5  BNZ d   1      -2.468  -0.487   0.802  0.00  0.00     0.000 A 
ATOM      6  C6  BNZ d   1      -1.566  -0.121   1.774  0.00  0.00     0.000 A 
ENDROOT
TORSDOF 0
ENDMDL
