MODEL 1
REMARK minimizedAffinity 9.12297821
REMARK minimizedRMSD -1
REMARK  0 active torsions:
REMARK  status: ('A' for Active; 'I' for Inactive)
ROOT
ATOM      1  C1  BNZ d   1       2.234   1.053   0.025  0.00  0.00     0.000 A 
ATOM      2  C2  BNZ d   1       1.406   0.379   0.882  0.00  0.00     0.000 A 
ATOM      3  C3  BNZ d   1       1.860  -0.699   1.590  0.00  0.00     0.000 A 
ATOM      4  C4  BNZ d   1       3.127  -1.125   1.410  0.00  0.00     0.000 A 
ATOM      5  C5  BNZ d   1       3.971  -0.462   0.543  0.00  0.00     0.000 A 
ATOM      6  C6  BNZ d   1       3.523   0.647  -0.139  0.00  0.00     0.000 A 
ENDROOT
TORSDOF 0
ENDMDL
