MODEL 1
REMARK minimizedAffinity 0.00645024795
REMARK minimizedRMSD -1
REMARK  0 active torsions:
REMARK  status: ('A' for Active; 'I' for Inactive)
ROOT
ATOM      1  C1  BNZ d   1       0.116  -0.102   3.592  0.00  0.00     0.000 A 
ATOM      2  C2  BNZ d   1       1.426  -0.475   3.446  0.00  0.00     0.000 A 
ATOM      3  C3  BNZ d   1       2.009  -0.513   2.210  0.00  0.00     0.000 A 
ATOM      4  C4  BNZ d   1       1.271  -0.218   1.120  0.00  0.00     0.000 A 
ATOM      5  C5  BNZ d   1      -0.053   0.150   1.250  0.00  0.00     0.000 A 
ATOM      6  C6  BNZ d   1      -0.625   0.225   2.499  0.00  0.00     0.000 A 
ENDROOT
TORSDOF 0
ENDMDL
