MODEL 1
REMARK minimizedAffinity 0.71524781
REMARK minimizedRMSD -1
REMARK  0 active torsions:
REMARK  status: ('A' for Active; 'I' for Inactive)
ROOT
ATOM      1  C1  DEN d   1       5.121   0.846   0.019  0.00  0.00     0.130 A 
ATOM      2  C2  DEN d   1       5.240   1.864  -1.022  0.00  0.00    -0.031 A 
ATOM      3  C3  DEN d   1       3.929   1.991  -1.689  0.00  0.00     0.027 A 
ATOM      4  C4  DEN d   1       1.736   0.719  -1.213  0.00  0.00     0.027 A 
ATOM      5  C5  DEN d   1       1.148  -0.250  -0.431  0.00  0.00    -0.003 A 
ATOM      6  C6  DEN d   1       1.846  -0.941   0.524  0.00  0.00     0.001 A 
ATOM      7  C7  DEN d   1       3.162  -0.640   0.753  0.00  0.00     0.017 A 
ATOM      8  C8  DEN d   1       3.764   0.332  -0.036  0.00  0.00    -0.094 A 
ATOM      9  C9  DEN d   1       3.039   1.027  -0.988  0.00  0.00    -0.072 A 
ENDROOT
TORSDOF 0
ENDMDL
