MODEL 1
REMARK minimizedAffinity -0.485860109
REMARK minimizedRMSD -1
REMARK  0 active torsions:
REMARK  status: ('A' for Active; 'I' for Inactive)
ROOT
ATOM      1  C1  DEN d   1       5.736   0.851  -0.297  0.00  0.00     0.130 A 
ATOM      2  C2  DEN d   1       6.000   2.277  -0.466  0.00  0.00    -0.031 A 
ATOM      3  C3  DEN d   1       4.701   2.974  -0.558  0.00  0.00     0.027 A 
ATOM      4  C4  DEN d   1       2.320   1.988  -0.451  0.00  0.00     0.027 A 
ATOM      5  C5  DEN d   1       1.591   0.826  -0.328  0.00  0.00    -0.003 A 
ATOM      6  C6  DEN d   1       2.187  -0.402  -0.221  0.00  0.00     0.001 A 
ATOM      7  C7  DEN d   1       3.553  -0.493  -0.190  0.00  0.00     0.017 A 
ATOM      8  C8  DEN d   1       4.296   0.673  -0.321  0.00  0.00    -0.094 A 
ATOM      9  C9  DEN d   1       3.674   1.907  -0.415  0.00  0.00    -0.072 A 
ENDROOT
TORSDOF 0
ENDMDL
