MODEL 1
REMARK minimizedAffinity 2.95320201
REMARK minimizedRMSD -1
REMARK  0 active torsions:
REMARK  status: ('A' for Active; 'I' for Inactive)
ROOT
ATOM      1  N1  IND d   1       4.031  -0.219  -2.965  0.00  0.00    -0.196 N 
ATOM      2  C2  IND d   1       4.289  -0.150  -4.306  0.00  0.00     0.054 A 
ATOM      3  C3  IND d   1       3.238   0.391  -4.961  0.00  0.00    -0.031 A 
ATOM      4  C4  IND d   1       1.032   1.329  -4.021  0.00  0.00     0.051 A 
ATOM      5  C5  IND d   1       0.324   1.454  -2.859  0.00  0.00    -0.031 A 
ATOM      6  C6  IND d   1       0.825   1.022  -1.648  0.00  0.00     0.015 A 
ATOM      7  C7  IND d   1       2.065   0.456  -1.552  0.00  0.00    -0.016 A 
ATOM      8  C8  IND d   1       2.785   0.321  -2.731  0.00  0.00    -0.047 A 
ATOM      9  C9  IND d   1       2.263   0.719  -3.969  0.00  0.00    -0.096 A 
ATOM     10  HN1 IND d   1       4.557  -0.544  -2.368  0.00  0.00     0.298 HD
ENDROOT
TORSDOF 0
ENDMDL
