MODEL 1
REMARK minimizedAffinity 0.732511401
REMARK minimizedRMSD -1
REMARK  0 active torsions:
REMARK  status: ('A' for Active; 'I' for Inactive)
ROOT
ATOM      1  N1  IND d   1       5.989  -0.396   3.780  0.00  0.00    -0.196 N 
ATOM      2  C2  IND d   1       6.000   0.297   4.959  0.00  0.00     0.054 A 
ATOM      3  C3  IND d   1       5.762  -0.537   5.996  0.00  0.00    -0.031 A 
ATOM      4  C4  IND d   1       5.428  -3.089   6.000  0.00  0.00     0.051 A 
ATOM      5  C5  IND d   1       5.299  -4.160   5.160  0.00  0.00    -0.031 A 
ATOM      6  C6  IND d   1       5.398  -4.028   3.790  0.00  0.00     0.015 A 
ATOM      7  C7  IND d   1       5.642  -2.817   3.207  0.00  0.00    -0.016 A 
ATOM      8  C8  IND d   1       5.767  -1.727   4.056  0.00  0.00    -0.047 A 
ATOM      9  C9  IND d   1       5.625  -1.847   5.444  0.00  0.00    -0.096 A 
ATOM     10  HN1 IND d   1       6.102  -0.057   2.998  0.00  0.00     0.298 HD
ENDROOT
TORSDOF 0
ENDMDL
