MODEL 1
REMARK minimizedAffinity 16.7162247
REMARK minimizedRMSD -1
REMARK  0 active torsions:
REMARK  status: ('A' for Active; 'I' for Inactive)
ROOT
ATOM      1  N1  IND d   1       4.925   0.702   4.117  0.00  0.00    -0.196 N 
ATOM      2  C2  IND d   1       6.000   0.036   4.635  0.00  0.00     0.054 A 
ATOM      3  C3  IND d   1       6.000  -1.251   4.221  0.00  0.00    -0.031 A 
ATOM      4  C4  IND d   1       4.390  -2.450   2.609  0.00  0.00     0.051 A 
ATOM      5  C5  IND d   1       3.232  -2.265   1.908  0.00  0.00    -0.031 A 
ATOM      6  C6  IND d   1       2.567  -1.056   1.904  0.00  0.00     0.015 A 
ATOM      7  C7  IND d   1       3.044   0.021   2.597  0.00  0.00    -0.016 A 
ATOM      8  C8  IND d   1       4.215  -0.165   3.316  0.00  0.00    -0.047 A 
ATOM      9  C9  IND d   1       4.872  -1.402   3.358  0.00  0.00    -0.096 A 
ATOM     10  HN1 IND d   1       4.725   1.525   4.267  0.00  0.00     0.298 HD
ENDROOT
TORSDOF 0
ENDMDL
