MODEL 1
REMARK minimizedAffinity 9.01069546
REMARK minimizedRMSD -1
REMARK  0 active torsions:
REMARK  status: ('A' for Active; 'I' for Inactive)
ROOT
ATOM      1  N1  IND d   1       3.314  -1.338  -1.568  0.00  0.00    -0.196 N 
ATOM      2  C2  IND d   1       3.439  -1.882  -2.816  0.00  0.00     0.054 A 
ATOM      3  C3  IND d   1       3.082  -0.981  -3.760  0.00  0.00    -0.031 A 
ATOM      4  C4  IND d   1       2.361   1.475  -3.487  0.00  0.00     0.051 A 
ATOM      5  C5  IND d   1       2.064   2.411  -2.536  0.00  0.00    -0.031 A 
ATOM      6  C6  IND d   1       2.173   2.141  -1.188  0.00  0.00     0.015 A 
ATOM      7  C7  IND d   1       2.596   0.922  -0.737  0.00  0.00    -0.016 A 
ATOM      8  C8  IND d   1       2.892  -0.033  -1.699  0.00  0.00    -0.047 A 
ATOM      9  C9  IND d   1       2.743   0.222  -3.068  0.00  0.00    -0.096 A 
ATOM     10  HN1 IND d   1       3.473  -1.742  -0.826  0.00  0.00     0.298 HD
ENDROOT
TORSDOF 0
ENDMDL
