MODEL 1
REMARK minimizedAffinity 10.9514837
REMARK minimizedRMSD -1
REMARK  0 active torsions:
REMARK  status: ('A' for Active; 'I' for Inactive)
ROOT
ATOM      1  N1  IND d   1      -5.914  -3.397   2.825  0.00  0.00    -0.196 N 
ATOM      2  C2  IND d   1      -5.936  -2.740   1.627  0.00  0.00     0.054 A 
ATOM      3  C3  IND d   1      -6.000  -1.404   1.824  0.00  0.00    -0.031 A 
ATOM      4  C4  IND d   1      -5.975  -0.073   4.027  0.00  0.00     0.051 A 
ATOM      5  C5  IND d   1      -5.999  -0.235   5.384  0.00  0.00    -0.031 A 
ATOM      6  C6  IND d   1      -5.994  -1.485   5.969  0.00  0.00     0.015 A 
ATOM      7  C7  IND d   1      -5.952  -2.624   5.216  0.00  0.00    -0.016 A 
ATOM      8  C8  IND d   1      -5.934  -2.463   3.838  0.00  0.00    -0.047 A 
ATOM      9  C9  IND d   1      -5.983  -1.199   3.238  0.00  0.00    -0.096 A 
ATOM     10  HN1 IND d   1      -5.892  -4.251   2.930  0.00  0.00     0.298 HD
ENDROOT
TORSDOF 0
ENDMDL
