MODEL 1
REMARK minimizedAffinity 8.36054611
REMARK minimizedRMSD -1
REMARK  0 active torsions:
REMARK  status: ('A' for Active; 'I' for Inactive)
ROOT
ATOM      1  N1  IND d   1       0.981   1.416   0.510  0.00  0.00    -0.196 N 
ATOM      2  C2  IND d   1       0.886   1.003   1.810  0.00  0.00     0.054 A 
ATOM      3  C3  IND d   1       0.093  -0.088   1.900  0.00  0.00    -0.031 A 
ATOM      4  C4  IND d   1      -1.070  -1.424   0.031  0.00  0.00     0.051 A 
ATOM      5  C5  IND d   1      -1.306  -1.411  -1.315  0.00  0.00    -0.031 A 
ATOM      6  C6  IND d   1      -0.780  -0.437  -2.138  0.00  0.00     0.015 A 
ATOM      7  C7  IND d   1       0.016   0.559  -1.646  0.00  0.00    -0.016 A 
ATOM      8  C8  IND d   1       0.252   0.553  -0.278  0.00  0.00    -0.047 A 
ATOM      9  C9  IND d   1      -0.314  -0.408   0.569  0.00  0.00    -0.096 A 
ATOM     10  HN1 IND d   1       1.421   2.100   0.232  0.00  0.00     0.298 HD
ENDROOT
TORSDOF 0
ENDMDL
