MODEL 1
REMARK minimizedAffinity 2.08207679
REMARK minimizedRMSD -1
REMARK  0 active torsions:
REMARK  status: ('A' for Active; 'I' for Inactive)
ROOT
ATOM      1  N1  IND d   1      -0.368   1.420  -0.114  0.00  0.00    -0.196 N 
ATOM      2  C2  IND d   1       0.777   1.168  -0.817  0.00  0.00     0.054 A 
ATOM      3  C3  IND d   1       1.528   0.245  -0.176  0.00  0.00    -0.031 A 
ATOM      4  C4  IND d   1       1.026  -1.057   1.987  0.00  0.00     0.051 A 
ATOM      5  C5  IND d   1       0.119  -1.144   3.006  0.00  0.00    -0.031 A 
ATOM      6  C6  IND d   1      -1.021  -0.367   3.036  0.00  0.00     0.015 A 
ATOM      7  C7  IND d   1      -1.303   0.522   2.038  0.00  0.00    -0.016 A 
ATOM      8  C8  IND d   1      -0.381   0.618   1.005  0.00  0.00    -0.047 A 
ATOM      9  C9  IND d   1       0.798  -0.137   0.991  0.00  0.00    -0.096 A 
ATOM     10  HN1 IND d   1      -0.978   1.986  -0.335  0.00  0.00     0.298 HD
ENDROOT
TORSDOF 0
ENDMDL
