MODEL 1
REMARK minimizedAffinity 10.4013577
REMARK minimizedRMSD -1
REMARK  0 active torsions:
REMARK  status: ('A' for Active; 'I' for Inactive)
ROOT
ATOM      1  N1  IND d   1      -0.477   0.626  -0.949  0.00  0.00    -0.196 N 
ATOM      2  C2  IND d   1       0.523   1.488  -0.593  0.00  0.00     0.054 A 
ATOM      3  C3  IND d   1       1.171   1.030   0.501  0.00  0.00    -0.031 A 
ATOM      4  C4  IND d   1       0.825  -1.159   1.811  0.00  0.00     0.051 A 
ATOM      5  C5  IND d   1       0.007  -2.251   1.887  0.00  0.00    -0.031 A 
ATOM      6  C6  IND d   1      -1.034  -2.446   1.001  0.00  0.00     0.015 A 
ATOM      7  C7  IND d   1      -1.289  -1.557  -0.004  0.00  0.00    -0.016 A 
ATOM      8  C8  IND d   1      -0.465  -0.443  -0.080  0.00  0.00    -0.047 A 
ATOM      9  C9  IND d   1       0.566  -0.219   0.842  0.00  0.00    -0.096 A 
ATOM     10  HN1 IND d   1      -1.022   0.733  -1.605  0.00  0.00     0.298 HD
ENDROOT
TORSDOF 0
ENDMDL
