MODEL 1
REMARK minimizedAffinity -1.61758518
REMARK minimizedRMSD -1
REMARK  0 active torsions:
REMARK  status: ('A' for Active; 'I' for Inactive)
ROOT
ATOM      1  N1  IND d   1       5.264  -0.821   2.360  0.00  0.00    -0.196 N 
ATOM      2  C2  IND d   1       5.681   0.400   2.811  0.00  0.00     0.054 A 
ATOM      3  C3  IND d   1       5.996   0.333   4.124  0.00  0.00    -0.031 A 
ATOM      4  C4  IND d   1       5.999  -1.699   5.705  0.00  0.00     0.051 A 
ATOM      5  C5  IND d   1       5.660  -3.022   5.759  0.00  0.00    -0.031 A 
ATOM      6  C6  IND d   1       5.164  -3.693   4.660  0.00  0.00     0.015 A 
ATOM      7  C7  IND d   1       4.999  -3.066   3.457  0.00  0.00    -0.016 A 
ATOM      8  C8  IND d   1       5.335  -1.721   3.400  0.00  0.00    -0.047 A 
ATOM      9  C9  IND d   1       5.799  -1.024   4.524  0.00  0.00    -0.096 A 
ATOM     10  HN1 IND d   1       5.000  -0.998   1.560  0.00  0.00     0.298 HD
ENDROOT
TORSDOF 0
ENDMDL
