MODEL 1
REMARK minimizedAffinity 4.2471571
REMARK minimizedRMSD -1
REMARK  0 active torsions:
REMARK  status: ('A' for Active; 'I' for Inactive)
ROOT
ATOM      1  N1  IND d   1       2.038   0.785   1.138  0.00  0.00    -0.196 N 
ATOM      2  C2  IND d   1       1.860   1.533   0.007  0.00  0.00     0.054 A 
ATOM      3  C3  IND d   1       3.017   2.138  -0.343  0.00  0.00    -0.031 A 
ATOM      4  C4  IND d   1       5.348   1.960   0.735  0.00  0.00     0.051 A 
ATOM      5  C5  IND d   1       6.000   1.424   1.810  0.00  0.00    -0.031 A 
ATOM      6  C6  IND d   1       5.351   0.629   2.734  0.00  0.00     0.015 A 
ATOM      7  C7  IND d   1       4.024   0.330   2.609  0.00  0.00    -0.016 A 
ATOM      8  C8  IND d   1       3.358   0.878   1.522  0.00  0.00    -0.047 A 
ATOM      9  C9  IND d   1       4.001   1.720   0.605  0.00  0.00    -0.096 A 
ATOM     10  HN1 IND d   1       1.429   0.332   1.541  0.00  0.00     0.298 HD
ENDROOT
TORSDOF 0
ENDMDL
