MODEL 1
REMARK minimizedAffinity -1.9257338
REMARK minimizedRMSD -1
REMARK  0 active torsions:
REMARK  status: ('A' for Active; 'I' for Inactive)
ROOT
ATOM      1  N1  IND d   1       5.306  -1.574   5.564  0.00  0.00    -0.196 N 
ATOM      2  C2  IND d   1       5.634  -0.826   4.468  0.00  0.00     0.054 A 
ATOM      3  C3  IND d   1       5.987  -1.628   3.439  0.00  0.00    -0.031 A 
ATOM      4  C4  IND d   1       5.999  -4.199   3.299  0.00  0.00     0.051 A 
ATOM      5  C5  IND d   1       5.812  -5.320   4.058  0.00  0.00    -0.031 A 
ATOM      6  C6  IND d   1       5.437  -5.248   5.384  0.00  0.00     0.015 A 
ATOM      7  C7  IND d   1       5.222  -4.048   6.000  0.00  0.00    -0.016 A 
ATOM      8  C8  IND d   1       5.418  -2.907   5.234  0.00  0.00    -0.047 A 
ATOM      9  C9  IND d   1       5.840  -2.973   3.900  0.00  0.00    -0.096 A 
ATOM     10  HN1 IND d   1       5.069  -1.265   6.330  0.00  0.00     0.298 HD
ENDROOT
TORSDOF 0
ENDMDL
