MODEL 1
REMARK minimizedAffinity 7.64531326
REMARK minimizedRMSD -1
REMARK  0 active torsions:
REMARK  status: ('A' for Active; 'I' for Inactive)
ROOT
ATOM      1  N1  IND d   1      -5.291  -0.937   3.370  0.00  0.00    -0.196 N 
ATOM      2  C2  IND d   1      -5.168  -1.088   2.017  0.00  0.00     0.054 A 
ATOM      3  C3  IND d   1      -5.355   0.096   1.392  0.00  0.00    -0.031 A 
ATOM      4  C4  IND d   1      -5.772   2.428   2.398  0.00  0.00     0.051 A 
ATOM      5  C5  IND d   1      -6.000   3.064   3.587  0.00  0.00    -0.031 A 
ATOM      6  C6  IND d   1      -6.000   2.385   4.788  0.00  0.00     0.015 A 
ATOM      7  C7  IND d   1      -5.760   1.041   4.847  0.00  0.00    -0.016 A 
ATOM      8  C8  IND d   1      -5.536   0.392   3.642  0.00  0.00    -0.047 A 
ATOM      9  C9  IND d   1      -5.576   1.068   2.415  0.00  0.00    -0.096 A 
ATOM     10  HN1 IND d   1      -5.226  -1.565   3.953  0.00  0.00     0.298 HD
ENDROOT
TORSDOF 0
ENDMDL
