MODEL 1
REMARK minimizedAffinity 0.114296548
REMARK minimizedRMSD -1
REMARK  0 active torsions:
REMARK  status: ('A' for Active; 'I' for Inactive)
ROOT
ATOM      1  N1  IND d   1       5.972  -1.327   3.758  0.00  0.00    -0.196 N 
ATOM      2  C2  IND d   1       5.999  -0.602   4.916  0.00  0.00     0.054 A 
ATOM      3  C3  IND d   1       5.579  -1.359   5.955  0.00  0.00    -0.031 A 
ATOM      4  C4  IND d   1       4.898  -3.841   6.000  0.00  0.00     0.051 A 
ATOM      5  C5  IND d   1       4.680  -4.913   5.181  0.00  0.00    -0.031 A 
ATOM      6  C6  IND d   1       4.888  -4.844   3.818  0.00  0.00     0.015 A 
ATOM      7  C7  IND d   1       5.335  -3.698   3.223  0.00  0.00    -0.016 A 
ATOM      8  C8  IND d   1       5.551  -2.606   4.051  0.00  0.00    -0.047 A 
ATOM      9  C9  IND d   1       5.301  -2.657   5.428  0.00  0.00    -0.096 A 
ATOM     10  HN1 IND d   1       6.183  -1.034   2.978  0.00  0.00     0.298 HD
ENDROOT
TORSDOF 0
ENDMDL
