MODEL 1
REMARK minimizedAffinity -0.488953769
REMARK minimizedRMSD -1
REMARK  0 active torsions:
REMARK  status: ('A' for Active; 'I' for Inactive)
ROOT
ATOM      1  N1  IND d   1       5.769  -0.984   3.103  0.00  0.00    -0.196 N 
ATOM      2  C2  IND d   1       5.926   0.003   4.036  0.00  0.00     0.054 A 
ATOM      3  C3  IND d   1       5.996  -0.530   5.277  0.00  0.00    -0.031 A 
ATOM      4  C4  IND d   1       5.978  -3.001   5.999  0.00  0.00     0.051 A 
ATOM      5  C5  IND d   1       5.816  -4.265   5.508  0.00  0.00    -0.031 A 
ATOM      6  C6  IND d   1       5.630  -4.506   4.162  0.00  0.00     0.015 A 
ATOM      7  C7  IND d   1       5.609  -3.487   3.252  0.00  0.00    -0.016 A 
ATOM      8  C8  IND d   1       5.766  -2.201   3.749  0.00  0.00    -0.047 A 
ATOM      9  C9  IND d   1       5.912  -1.947   5.118  0.00  0.00    -0.096 A 
ATOM     10  HN1 IND d   1       5.686  -0.864   2.256  0.00  0.00     0.298 HD
ENDROOT
TORSDOF 0
ENDMDL
