MODEL 1
REMARK minimizedAffinity 10.4726191
REMARK minimizedRMSD -1
REMARK  0 active torsions:
REMARK  status: ('A' for Active; 'I' for Inactive)
ROOT
ATOM      1  N1  IND d   1       3.250  -2.151  -1.956  0.00  0.00    -0.196 N 
ATOM      2  C2  IND d   1       2.785  -1.252  -1.036  0.00  0.00     0.054 A 
ATOM      3  C3  IND d   1       2.911   0.009  -1.507  0.00  0.00    -0.031 A 
ATOM      4  C4  IND d   1       3.758   0.824  -3.797  0.00  0.00     0.051 A 
ATOM      5  C5  IND d   1       4.325   0.376  -4.957  0.00  0.00    -0.031 A 
ATOM      6  C6  IND d   1       4.565  -0.964  -5.182  0.00  0.00     0.015 A 
ATOM      7  C7  IND d   1       4.235  -1.912  -4.255  0.00  0.00    -0.016 A 
ATOM      8  C8  IND d   1       3.666  -1.460  -3.073  0.00  0.00    -0.047 A 
ATOM      9  C9  IND d   1       3.459  -0.098  -2.821  0.00  0.00    -0.096 A 
ATOM     10  HN1 IND d   1       3.279  -3.004  -1.853  0.00  0.00     0.298 HD
ENDROOT
TORSDOF 0
ENDMDL
