MODEL 1
REMARK minimizedAffinity 2.32275391
REMARK minimizedRMSD -1
REMARK  0 active torsions:
REMARK  status: ('A' for Active; 'I' for Inactive)
ROOT
ATOM      1  C   UNL d   1       2.968  -0.210   2.490  0.00  0.00     0.077 C 
ATOM      2  C1  UNL d   1       1.817   0.090   1.577  0.00  0.00    -0.074 A 
ATOM      3  C2  UNL d   1       0.748  -0.803   1.450  0.00  0.00    -0.005 A 
ATOM      4  C3  UNL d   1      -0.321  -0.505   0.605  0.00  0.00     0.006 A 
ATOM      5  C4  UNL d   1      -0.332   0.687  -0.121  0.00  0.00    -0.005 A 
ATOM      6  C5  UNL d   1       0.727   1.592  -0.006  0.00  0.00    -0.074 A 
ATOM      7  C6  UNL d   1       0.726   2.882  -0.771  0.00  0.00     0.077 C 
ATOM      8  C7  UNL d   1       1.794   1.289   0.851  0.00  0.00    -0.001 A 
ENDROOT
TORSDOF 0
ENDMDL
