MODEL 1
REMARK minimizedAffinity 2.18218827
REMARK minimizedRMSD -1
REMARK  0 active torsions:
REMARK  status: ('A' for Active; 'I' for Inactive)
ROOT
ATOM      1  C   UNL d   1       0.285  -1.539   1.840  0.00  0.00     0.077 C 
ATOM      2  C1  UNL d   1       0.496  -2.828   1.103  0.00  0.00    -0.074 A 
ATOM      3  C2  UNL d   1       0.986  -3.960   1.762  0.00  0.00    -0.005 A 
ATOM      4  C3  UNL d   1       1.169  -5.155   1.065  0.00  0.00     0.006 A 
ATOM      5  C4  UNL d   1       0.862  -5.229  -0.294  0.00  0.00    -0.005 A 
ATOM      6  C5  UNL d   1       0.370  -4.108  -0.969  0.00  0.00    -0.074 A 
ATOM      7  C6  UNL d   1       0.026  -4.173  -2.428  0.00  0.00     0.077 C 
ATOM      8  C7  UNL d   1       0.183  -2.913  -0.261  0.00  0.00    -0.001 A 
ENDROOT
TORSDOF 0
ENDMDL
