MODEL 1
REMARK minimizedAffinity 0.395562589
REMARK minimizedRMSD -1
REMARK  0 active torsions:
REMARK  status: ('A' for Active; 'I' for Inactive)
ROOT
ATOM      1  C   UNL d   1      -0.544  -0.480   0.865  0.00  0.00     0.077 C 
ATOM      2  C1  UNL d   1      -0.374  -1.783   0.142  0.00  0.00    -0.074 A 
ATOM      3  C2  UNL d   1      -1.439  -2.365  -0.553  0.00  0.00    -0.005 A 
ATOM      4  C3  UNL d   1      -1.263  -3.573  -1.228  0.00  0.00     0.006 A 
ATOM      5  C4  UNL d   1      -0.022  -4.210  -1.215  0.00  0.00    -0.005 A 
ATOM      6  C5  UNL d   1       1.055  -3.643  -0.527  0.00  0.00    -0.074 A 
ATOM      7  C6  UNL d   1       2.399  -4.311  -0.511  0.00  0.00     0.077 C 
ATOM      8  C7  UNL d   1       0.872  -2.426   0.144  0.00  0.00    -0.001 A 
ENDROOT
TORSDOF 0
ENDMDL
