MODEL 1
REMARK minimizedAffinity 3.61281657
REMARK minimizedRMSD -1
REMARK  0 active torsions:
REMARK  status: ('A' for Active; 'I' for Inactive)
ROOT
ATOM      1  C   UNL d   1       3.090   0.759   0.376  0.00  0.00     0.077 C 
ATOM      2  C1  UNL d   1       1.627   1.080   0.451  0.00  0.00    -0.074 A 
ATOM      3  C2  UNL d   1       0.672   0.064   0.550  0.00  0.00    -0.005 A 
ATOM      4  C3  UNL d   1      -0.685   0.378   0.628  0.00  0.00     0.006 A 
ATOM      5  C4  UNL d   1      -1.099   1.711   0.608  0.00  0.00    -0.005 A 
ATOM      6  C5  UNL d   1      -0.158   2.741   0.510  0.00  0.00    -0.074 A 
ATOM      7  C6  UNL d   1      -0.586   4.178   0.497  0.00  0.00     0.077 C 
ATOM      8  C7  UNL d   1       1.203   2.417   0.439  0.00  0.00    -0.001 A 
ENDROOT
TORSDOF 0
ENDMDL
