MODEL 1
REMARK minimizedAffinity 3.92294383
REMARK minimizedRMSD -1
REMARK  0 active torsions:
REMARK  status: ('A' for Active; 'I' for Inactive)
ROOT
ATOM      1  C   UNL d   1      -0.821   3.762   0.332  0.00  0.00     0.077 C 
ATOM      2  C1  UNL d   1       0.051   2.563   0.561  0.00  0.00    -0.074 A 
ATOM      3  C2  UNL d   1       1.443   2.659   0.468  0.00  0.00    -0.005 A 
ATOM      4  C3  UNL d   1       2.242   1.538   0.693  0.00  0.00     0.006 A 
ATOM      5  C4  UNL d   1       1.658   0.312   1.012  0.00  0.00    -0.005 A 
ATOM      6  C5  UNL d   1       0.267   0.197   1.110  0.00  0.00    -0.074 A 
ATOM      7  C6  UNL d   1      -0.376  -1.111   1.462  0.00  0.00     0.077 C 
ATOM      8  C7  UNL d   1      -0.528   1.330   0.890  0.00  0.00    -0.001 A 
ENDROOT
TORSDOF 0
ENDMDL
