MODEL 1
REMARK minimizedAffinity -1.55977678
REMARK minimizedRMSD -1
REMARK  0 active torsions:
REMARK  status: ('A' for Active; 'I' for Inactive)
ROOT
ATOM      1  C   UNL d   1       2.489   1.669   1.155  0.00  0.00     0.077 C 
ATOM      2  C1  UNL d   1       2.451   0.845   2.407  0.00  0.00    -0.074 A 
ATOM      3  C2  UNL d   1       2.909   1.364   3.623  0.00  0.00    -0.005 A 
ATOM      4  C3  UNL d   1       2.859   0.589   4.782  0.00  0.00     0.006 A 
ATOM      5  C4  UNL d   1       2.353  -0.711   4.737  0.00  0.00    -0.005 A 
ATOM      6  C5  UNL d   1       1.890  -1.246   3.530  0.00  0.00    -0.074 A 
ATOM      7  C6  UNL d   1       1.334  -2.638   3.467  0.00  0.00     0.077 C 
ATOM      8  C7  UNL d   1       1.937  -0.459   2.372  0.00  0.00    -0.001 A 
ENDROOT
TORSDOF 0
ENDMDL
