MODEL 1
REMARK minimizedAffinity 12.7960548
REMARK minimizedRMSD -1
REMARK  0 active torsions:
REMARK  status: ('A' for Active; 'I' for Inactive)
ROOT
ATOM      1  C   UNL d   1      -5.410   5.898   3.078  0.00  0.00     0.020 A 
ATOM      2  C1  UNL d   1      -5.481   4.654   3.704  0.00  0.00     0.020 A 
ATOM      3  C2  UNL d   1      -5.029   3.511   3.041  0.00  0.00     0.034 A 
ATOM      4  C3  UNL d   1      -4.503   3.610   1.748  0.00  0.00     0.017 A 
ATOM      5  C4  UNL d   1      -4.432   4.859   1.120  0.00  0.00     0.017 A 
ATOM      6  C5  UNL d   1      -4.887   6.000   1.789  0.00  0.00     0.034 A 
ATOM      7 Cl   UNL d   1      -3.797   5.060  -0.475  0.00  0.00    -0.070 Cl
ATOM      8 Cl1  UNL d   1      -3.962   2.156   0.987  0.00  0.00    -0.070 Cl
ENDROOT
TORSDOF 0
ENDMDL
