MODEL 1
REMARK minimizedAffinity 9.55401897
REMARK minimizedRMSD -1
REMARK  0 active torsions:
REMARK  status: ('A' for Active; 'I' for Inactive)
ROOT
ATOM      1  C   UNL d   1       2.496  -0.283  -1.842  0.00  0.00     0.020 A 
ATOM      2  C1  UNL d   1       3.402   0.501  -2.555  0.00  0.00     0.020 A 
ATOM      3  C2  UNL d   1       4.453   1.134  -1.888  0.00  0.00     0.034 A 
ATOM      4  C3  UNL d   1       4.601   0.983  -0.504  0.00  0.00     0.017 A 
ATOM      5  C4  UNL d   1       3.691   0.196   0.210  0.00  0.00     0.017 A 
ATOM      6  C5  UNL d   1       2.640  -0.435  -0.462  0.00  0.00     0.034 A 
ATOM      7 Cl   UNL d   1       3.808  -0.037   1.919  0.00  0.00    -0.070 Cl
ATOM      8 Cl1  UNL d   1       5.924   1.794   0.256  0.00  0.00    -0.070 Cl
ENDROOT
TORSDOF 0
ENDMDL
