MODEL 1
REMARK minimizedAffinity 0.752086759
REMARK minimizedRMSD -1
REMARK  0 active torsions:
REMARK  status: ('A' for Active; 'I' for Inactive)
ROOT
ATOM      1  C   UNL d   1       0.861   5.615   2.243  0.00  0.00     0.020 A 
ATOM      2  C1  UNL d   1       2.095   5.153   2.699  0.00  0.00     0.020 A 
ATOM      3  C2  UNL d   1       2.640   3.981   2.170  0.00  0.00     0.034 A 
ATOM      4  C3  UNL d   1       1.952   3.267   1.182  0.00  0.00     0.017 A 
ATOM      5  C4  UNL d   1       0.713   3.732   0.726  0.00  0.00     0.017 A 
ATOM      6  C5  UNL d   1       0.171   4.905   1.259  0.00  0.00     0.034 A 
ATOM      7 Cl   UNL d   1      -0.196   2.905  -0.490  0.00  0.00    -0.070 Cl
ATOM      8 Cl1  UNL d   1       2.686   1.826   0.573  0.00  0.00    -0.070 Cl
ENDROOT
TORSDOF 0
ENDMDL
