MODEL 1
REMARK minimizedAffinity 8.68680573
REMARK minimizedRMSD -1
REMARK  0 active torsions:
REMARK  status: ('A' for Active; 'I' for Inactive)
ROOT
ATOM      1  C   UNL d   1       2.838   0.195   0.067  0.00  0.00     0.020 A 
ATOM      2  C1  UNL d   1       2.868   0.139  -1.326  0.00  0.00     0.020 A 
ATOM      3  C2  UNL d   1       3.851   0.836  -2.031  0.00  0.00     0.034 A 
ATOM      4  C3  UNL d   1       4.807   1.593  -1.344  0.00  0.00     0.017 A 
ATOM      5  C4  UNL d   1       4.776   1.649   0.054  0.00  0.00     0.017 A 
ATOM      6  C5  UNL d   1       3.789   0.949   0.755  0.00  0.00     0.034 A 
ATOM      7 Cl   UNL d   1       5.922   2.562   0.971  0.00  0.00    -0.070 Cl
ATOM      8 Cl1  UNL d   1       5.994   2.430  -2.281  0.00  0.00    -0.070 Cl
ENDROOT
TORSDOF 0
ENDMDL
