MODEL 1
REMARK minimizedAffinity 7.09245586
REMARK minimizedRMSD -1
REMARK  0 active torsions:
REMARK  status: ('A' for Active; 'I' for Inactive)
ROOT
ATOM      1  C   UNL d   1      -3.363  -2.198  -5.864  0.00  0.00     0.020 A 
ATOM      2  C1  UNL d   1      -4.147  -3.343  -6.000  0.00  0.00     0.020 A 
ATOM      3  C2  UNL d   1      -3.811  -4.505  -5.303  0.00  0.00     0.034 A 
ATOM      4  C3  UNL d   1      -2.689  -4.526  -4.467  0.00  0.00     0.017 A 
ATOM      5  C4  UNL d   1      -1.902  -3.376  -4.332  0.00  0.00     0.017 A 
ATOM      6  C5  UNL d   1      -2.243  -2.215  -5.032  0.00  0.00     0.034 A 
ATOM      7 Cl   UNL d   1      -0.503  -3.325  -3.319  0.00  0.00    -0.070 Cl
ATOM      8 Cl1  UNL d   1      -2.333  -5.998  -3.636  0.00  0.00    -0.070 Cl
ENDROOT
TORSDOF 0
ENDMDL
