MODEL 1
REMARK minimizedAffinity 0.200542316
REMARK minimizedRMSD -1
REMARK  0 active torsions:
REMARK  status: ('A' for Active; 'I' for Inactive)
ROOT
ATOM      1  C   UNL d   1      -2.795  -1.215  -4.473  0.00  0.00     0.020 A 
ATOM      2  C1  UNL d   1      -3.524  -2.120  -5.243  0.00  0.00     0.020 A 
ATOM      3  C2  UNL d   1      -3.298  -3.492  -5.110  0.00  0.00     0.034 A 
ATOM      4  C3  UNL d   1      -2.340  -3.962  -4.204  0.00  0.00     0.017 A 
ATOM      5  C4  UNL d   1      -1.609  -3.052  -3.431  0.00  0.00     0.017 A 
ATOM      6  C5  UNL d   1      -1.840  -1.680  -3.569  0.00  0.00     0.034 A 
ATOM      7 Cl   UNL d   1      -0.411  -3.557  -2.293  0.00  0.00    -0.070 Cl
ATOM      8 Cl1  UNL d   1      -2.113  -5.671  -4.090  0.00  0.00    -0.070 Cl
ENDROOT
TORSDOF 0
ENDMDL
