MODEL 1
REMARK minimizedAffinity 15.0261278
REMARK minimizedRMSD -1
REMARK  0 active torsions:
REMARK  status: ('A' for Active; 'I' for Inactive)
ROOT
ATOM      1  C   UNL d   1      -6.000  -0.763  -1.153  0.00  0.00     0.020 A 
ATOM      2  C1  UNL d   1      -5.118  -0.405  -0.134  0.00  0.00     0.020 A 
ATOM      3  C2  UNL d   1      -3.799  -0.062  -0.441  0.00  0.00     0.034 A 
ATOM      4  C3  UNL d   1      -3.359  -0.077  -1.769  0.00  0.00     0.017 A 
ATOM      5  C4  UNL d   1      -4.245  -0.438  -2.791  0.00  0.00     0.017 A 
ATOM      6  C5  UNL d   1      -5.564  -0.780  -2.478  0.00  0.00     0.034 A 
ATOM      7 Cl   UNL d   1      -3.774  -0.480  -4.454  0.00  0.00    -0.070 Cl
ATOM      8 Cl1  UNL d   1      -1.715   0.358  -2.076  0.00  0.00    -0.070 Cl
ENDROOT
TORSDOF 0
ENDMDL
