MODEL 1
REMARK minimizedAffinity 12.32722
REMARK minimizedRMSD -1
REMARK  0 active torsions:
REMARK  status: ('A' for Active; 'I' for Inactive)
ROOT
ATOM      1  C   UNL d   1       5.169   1.819  -2.990  0.00  0.00     0.020 A 
ATOM      2  C1  UNL d   1       5.999   2.624  -2.210  0.00  0.00     0.020 A 
ATOM      3  C2  UNL d   1       5.761   2.752  -0.840  0.00  0.00     0.034 A 
ATOM      4  C3  UNL d   1       4.690   2.076  -0.246  0.00  0.00     0.017 A 
ATOM      5  C4  UNL d   1       3.857   1.268  -1.029  0.00  0.00     0.017 A 
ATOM      6  C5  UNL d   1       4.100   1.143  -2.400  0.00  0.00     0.034 A 
ATOM      7 Cl   UNL d   1       2.516   0.403  -0.366  0.00  0.00    -0.070 Cl
ATOM      8 Cl1  UNL d   1       4.454   2.281   1.454  0.00  0.00    -0.070 Cl
ENDROOT
TORSDOF 0
ENDMDL
