MODEL 1
REMARK minimizedAffinity -1.9718138
REMARK minimizedRMSD -1
REMARK  0 active torsions:
REMARK  status: ('A' for Active; 'I' for Inactive)
ROOT
ATOM      1  C   UNL d   1       5.824   3.161   3.353  0.00  0.00     0.078 C 
ATOM      2  C1  UNL d   1       5.816   1.799   3.982  0.00  0.00    -0.077 A 
ATOM      3  C2  UNL d   1       6.000   1.640   5.361  0.00  0.00    -0.001 A 
ATOM      4  C3  UNL d   1       6.000   0.366   5.931  0.00  0.00     0.003 A 
ATOM      5  C4  UNL d   1       5.818  -0.759   5.129  0.00  0.00    -0.005 A 
ATOM      6  C5  UNL d   1       5.636  -0.611   3.756  0.00  0.00     0.003 A 
ATOM      7  C6  UNL d   1       5.636   0.662   3.184  0.00  0.00    -0.001 A 
ENDROOT
TORSDOF 0
ENDMDL
