MODEL 1
REMARK minimizedAffinity -1.97470176
REMARK minimizedRMSD -1
REMARK  0 active torsions:
REMARK  status: ('A' for Active; 'I' for Inactive)
ROOT
ATOM      1  C   UNL d   1      -2.279  -0.464   3.386  0.00  0.00     0.078 C 
ATOM      2  C1  UNL d   1      -1.920   0.977   3.594  0.00  0.00    -0.077 A 
ATOM      3  C2  UNL d   1      -2.460   1.708   4.659  0.00  0.00    -0.001 A 
ATOM      4  C3  UNL d   1      -2.125   3.051   4.835  0.00  0.00     0.003 A 
ATOM      5  C4  UNL d   1      -1.250   3.676   3.949  0.00  0.00    -0.005 A 
ATOM      6  C5  UNL d   1      -0.709   2.957   2.884  0.00  0.00     0.003 A 
ATOM      7  C6  UNL d   1      -1.043   1.614   2.707  0.00  0.00    -0.001 A 
ENDROOT
TORSDOF 0
ENDMDL
