MODEL 1
REMARK minimizedAffinity -3.04589128
REMARK minimizedRMSD -1
REMARK  0 active torsions:
REMARK  status: ('A' for Active; 'I' for Inactive)
ROOT
ATOM      1  C   UNL d   1       5.995   3.537   2.879  0.00  0.00     0.078 C 
ATOM      2  C1  UNL d   1       5.998   2.259   3.663  0.00  0.00    -0.077 A 
ATOM      3  C2  UNL d   1       5.988   1.017   3.018  0.00  0.00    -0.001 A 
ATOM      4  C3  UNL d   1       5.981  -0.165   3.761  0.00  0.00     0.003 A 
ATOM      5  C4  UNL d   1       5.983  -0.115   5.154  0.00  0.00    -0.005 A 
ATOM      6  C5  UNL d   1       5.991   1.117   5.805  0.00  0.00     0.003 A 
ATOM      7  C6  UNL d   1       5.998   2.299   5.063  0.00  0.00    -0.001 A 
ENDROOT
TORSDOF 0
ENDMDL
