MODEL 1
REMARK minimizedAffinity -1.87140441
REMARK minimizedRMSD -1
REMARK  0 active torsions:
REMARK  status: ('A' for Active; 'I' for Inactive)
ROOT
ATOM      1  C   UNL d   1       5.884   0.734   4.420  0.00  0.00     0.078 C 
ATOM      2  C1  UNL d   1       5.932   2.216   4.194  0.00  0.00    -0.077 A 
ATOM      3  C2  UNL d   1       5.965   3.109   5.272  0.00  0.00    -0.001 A 
ATOM      4  C3  UNL d   1       5.999   4.486   5.047  0.00  0.00     0.003 A 
ATOM      5  C4  UNL d   1       6.000   4.983   3.745  0.00  0.00    -0.005 A 
ATOM      6  C5  UNL d   1       5.965   4.102   2.666  0.00  0.00     0.003 A 
ATOM      7  C6  UNL d   1       5.930   2.724   2.889  0.00  0.00    -0.001 A 
ENDROOT
TORSDOF 0
ENDMDL
