MODEL 1
REMARK minimizedAffinity -1.47067869
REMARK minimizedRMSD -1
REMARK  0 active torsions:
REMARK  status: ('A' for Active; 'I' for Inactive)
ROOT
ATOM      1  C   UNL d   1       5.772   3.204   3.829  0.00  0.00     0.078 C 
ATOM      2  C1  UNL d   1       5.799   1.746   4.177  0.00  0.00    -0.077 A 
ATOM      3  C2  UNL d   1       5.987   0.772   3.189  0.00  0.00    -0.001 A 
ATOM      4  C3  UNL d   1       6.000  -0.582   3.526  0.00  0.00     0.003 A 
ATOM      5  C4  UNL d   1       5.823  -0.975   4.851  0.00  0.00    -0.005 A 
ATOM      6  C5  UNL d   1       5.632  -0.014   5.841  0.00  0.00     0.003 A 
ATOM      7  C6  UNL d   1       5.620   1.341   5.506  0.00  0.00    -0.001 A 
ENDROOT
TORSDOF 0
ENDMDL
