MODEL 1
REMARK minimizedAffinity -3.41034937
REMARK minimizedRMSD -1
REMARK  0 active torsions:
REMARK  status: ('A' for Active; 'I' for Inactive)
ROOT
ATOM      1  C   UNL d   1       5.041   3.820   4.035  0.00  0.00     0.078 C 
ATOM      2  C1  UNL d   1       5.292   2.375   4.344  0.00  0.00    -0.077 A 
ATOM      3  C2  UNL d   1       5.780   1.501   3.365  0.00  0.00    -0.001 A 
ATOM      4  C3  UNL d   1       6.000   0.156   3.665  0.00  0.00     0.003 A 
ATOM      5  C4  UNL d   1       5.734  -0.329   4.944  0.00  0.00    -0.005 A 
ATOM      6  C5  UNL d   1       5.246   0.533   5.925  0.00  0.00     0.003 A 
ATOM      7  C6  UNL d   1       5.026   1.878   5.627  0.00  0.00    -0.001 A 
ENDROOT
TORSDOF 0
ENDMDL
