MODEL 1
REMARK minimizedAffinity -2.83134651
REMARK minimizedRMSD -1
REMARK  0 active torsions:
REMARK  status: ('A' for Active; 'I' for Inactive)
ROOT
ATOM      1  C   UNL d   1       5.737  -2.045   4.846  0.00  0.00     0.078 C 
ATOM      2  C1  UNL d   1       5.772  -0.546   4.825  0.00  0.00    -0.077 A 
ATOM      3  C2  UNL d   1       5.605   0.196   6.000  0.00  0.00    -0.001 A 
ATOM      4  C3  UNL d   1       5.630   1.591   5.963  0.00  0.00     0.003 A 
ATOM      5  C4  UNL d   1       5.822   2.256   4.754  0.00  0.00    -0.005 A 
ATOM      6  C5  UNL d   1       5.988   1.526   3.579  0.00  0.00     0.003 A 
ATOM      7  C6  UNL d   1       5.963   0.131   3.613  0.00  0.00    -0.001 A 
ENDROOT
TORSDOF 0
ENDMDL
