MODEL 1
REMARK minimizedAffinity 2.92368507
REMARK minimizedRMSD -1
REMARK  0 active torsions:
REMARK  status: ('A' for Active; 'I' for Inactive)
ROOT
ATOM      1  C   UNL d   1       6.000  -3.141   4.398  0.00  0.00     0.078 C 
ATOM      2  C1  UNL d   1       5.990  -1.650   4.551  0.00  0.00    -0.077 A 
ATOM      3  C2  UNL d   1       5.987  -0.810   3.431  0.00  0.00    -0.001 A 
ATOM      4  C3  UNL d   1       5.988   0.577   3.588  0.00  0.00     0.003 A 
ATOM      5  C4  UNL d   1       5.994   1.137   4.864  0.00  0.00    -0.005 A 
ATOM      6  C5  UNL d   1       6.000   0.309   5.985  0.00  0.00     0.003 A 
ATOM      7  C6  UNL d   1       5.999  -1.078   5.830  0.00  0.00    -0.001 A 
ENDROOT
TORSDOF 0
ENDMDL
