MODEL 1
REMARK minimizedAffinity -2.42743802
REMARK minimizedRMSD -1
REMARK  0 active torsions:
REMARK  status: ('A' for Active; 'I' for Inactive)
ROOT
ATOM      1  C   UNL d   1       5.918   5.098   0.202  0.00  0.00     0.078 C 
ATOM      2  C1  UNL d   1       5.935   4.892   1.687  0.00  0.00    -0.077 A 
ATOM      3  C2  UNL d   1       5.994   3.605   2.235  0.00  0.00    -0.001 A 
ATOM      4  C3  UNL d   1       5.999   3.428   3.620  0.00  0.00     0.003 A 
ATOM      5  C4  UNL d   1       5.945   4.533   4.467  0.00  0.00    -0.005 A 
ATOM      6  C5  UNL d   1       5.884   5.817   3.930  0.00  0.00     0.003 A 
ATOM      7  C6  UNL d   1       5.879   5.996   2.546  0.00  0.00    -0.001 A 
ENDROOT
TORSDOF 0
ENDMDL
