MODEL 1
REMARK minimizedAffinity -1.73999441
REMARK minimizedRMSD -1
REMARK  0 active torsions:
REMARK  status: ('A' for Active; 'I' for Inactive)
ROOT
ATOM      1  C   UNL d   1       5.250   0.030   4.506  0.00  0.00     0.078 C 
ATOM      2  C1  UNL d   1       5.051   1.446   4.056  0.00  0.00    -0.077 A 
ATOM      3  C2  UNL d   1       3.921   2.175   4.446  0.00  0.00    -0.001 A 
ATOM      4  C3  UNL d   1       3.744   3.490   4.011  0.00  0.00     0.003 A 
ATOM      5  C4  UNL d   1       4.692   4.087   3.184  0.00  0.00    -0.005 A 
ATOM      6  C5  UNL d   1       5.819   3.369   2.789  0.00  0.00     0.003 A 
ATOM      7  C6  UNL d   1       5.998   2.054   3.222  0.00  0.00    -0.001 A 
ENDROOT
TORSDOF 0
ENDMDL
