MODEL 1
REMARK minimizedAffinity -3.23687172
REMARK minimizedRMSD -1
REMARK  0 active torsions:
REMARK  status: ('A' for Active; 'I' for Inactive)
ROOT
ATOM      1  C   UNL d   1       5.999   3.660   3.059  0.00  0.00     0.078 C 
ATOM      2  C1  UNL d   1       5.877   2.405   3.869  0.00  0.00    -0.077 A 
ATOM      3  C2  UNL d   1       5.654   2.457   5.251  0.00  0.00    -0.001 A 
ATOM      4  C3  UNL d   1       5.553   1.280   5.994  0.00  0.00     0.003 A 
ATOM      5  C4  UNL d   1       5.674   0.042   5.365  0.00  0.00    -0.005 A 
ATOM      6  C5  UNL d   1       5.898  -0.020   3.992  0.00  0.00     0.003 A 
ATOM      7  C6  UNL d   1       5.999   1.156   3.246  0.00  0.00    -0.001 A 
ENDROOT
TORSDOF 0
ENDMDL
