MODEL 1
REMARK minimizedAffinity -2.79801393
REMARK minimizedRMSD -1
REMARK  0 active torsions:
REMARK  status: ('A' for Active; 'I' for Inactive)
ROOT
ATOM      1  C   UNL d   1       5.960   4.022   3.086  0.00  0.00     0.078 C 
ATOM      2  C1  UNL d   1       5.975   2.708   3.808  0.00  0.00    -0.077 A 
ATOM      3  C2  UNL d   1       5.974   1.498   3.103  0.00  0.00    -0.001 A 
ATOM      4  C3  UNL d   1       5.979   0.282   3.789  0.00  0.00     0.003 A 
ATOM      5  C4  UNL d   1       5.983   0.264   5.182  0.00  0.00    -0.005 A 
ATOM      6  C5  UNL d   1       5.981   1.463   5.892  0.00  0.00     0.003 A 
ATOM      7  C6  UNL d   1       5.977   2.680   5.208  0.00  0.00    -0.001 A 
ENDROOT
TORSDOF 0
ENDMDL
