MODEL 1
REMARK minimizedAffinity -1.9349457
REMARK minimizedRMSD -1
REMARK  0 active torsions:
REMARK  status: ('A' for Active; 'I' for Inactive)
ROOT
ATOM      1  C   UNL d   1       5.999  -2.646   4.223  0.00  0.00     0.078 C 
ATOM      2  C1  UNL d   1       5.992  -1.164   4.456  0.00  0.00    -0.077 A 
ATOM      3  C2  UNL d   1       5.997  -0.266   3.382  0.00  0.00    -0.001 A 
ATOM      4  C3  UNL d   1       6.000   1.111   3.613  0.00  0.00     0.003 A 
ATOM      5  C4  UNL d   1       6.000   1.601   4.917  0.00  0.00    -0.005 A 
ATOM      6  C5  UNL d   1       5.998   0.715   5.992  0.00  0.00     0.003 A 
ATOM      7  C6  UNL d   1       5.995  -0.662   5.763  0.00  0.00    -0.001 A 
ENDROOT
TORSDOF 0
ENDMDL
