MODEL 1
REMARK minimizedAffinity -1.63502562
REMARK minimizedRMSD -1
REMARK  0 active torsions:
REMARK  status: ('A' for Active; 'I' for Inactive)
ROOT
ATOM      1  C   UNL d   1       5.989  -2.450   4.306  0.00  0.00     0.078 C 
ATOM      2  C1  UNL d   1       6.000  -0.952   4.371  0.00  0.00    -0.077 A 
ATOM      3  C2  UNL d   1       5.999  -0.284   5.602  0.00  0.00    -0.001 A 
ATOM      4  C3  UNL d   1       6.000   1.111   5.648  0.00  0.00     0.003 A 
ATOM      5  C4  UNL d   1       5.999   1.850   4.467  0.00  0.00    -0.005 A 
ATOM      6  C5  UNL d   1       5.998   1.195   3.238  0.00  0.00     0.003 A 
ATOM      7  C6  UNL d   1       5.998  -0.200   3.190  0.00  0.00    -0.001 A 
ENDROOT
TORSDOF 0
ENDMDL
