MODEL 1
REMARK minimizedAffinity -1.82575667
REMARK minimizedRMSD -1
REMARK  0 active torsions:
REMARK  status: ('A' for Active; 'I' for Inactive)
ROOT
ATOM      1  C   UNL d   1       5.604   4.475   3.769  0.00  0.00     0.078 C 
ATOM      2  C1  UNL d   1       5.622   2.998   4.027  0.00  0.00    -0.077 A 
ATOM      3  C2  UNL d   1       5.997   2.095   3.025  0.00  0.00    -0.001 A 
ATOM      4  C3  UNL d   1       6.000   0.723   3.277  0.00  0.00     0.003 A 
ATOM      5  C4  UNL d   1       5.626   0.240   4.530  0.00  0.00    -0.005 A 
ATOM      6  C5  UNL d   1       5.249   1.131   5.532  0.00  0.00     0.003 A 
ATOM      7  C6  UNL d   1       5.246   2.504   5.283  0.00  0.00    -0.001 A 
ENDROOT
TORSDOF 0
ENDMDL
