MODEL 1
REMARK minimizedAffinity 0.182773784
REMARK minimizedRMSD -1
REMARK  0 active torsions:
REMARK  status: ('A' for Active; 'I' for Inactive)
ROOT
ATOM      1  C   UNL d   1       1.484  -3.277  -3.467  0.00  0.00     0.078 C 
ATOM      2  C1  UNL d   1       1.210  -2.030  -2.681  0.00  0.00    -0.077 A 
ATOM      3  C2  UNL d   1       0.689  -2.096  -1.383  0.00  0.00    -0.001 A 
ATOM      4  C3  UNL d   1       0.429  -0.926  -0.666  0.00  0.00     0.003 A 
ATOM      5  C4  UNL d   1       0.686   0.317  -1.240  0.00  0.00    -0.005 A 
ATOM      6  C5  UNL d   1       1.202   0.393  -2.532  0.00  0.00     0.003 A 
ATOM      7  C6  UNL d   1       1.463  -0.775  -3.250  0.00  0.00    -0.001 A 
ENDROOT
TORSDOF 0
ENDMDL
