MODEL 1
REMARK minimizedAffinity 16.1068707
REMARK minimizedRMSD -1
REMARK  0 active torsions:
REMARK  status: ('A' for Active; 'I' for Inactive)
ROOT
ATOM      1  C4' PXY d   1       1.246  -1.291  -0.311  0.00  0.00     0.077 C 
ATOM      2  C1' PXY d   1       2.153  -0.791  -5.997  0.00  0.00     0.077 C 
ATOM      3  C1  PXY d   1       1.903  -0.925  -4.508  0.00  0.00    -0.082 A 
ATOM      4  C2  PXY d   1       2.723  -0.339  -3.652  0.00  0.00     0.003 A 
ATOM      5  C3  PXY d   1       2.530  -0.476  -2.301  0.00  0.00     0.003 A 
ATOM      6  C4  PXY d   1       1.455  -1.176  -1.823  0.00  0.00    -0.082 A 
ATOM      7  C5  PXY d   1       0.607  -1.768  -2.691  0.00  0.00     0.003 A 
ATOM      8  C6  PXY d   1       0.844  -1.651  -4.057  0.00  0.00     0.003 A 
ENDROOT
TORSDOF 0
ENDMDL
