MODEL 1
REMARK minimizedAffinity 9.87584877
REMARK minimizedRMSD -1
REMARK  0 active torsions:
REMARK  status: ('A' for Active; 'I' for Inactive)
ROOT
ATOM      1  C4' PXY d   1       2.632  -3.915  -0.794  0.00  0.00     0.077 C 
ATOM      2  C1' PXY d   1       1.034   0.768  -3.782  0.00  0.00     0.077 C 
ATOM      3  C1  PXY d   1       1.461  -0.452  -2.991  0.00  0.00    -0.082 A 
ATOM      4  C2  PXY d   1       1.368  -1.653  -3.540  0.00  0.00     0.003 A 
ATOM      5  C3  PXY d   1       1.719  -2.770  -2.827  0.00  0.00     0.003 A 
ATOM      6  C4  PXY d   1       2.222  -2.654  -1.559  0.00  0.00    -0.082 A 
ATOM      7  C5  PXY d   1       2.330  -1.431  -0.996  0.00  0.00     0.003 A 
ATOM      8  C6  PXY d   1       1.929  -0.313  -1.721  0.00  0.00     0.003 A 
ENDROOT
TORSDOF 0
ENDMDL
