MODEL 1
REMARK minimizedAffinity 13.2145548
REMARK minimizedRMSD -1
REMARK  0 active torsions:
REMARK  status: ('A' for Active; 'I' for Inactive)
ROOT
ATOM      1  C4' PXY d   1      -0.616  -0.512  -3.014  0.00  0.00     0.077 C 
ATOM      2  C1' PXY d   1       3.347  -3.384   0.062  0.00  0.00     0.077 C 
ATOM      3  C1  PXY d   1       2.307  -2.640  -0.753  0.00  0.00    -0.082 A 
ATOM      4  C2  PXY d   1       2.214  -1.324  -0.651  0.00  0.00     0.003 A 
ATOM      5  C3  PXY d   1       1.259  -0.640  -1.357  0.00  0.00     0.003 A 
ATOM      6  C4  PXY d   1       0.424  -1.303  -2.217  0.00  0.00    -0.082 A 
ATOM      7  C5  PXY d   1       0.520  -2.644  -2.334  0.00  0.00     0.003 A 
ATOM      8  C6  PXY d   1       1.469  -3.325  -1.578  0.00  0.00     0.003 A 
ENDROOT
TORSDOF 0
ENDMDL
