MODEL 1
REMARK minimizedAffinity 15.1829481
REMARK minimizedRMSD -1
REMARK  0 active torsions:
REMARK  status: ('A' for Active; 'I' for Inactive)
ROOT
ATOM      1  C4' PXY d   1       1.025  -5.994  -1.825  0.00  0.00     0.077 C 
ATOM      2  C1' PXY d   1      -3.855  -3.341  -3.426  0.00  0.00     0.077 C 
ATOM      3  C1  PXY d   1      -2.583  -4.045  -2.999  0.00  0.00    -0.082 A 
ATOM      4  C2  PXY d   1      -1.437  -3.383  -2.999  0.00  0.00     0.003 A 
ATOM      5  C3  PXY d   1      -0.271  -4.014  -2.647  0.00  0.00     0.003 A 
ATOM      6  C4  PXY d   1      -0.287  -5.320  -2.239  0.00  0.00    -0.082 A 
ATOM      7  C5  PXY d   1      -1.453  -6.000  -2.226  0.00  0.00     0.003 A 
ATOM      8  C6  PXY d   1      -2.619  -5.354  -2.627  0.00  0.00     0.003 A 
ENDROOT
TORSDOF 0
ENDMDL
