MODEL 1
REMARK minimizedAffinity 14.5570984
REMARK minimizedRMSD -1
REMARK  0 active torsions:
REMARK  status: ('A' for Active; 'I' for Inactive)
ROOT
ATOM      1  C4' PXY d   1       1.484  -2.619  -0.583  0.00  0.00     0.077 C 
ATOM      2  C1' PXY d   1       4.519   2.301  -0.549  0.00  0.00     0.077 C 
ATOM      3  C1  PXY d   1       3.713   1.017  -0.564  0.00  0.00    -0.082 A 
ATOM      4  C2  PXY d   1       3.975   0.070   0.323  0.00  0.00     0.003 A 
ATOM      5  C3  PXY d   1       3.278  -1.110   0.303  0.00  0.00     0.003 A 
ATOM      6  C4  PXY d   1       2.266  -1.302  -0.599  0.00  0.00    -0.082 A 
ATOM      7  C5  PXY d   1       1.985  -0.337  -1.500  0.00  0.00     0.003 A 
ATOM      8  C6  PXY d   1       2.732   0.838  -1.490  0.00  0.00     0.003 A 
ENDROOT
TORSDOF 0
ENDMDL
