MODEL 1
REMARK minimizedAffinity 15.456068
REMARK minimizedRMSD -1
REMARK  0 active torsions:
REMARK  status: ('A' for Active; 'I' for Inactive)
ROOT
ATOM      1  C4' PXY d   1       3.344   1.413   1.502  0.00  0.00     0.077 C 
ATOM      2  C1' PXY d   1      -0.251   1.940   5.997  0.00  0.00     0.077 C 
ATOM      3  C1  PXY d   1       0.682   1.798   4.811  0.00  0.00    -0.082 A 
ATOM      4  C2  PXY d   1       1.978   1.630   5.015  0.00  0.00     0.003 A 
ATOM      5  C3  PXY d   1       2.840   1.531   3.953  0.00  0.00     0.003 A 
ATOM      6  C4  PXY d   1       2.364   1.552   2.670  0.00  0.00    -0.082 A 
ATOM      7  C5  PXY d   1       1.041   1.713   2.454  0.00  0.00     0.003 A 
ATOM      8  C6  PXY d   1       0.188   1.852   3.544  0.00  0.00     0.003 A 
ENDROOT
TORSDOF 0
ENDMDL
