MODEL 1
REMARK minimizedAffinity 2.86595058
REMARK minimizedRMSD -1
REMARK  0 active torsions:
REMARK  status: ('A' for Active; 'I' for Inactive)
ROOT
ATOM      1  C4' PXY d   1      -3.373  -0.308   0.313  0.00  0.00     0.077 C 
ATOM      2  C1' PXY d   1       0.827  -4.243  -0.225  0.00  0.00     0.077 C 
ATOM      3  C1  PXY d   1      -0.283  -3.221  -0.081  0.00  0.00    -0.082 A 
ATOM      4  C2  PXY d   1      -0.173  -2.047  -0.682  0.00  0.00     0.003 A 
ATOM      5  C3  PXY d   1      -1.152  -1.099  -0.536  0.00  0.00     0.003 A 
ATOM      6  C4  PXY d   1      -2.281  -1.374   0.188  0.00  0.00    -0.082 A 
ATOM      7  C5  PXY d   1      -2.406  -2.573   0.795  0.00  0.00     0.003 A 
ATOM      8  C6  PXY d   1      -1.381  -3.507   0.669  0.00  0.00     0.003 A 
ENDROOT
TORSDOF 0
ENDMDL
