MODEL 1
REMARK minimizedAffinity 16.4816685
REMARK minimizedRMSD -1
REMARK  0 active torsions:
REMARK  status: ('A' for Active; 'I' for Inactive)
ROOT
ATOM      1  C4' PXY d   1      -3.982  -0.111   3.803  0.00  0.00     0.077 C 
ATOM      2  C1' PXY d   1      -6.000  -5.374   5.084  0.00  0.00     0.077 C 
ATOM      3  C1  PXY d   1      -5.467  -3.992   4.761  0.00  0.00    -0.082 A 
ATOM      4  C2  PXY d   1      -5.953  -3.331   3.723  0.00  0.00     0.003 A 
ATOM      5  C3  PXY d   1      -5.460  -2.093   3.397  0.00  0.00     0.003 A 
ATOM      6  C4  PXY d   1      -4.497  -1.505   4.173  0.00  0.00    -0.082 A 
ATOM      7  C5  PXY d   1      -4.004  -2.169   5.239  0.00  0.00     0.003 A 
ATOM      8  C6  PXY d   1      -4.489  -3.441   5.529  0.00  0.00     0.003 A 
ENDROOT
TORSDOF 0
ENDMDL
