MODEL 1
REMARK minimizedAffinity 16.1055202
REMARK minimizedRMSD -1
REMARK  0 active torsions:
REMARK  status: ('A' for Active; 'I' for Inactive)
ROOT
ATOM      1  C4' PXY d   1       2.514   0.657  -0.766  0.00  0.00     0.077 C 
ATOM      2  C1' PXY d   1       0.427   2.152   4.414  0.00  0.00     0.077 C 
ATOM      3  C1  PXY d   1       0.983   1.769   3.056  0.00  0.00    -0.082 A 
ATOM      4  C2  PXY d   1       0.204   1.159   2.178  0.00  0.00     0.003 A 
ATOM      5  C3  PXY d   1       0.700   0.777   0.958  0.00  0.00     0.003 A 
ATOM      6  C4  PXY d   1       1.992   1.071   0.613  0.00  0.00    -0.082 A 
ATOM      7  C5  PXY d   1       2.790   1.703   1.499  0.00  0.00     0.003 A 
ATOM      8  C6  PXY d   1       2.280   2.045   2.748  0.00  0.00     0.003 A 
ENDROOT
TORSDOF 0
ENDMDL
