MODEL 1
REMARK minimizedAffinity 23.8035851
REMARK minimizedRMSD -1
REMARK  0 active torsions:
REMARK  status: ('A' for Active; 'I' for Inactive)
ROOT
ATOM      1  C4' PXY d   1       3.722   1.112  -0.050  0.00  0.00     0.077 C 
ATOM      2  C1' PXY d   1      -0.309  -2.375  -2.287  0.00  0.00     0.077 C 
ATOM      3  C1  PXY d   1       0.751  -1.456  -1.712  0.00  0.00    -0.082 A 
ATOM      4  C2  PXY d   1       1.292  -1.736  -0.538  0.00  0.00     0.003 A 
ATOM      5  C3  PXY d   1       2.229  -0.899   0.011  0.00  0.00     0.003 A 
ATOM      6  C4  PXY d   1       2.655   0.208  -0.673  0.00  0.00    -0.082 A 
ATOM      7  C5  PXY d   1       2.115   0.494  -1.876  0.00  0.00     0.003 A 
ATOM      8  C6  PXY d   1       1.136  -0.346  -2.398  0.00  0.00     0.003 A 
ENDROOT
TORSDOF 0
ENDMDL
