MODEL 1
REMARK minimizedAffinity 9.0490694
REMARK minimizedRMSD -1
REMARK  0 active torsions:
REMARK  status: ('A' for Active; 'I' for Inactive)
ROOT
ATOM      1  C4' PXY d   1      -5.663   2.321   4.499  0.00  0.00     0.077 C 
ATOM      2  C1' PXY d   1       0.036   1.495   5.006  0.00  0.00     0.077 C 
ATOM      3  C1  PXY d   1      -1.460   1.708   4.885  0.00  0.00    -0.082 A 
ATOM      4  C2  PXY d   1      -2.029   1.690   3.691  0.00  0.00     0.003 A 
ATOM      5  C3  PXY d   1      -3.376   1.912   3.561  0.00  0.00     0.003 A 
ATOM      6  C4  PXY d   1      -4.157   2.102   4.669  0.00  0.00    -0.082 A 
ATOM      7  C5  PXY d   1      -3.586   2.111   5.892  0.00  0.00     0.003 A 
ATOM      8  C6  PXY d   1      -2.211   1.924   5.999  0.00  0.00     0.003 A 
ENDROOT
TORSDOF 0
ENDMDL
