MODEL 1
REMARK minimizedAffinity 14.9812651
REMARK minimizedRMSD -1
REMARK  0 active torsions:
REMARK  status: ('A' for Active; 'I' for Inactive)
ROOT
ATOM      1  C4' PXY d   1      -0.327  -3.412  -2.931  0.00  0.00     0.077 C 
ATOM      2  C1' PXY d   1       3.067   0.662  -0.628  0.00  0.00     0.077 C 
ATOM      3  C1  PXY d   1       2.172  -0.398  -1.240  0.00  0.00    -0.082 A 
ATOM      4  C2  PXY d   1       1.869  -1.481  -0.542  0.00  0.00     0.003 A 
ATOM      5  C3  PXY d   1       1.087  -2.463  -1.092  0.00  0.00     0.003 A 
ATOM      6  C4  PXY d   1       0.566  -2.312  -2.350  0.00  0.00    -0.082 A 
ATOM      7  C5  PXY d   1       0.862  -1.205  -3.063  0.00  0.00     0.003 A 
ATOM      8  C6  PXY d   1       1.691  -0.238  -2.503  0.00  0.00     0.003 A 
ENDROOT
TORSDOF 0
ENDMDL
