MODEL 1
REMARK minimizedAffinity 13.2605181
REMARK minimizedRMSD -1
REMARK  0 active torsions:
REMARK  status: ('A' for Active; 'I' for Inactive)
ROOT
ATOM      1  C4' PXY d   1       4.320   0.916  -0.546  0.00  0.00     0.077 C 
ATOM      2  C1' PXY d   1       0.062  -2.713  -1.998  0.00  0.00     0.077 C 
ATOM      3  C1  PXY d   1       1.176  -1.755  -1.629  0.00  0.00    -0.082 A 
ATOM      4  C2  PXY d   1       2.118  -2.141  -0.783  0.00  0.00     0.003 A 
ATOM      5  C3  PXY d   1       3.116  -1.277  -0.413  0.00  0.00     0.003 A 
ATOM      6  C4  PXY d   1       3.180  -0.021  -0.955  0.00  0.00    -0.082 A 
ATOM      7  C5  PXY d   1       2.230   0.377  -1.827  0.00  0.00     0.003 A 
ATOM      8  C6  PXY d   1       1.202  -0.502  -2.158  0.00  0.00     0.003 A 
ENDROOT
TORSDOF 0
ENDMDL
