MODEL 1
REMARK minimizedAffinity -0.979702353
REMARK minimizedRMSD -1
REMARK  0 active torsions:
REMARK  status: ('A' for Active; 'I' for Inactive)
ROOT
ATOM      1  C4' PXY d   1      -5.997  -3.000  -6.000  0.00  0.00     0.077 C 
ATOM      2  C1' PXY d   1      -1.277  -6.000  -4.536  0.00  0.00     0.077 C 
ATOM      3  C1  PXY d   1      -2.513  -5.205  -4.910  0.00  0.00    -0.082 A 
ATOM      4  C2  PXY d   1      -3.473  -5.781  -5.615  0.00  0.00     0.003 A 
ATOM      5  C3  PXY d   1      -4.582  -5.068  -5.989  0.00  0.00     0.003 A 
ATOM      6  C4  PXY d   1      -4.736  -3.767  -5.591  0.00  0.00    -0.082 A 
ATOM      7  C5  PXY d   1      -3.766  -3.175  -4.863  0.00  0.00     0.003 A 
ATOM      8  C6  PXY d   1      -2.628  -3.904  -4.528  0.00  0.00     0.003 A 
ENDROOT
TORSDOF 0
ENDMDL
