MODEL 1
REMARK minimizedAffinity 9.51832104
REMARK minimizedRMSD -1
REMARK  0 active torsions:
REMARK  status: ('A' for Active; 'I' for Inactive)
ROOT
ATOM      1  C4' PXY d   1       0.044  -5.997  -2.952  0.00  0.00     0.077 C 
ATOM      2  C1' PXY d   1      -3.974  -2.394  -5.023  0.00  0.00     0.077 C 
ATOM      3  C1  PXY d   1      -2.918  -3.331  -4.470  0.00  0.00    -0.082 A 
ATOM      4  C2  PXY d   1      -2.315  -4.187  -5.278  0.00  0.00     0.003 A 
ATOM      5  C3  PXY d   1      -1.381  -5.063  -4.789  0.00  0.00     0.003 A 
ATOM      6  C4  PXY d   1      -1.021  -5.026  -3.468  0.00  0.00    -0.082 A 
ATOM      7  C5  PXY d   1      -1.624  -4.148  -2.639  0.00  0.00     0.003 A 
ATOM      8  C6  PXY d   1      -2.599  -3.295  -3.147  0.00  0.00     0.003 A 
ENDROOT
TORSDOF 0
ENDMDL
