MODEL 1
REMARK minimizedAffinity 2.73087478
REMARK minimizedRMSD -1
REMARK  0 active torsions:
REMARK  status: ('A' for Active; 'I' for Inactive)
ROOT
ATOM      1  C4' PXY d   1      -5.627  -2.629  -5.999  0.00  0.00     0.077 C 
ATOM      2  C1' PXY d   1      -1.542  -5.999  -3.683  0.00  0.00     0.077 C 
ATOM      3  C1  PXY d   1      -2.614  -5.123  -4.300  0.00  0.00    -0.082 A 
ATOM      4  C2  PXY d   1      -2.667  -3.838  -3.992  0.00  0.00     0.003 A 
ATOM      5  C3  PXY d   1      -3.650  -3.038  -4.516  0.00  0.00     0.003 A 
ATOM      6  C4  PXY d   1      -4.555  -3.548  -5.407  0.00  0.00    -0.082 A 
ATOM      7  C5  PXY d   1      -4.502  -4.857  -5.735  0.00  0.00     0.003 A 
ATOM      8  C6  PXY d   1      -3.522  -5.660  -5.160  0.00  0.00     0.003 A 
ENDROOT
TORSDOF 0
ENDMDL
