MODEL 1
REMARK minimizedAffinity -2.49395394
REMARK minimizedRMSD -1
REMARK  0 active torsions:
REMARK  status: ('A' for Active; 'I' for Inactive)
ROOT
ATOM      1  C4' PXY d   1      -5.237  -2.811  -5.571  0.00  0.00     0.077 C 
ATOM      2  C1' PXY d   1      -0.678  -6.000  -4.003  0.00  0.00     0.077 C 
ATOM      3  C1  PXY d   1      -1.877  -5.173  -4.423  0.00  0.00    -0.082 A 
ATOM      4  C2  PXY d   1      -1.868  -3.864  -4.231  0.00  0.00     0.003 A 
ATOM      5  C3  PXY d   1      -2.957  -3.105  -4.576  0.00  0.00     0.003 A 
ATOM      6  C4  PXY d   1      -4.045  -3.684  -5.171  0.00  0.00    -0.082 A 
ATOM      7  C5  PXY d   1      -4.057  -5.018  -5.380  0.00  0.00     0.003 A 
ATOM      8  C6  PXY d   1      -2.959  -5.776  -4.986  0.00  0.00     0.003 A 
ENDROOT
TORSDOF 0
ENDMDL
