MODEL 1
REMARK minimizedAffinity 8.29463577
REMARK minimizedRMSD -1
REMARK  0 active torsions:
REMARK  status: ('A' for Active; 'I' for Inactive)
ROOT
ATOM      1  C4' PXY d   1       2.963   0.449  -0.661  0.00  0.00     0.077 C 
ATOM      2  C1' PXY d   1      -0.377  -3.955  -2.352  0.00  0.00     0.077 C 
ATOM      3  C1  PXY d   1       0.496  -2.803  -1.896  0.00  0.00    -0.082 A 
ATOM      4  C2  PXY d   1       0.691  -1.771  -2.701  0.00  0.00     0.003 A 
ATOM      5  C3  PXY d   1       1.503  -0.736  -2.317  0.00  0.00     0.003 A 
ATOM      6  C4  PXY d   1       2.081  -0.732  -1.076  0.00  0.00    -0.082 A 
ATOM      7  C5  PXY d   1       1.879  -1.776  -0.245  0.00  0.00     0.003 A 
ATOM      8  C6  PXY d   1       1.084  -2.837  -0.669  0.00  0.00     0.003 A 
ENDROOT
TORSDOF 0
ENDMDL
