MODEL 1
REMARK minimizedAffinity 11.7533808
REMARK minimizedRMSD -1
REMARK  0 active torsions:
REMARK  status: ('A' for Active; 'I' for Inactive)
ROOT
ATOM      1  C4' PXY d   1       1.141  -1.138  -0.168  0.00  0.00     0.077 C 
ATOM      2  C1' PXY d   1       3.256  -1.846  -5.501  0.00  0.00     0.077 C 
ATOM      3  C1  PXY d   1       2.698  -1.673  -4.102  0.00  0.00    -0.082 A 
ATOM      4  C2  PXY d   1       2.272  -0.483  -3.710  0.00  0.00     0.003 A 
ATOM      5  C3  PXY d   1       1.794  -0.302  -2.438  0.00  0.00     0.003 A 
ATOM      6  C4  PXY d   1       1.703  -1.361  -1.575  0.00  0.00    -0.082 A 
ATOM      7  C5  PXY d   1       2.126  -2.580  -1.970  0.00  0.00     0.003 A 
ATOM      8  C6  PXY d   1       2.646  -2.735  -3.252  0.00  0.00     0.003 A 
ENDROOT
TORSDOF 0
ENDMDL
