MODEL 1
REMARK minimizedAffinity 16.5426025
REMARK minimizedRMSD -1
REMARK  0 active torsions:
REMARK  status: ('A' for Active; 'I' for Inactive)
ROOT
ATOM      1  C4' PXY d   1      -4.914   3.288   3.796  0.00  0.00     0.077 C 
ATOM      2  C1' PXY d   1      -2.926  -2.131   4.092  0.00  0.00     0.077 C 
ATOM      3  C1  PXY d   1      -3.450  -0.710   4.027  0.00  0.00    -0.082 A 
ATOM      4  C2  PXY d   1      -3.903  -0.232   2.880  0.00  0.00     0.003 A 
ATOM      5  C3  PXY d   1      -4.351   1.061   2.796  0.00  0.00     0.003 A 
ATOM      6  C4  PXY d   1      -4.384   1.856   3.910  0.00  0.00    -0.082 A 
ATOM      7  C5  PXY d   1      -3.933   1.372   5.087  0.00  0.00     0.003 A 
ATOM      8  C6  PXY d   1      -3.445   0.070   5.142  0.00  0.00     0.003 A 
ENDROOT
TORSDOF 0
ENDMDL
