MODEL 1
REMARK minimizedAffinity 10.2999763
REMARK minimizedRMSD -1
REMARK  0 active torsions:
REMARK  status: ('A' for Active; 'I' for Inactive)
ROOT
ATOM      1  N1  IND d   1       2.457   0.155  -0.744  0.00  0.00    -0.196 N 
ATOM      2  C2  IND d   1       2.055  -1.122  -1.018  0.00  0.00     0.054 A 
ATOM      3  C3  IND d   1       2.982  -2.009  -0.593  0.00  0.00    -0.031 A 
ATOM      4  C4  IND d   1       5.186  -1.592   0.670  0.00  0.00     0.051 A 
ATOM      5  C5  IND d   1       5.999  -0.588   1.115  0.00  0.00    -0.031 A 
ATOM      6  C6  IND d   1       5.665   0.742   0.963  0.00  0.00     0.015 A 
ATOM      7  C7  IND d   1       4.495   1.119   0.367  0.00  0.00    -0.016 A 
ATOM      8  C8  IND d   1       3.670   0.102  -0.092  0.00  0.00    -0.047 A 
ATOM      9  C9  IND d   1       4.024  -1.249   0.021  0.00  0.00    -0.096 A 
ATOM     10  HN1 IND d   1       2.025   0.871  -0.944  0.00  0.00     0.298 HD
ENDROOT
TORSDOF 0
ENDMDL
