MODEL 1
REMARK minimizedAffinity 8.87996006
REMARK minimizedRMSD -1
REMARK  0 active torsions:
REMARK  status: ('A' for Active; 'I' for Inactive)
ROOT
ATOM      1  N1  IND d   1      -3.201   0.868   2.935  0.00  0.00    -0.196 N 
ATOM      2  C2  IND d   1      -3.948   0.857   1.790  0.00  0.00     0.054 A 
ATOM      3  C3  IND d   1      -3.268   0.252   0.790  0.00  0.00    -0.031 A 
ATOM      4  C4  IND d   1      -0.957  -0.881   0.837  0.00  0.00     0.051 A 
ATOM      5  C5  IND d   1       0.123  -1.094   1.648  0.00  0.00    -0.031 A 
ATOM      6  C6  IND d   1       0.149  -0.656   2.956  0.00  0.00     0.015 A 
ATOM      7  C7  IND d   1      -0.913   0.003   3.508  0.00  0.00    -0.016 A 
ATOM      8  C8  IND d   1      -2.008   0.226   2.686  0.00  0.00    -0.047 A 
ATOM      9  C9  IND d   1      -2.023  -0.178   1.345  0.00  0.00    -0.096 A 
ATOM     10  HN1 IND d   1      -3.437   1.218   3.684  0.00  0.00     0.298 HD
ENDROOT
TORSDOF 0
ENDMDL
