MODEL 1
REMARK minimizedAffinity 11.8973455
REMARK minimizedRMSD -1
REMARK  0 active torsions:
REMARK  status: ('A' for Active; 'I' for Inactive)
ROOT
ATOM      1  N1  IND d   1      -2.035  -1.869  -3.374  0.00  0.00    -0.196 N 
ATOM      2  C2  IND d   1      -1.754  -1.195  -2.218  0.00  0.00     0.054 A 
ATOM      3  C3  IND d   1      -2.297   0.043  -2.251  0.00  0.00    -0.031 A 
ATOM      4  C4  IND d   1      -3.771   1.135  -4.057  0.00  0.00     0.051 A 
ATOM      5  C5  IND d   1      -4.271   0.924  -5.311  0.00  0.00    -0.031 A 
ATOM      6  C6  IND d   1      -4.049  -0.253  -5.996  0.00  0.00     0.015 A 
ATOM      7  C7  IND d   1      -3.325  -1.272  -5.446  0.00  0.00    -0.016 A 
ATOM      8  C8  IND d   1      -2.810  -1.059  -4.175  0.00  0.00    -0.047 A 
ATOM      9  C9  IND d   1      -2.996   0.149  -3.492  0.00  0.00    -0.096 A 
ATOM     10  HN1 IND d   1      -1.772  -2.664  -3.568  0.00  0.00     0.298 HD
ENDROOT
TORSDOF 0
ENDMDL
