MODEL 1
REMARK minimizedAffinity 1.88724375
REMARK minimizedRMSD -1
REMARK  0 active torsions:
REMARK  status: ('A' for Active; 'I' for Inactive)
ROOT
ATOM      1  N1  IND d   1      -2.887   0.592  -4.557  0.00  0.00    -0.196 N 
ATOM      2  C2  IND d   1      -3.901   0.965  -5.394  0.00  0.00     0.054 A 
ATOM      3  C3  IND d   1      -4.961   0.139  -5.246  0.00  0.00    -0.031 A 
ATOM      4  C4  IND d   1      -5.287  -1.827  -3.616  0.00  0.00     0.051 A 
ATOM      5  C5  IND d   1      -4.625  -2.571  -2.679  0.00  0.00    -0.031 A 
ATOM      6  C6  IND d   1      -3.325  -2.291  -2.312  0.00  0.00     0.015 A 
ATOM      7  C7  IND d   1      -2.639  -1.246  -2.861  0.00  0.00    -0.016 A 
ATOM      8  C8  IND d   1      -3.305  -0.492  -3.817  0.00  0.00    -0.047 A 
ATOM      9  C9  IND d   1      -4.610  -0.797  -4.225  0.00  0.00    -0.096 A 
ATOM     10  HN1 IND d   1      -2.117   0.971  -4.502  0.00  0.00     0.298 HD
ENDROOT
TORSDOF 0
ENDMDL
