MODEL 1
REMARK minimizedAffinity 13.3353987
REMARK minimizedRMSD -1
REMARK  0 active torsions:
REMARK  status: ('A' for Active; 'I' for Inactive)
ROOT
ATOM      1  N1  IND d   1      -4.158   0.303  -4.742  0.00  0.00    -0.196 N 
ATOM      2  C2  IND d   1      -5.101  -0.151  -5.622  0.00  0.00     0.054 A 
ATOM      3  C3  IND d   1      -5.979   0.832  -5.921  0.00  0.00    -0.031 A 
ATOM      4  C4  IND d   1      -6.000   3.292  -5.161  0.00  0.00     0.051 A 
ATOM      5  C5  IND d   1      -5.363   4.167  -4.327  0.00  0.00    -0.031 A 
ATOM      6  C6  IND d   1      -4.267   3.792  -3.576  0.00  0.00     0.015 A 
ATOM      7  C7  IND d   1      -3.759   2.526  -3.640  0.00  0.00    -0.016 A 
ATOM      8  C8  IND d   1      -4.408   1.632  -4.480  0.00  0.00    -0.047 A 
ATOM      9  C9  IND d   1      -5.546   1.995  -5.212  0.00  0.00    -0.096 A 
ATOM     10  HN1 IND d   1      -3.517  -0.162  -4.409  0.00  0.00     0.298 HD
ENDROOT
TORSDOF 0
ENDMDL
