MODEL 1
REMARK minimizedAffinity 12.288475
REMARK minimizedRMSD -1
REMARK  0 active torsions:
REMARK  status: ('A' for Active; 'I' for Inactive)
ROOT
ATOM      1  N1  IND d   1      -2.849   1.078   3.364  0.00  0.00    -0.196 N 
ATOM      2  C2  IND d   1      -3.783   0.851   2.392  0.00  0.00     0.054 A 
ATOM      3  C3  IND d   1      -3.324  -0.055   1.500  0.00  0.00    -0.031 A 
ATOM      4  C4  IND d   1      -1.111  -1.371   1.498  0.00  0.00     0.051 A 
ATOM      5  C5  IND d   1       0.078  -1.480   2.163  0.00  0.00    -0.031 A 
ATOM      6  C6  IND d   1       0.357  -0.728   3.286  0.00  0.00     0.015 A 
ATOM      7  C7  IND d   1      -0.552   0.156   3.795  0.00  0.00    -0.016 A 
ATOM      8  C8  IND d   1      -1.758   0.274   3.119  0.00  0.00    -0.047 A 
ATOM      9  C9  IND d   1      -2.030  -0.455   1.954  0.00  0.00    -0.096 A 
ATOM     10  HN1 IND d   1      -2.930   1.629   4.018  0.00  0.00     0.298 HD
ENDROOT
TORSDOF 0
ENDMDL
