MODEL 1
REMARK minimizedAffinity 2.18125606
REMARK minimizedRMSD -1
REMARK  0 active torsions:
REMARK  status: ('A' for Active; 'I' for Inactive)
ROOT
ATOM      1  N1  IND d   1       0.776  -1.390  -0.878  0.00  0.00    -0.196 N 
ATOM      2  C2  IND d   1       1.501  -2.060   0.068  0.00  0.00     0.054 A 
ATOM      3  C3  IND d   1       2.520  -1.290   0.511  0.00  0.00    -0.031 A 
ATOM      4  C4  IND d   1       3.126   1.135  -0.104  0.00  0.00     0.051 A 
ATOM      5  C5  IND d   1       2.778   2.151  -0.949  0.00  0.00    -0.031 A 
ATOM      6  C6  IND d   1       1.722   2.037  -1.830  0.00  0.00     0.015 A 
ATOM      7  C7  IND d   1       0.964   0.902  -1.890  0.00  0.00    -0.016 A 
ATOM      8  C8  IND d   1       1.318  -0.134  -1.038  0.00  0.00    -0.047 A 
ATOM      9  C9  IND d   1       2.416  -0.040  -0.172  0.00  0.00    -0.096 A 
ATOM     10  HN1 IND d   1       0.095  -1.701  -1.302  0.00  0.00     0.298 HD
ENDROOT
TORSDOF 0
ENDMDL
