MODEL 1
REMARK minimizedAffinity -2.57543182
REMARK minimizedRMSD -1
REMARK  0 active torsions:
REMARK  status: ('A' for Active; 'I' for Inactive)
ROOT
ATOM      1  N1  IND d   1       1.107   0.622  -1.289  0.00  0.00    -0.196 N 
ATOM      2  C2  IND d   1       2.056  -0.323  -1.017  0.00  0.00     0.054 A 
ATOM      3  C3  IND d   1       1.646  -1.126  -0.010  0.00  0.00    -0.031 A 
ATOM      4  C4  IND d   1      -0.588  -1.134   1.269  0.00  0.00     0.051 A 
ATOM      5  C5  IND d   1      -1.756  -0.437   1.401  0.00  0.00    -0.031 A 
ATOM      6  C6  IND d   1      -2.037   0.669   0.625  0.00  0.00     0.015 A 
ATOM      7  C7  IND d   1      -1.160   1.115  -0.323  0.00  0.00    -0.016 A 
ATOM      8  C8  IND d   1       0.030   0.414  -0.455  0.00  0.00    -0.047 A 
ATOM      9  C9  IND d   1       0.339  -0.684   0.359  0.00  0.00    -0.096 A 
ATOM     10  HN1 IND d   1       1.171   1.242  -1.881  0.00  0.00     0.298 HD
ENDROOT
TORSDOF 0
ENDMDL
