MODEL 1
REMARK minimizedAffinity -3.81154895
REMARK minimizedRMSD -1
REMARK  0 active torsions:
REMARK  status: ('A' for Active; 'I' for Inactive)
ROOT
ATOM      1  C1  BNZ d   1       0.021   0.363   2.330  0.00  0.00     0.000 A 
ATOM      2  C2  BNZ d   1      -1.329   0.589   2.283  0.00  0.00     0.000 A 
ATOM      3  C3  BNZ d   1      -1.981   0.680   1.085  0.00  0.00     0.000 A 
ATOM      4  C4  BNZ d   1      -1.279   0.585  -0.062  0.00  0.00     0.000 A 
ATOM      5  C5  BNZ d   1       0.084   0.365  -0.031  0.00  0.00     0.000 A 
ATOM      6  C6  BNZ d   1       0.732   0.236   1.176  0.00  0.00     0.000 A 
ENDROOT
TORSDOF 0
ENDMDL
