MODEL 1
REMARK minimizedAffinity -4.86832333
REMARK minimizedRMSD -1
REMARK  0 active torsions:
REMARK  status: ('A' for Active; 'I' for Inactive)
ROOT
ATOM      1  C1  BNZ d   1      -1.803   0.002   1.894  0.00  0.00     0.000 A 
ATOM      2  C2  BNZ d   1      -1.346   0.069   0.604  0.00  0.00     0.000 A 
ATOM      3  C3  BNZ d   1      -0.010  -0.022   0.330  0.00  0.00     0.000 A 
ATOM      4  C4  BNZ d   1       0.869  -0.139   1.345  0.00  0.00     0.000 A 
ATOM      5  C5  BNZ d   1       0.425  -0.198   2.651  0.00  0.00     0.000 A 
ATOM      6  C6  BNZ d   1      -0.923  -0.146   2.921  0.00  0.00     0.000 A 
ENDROOT
TORSDOF 0
ENDMDL
