MODEL 1
REMARK minimizedAffinity -3.45741296
REMARK minimizedRMSD -1
REMARK  0 active torsions:
REMARK  status: ('A' for Active; 'I' for Inactive)
ROOT
ATOM      1  C1  BNZ d   1      -0.332   0.024   2.993  0.00  0.00     0.000 A 
ATOM      2  C2  BNZ d   1      -1.690   0.164   3.095  0.00  0.00     0.000 A 
ATOM      3  C3  BNZ d   1      -2.469   0.269   1.977  0.00  0.00     0.000 A 
ATOM      4  C4  BNZ d   1      -1.886   0.275   0.761  0.00  0.00     0.000 A 
ATOM      5  C5  BNZ d   1      -0.517   0.145   0.642  0.00  0.00     0.000 A 
ATOM      6  C6  BNZ d   1       0.260  -0.001   1.768  0.00  0.00     0.000 A 
ENDROOT
TORSDOF 0
ENDMDL
