MODEL 1
REMARK minimizedAffinity -4.99257708
REMARK minimizedRMSD -1
REMARK  0 active torsions:
REMARK  status: ('A' for Active; 'I' for Inactive)
ROOT
ATOM      1  C1  BNZ d   1      -0.342   0.279   1.447  0.00  0.00     0.000 A 
ATOM      2  C2  BNZ d   1      -1.555   0.610   0.905  0.00  0.00     0.000 A 
ATOM      3  C3  BNZ d   1      -2.704   0.015   1.345  0.00  0.00     0.000 A 
ATOM      4  C4  BNZ d   1      -2.634  -0.938   2.297  0.00  0.00     0.000 A 
ATOM      5  C5  BNZ d   1      -1.417  -1.290   2.846  0.00  0.00     0.000 A 
ATOM      6  C6  BNZ d   1      -0.267  -0.660   2.428  0.00  0.00     0.000 A 
ENDROOT
TORSDOF 0
ENDMDL
