MODEL 1
REMARK minimizedAffinity -4.43749857
REMARK minimizedRMSD -1
REMARK  0 active torsions:
REMARK  status: ('A' for Active; 'I' for Inactive)
ROOT
ATOM      1  C1  BNZ d   1      -1.825  -1.166   3.109  0.00  0.00     0.000 A 
ATOM      2  C2  BNZ d   1      -1.932  -0.655   1.843  0.00  0.00     0.000 A 
ATOM      3  C3  BNZ d   1      -0.818  -0.306   1.132  0.00  0.00     0.000 A 
ATOM      4  C4  BNZ d   1       0.398  -0.431   1.702  0.00  0.00     0.000 A 
ATOM      5  C5  BNZ d   1       0.522  -0.936   2.981  0.00  0.00     0.000 A 
ATOM      6  C6  BNZ d   1      -0.599  -1.322   3.679  0.00  0.00     0.000 A 
ENDROOT
TORSDOF 0
ENDMDL
