MODEL 1
REMARK minimizedAffinity -0.628052592
REMARK minimizedRMSD -1
REMARK  0 active torsions:
REMARK  status: ('A' for Active; 'I' for Inactive)
ROOT
ATOM      1  C1  BNZ d   1      -1.156   0.068  -0.095  0.00  0.00     0.000 A 
ATOM      2  C2  BNZ d   1       0.152  -0.100   0.275  0.00  0.00     0.000 A 
ATOM      3  C3  BNZ d   1       0.545   0.105   1.568  0.00  0.00     0.000 A 
ATOM      4  C4  BNZ d   1      -0.360   0.517   2.479  0.00  0.00     0.000 A 
ATOM      5  C5  BNZ d   1      -1.680   0.699   2.120  0.00  0.00     0.000 A 
ATOM      6  C6  BNZ d   1      -2.080   0.454   0.826  0.00  0.00     0.000 A 
ENDROOT
TORSDOF 0
ENDMDL
