MODEL 1
REMARK minimizedAffinity -4.86320925
REMARK minimizedRMSD -1
REMARK  0 active torsions:
REMARK  status: ('A' for Active; 'I' for Inactive)
ROOT
ATOM      1  C1  BNZ d   1      -1.329   0.041   3.424  0.00  0.00     0.000 A 
ATOM      2  C2  BNZ d   1      -0.026   0.071   3.004  0.00  0.00     0.000 A 
ATOM      3  C3  BNZ d   1       0.280   0.156   1.674  0.00  0.00     0.000 A 
ATOM      4  C4  BNZ d   1      -0.717   0.170   0.765  0.00  0.00     0.000 A 
ATOM      5  C5  BNZ d   1      -2.035   0.131   1.172  0.00  0.00     0.000 A 
ATOM      6  C6  BNZ d   1      -2.339   0.085   2.513  0.00  0.00     0.000 A 
ENDROOT
TORSDOF 0
ENDMDL
