MODEL 1
REMARK minimizedAffinity -2.92472911
REMARK minimizedRMSD -1
REMARK  0 active torsions:
REMARK  status: ('A' for Active; 'I' for Inactive)
ROOT
ATOM      1  C1  BNZ d   1      -0.038   0.156   2.525  0.00  0.00     0.000 A 
ATOM      2  C2  BNZ d   1      -1.373   0.436   2.410  0.00  0.00     0.000 A 
ATOM      3  C3  BNZ d   1      -1.959   0.557   1.181  0.00  0.00     0.000 A 
ATOM      4  C4  BNZ d   1      -1.203   0.437   0.071  0.00  0.00     0.000 A 
ATOM      5  C5  BNZ d   1       0.147   0.163   0.171  0.00  0.00     0.000 A 
ATOM      6  C6  BNZ d   1       0.726   0.004   1.409  0.00  0.00     0.000 A 
ENDROOT
TORSDOF 0
ENDMDL
