MODEL 1
REMARK minimizedAffinity -4.34391499
REMARK minimizedRMSD -1
REMARK  0 active torsions:
REMARK  status: ('A' for Active; 'I' for Inactive)
ROOT
ATOM      1  C1  BNZ d   1      -1.020  -0.276   0.639  0.00  0.00     0.000 A 
ATOM      2  C2  BNZ d   1      -2.341  -0.041   0.909  0.00  0.00     0.000 A 
ATOM      3  C3  BNZ d   1      -2.801  -0.027   2.197  0.00  0.00     0.000 A 
ATOM      4  C4  BNZ d   1      -1.948  -0.289   3.208  0.00  0.00     0.000 A 
ATOM      5  C5  BNZ d   1      -0.615  -0.537   2.951  0.00  0.00     0.000 A 
ATOM      6  C6  BNZ d   1      -0.148  -0.512   1.657  0.00  0.00     0.000 A 
ENDROOT
TORSDOF 0
ENDMDL
