MODEL 1
REMARK minimizedAffinity -2.44567752
REMARK minimizedRMSD -1
REMARK  0 active torsions:
REMARK  status: ('A' for Active; 'I' for Inactive)
ROOT
ATOM      1  C1  BNZ d   1      -0.016  -0.683  -1.859  0.00  0.00     0.000 A 
ATOM      2  C2  BNZ d   1       0.423  -1.909  -2.283  0.00  0.00     0.000 A 
ATOM      3  C3  BNZ d   1       1.543  -2.021  -3.058  0.00  0.00     0.000 A 
ATOM      4  C4  BNZ d   1       2.199  -0.907  -3.441  0.00  0.00     0.000 A 
ATOM      5  C5  BNZ d   1       1.763   0.337  -3.029  0.00  0.00     0.000 A 
ATOM      6  C6  BNZ d   1       0.658   0.443  -2.217  0.00  0.00     0.000 A 
ENDROOT
TORSDOF 0
ENDMDL
