MODEL 1
REMARK minimizedAffinity -2.81964278
REMARK minimizedRMSD -1
REMARK  0 active torsions:
REMARK  status: ('A' for Active; 'I' for Inactive)
ROOT
ATOM      1  C1  BNZ d   1       1.097  -0.040   1.370  0.00  0.00     0.000 A 
ATOM      2  C2  BNZ d   1       1.537  -0.161   0.079  0.00  0.00     0.000 A 
ATOM      3  C3  BNZ d   1       0.706   0.108  -0.972  0.00  0.00     0.000 A 
ATOM      4  C4  BNZ d   1      -0.574   0.458  -0.731  0.00  0.00     0.000 A 
ATOM      5  C5  BNZ d   1      -1.036   0.575   0.565  0.00  0.00     0.000 A 
ATOM      6  C6  BNZ d   1      -0.185   0.341   1.620  0.00  0.00     0.000 A 
ENDROOT
TORSDOF 0
ENDMDL
