MODEL 1
REMARK minimizedAffinity -3.60975337
REMARK minimizedRMSD -1
REMARK  0 active torsions:
REMARK  status: ('A' for Active; 'I' for Inactive)
ROOT
ATOM      1  C1  BNZ d   1      -0.768   0.437   3.067  0.00  0.00     0.000 A 
ATOM      2  C2  BNZ d   1      -2.130   0.579   3.078  0.00  0.00     0.000 A 
ATOM      3  C3  BNZ d   1      -2.850   0.509   1.919  0.00  0.00     0.000 A 
ATOM      4  C4  BNZ d   1      -2.205   0.339   0.747  0.00  0.00     0.000 A 
ATOM      5  C5  BNZ d   1      -0.831   0.204   0.718  0.00  0.00     0.000 A 
ATOM      6  C6  BNZ d   1      -0.113   0.235   1.891  0.00  0.00     0.000 A 
ENDROOT
TORSDOF 0
ENDMDL
