MODEL 1
REMARK minimizedAffinity -5.34192085
REMARK minimizedRMSD -1
REMARK  0 active torsions:
REMARK  status: ('A' for Active; 'I' for Inactive)
ROOT
ATOM      1  C1  BNZ d   1      -3.305   0.102   2.317  0.00  0.00     0.000 A 
ATOM      2  C2  BNZ d   1      -2.641   0.380   1.153  0.00  0.00     0.000 A 
ATOM      3  C3  BNZ d   1      -1.302   0.133   1.034  0.00  0.00     0.000 A 
ATOM      4  C4  BNZ d   1      -0.621  -0.355   2.092  0.00  0.00     0.000 A 
ATOM      5  C5  BNZ d   1      -1.275  -0.632   3.276  0.00  0.00     0.000 A 
ATOM      6  C6  BNZ d   1      -2.630  -0.418   3.379  0.00  0.00     0.000 A 
ENDROOT
TORSDOF 0
ENDMDL
