MODEL 1
REMARK minimizedAffinity -5.65722799
REMARK minimizedRMSD -1
REMARK  0 active torsions:
REMARK  status: ('A' for Active; 'I' for Inactive)
ROOT
ATOM      1  C1  BNZ d   1      -1.456  -0.239   1.103  0.00  0.00     0.000 A 
ATOM      2  C2  BNZ d   1      -0.840  -0.766   2.206  0.00  0.00     0.000 A 
ATOM      3  C3  BNZ d   1      -1.470  -0.781   3.419  0.00  0.00     0.000 A 
ATOM      4  C4  BNZ d   1      -2.697  -0.234   3.536  0.00  0.00     0.000 A 
ATOM      5  C5  BNZ d   1      -3.328   0.310   2.435  0.00  0.00     0.000 A 
ATOM      6  C6  BNZ d   1      -2.706   0.289   1.207  0.00  0.00     0.000 A 
ENDROOT
TORSDOF 0
ENDMDL
