MODEL 1
REMARK minimizedAffinity -1.52706945
REMARK minimizedRMSD -1
REMARK  0 active torsions:
REMARK  status: ('A' for Active; 'I' for Inactive)
ROOT
ATOM      1  C1  DEN d   1      -0.227  -0.275  -0.505  0.00  0.00     0.130 A 
ATOM      2  C2  DEN d   1       1.010  -0.814   0.052  0.00  0.00    -0.031 A 
ATOM      3  C3  DEN d   1       1.244  -0.165   1.357  0.00  0.00     0.027 A 
ATOM      4  C4  DEN d   1      -0.185   1.610   2.566  0.00  0.00     0.027 A 
ATOM      5  C5  DEN d   1      -1.320   2.386   2.481  0.00  0.00    -0.003 A 
ATOM      6  C6  DEN d   1      -2.145   2.354   1.388  0.00  0.00     0.001 A 
ATOM      7  C7  DEN d   1      -1.872   1.496   0.356  0.00  0.00     0.017 A 
ATOM      8  C8  DEN d   1      -0.725   0.717   0.431  0.00  0.00    -0.094 A 
ATOM      9  C9  DEN d   1       0.090   0.754   1.550  0.00  0.00    -0.072 A 
ENDROOT
TORSDOF 0
ENDMDL
