MODEL 1
REMARK minimizedAffinity -3.49265909
REMARK minimizedRMSD -1
REMARK  0 active torsions:
REMARK  status: ('A' for Active; 'I' for Inactive)
ROOT
ATOM      1  C1  DEN d   1       0.767   1.000   2.652  0.00  0.00     0.130 A 
ATOM      2  C2  DEN d   1       1.491  -0.088   2.000  0.00  0.00    -0.031 A 
ATOM      3  C3  DEN d   1       0.914  -0.279   0.654  0.00  0.00     0.027 A 
ATOM      4  C4  DEN d   1      -1.016   1.002  -0.480  0.00  0.00     0.027 A 
ATOM      5  C5  DEN d   1      -1.948   2.004  -0.316  0.00  0.00    -0.003 A 
ATOM      6  C6  DEN d   1      -2.061   2.712   0.850  0.00  0.00     0.001 A 
ATOM      7  C7  DEN d   1      -1.199   2.459   1.884  0.00  0.00     0.017 A 
ATOM      8  C8  DEN d   1      -0.262   1.446   1.730  0.00  0.00    -0.094 A 
ATOM      9  C9  DEN d   1      -0.155   0.750   0.538  0.00  0.00    -0.072 A 
ENDROOT
TORSDOF 0
ENDMDL
