MODEL 1
REMARK minimizedAffinity -2.69570875
REMARK minimizedRMSD -1
REMARK  0 active torsions:
REMARK  status: ('A' for Active; 'I' for Inactive)
ROOT
ATOM      1  C1  DEN d   1      -0.730  -2.994  -0.966  0.00  0.00     0.130 A 
ATOM      2  C2  DEN d   1      -0.120  -3.481  -2.200  0.00  0.00    -0.031 A 
ATOM      3  C3  DEN d   1       0.450  -2.322  -2.916  0.00  0.00     0.027 A 
ATOM      4  C4  DEN d   1       0.452   0.165  -2.233  0.00  0.00     0.027 A 
ATOM      5  C5  DEN d   1       0.045   1.066  -1.275  0.00  0.00    -0.003 A 
ATOM      6  C6  DEN d   1      -0.674   0.686  -0.173  0.00  0.00     0.001 A 
ATOM      7  C7  DEN d   1      -0.967  -0.638   0.022  0.00  0.00     0.017 A 
ATOM      8  C8  DEN d   1      -0.566  -1.552  -0.944  0.00  0.00    -0.094 A 
ATOM      9  C9  DEN d   1       0.170  -1.149  -2.045  0.00  0.00    -0.072 A 
ENDROOT
TORSDOF 0
ENDMDL
