MODEL 1
REMARK minimizedAffinity -0.355019182
REMARK minimizedRMSD -1
REMARK  0 active torsions:
REMARK  status: ('A' for Active; 'I' for Inactive)
ROOT
ATOM      1  C1  DEN d   1       0.642   1.306  -0.762  0.00  0.00     0.130 A 
ATOM      2  C2  DEN d   1      -0.570   0.627  -1.212  0.00  0.00    -0.031 A 
ATOM      3  C3  DEN d   1      -1.720   1.232  -0.510  0.00  0.00     0.027 A 
ATOM      4  C4  DEN d   1      -1.741   3.147   1.219  0.00  0.00     0.027 A 
ATOM      5  C5  DEN d   1      -0.955   4.029   1.926  0.00  0.00    -0.003 A 
ATOM      6  C6  DEN d   1       0.410   4.043   1.813  0.00  0.00     0.001 A 
ATOM      7  C7  DEN d   1       1.028   3.187   0.940  0.00  0.00     0.017 A 
ATOM      8  C8  DEN d   1       0.242   2.289   0.229  0.00  0.00    -0.094 A 
ATOM      9  C9  DEN d   1      -1.137   2.299   0.348  0.00  0.00    -0.072 A 
ENDROOT
TORSDOF 0
ENDMDL
