MODEL 1
REMARK minimizedAffinity 9.54379749
REMARK minimizedRMSD -1
REMARK  0 active torsions:
REMARK  status: ('A' for Active; 'I' for Inactive)
ROOT
ATOM      1  C2' OXE d   1       0.284   1.317  -1.709  0.00  0.00     0.078 C 
ATOM      2  C1' OXE d   1       1.739  -0.210  -3.562  0.00  0.00     0.078 C 
ATOM      3  C1  OXE d   1       1.152  -0.923  -2.370  0.00  0.00    -0.078 A 
ATOM      4  C2  OXE d   1       0.481  -0.160  -1.444  0.00  0.00    -0.078 A 
ATOM      5  C3  OXE d   1      -0.128  -0.776  -0.354  0.00  0.00     0.003 A 
ATOM      6  C4  OXE d   1       0.067  -2.141  -0.111  0.00  0.00    -0.002 A 
ATOM      7  C5  OXE d   1       0.781  -2.929  -1.021  0.00  0.00    -0.002 A 
ATOM      8  C6  OXE d   1       1.292  -2.345  -2.175  0.00  0.00     0.003 A 
ENDROOT
TORSDOF 0
ENDMDL
