MODEL 1
REMARK minimizedAffinity 7.75855207
REMARK minimizedRMSD -1
REMARK  0 active torsions:
REMARK  status: ('A' for Active; 'I' for Inactive)
ROOT
ATOM      1  C2' OXE d   1       2.095  -1.965  -1.148  0.00  0.00     0.078 C 
ATOM      2  C1' OXE d   1      -0.235  -2.728   0.219  0.00  0.00     0.078 C 
ATOM      3  C1  OXE d   1      -0.126  -1.296  -0.240  0.00  0.00    -0.078 A 
ATOM      4  C2  OXE d   1       1.038  -0.920  -0.867  0.00  0.00    -0.078 A 
ATOM      5  C3  OXE d   1       1.168   0.376  -1.359  0.00  0.00     0.003 A 
ATOM      6  C4  OXE d   1       0.190   1.340  -1.087  0.00  0.00    -0.002 A 
ATOM      7  C5  OXE d   1      -0.986   0.987  -0.415  0.00  0.00    -0.002 A 
ATOM      8  C6  OXE d   1      -1.177  -0.333  -0.024  0.00  0.00     0.003 A 
ENDROOT
TORSDOF 0
ENDMDL
