MODEL 1
REMARK minimizedAffinity -3.65628505
REMARK minimizedRMSD -1
REMARK  0 active torsions:
REMARK  status: ('A' for Active; 'I' for Inactive)
ROOT
ATOM      1  C2' OXE d   1       0.526   1.602  -1.021  0.00  0.00     0.078 C 
ATOM      2  C1' OXE d   1       0.908  -1.041  -0.154  0.00  0.00     0.078 C 
ATOM      3  C1  OXE d   1       1.137  -0.740  -1.614  0.00  0.00    -0.078 A 
ATOM      4  C2  OXE d   1       0.902   0.546  -2.038  0.00  0.00    -0.078 A 
ATOM      5  C3  OXE d   1       1.151   0.890  -3.364  0.00  0.00     0.003 A 
ATOM      6  C4  OXE d   1       1.489  -0.094  -4.300  0.00  0.00    -0.002 A 
ATOM      7  C5  OXE d   1       1.695  -1.417  -3.897  0.00  0.00    -0.002 A 
ATOM      8  C6  OXE d   1       1.564  -1.748  -2.552  0.00  0.00     0.003 A 
ENDROOT
TORSDOF 0
ENDMDL
