MODEL 1
REMARK minimizedAffinity 10.4709148
REMARK minimizedRMSD -1
REMARK  0 active torsions:
REMARK  status: ('A' for Active; 'I' for Inactive)
ROOT
ATOM      1  C2' OXE d   1       0.185   1.477  -1.074  0.00  0.00     0.078 C 
ATOM      2  C1' OXE d   1       1.506   0.217  -3.207  0.00  0.00     0.078 C 
ATOM      3  C1  OXE d   1       1.114  -0.631  -2.023  0.00  0.00    -0.078 A 
ATOM      4  C2  OXE d   1       0.510   0.002  -0.964  0.00  0.00    -0.078 A 
ATOM      5  C3  OXE d   1       0.078  -0.743   0.130  0.00  0.00     0.003 A 
ATOM      6  C4  OXE d   1       0.391  -2.104   0.228  0.00  0.00    -0.002 A 
ATOM      7  C5  OXE d   1       1.041  -2.760  -0.822  0.00  0.00    -0.002 A 
ATOM      8  C6  OXE d   1       1.371  -2.049  -1.971  0.00  0.00     0.003 A 
ENDROOT
TORSDOF 0
ENDMDL
