MODEL 1
REMARK minimizedAffinity 4.76257706
REMARK minimizedRMSD -1
REMARK  0 active torsions:
REMARK  status: ('A' for Active; 'I' for Inactive)
ROOT
ATOM      1  C2' OXE d   1       5.619   3.760   4.853  0.00  0.00     0.078 C 
ATOM      2  C1' OXE d   1       4.945   2.408   2.487  0.00  0.00     0.078 C 
ATOM      3  C1  OXE d   1       5.293   1.577   3.697  0.00  0.00    -0.078 A 
ATOM      4  C2  OXE d   1       5.667   2.247   4.837  0.00  0.00    -0.078 A 
ATOM      5  C3  OXE d   1       5.945   1.530   5.997  0.00  0.00     0.003 A 
ATOM      6  C4  OXE d   1       5.996   0.131   5.971  0.00  0.00    -0.002 A 
ATOM      7  C5  OXE d   1       5.658  -0.570   4.809  0.00  0.00    -0.002 A 
ATOM      8  C6  OXE d   1       5.263   0.136   3.678  0.00  0.00     0.003 A 
ENDROOT
TORSDOF 0
ENDMDL
