MODEL 1
REMARK minimizedAffinity -4.21766615
REMARK minimizedRMSD -1
REMARK  0 active torsions:
REMARK  status: ('A' for Active; 'I' for Inactive)
ROOT
ATOM      1  C2' OXE d   1       0.120   1.368  -1.211  0.00  0.00     0.078 C 
ATOM      2  C1' OXE d   1       1.340   0.382  -3.539  0.00  0.00     0.078 C 
ATOM      3  C1  OXE d   1       1.195  -0.558  -2.368  0.00  0.00    -0.078 A 
ATOM      4  C2  OXE d   1       0.640  -0.053  -1.217  0.00  0.00    -0.078 A 
ATOM      5  C3  OXE d   1       0.433  -0.893  -0.126  0.00  0.00     0.003 A 
ATOM      6  C4  OXE d   1       0.926  -2.203  -0.137  0.00  0.00    -0.002 A 
ATOM      7  C5  OXE d   1       1.530  -2.725  -1.285  0.00  0.00    -0.002 A 
ATOM      8  C6  OXE d   1       1.634  -1.931  -2.421  0.00  0.00     0.003 A 
ENDROOT
TORSDOF 0
ENDMDL
