MODEL 1
REMARK minimizedAffinity 0.234324947
REMARK minimizedRMSD -1
REMARK  0 active torsions:
REMARK  status: ('A' for Active; 'I' for Inactive)
ROOT
ATOM      1  C2' OXE d   1      -0.630  -2.727  -0.045  0.00  0.00     0.078 C 
ATOM      2  C1' OXE d   1       1.944  -2.141  -0.999  0.00  0.00     0.078 C 
ATOM      3  C1  OXE d   1       0.984  -0.993  -0.814  0.00  0.00    -0.078 A 
ATOM      4  C2  OXE d   1      -0.288  -1.294  -0.391  0.00  0.00    -0.078 A 
ATOM      5  C3  OXE d   1      -1.197  -0.267  -0.151  0.00  0.00     0.003 A 
ATOM      6  C4  OXE d   1      -0.876   1.055  -0.484  0.00  0.00    -0.002 A 
ATOM      7  C5  OXE d   1       0.401   1.379  -0.954  0.00  0.00    -0.002 A 
ATOM      8  C6  OXE d   1       1.355   0.375  -1.084  0.00  0.00     0.003 A 
ENDROOT
TORSDOF 0
ENDMDL
