MODEL 1
REMARK minimizedAffinity 3.23807502
REMARK minimizedRMSD -1
REMARK  0 active torsions:
REMARK  status: ('A' for Active; 'I' for Inactive)
ROOT
ATOM      1  C2' OXE d   1       1.170  -3.813  -3.625  0.00  0.00     0.078 C 
ATOM      2  C1' OXE d   1       1.453  -2.635  -1.092  0.00  0.00     0.078 C 
ATOM      3  C1  OXE d   1       1.428  -1.723  -2.293  0.00  0.00    -0.078 A 
ATOM      4  C2  OXE d   1       1.336  -2.311  -3.532  0.00  0.00    -0.078 A 
ATOM      5  C3  OXE d   1       1.254  -1.513  -4.670  0.00  0.00     0.003 A 
ATOM      6  C4  OXE d   1       1.419  -0.126  -4.576  0.00  0.00    -0.002 A 
ATOM      7  C5  OXE d   1       1.554   0.490  -3.327  0.00  0.00    -0.002 A 
ATOM      8  C6  OXE d   1       1.518  -0.289  -2.176  0.00  0.00     0.003 A 
ENDROOT
TORSDOF 0
ENDMDL
