MODEL 1
REMARK minimizedAffinity 4.16456413
REMARK minimizedRMSD -1
REMARK  0 active torsions:
REMARK  status: ('A' for Active; 'I' for Inactive)
ROOT
ATOM      1  C2' OXE d   1       0.398   1.307  -1.299  0.00  0.00     0.078 C 
ATOM      2  C1' OXE d   1       1.662  -0.041  -3.411  0.00  0.00     0.078 C 
ATOM      3  C1  OXE d   1       1.321  -0.834  -2.175  0.00  0.00    -0.078 A 
ATOM      4  C2  OXE d   1       0.745  -0.156  -1.128  0.00  0.00    -0.078 A 
ATOM      5  C3  OXE d   1       0.360  -0.851   0.016  0.00  0.00     0.003 A 
ATOM      6  C4  OXE d   1       0.694  -2.202   0.170  0.00  0.00    -0.002 A 
ATOM      7  C5  OXE d   1       1.317  -2.902  -0.869  0.00  0.00    -0.002 A 
ATOM      8  C6  OXE d   1       1.598  -2.245  -2.061  0.00  0.00     0.003 A 
ENDROOT
TORSDOF 0
ENDMDL
