MODEL 1
REMARK minimizedAffinity 7.96216679
REMARK minimizedRMSD -1
REMARK  0 active torsions:
REMARK  status: ('A' for Active; 'I' for Inactive)
ROOT
ATOM      1  C2' OXE d   1       5.456   4.441   5.018  0.00  0.00     0.078 C 
ATOM      2  C1' OXE d   1       3.523   3.249   3.368  0.00  0.00     0.078 C 
ATOM      3  C1  OXE d   1       4.308   2.352   4.292  0.00  0.00    -0.078 A 
ATOM      4  C2  OXE d   1       5.284   2.938   5.062  0.00  0.00    -0.078 A 
ATOM      5  C3  OXE d   1       6.000   2.165   5.972  0.00  0.00     0.003 A 
ATOM      6  C4  OXE d   1       5.842   0.774   6.000  0.00  0.00    -0.002 A 
ATOM      7  C5  OXE d   1       4.881   0.153   5.195  0.00  0.00    -0.002 A 
ATOM      8  C6  OXE d   1       4.078   0.931   4.369  0.00  0.00     0.003 A 
ENDROOT
TORSDOF 0
ENDMDL
