MODEL 1
REMARK minimizedAffinity 1.27232337
REMARK minimizedRMSD -1
REMARK  0 active torsions:
REMARK  status: ('A' for Active; 'I' for Inactive)
ROOT
ATOM      1  C2' OXE d   1      -1.201  -0.757   1.013  0.00  0.00     0.078 C 
ATOM      2  C1' OXE d   1       0.220   1.177  -0.444  0.00  0.00     0.078 C 
ATOM      3  C1  OXE d   1       0.591  -0.271  -0.648  0.00  0.00    -0.078 A 
ATOM      4  C2  OXE d   1      -0.078  -1.207   0.103  0.00  0.00    -0.078 A 
ATOM      5  C3  OXE d   1       0.186  -2.560  -0.086  0.00  0.00     0.003 A 
ATOM      6  C4  OXE d   1       1.233  -2.968  -0.921  0.00  0.00    -0.002 A 
ATOM      7  C5  OXE d   1       1.954  -2.028  -1.666  0.00  0.00    -0.002 A 
ATOM      8  C6  OXE d   1       1.618  -0.682  -1.573  0.00  0.00     0.003 A 
ENDROOT
TORSDOF 0
ENDMDL
