MODEL 1
REMARK minimizedAffinity 6.5390873
REMARK minimizedRMSD -1
REMARK  0 active torsions:
REMARK  status: ('A' for Active; 'I' for Inactive)
ROOT
ATOM      1  C2' OXE d   1       1.215   4.918   1.727  0.00  0.00     0.078 C 
ATOM      2  C1' OXE d   1       3.304   4.153   0.016  0.00  0.00     0.078 C 
ATOM      3  C1  OXE d   1       1.981   3.444  -0.129  0.00  0.00    -0.078 A 
ATOM      4  C2  OXE d   1       0.979   3.792   0.744  0.00  0.00    -0.078 A 
ATOM      5  C3  OXE d   1      -0.278   3.207   0.619  0.00  0.00     0.003 A 
ATOM      6  C4  OXE d   1      -0.485   2.159  -0.286  0.00  0.00    -0.002 A 
ATOM      7  C5  OXE d   1       0.535   1.761  -1.158  0.00  0.00    -0.002 A 
ATOM      8  C6  OXE d   1       1.758   2.421  -1.121  0.00  0.00     0.003 A 
ENDROOT
TORSDOF 0
ENDMDL
