MODEL 1
REMARK minimizedAffinity 9.18025112
REMARK minimizedRMSD -1
REMARK  0 active torsions:
REMARK  status: ('A' for Active; 'I' for Inactive)
ROOT
ATOM      1  C2' OXE d   1       2.597  -1.805  -1.746  0.00  0.00     0.078 C 
ATOM      2  C1' OXE d   1       0.901   0.397  -1.356  0.00  0.00     0.078 C 
ATOM      3  C1  OXE d   1       0.452  -0.940  -0.822  0.00  0.00    -0.078 A 
ATOM      4  C2  OXE d   1       1.266  -2.021  -1.058  0.00  0.00    -0.078 A 
ATOM      5  C3  OXE d   1       0.926  -3.267  -0.540  0.00  0.00     0.003 A 
ATOM      6  C4  OXE d   1      -0.311  -3.460   0.087  0.00  0.00    -0.002 A 
ATOM      7  C5  OXE d   1      -1.174  -2.381   0.303  0.00  0.00    -0.002 A 
ATOM      8  C6  OXE d   1      -0.789  -1.109  -0.107  0.00  0.00     0.003 A 
ENDROOT
TORSDOF 0
ENDMDL
