MODEL 1
REMARK minimizedAffinity -0.139384776
REMARK minimizedRMSD -1
REMARK  0 active torsions:
REMARK  status: ('A' for Active; 'I' for Inactive)
ROOT
ATOM      1  C2' OXE d   1       0.356   1.585  -1.250  0.00  0.00     0.078 C 
ATOM      2  C1' OXE d   1       1.615   0.788  -3.628  0.00  0.00     0.078 C 
ATOM      3  C1  OXE d   1       1.484  -0.233  -2.526  0.00  0.00    -0.078 A 
ATOM      4  C2  OXE d   1       0.908   0.179  -1.348  0.00  0.00    -0.078 A 
ATOM      5  C3  OXE d   1       0.713  -0.737  -0.319  0.00  0.00     0.003 A 
ATOM      6  C4  OXE d   1       1.236  -2.033  -0.414  0.00  0.00    -0.002 A 
ATOM      7  C5  OXE d   1       1.861  -2.461  -1.590  0.00  0.00    -0.002 A 
ATOM      8  C6  OXE d   1       1.955  -1.589  -2.668  0.00  0.00     0.003 A 
ENDROOT
TORSDOF 0
ENDMDL
