MODEL 1
REMARK minimizedAffinity 4.3131938
REMARK minimizedRMSD -1
REMARK  0 active torsions:
REMARK  status: ('A' for Active; 'I' for Inactive)
ROOT
ATOM      1  C2' OXE d   1       0.949  -3.539  -3.478  0.00  0.00     0.078 C 
ATOM      2  C1' OXE d   1       1.485  -2.315  -1.009  0.00  0.00     0.078 C 
ATOM      3  C1  OXE d   1       1.371  -1.428  -2.224  0.00  0.00    -0.078 A 
ATOM      4  C2  OXE d   1       1.156  -2.040  -3.435  0.00  0.00    -0.078 A 
ATOM      5  C3  OXE d   1       0.988  -1.264  -4.579  0.00  0.00     0.003 A 
ATOM      6  C4  OXE d   1       1.191   0.120  -4.532  0.00  0.00    -0.002 A 
ATOM      7  C5  OXE d   1       1.451   0.759  -3.315  0.00  0.00    -0.002 A 
ATOM      8  C6  OXE d   1       1.502   0.006  -2.148  0.00  0.00     0.003 A 
ENDROOT
TORSDOF 0
ENDMDL
