MODEL 1
REMARK minimizedAffinity 5.78631973
REMARK minimizedRMSD -1
REMARK  0 active torsions:
REMARK  status: ('A' for Active; 'I' for Inactive)
ROOT
ATOM      1  C2' OXE d   1      -1.627  -0.724   0.395  0.00  0.00     0.078 C 
ATOM      2  C1' OXE d   1      -0.810  -3.408   0.473  0.00  0.00     0.078 C 
ATOM      3  C1  OXE d   1       0.132  -2.404  -0.142  0.00  0.00    -0.078 A 
ATOM      4  C2  OXE d   1      -0.296  -1.100  -0.218  0.00  0.00    -0.078 A 
ATOM      5  C3  OXE d   1       0.556  -0.123  -0.726  0.00  0.00     0.003 A 
ATOM      6  C4  OXE d   1       1.782  -0.481  -1.301  0.00  0.00    -0.002 A 
ATOM      7  C5  OXE d   1       2.220  -1.809  -1.269  0.00  0.00    -0.002 A 
ATOM      8  C6  OXE d   1       1.428  -2.774  -0.657  0.00  0.00     0.003 A 
ENDROOT
TORSDOF 0
ENDMDL
