MODEL 1
REMARK minimizedAffinity 0.657956183
REMARK minimizedRMSD -1
REMARK  0 active torsions:
REMARK  status: ('A' for Active; 'I' for Inactive)
ROOT
ATOM      1  C2' OXE d   1       4.876   3.014   2.453  0.00  0.00     0.078 C 
ATOM      2  C1' OXE d   1       5.689   4.367   4.774  0.00  0.00     0.078 C 
ATOM      3  C1  OXE d   1       5.628   2.861   4.823  0.00  0.00    -0.078 A 
ATOM      4  C2  OXE d   1       5.185   2.209   3.698  0.00  0.00    -0.078 A 
ATOM      5  C3  OXE d   1       5.161   0.818   3.671  0.00  0.00     0.003 A 
ATOM      6  C4  OXE d   1       5.439   0.082   4.829  0.00  0.00    -0.002 A 
ATOM      7  C5  OXE d   1       5.855   0.728   5.998  0.00  0.00    -0.002 A 
ATOM      8  C6  OXE d   1       5.995   2.111   5.999  0.00  0.00     0.003 A 
ENDROOT
TORSDOF 0
ENDMDL
