MODEL 1
REMARK minimizedAffinity 4.700984
REMARK minimizedRMSD -1
REMARK  0 active torsions:
REMARK  status: ('A' for Active; 'I' for Inactive)
ROOT
ATOM      1  C2' OXE d   1       1.174   0.753  -2.303  0.00  0.00     0.078 C 
ATOM      2  C1' OXE d   1      -0.315  -0.094  -0.079  0.00  0.00     0.078 C 
ATOM      3  C1  OXE d   1       0.346   1.259  -0.008  0.00  0.00    -0.078 A 
ATOM      4  C2  OXE d   1       1.112   1.646  -1.082  0.00  0.00    -0.078 A 
ATOM      5  C3  OXE d   1       1.699   2.907  -1.091  0.00  0.00     0.003 A 
ATOM      6  C4  OXE d   1       1.645   3.723   0.046  0.00  0.00    -0.002 A 
ATOM      7  C5  OXE d   1       0.904   3.331   1.165  0.00  0.00    -0.002 A 
ATOM      8  C6  OXE d   1       0.215   2.123   1.138  0.00  0.00     0.003 A 
ENDROOT
TORSDOF 0
ENDMDL
