MODEL 1
REMARK minimizedAffinity 1.76221669
REMARK minimizedRMSD -1
REMARK  0 active torsions:
REMARK  status: ('A' for Active; 'I' for Inactive)
ROOT
ATOM      1  C2' OXE d   1       5.947   2.653   5.984  0.00  0.00     0.078 C 
ATOM      2  C1' OXE d   1       4.629   2.585   3.507  0.00  0.00     0.078 C 
ATOM      3  C1  OXE d   1       4.989   1.269   4.149  0.00  0.00    -0.078 A 
ATOM      4  C2  OXE d   1       5.676   1.312   5.338  0.00  0.00    -0.078 A 
ATOM      5  C3  OXE d   1       5.985   0.127   5.999  0.00  0.00     0.003 A 
ATOM      6  C4  OXE d   1       5.739  -1.110   5.390  0.00  0.00    -0.002 A 
ATOM      7  C5  OXE d   1       5.077  -1.176   4.160  0.00  0.00    -0.002 A 
ATOM      8  C6  OXE d   1       4.658   0.000   3.548  0.00  0.00     0.003 A 
ENDROOT
TORSDOF 0
ENDMDL
