MODEL 1
REMARK minimizedAffinity 7.47560692
REMARK minimizedRMSD -1
REMARK  0 active torsions:
REMARK  status: ('A' for Active; 'I' for Inactive)
ROOT
ATOM      1  C2' OXE d   1      -1.536  -0.639   0.735  0.00  0.00     0.078 C 
ATOM      2  C1' OXE d   1       0.046   0.796  -1.087  0.00  0.00     0.078 C 
ATOM      3  C1  OXE d   1       0.387  -0.654  -0.848  0.00  0.00    -0.078 A 
ATOM      4  C2  OXE d   1      -0.363  -1.336   0.080  0.00  0.00    -0.078 A 
ATOM      5  C3  OXE d   1      -0.125  -2.690   0.298  0.00  0.00     0.003 A 
ATOM      6  C4  OXE d   1       0.968  -3.324  -0.305  0.00  0.00    -0.002 A 
ATOM      7  C5  OXE d   1       1.769  -2.637  -1.224  0.00  0.00    -0.002 A 
ATOM      8  C6  OXE d   1       1.467  -1.316  -1.538  0.00  0.00     0.003 A 
ENDROOT
TORSDOF 0
ENDMDL
