MODEL 1
REMARK minimizedAffinity -4.3649888
REMARK minimizedRMSD -1
REMARK  0 active torsions:
REMARK  status: ('A' for Active; 'I' for Inactive)
ROOT
ATOM      1  C   UNL d   1      -0.140   3.115   0.288  0.00  0.00     0.023 A 
ATOM      2  C1  UNL d   1       0.948   2.537  -0.367  0.00  0.00     0.003 A 
ATOM      3  C2  UNL d   1       0.939   1.173  -0.667  0.00  0.00     0.048 A 
ATOM      4  C3  UNL d   1      -0.162   0.394  -0.312  0.00  0.00     0.023 A 
ATOM      5  C4  UNL d   1      -1.252   0.968   0.343  0.00  0.00     0.048 A 
ATOM      6  C5  UNL d   1      -1.238   2.332   0.643  0.00  0.00     0.003 A 
ATOM      7  I   UNL d   1      -0.177  -1.636  -0.759  0.00  0.00    -0.146 I 
ENDROOT
TORSDOF 0
ENDMDL
