MODEL 1
REMARK minimizedAffinity -3.26678061
REMARK minimizedRMSD -1
REMARK  0 active torsions:
REMARK  status: ('A' for Active; 'I' for Inactive)
ROOT
ATOM      1  C   UNL d   1       0.279   3.425  -0.424  0.00  0.00     0.023 A 
ATOM      2  C1  UNL d   1      -0.617   2.916   0.516  0.00  0.00     0.003 A 
ATOM      3  C2  UNL d   1      -0.741   1.536   0.688  0.00  0.00     0.048 A 
ATOM      4  C3  UNL d   1       0.035   0.670  -0.082  0.00  0.00     0.023 A 
ATOM      5  C4  UNL d   1       0.934   1.175  -1.023  0.00  0.00     0.048 A 
ATOM      6  C5  UNL d   1       1.054   2.555  -1.192  0.00  0.00     0.003 A 
ATOM      7  I   UNL d   1      -0.148  -1.384   0.174  0.00  0.00    -0.146 I 
ENDROOT
TORSDOF 0
ENDMDL
