MODEL 1
REMARK minimizedAffinity -2.94140935
REMARK minimizedRMSD -1
REMARK  0 active torsions:
REMARK  status: ('A' for Active; 'I' for Inactive)
ROOT
ATOM      1  C   UNL d   1      -0.413   2.745   0.498  0.00  0.00     0.023 A 
ATOM      2  C1  UNL d   1      -1.493   1.928   0.833  0.00  0.00     0.003 A 
ATOM      3  C2  UNL d   1      -1.433   0.554   0.590  0.00  0.00     0.048 A 
ATOM      4  C3  UNL d   1      -0.289   0.003   0.014  0.00  0.00     0.023 A 
ATOM      5  C4  UNL d   1       0.795   0.816  -0.322  0.00  0.00     0.048 A 
ATOM      6  C5  UNL d   1       0.730   2.190  -0.078  0.00  0.00     0.003 A 
ATOM      7  I   UNL d   1      -0.197  -2.041  -0.348  0.00  0.00    -0.146 I 
ENDROOT
TORSDOF 0
ENDMDL
