MODEL 1
REMARK minimizedAffinity -5.07807446
REMARK minimizedRMSD -1
REMARK  0 active torsions:
REMARK  status: ('A' for Active; 'I' for Inactive)
ROOT
ATOM      1  C   UNL d   1       0.359   3.340  -0.122  0.00  0.00     0.023 A 
ATOM      2  C1  UNL d   1       1.452   2.621  -0.607  0.00  0.00     0.003 A 
ATOM      3  C2  UNL d   1       1.406   1.227  -0.656  0.00  0.00     0.048 A 
ATOM      4  C3  UNL d   1       0.263   0.557  -0.221  0.00  0.00     0.023 A 
ATOM      5  C4  UNL d   1      -0.834   1.272   0.263  0.00  0.00     0.048 A 
ATOM      6  C5  UNL d   1      -0.782   2.666   0.312  0.00  0.00     0.003 A 
ATOM      7  I   UNL d   1       0.192  -1.519  -0.295  0.00  0.00    -0.146 I 
ENDROOT
TORSDOF 0
ENDMDL
