MODEL 1
REMARK minimizedAffinity -3.49966502
REMARK minimizedRMSD -1
REMARK  0 active torsions:
REMARK  status: ('A' for Active; 'I' for Inactive)
ROOT
ATOM      1  C   UNL d   1       0.095   3.568  -0.001  0.00  0.00     0.023 A 
ATOM      2  C1  UNL d   1       1.306   2.875   0.015  0.00  0.00     0.003 A 
ATOM      3  C2  UNL d   1       1.312   1.479   0.065  0.00  0.00     0.048 A 
ATOM      4  C3  UNL d   1       0.105   0.783   0.099  0.00  0.00     0.023 A 
ATOM      5  C4  UNL d   1      -1.109   1.472   0.082  0.00  0.00     0.048 A 
ATOM      6  C5  UNL d   1      -1.111   2.867   0.032  0.00  0.00     0.003 A 
ATOM      7  I   UNL d   1       0.112  -1.294   0.174  0.00  0.00    -0.146 I 
ENDROOT
TORSDOF 0
ENDMDL
