MODEL 1
REMARK minimizedAffinity -2.89306951
REMARK minimizedRMSD -1
REMARK  0 active torsions:
REMARK  status: ('A' for Active; 'I' for Inactive)
ROOT
ATOM      1  C   UNL d   1      -0.552   3.186  -0.262  0.00  0.00     0.023 A 
ATOM      2  C1  UNL d   1      -1.651   2.412   0.110  0.00  0.00     0.003 A 
ATOM      3  C2  UNL d   1      -1.544   1.020   0.153  0.00  0.00     0.048 A 
ATOM      4  C3  UNL d   1      -0.335   0.410  -0.177  0.00  0.00     0.023 A 
ATOM      5  C4  UNL d   1       0.768   1.180  -0.548  0.00  0.00     0.048 A 
ATOM      6  C5  UNL d   1       0.656   2.571  -0.590  0.00  0.00     0.003 A 
ATOM      7  I   UNL d   1      -0.173  -1.661  -0.114  0.00  0.00    -0.146 I 
ENDROOT
TORSDOF 0
ENDMDL
