MODEL 1
REMARK minimizedAffinity -3.376158
REMARK minimizedRMSD -1
REMARK  0 active torsions:
REMARK  status: ('A' for Active; 'I' for Inactive)
ROOT
ATOM      1  C   UNL d   1      -0.026   1.887   0.629  0.00  0.00     0.023 A 
ATOM      2  C1  UNL d   1       1.139   1.121   0.573  0.00  0.00     0.003 A 
ATOM      3  C2  UNL d   1       1.093  -0.188   0.090  0.00  0.00     0.048 A 
ATOM      4  C3  UNL d   1      -0.121  -0.725  -0.338  0.00  0.00     0.023 A 
ATOM      5  C4  UNL d   1      -1.289   0.038  -0.285  0.00  0.00     0.048 A 
ATOM      6  C5  UNL d   1      -1.238   1.346   0.201  0.00  0.00     0.003 A 
ATOM      7  I   UNL d   1      -0.193  -2.673  -1.059  0.00  0.00    -0.146 I 
ENDROOT
TORSDOF 0
ENDMDL
