MODEL 1
REMARK minimizedAffinity -3.2339263
REMARK minimizedRMSD -1
REMARK  0 active torsions:
REMARK  status: ('A' for Active; 'I' for Inactive)
ROOT
ATOM      1  C   UNL d   1      -0.481   2.544   0.340  0.00  0.00     0.023 A 
ATOM      2  C1  UNL d   1       0.778   1.981   0.133  0.00  0.00     0.003 A 
ATOM      3  C2  UNL d   1       0.897   0.619  -0.150  0.00  0.00     0.048 A 
ATOM      4  C3  UNL d   1      -0.248  -0.174  -0.225  0.00  0.00     0.023 A 
ATOM      5  C4  UNL d   1      -1.510   0.386  -0.020  0.00  0.00     0.048 A 
ATOM      6  C5  UNL d   1      -1.624   1.748   0.264  0.00  0.00     0.003 A 
ATOM      7  I   UNL d   1      -0.074  -2.202  -0.647  0.00  0.00    -0.146 I 
ENDROOT
TORSDOF 0
ENDMDL
