MODEL 1
REMARK minimizedAffinity -2.32304263
REMARK minimizedRMSD -1
REMARK  0 active torsions:
REMARK  status: ('A' for Active; 'I' for Inactive)
ROOT
ATOM      1  C   UNL d   1       0.598   3.320   0.521  0.00  0.00     0.023 A 
ATOM      2  C1  UNL d   1       1.151   2.681  -0.589  0.00  0.00     0.003 A 
ATOM      3  C2  UNL d   1       0.894   1.327  -0.816  0.00  0.00     0.048 A 
ATOM      4  C3  UNL d   1       0.083   0.619   0.069  0.00  0.00     0.023 A 
ATOM      5  C4  UNL d   1      -0.474   1.255   1.181  0.00  0.00     0.048 A 
ATOM      6  C5  UNL d   1      -0.214   2.608   1.404  0.00  0.00     0.003 A 
ATOM      7  I   UNL d   1      -0.301  -1.395  -0.267  0.00  0.00    -0.146 I 
ENDROOT
TORSDOF 0
ENDMDL
