MODEL 1
REMARK minimizedAffinity 8.27781963
REMARK minimizedRMSD -1
REMARK  0 active torsions:
REMARK  status: ('A' for Active; 'I' for Inactive)
ROOT
ATOM      1  C   UNL d   1      -0.057   0.807   0.882  0.00  0.00     0.023 A 
ATOM      2  C1  UNL d   1      -1.424   0.686   0.634  0.00  0.00     0.003 A 
ATOM      3  C2  UNL d   1      -1.928  -0.473   0.041  0.00  0.00     0.048 A 
ATOM      4  C3  UNL d   1      -1.059  -1.509  -0.300  0.00  0.00     0.023 A 
ATOM      5  C4  UNL d   1       0.310  -1.393  -0.053  0.00  0.00     0.048 A 
ATOM      6  C5  UNL d   1       0.809  -0.231   0.539  0.00  0.00     0.003 A 
ATOM      7  I   UNL d   1      -1.806  -3.236  -1.182  0.00  0.00    -0.146 I 
ENDROOT
TORSDOF 0
ENDMDL
