MODEL 1
REMARK minimizedAffinity -4.67921162
REMARK minimizedRMSD -1
REMARK  0 active torsions:
REMARK  status: ('A' for Active; 'I' for Inactive)
ROOT
ATOM      1  C   UNL d   1       0.189   3.359   0.153  0.00  0.00     0.023 A 
ATOM      2  C1  UNL d   1      -0.625   2.661   1.044  0.00  0.00     0.003 A 
ATOM      3  C2  UNL d   1      -0.624   1.264   1.046  0.00  0.00     0.048 A 
ATOM      4  C3  UNL d   1       0.195   0.573   0.155  0.00  0.00     0.023 A 
ATOM      5  C4  UNL d   1       1.013   1.267  -0.739  0.00  0.00     0.048 A 
ATOM      6  C5  UNL d   1       1.007   2.663  -0.737  0.00  0.00     0.003 A 
ATOM      7  I   UNL d   1       0.199  -1.506   0.156  0.00  0.00    -0.146 I 
ENDROOT
TORSDOF 0
ENDMDL
