MODEL 1
REMARK minimizedAffinity 0.705441356
REMARK minimizedRMSD -1
REMARK  0 active torsions:
REMARK  status: ('A' for Active; 'I' for Inactive)
ROOT
ATOM      1  C   UNL d   1      -1.112  -3.712  -2.328  0.00  0.00     0.023 A 
ATOM      2  C1  UNL d   1      -1.488  -3.243  -1.069  0.00  0.00     0.003 A 
ATOM      3  C2  UNL d   1      -0.735  -2.250  -0.439  0.00  0.00     0.048 A 
ATOM      4  C3  UNL d   1       0.392  -1.730  -1.074  0.00  0.00     0.023 A 
ATOM      5  C4  UNL d   1       0.772  -2.196  -2.334  0.00  0.00     0.048 A 
ATOM      6  C5  UNL d   1       0.017  -3.189  -2.959  0.00  0.00     0.003 A 
ATOM      7  I   UNL d   1       1.514  -0.251  -0.138  0.00  0.00    -0.146 I 
ENDROOT
TORSDOF 0
ENDMDL
