MODEL 1
REMARK minimizedAffinity 0.635610163
REMARK minimizedRMSD -1
REMARK  0 active torsions:
REMARK  status: ('A' for Active; 'I' for Inactive)
ROOT
ATOM      1  C   UNL d   1      -0.292   0.735   0.633  0.00  0.00     0.023 A 
ATOM      2  C1  UNL d   1      -1.474  -0.005   0.649  0.00  0.00     0.003 A 
ATOM      3  C2  UNL d   1      -1.582  -1.167  -0.119  0.00  0.00     0.048 A 
ATOM      4  C3  UNL d   1      -0.504  -1.583  -0.899  0.00  0.00     0.023 A 
ATOM      5  C4  UNL d   1       0.681  -0.846  -0.917  0.00  0.00     0.048 A 
ATOM      6  C5  UNL d   1       0.784   0.315  -0.149  0.00  0.00     0.003 A 
ATOM      7  I   UNL d   1      -0.662  -3.312  -2.042  0.00  0.00    -0.146 I 
ENDROOT
TORSDOF 0
ENDMDL
