MODEL 1
REMARK minimizedAffinity 1.67496598
REMARK minimizedRMSD -1
REMARK  1 active torsions:
REMARK  status: ('A' for Active; 'I' for Inactive)
REMARK    1  A    between atoms: C1_2  and  C2_3 
ROOT
ATOM      1  C2  UNL d   1       1.719  -0.128  -0.372  0.00  0.00    -0.076 A 
ATOM      2  C3  UNL d   1       0.762  -1.115  -0.669  0.00  0.00     0.004 A 
ATOM      3  C4  UNL d   1      -0.142  -1.551   0.298  0.00  0.00    -0.003 A 
ATOM      4  C5  UNL d   1      -0.106  -1.007   1.577  0.00  0.00     0.000 A 
ATOM      5  C6  UNL d   1       0.824  -0.014   1.884  0.00  0.00     0.000 A 
ATOM      6  C7  UNL d   1       1.733   0.448   0.916  0.00  0.00    -0.073 A 
ATOM      7  C8  UNL d   1       2.719   1.516   1.304  0.00  0.00     0.078 C 
ENDROOT
BRANCH   1   8
ATOM      8  C1  UNL d   1       2.692   0.285  -1.453  0.00  0.00     0.053 C 
ATOM      9  C   UNL d   1       2.193  -0.058  -2.848  0.00  0.00     0.018 C 
ENDBRANCH   1   8
TORSDOF 1
ENDMDL
