MODEL 1
REMARK minimizedAffinity 1.05753863
REMARK minimizedRMSD -1
REMARK  1 active torsions:
REMARK  status: ('A' for Active; 'I' for Inactive)
REMARK    1  A    between atoms: C1_2  and  C2_3 
ROOT
ATOM      1  C2  UNL d   1       1.979  -2.432   0.104  0.00  0.00    -0.076 A 
ATOM      2  C3  UNL d   1       0.848  -3.251   0.263  0.00  0.00     0.004 A 
ATOM      3  C4  UNL d   1      -0.383  -2.711   0.630  0.00  0.00    -0.003 A 
ATOM      4  C5  UNL d   1      -0.504  -1.342   0.843  0.00  0.00     0.000 A 
ATOM      5  C6  UNL d   1       0.604  -0.512   0.672  0.00  0.00     0.000 A 
ATOM      6  C7  UNL d   1       1.849  -1.038   0.286  0.00  0.00    -0.073 A 
ATOM      7  C8  UNL d   1       3.011  -0.098   0.123  0.00  0.00     0.078 C 
ENDROOT
BRANCH   1   8
ATOM      8  C1  UNL d   1       3.295  -3.077  -0.269  0.00  0.00     0.053 C 
ATOM      9  C   UNL d   1       3.243  -4.595  -0.186  0.00  0.00     0.018 C 
ENDBRANCH   1   8
TORSDOF 1
ENDMDL
