MODEL 1
REMARK minimizedAffinity -0.451621979
REMARK minimizedRMSD -1
REMARK  1 active torsions:
REMARK  status: ('A' for Active; 'I' for Inactive)
REMARK    1  A    between atoms: C1_2  and  C2_3 
ROOT
ATOM      1  C2  UNL d   1       2.073  -2.490   0.223  0.00  0.00    -0.076 A 
ATOM      2  C3  UNL d   1       1.012  -3.367  -0.064  0.00  0.00     0.004 A 
ATOM      3  C4  UNL d   1      -0.313  -2.947   0.038  0.00  0.00    -0.003 A 
ATOM      4  C5  UNL d   1      -0.599  -1.643   0.428  0.00  0.00     0.000 A 
ATOM      5  C6  UNL d   1       0.441  -0.755   0.700  0.00  0.00     0.000 A 
ATOM      6  C7  UNL d   1       1.783  -1.157   0.586  0.00  0.00    -0.073 A 
ATOM      7  C8  UNL d   1       2.865  -0.160   0.896  0.00  0.00     0.078 C 
ENDROOT
BRANCH   1   8
ATOM      8  C1  UNL d   1       3.489  -3.010   0.121  0.00  0.00     0.053 C 
ATOM      9  C   UNL d   1       3.549  -4.527   0.033  0.00  0.00     0.018 C 
ENDBRANCH   1   8
TORSDOF 1
ENDMDL
