MODEL 1
REMARK minimizedAffinity 4.41785717
REMARK minimizedRMSD -1
REMARK  1 active torsions:
REMARK  status: ('A' for Active; 'I' for Inactive)
REMARK    1  A    between atoms: C1_2  and  C2_3 
ROOT
ATOM      1  C2  UNL d   1       2.164  -3.311   0.166  0.00  0.00    -0.076 A 
ATOM      2  C3  UNL d   1       1.329  -4.154  -0.588  0.00  0.00     0.004 A 
ATOM      3  C4  UNL d   1      -0.016  -3.843  -0.783  0.00  0.00    -0.003 A 
ATOM      4  C5  UNL d   1      -0.547  -2.684  -0.229  0.00  0.00     0.000 A 
ATOM      5  C6  UNL d   1       0.270  -1.827   0.506  0.00  0.00     0.000 A 
ATOM      6  C7  UNL d   1       1.632  -2.117   0.700  0.00  0.00    -0.073 A 
ATOM      7  C8  UNL d   1       2.466  -1.161   1.507  0.00  0.00     0.078 C 
ENDROOT
BRANCH   1   8
ATOM      8  C1  UNL d   1       3.607  -3.713   0.368  0.00  0.00     0.053 C 
ATOM      9  C   UNL d   1       3.816  -5.215   0.249  0.00  0.00     0.018 C 
ENDBRANCH   1   8
TORSDOF 1
ENDMDL
