MODEL 1
REMARK minimizedAffinity 0.592420459
REMARK minimizedRMSD -1
REMARK  1 active torsions:
REMARK  status: ('A' for Active; 'I' for Inactive)
REMARK    1  A    between atoms: C1_2  and  C2_3 
ROOT
ATOM      1  C2  UNL d   1       1.847  -1.375   0.822  0.00  0.00    -0.076 A 
ATOM      2  C3  UNL d   1       2.696  -2.479   0.633  0.00  0.00     0.004 A 
ATOM      3  C4  UNL d   1       2.180  -3.766   0.496  0.00  0.00    -0.003 A 
ATOM      4  C5  UNL d   1       0.805  -3.971   0.545  0.00  0.00     0.000 A 
ATOM      5  C6  UNL d   1      -0.053  -2.885   0.714  0.00  0.00     0.000 A 
ATOM      6  C7  UNL d   1       0.450  -1.578   0.838  0.00  0.00    -0.073 A 
ATOM      7  C8  UNL d   1      -0.521  -0.445   1.024  0.00  0.00     0.078 C 
ENDROOT
BRANCH   1   8
ATOM      8  C1  UNL d   1       2.465  -0.006   0.991  0.00  0.00     0.053 C 
ATOM      9  C   UNL d   1       2.955   0.241   2.410  0.00  0.00     0.018 C 
ENDBRANCH   1   8
TORSDOF 1
ENDMDL
