MODEL 1
REMARK minimizedAffinity 4.26422119
REMARK minimizedRMSD -1
REMARK  1 active torsions:
REMARK  status: ('A' for Active; 'I' for Inactive)
REMARK    1  A    between atoms: C1_2  and  C2_3 
ROOT
ATOM      1  C2  UNL d   1       3.660  -3.267  -0.195  0.00  0.00    -0.076 A 
ATOM      2  C3  UNL d   1       4.924  -3.780  -0.536  0.00  0.00     0.004 A 
ATOM      3  C4  UNL d   1       5.212  -5.135  -0.385  0.00  0.00    -0.003 A 
ATOM      4  C5  UNL d   1       4.241  -6.000   0.109  0.00  0.00     0.000 A 
ATOM      5  C6  UNL d   1       2.977  -5.511   0.436  0.00  0.00     0.000 A 
ATOM      6  C7  UNL d   1       2.664  -4.150   0.274  0.00  0.00    -0.073 A 
ATOM      7  C8  UNL d   1       1.287  -3.677   0.648  0.00  0.00     0.078 C 
ENDROOT
BRANCH   1   8
ATOM      8  C1  UNL d   1       3.414  -1.784  -0.354  0.00  0.00     0.053 C 
ATOM      9  C   UNL d   1       4.034  -0.966   0.768  0.00  0.00     0.018 C 
ENDBRANCH   1   8
TORSDOF 1
ENDMDL
