MODEL 1
REMARK minimizedAffinity -4.09396505
REMARK minimizedRMSD -1
REMARK  1 active torsions:
REMARK  status: ('A' for Active; 'I' for Inactive)
REMARK    1  A    between atoms: C1_2  and  C2_3 
ROOT
ATOM      1  C2  UNL d   1       1.247  -2.942   0.116  0.00  0.00    -0.076 A 
ATOM      2  C3  UNL d   1       2.076  -1.843   0.402  0.00  0.00     0.004 A 
ATOM      3  C4  UNL d   1       1.542  -0.568   0.579  0.00  0.00    -0.003 A 
ATOM      4  C5  UNL d   1       0.169  -0.371   0.475  0.00  0.00     0.000 A 
ATOM      5  C6  UNL d   1      -0.670  -1.452   0.209  0.00  0.00     0.000 A 
ATOM      6  C7  UNL d   1      -0.149  -2.747   0.044  0.00  0.00    -0.073 A 
ATOM      7  C8  UNL d   1      -1.100  -3.876  -0.247  0.00  0.00     0.078 C 
ENDROOT
BRANCH   1   8
ATOM      8  C1  UNL d   1       1.885  -4.296  -0.093  0.00  0.00     0.053 C 
ATOM      9  C   UNL d   1       3.394  -4.209  -0.262  0.00  0.00     0.018 C 
ENDBRANCH   1   8
TORSDOF 1
ENDMDL
