MODEL 1
REMARK minimizedAffinity -1.19194853
REMARK minimizedRMSD -1
REMARK  1 active torsions:
REMARK  status: ('A' for Active; 'I' for Inactive)
REMARK    1  A    between atoms: C1_2  and  C2_3 
ROOT
ATOM      1  C2  UNL d   1       0.650  -1.958   0.288  0.00  0.00    -0.076 A 
ATOM      2  C3  UNL d   1       1.778  -1.231   0.709  0.00  0.00     0.004 A 
ATOM      3  C4  UNL d   1       3.050  -1.799   0.676  0.00  0.00    -0.003 A 
ATOM      4  C5  UNL d   1       3.216  -3.103   0.222  0.00  0.00     0.000 A 
ATOM      5  C6  UNL d   1       2.111  -3.832  -0.215  0.00  0.00     0.000 A 
ATOM      6  C7  UNL d   1       0.824  -3.269  -0.205  0.00  0.00    -0.073 A 
ATOM      7  C8  UNL d   1      -0.333  -4.103  -0.682  0.00  0.00     0.078 C 
ENDROOT
BRANCH   1   8
ATOM      8  C1  UNL d   1      -0.708  -1.299   0.371  0.00  0.00     0.053 C 
ATOM      9  C   UNL d   1      -0.779  -0.246   1.466  0.00  0.00     0.018 C 
ENDBRANCH   1   8
TORSDOF 1
ENDMDL
