MODEL 1
REMARK minimizedAffinity -3.04360914
REMARK minimizedRMSD -1
REMARK  1 active torsions:
REMARK  status: ('A' for Active; 'I' for Inactive)
REMARK    1  A    between atoms: C1_2  and  C2_3 
ROOT
ATOM      1  C2  UNL d   1       0.363  -1.777   0.577  0.00  0.00    -0.076 A 
ATOM      2  C3  UNL d   1       0.353  -3.178   0.463  0.00  0.00     0.004 A 
ATOM      3  C4  UNL d   1       1.522  -3.883   0.179  0.00  0.00    -0.003 A 
ATOM      4  C5  UNL d   1       2.719  -3.198   0.004  0.00  0.00     0.000 A 
ATOM      5  C6  UNL d   1       2.750  -1.810   0.131  0.00  0.00     0.000 A 
ATOM      6  C7  UNL d   1       1.584  -1.085   0.433  0.00  0.00    -0.073 A 
ATOM      7  C8  UNL d   1       1.675   0.411   0.553  0.00  0.00     0.078 C 
ENDROOT
BRANCH   1   8
ATOM      8  C1  UNL d   1      -0.940  -1.065   0.860  0.00  0.00     0.053 C 
ATOM      9  C   UNL d   1      -0.909  -0.292   2.170  0.00  0.00     0.018 C 
ENDBRANCH   1   8
TORSDOF 1
ENDMDL
