MODEL 1
REMARK minimizedAffinity -0.399824381
REMARK minimizedRMSD -1
REMARK  1 active torsions:
REMARK  status: ('A' for Active; 'I' for Inactive)
REMARK    1  A    between atoms: C1_2  and  C2_3 
ROOT
ATOM      1  C2  UNL d   1       2.447  -3.074  -0.007  0.00  0.00    -0.076 A 
ATOM      2  C3  UNL d   1       1.336  -3.920   0.158  0.00  0.00     0.004 A 
ATOM      3  C4  UNL d   1       0.091  -3.406   0.515  0.00  0.00    -0.003 A 
ATOM      4  C5  UNL d   1      -0.064  -2.038   0.712  0.00  0.00     0.000 A 
ATOM      5  C6  UNL d   1       1.023  -1.183   0.536  0.00  0.00     0.000 A 
ATOM      6  C7  UNL d   1       2.282  -1.683   0.160  0.00  0.00    -0.073 A 
ATOM      7  C8  UNL d   1       3.421  -0.716  -0.010  0.00  0.00     0.078 C 
ENDROOT
BRANCH   1   8
ATOM      8  C1  UNL d   1       3.779  -3.692  -0.368  0.00  0.00     0.053 C 
ATOM      9  C   UNL d   1       4.060  -4.969   0.409  0.00  0.00     0.018 C 
ENDBRANCH   1   8
TORSDOF 1
ENDMDL
