MODEL 1
REMARK minimizedAffinity -1.98958266
REMARK minimizedRMSD -1
REMARK  1 active torsions:
REMARK  status: ('A' for Active; 'I' for Inactive)
REMARK    1  A    between atoms: C1_2  and  C2_3 
ROOT
ATOM      1  C2  UNL d   1       0.622  -2.542   0.201  0.00  0.00    -0.076 A 
ATOM      2  C3  UNL d   1      -0.692  -2.356   0.666  0.00  0.00     0.004 A 
ATOM      3  C4  UNL d   1      -1.066  -1.175   1.304  0.00  0.00    -0.003 A 
ATOM      4  C5  UNL d   1      -0.134  -0.160   1.486  0.00  0.00     0.000 A 
ATOM      5  C6  UNL d   1       1.169  -0.320   1.016  0.00  0.00     0.000 A 
ATOM      6  C7  UNL d   1       1.559  -1.498   0.357  0.00  0.00    -0.073 A 
ATOM      7  C8  UNL d   1       2.979  -1.620  -0.125  0.00  0.00     0.078 C 
ENDROOT
BRANCH   1   8
ATOM      8  C1  UNL d   1       0.978  -3.855  -0.458  0.00  0.00     0.053 C 
ATOM      9  C   UNL d   1       2.211  -4.500   0.155  0.00  0.00     0.018 C 
ENDBRANCH   1   8
TORSDOF 1
ENDMDL
