MODEL 1
REMARK minimizedAffinity -0.795194268
REMARK minimizedRMSD -1
REMARK  1 active torsions:
REMARK  status: ('A' for Active; 'I' for Inactive)
REMARK    1  A    between atoms: C1_2  and  C2_3 
ROOT
ATOM      1  C2  UNL d   1       1.524  -1.194   0.191  0.00  0.00    -0.076 A 
ATOM      2  C3  UNL d   1       0.803  -0.058   0.597  0.00  0.00     0.004 A 
ATOM      3  C4  UNL d   1      -0.546  -0.147   0.935  0.00  0.00    -0.003 A 
ATOM      4  C5  UNL d   1      -1.196  -1.375   0.874  0.00  0.00     0.000 A 
ATOM      5  C6  UNL d   1      -0.492  -2.516   0.491  0.00  0.00     0.000 A 
ATOM      6  C7  UNL d   1       0.873  -2.446   0.162  0.00  0.00    -0.073 A 
ATOM      7  C8  UNL d   1       1.582  -3.707  -0.250  0.00  0.00     0.078 C 
ENDROOT
BRANCH   1   8
ATOM      8  C1  UNL d   1       2.979  -1.031  -0.190  0.00  0.00     0.053 C 
ATOM      9  C   UNL d   1       3.172  -0.077  -1.357  0.00  0.00     0.018 C 
ENDBRANCH   1   8
TORSDOF 1
ENDMDL
