MODEL 1
REMARK minimizedAffinity 5.17831898
REMARK minimizedRMSD -1
REMARK  1 active torsions:
REMARK  status: ('A' for Active; 'I' for Inactive)
REMARK    1  A    between atoms: C1_2  and  C2_3 
ROOT
ATOM      1  C2  UNL d   1       1.413  -1.292   0.736  0.00  0.00    -0.076 A 
ATOM      2  C3  UNL d   1       0.440  -0.278   0.774  0.00  0.00     0.004 A 
ATOM      3  C4  UNL d   1      -0.914  -0.578   0.630  0.00  0.00    -0.003 A 
ATOM      4  C5  UNL d   1      -1.316  -1.896   0.446  0.00  0.00     0.000 A 
ATOM      5  C6  UNL d   1      -0.366  -2.916   0.423  0.00  0.00     0.000 A 
ATOM      6  C7  UNL d   1       1.001  -2.633   0.583  0.00  0.00    -0.073 A 
ATOM      7  C8  UNL d   1       1.984  -3.772   0.545  0.00  0.00     0.078 C 
ENDROOT
BRANCH   1   8
ATOM      8  C1  UNL d   1       2.868  -0.904   0.870  0.00  0.00     0.053 C 
ATOM      9  C   UNL d   1       3.072   0.282   1.800  0.00  0.00     0.018 C 
ENDBRANCH   1   8
TORSDOF 1
ENDMDL
