MODEL 1
REMARK minimizedAffinity 3.18008065
REMARK minimizedRMSD -1
REMARK  0 active torsions:
REMARK  status: ('A' for Active; 'I' for Inactive)
ROOT
ATOM      1  C2' OXE d   1       5.606   2.879  -5.748  0.00  0.00     0.078 C 
ATOM      2  C1' OXE d   1       5.933   5.665  -5.850  0.00  0.00     0.078 C 
ATOM      3  C1  OXE d   1       4.527   5.121  -5.868  0.00  0.00    -0.078 A 
ATOM      4  C2  OXE d   1       4.377   3.755  -5.865  0.00  0.00    -0.078 A 
ATOM      5  C3  OXE d   1       3.101   3.202  -5.825  0.00  0.00     0.003 A 
ATOM      6  C4  OXE d   1       1.970   4.019  -5.944  0.00  0.00    -0.002 A 
ATOM      7  C5  OXE d   1       2.101   5.411  -5.989  0.00  0.00    -0.002 A 
ATOM      8  C6  OXE d   1       3.368   5.979  -5.909  0.00  0.00     0.003 A 
ENDROOT
TORSDOF 0
ENDMDL
