MODEL 1
REMARK minimizedAffinity 11.5688038
REMARK minimizedRMSD -1
REMARK  0 active torsions:
REMARK  status: ('A' for Active; 'I' for Inactive)
ROOT
ATOM      1  C2' OXE d   1       1.863   3.036   2.105  0.00  0.00     0.078 C 
ATOM      2  C1' OXE d   1      -0.243   4.488   3.260  0.00  0.00     0.078 C 
ATOM      3  C1  OXE d   1       1.159   4.794   3.723  0.00  0.00    -0.078 A 
ATOM      4  C2  OXE d   1       2.179   4.046   3.186  0.00  0.00    -0.078 A 
ATOM      5  C3  OXE d   1       3.497   4.325   3.538  0.00  0.00     0.003 A 
ATOM      6  C4  OXE d   1       3.780   5.255   4.547  0.00  0.00    -0.002 A 
ATOM      7  C5  OXE d   1       2.752   5.999   5.135  0.00  0.00    -0.002 A 
ATOM      8  C6  OXE d   1       1.443   5.812   4.705  0.00  0.00     0.003 A 
ENDROOT
TORSDOF 0
ENDMDL
