MODEL 1
REMARK minimizedAffinity 4.14076138
REMARK minimizedRMSD -1
REMARK  0 active torsions:
REMARK  status: ('A' for Active; 'I' for Inactive)
ROOT
ATOM      1  C2' OXE d   1      -5.960   0.126  -4.216  0.00  0.00     0.078 C 
ATOM      2  C1' OXE d   1      -3.997   1.252  -5.877  0.00  0.00     0.078 C 
ATOM      3  C1  OXE d   1      -3.749   1.261  -4.389  0.00  0.00    -0.078 A 
ATOM      4  C2  OXE d   1      -4.736   0.750  -3.581  0.00  0.00    -0.078 A 
ATOM      5  C3  OXE d   1      -4.535   0.683  -2.205  0.00  0.00     0.003 A 
ATOM      6  C4  OXE d   1      -3.404   1.272  -1.625  0.00  0.00    -0.002 A 
ATOM      7  C5  OXE d   1      -2.406   1.833  -2.427  0.00  0.00    -0.002 A 
ATOM      8  C6  OXE d   1      -2.542   1.798  -3.810  0.00  0.00     0.003 A 
ENDROOT
TORSDOF 0
ENDMDL
