MODEL 1
REMARK minimizedAffinity 8.0149231
REMARK minimizedRMSD -1
REMARK  0 active torsions:
REMARK  status: ('A' for Active; 'I' for Inactive)
ROOT
ATOM      1  C2' OXE d   1       4.271  -2.161   3.875  0.00  0.00     0.078 C 
ATOM      2  C1' OXE d   1       4.185  -3.497   1.407  0.00  0.00     0.078 C 
ATOM      3  C1  OXE d   1       3.006  -2.634   1.782  0.00  0.00    -0.078 A 
ATOM      4  C2  OXE d   1       3.036  -2.021   3.011  0.00  0.00    -0.078 A 
ATOM      5  C3  OXE d   1       1.999  -1.170   3.383  0.00  0.00     0.003 A 
ATOM      6  C4  OXE d   1       0.856  -1.054   2.582  0.00  0.00    -0.002 A 
ATOM      7  C5  OXE d   1       0.788  -1.701   1.344  0.00  0.00    -0.002 A 
ATOM      8  C6  OXE d   1       1.870  -2.459   0.911  0.00  0.00     0.003 A 
ENDROOT
TORSDOF 0
ENDMDL
