MODEL 1
REMARK minimizedAffinity 3.40107274
REMARK minimizedRMSD -1
REMARK  0 active torsions:
REMARK  status: ('A' for Active; 'I' for Inactive)
ROOT
ATOM      1  C2' OXE d   1       2.301   5.999  -5.881  0.00  0.00     0.078 C 
ATOM      2  C1' OXE d   1       2.129   3.241  -5.383  0.00  0.00     0.078 C 
ATOM      3  C1  OXE d   1       3.501   3.837  -5.576  0.00  0.00    -0.078 A 
ATOM      4  C2  OXE d   1       3.573   5.179  -5.866  0.00  0.00    -0.078 A 
ATOM      5  C3  OXE d   1       4.816   5.790  -5.998  0.00  0.00     0.003 A 
ATOM      6  C4  OXE d   1       5.988   5.022  -5.992  0.00  0.00    -0.002 A 
ATOM      7  C5  OXE d   1       5.934   3.648  -5.739  0.00  0.00    -0.002 A 
ATOM      8  C6  OXE d   1       4.705   3.049  -5.487  0.00  0.00     0.003 A 
ENDROOT
TORSDOF 0
ENDMDL
