MODEL 1
REMARK minimizedAffinity 10.2390385
REMARK minimizedRMSD -1
REMARK  0 active torsions:
REMARK  status: ('A' for Active; 'I' for Inactive)
ROOT
ATOM      1  C2' OXE d   1       1.840  -4.594   0.534  0.00  0.00     0.078 C 
ATOM      2  C1' OXE d   1       3.515  -2.437   1.183  0.00  0.00     0.078 C 
ATOM      3  C1  OXE d   1       2.081  -2.378   1.646  0.00  0.00    -0.078 A 
ATOM      4  C2  OXE d   1       1.256  -3.416   1.284  0.00  0.00    -0.078 A 
ATOM      5  C3  OXE d   1      -0.062  -3.439   1.732  0.00  0.00     0.003 A 
ATOM      6  C4  OXE d   1      -0.596  -2.341   2.416  0.00  0.00    -0.002 A 
ATOM      7  C5  OXE d   1       0.216  -1.255   2.761  0.00  0.00    -0.002 A 
ATOM      8  C6  OXE d   1       1.564  -1.277   2.421  0.00  0.00     0.003 A 
ENDROOT
TORSDOF 0
ENDMDL
