MODEL 1
REMARK minimizedAffinity 16.163578
REMARK minimizedRMSD -1
REMARK  0 active torsions:
REMARK  status: ('A' for Active; 'I' for Inactive)
ROOT
ATOM      1  C2' OXE d   1       1.126  -0.290   3.350  0.00  0.00     0.078 C 
ATOM      2  C1' OXE d   1       3.244  -2.001   4.036  0.00  0.00     0.078 C 
ATOM      3  C1  OXE d   1       2.616  -2.169   2.675  0.00  0.00    -0.078 A 
ATOM      4  C2  OXE d   1       1.550  -1.359   2.366  0.00  0.00    -0.078 A 
ATOM      5  C3  OXE d   1       0.969  -1.436   1.103  0.00  0.00     0.003 A 
ATOM      6  C4  OXE d   1       1.360  -2.434   0.203  0.00  0.00    -0.002 A 
ATOM      7  C5  OXE d   1       2.418  -3.295   0.513  0.00  0.00    -0.002 A 
ATOM      8  C6  OXE d   1       3.083  -3.149   1.725  0.00  0.00     0.003 A 
ENDROOT
TORSDOF 0
ENDMDL
