MODEL 1
REMARK minimizedAffinity 12.9428225
REMARK minimizedRMSD -1
REMARK  0 active torsions:
REMARK  status: ('A' for Active; 'I' for Inactive)
ROOT
ATOM      1  C2' OXE d   1      -0.382   2.709  -3.727  0.00  0.00     0.078 C 
ATOM      2  C1' OXE d   1      -3.114   3.321  -3.525  0.00  0.00     0.078 C 
ATOM      3  C1  OXE d   1      -2.602   2.129  -2.757  0.00  0.00    -0.078 A 
ATOM      4  C2  OXE d   1      -1.273   1.809  -2.898  0.00  0.00    -0.078 A 
ATOM      5  C3  OXE d   1      -0.737   0.751  -2.169  0.00  0.00     0.003 A 
ATOM      6  C4  OXE d   1      -1.570  -0.082  -1.413  0.00  0.00    -0.002 A 
ATOM      7  C5  OXE d   1      -2.934   0.203  -1.287  0.00  0.00    -0.002 A 
ATOM      8  C6  OXE d   1      -3.457   1.327  -1.917  0.00  0.00     0.003 A 
ENDROOT
TORSDOF 0
ENDMDL
