MODEL 1
REMARK minimizedAffinity 13.192688
REMARK minimizedRMSD -1
REMARK  0 active torsions:
REMARK  status: ('A' for Active; 'I' for Inactive)
ROOT
ATOM      1  C2' OXE d   1      -1.918   2.137  -2.876  0.00  0.00     0.078 C 
ATOM      2  C1' OXE d   1      -0.081   3.288  -4.660  0.00  0.00     0.078 C 
ATOM      3  C1  OXE d   1      -1.397   3.995  -4.451  0.00  0.00    -0.078 A 
ATOM      4  C2  OXE d   1      -2.308   3.400  -3.612  0.00  0.00    -0.078 A 
ATOM      5  C3  OXE d   1      -3.516   4.038  -3.343  0.00  0.00     0.003 A 
ATOM      6  C4  OXE d   1      -3.873   5.201  -4.036  0.00  0.00    -0.002 A 
ATOM      7  C5  OXE d   1      -2.976   5.802  -4.925  0.00  0.00    -0.002 A 
ATOM      8  C6  OXE d   1      -1.720   5.236  -5.111  0.00  0.00     0.003 A 
ENDROOT
TORSDOF 0
ENDMDL
