MODEL 1
REMARK minimizedAffinity 3.72780347
REMARK minimizedRMSD -1
REMARK  0 active torsions:
REMARK  status: ('A' for Active; 'I' for Inactive)
ROOT
ATOM      1  C2' OXE d   1       3.879  -2.999   0.740  0.00  0.00     0.078 C 
ATOM      2  C1' OXE d   1       2.250  -1.419   2.393  0.00  0.00     0.078 C 
ATOM      3  C1  OXE d   1       1.755  -1.724   1.001  0.00  0.00    -0.078 A 
ATOM      4  C2  OXE d   1       2.579  -2.458   0.183  0.00  0.00    -0.078 A 
ATOM      5  C3  OXE d   1       2.148  -2.814  -1.091  0.00  0.00     0.003 A 
ATOM      6  C4  OXE d   1       0.949  -2.301  -1.602  0.00  0.00    -0.002 A 
ATOM      7  C5  OXE d   1       0.112  -1.518  -0.800  0.00  0.00    -0.002 A 
ATOM      8  C6  OXE d   1       0.480  -1.256   0.515  0.00  0.00     0.003 A 
ENDROOT
TORSDOF 0
ENDMDL
