MODEL 1
REMARK minimizedAffinity -1.56756139
REMARK minimizedRMSD -1
REMARK  0 active torsions:
REMARK  status: ('A' for Active; 'I' for Inactive)
ROOT
ATOM      1  C   UNL d   1       3.851  -0.721   0.311  0.00  0.00     0.077 C 
ATOM      2  C1  UNL d   1       2.537  -1.444   0.341  0.00  0.00    -0.074 A 
ATOM      3  C2  UNL d   1       2.455  -2.802   0.018  0.00  0.00    -0.005 A 
ATOM      4  C3  UNL d   1       1.228  -3.463   0.059  0.00  0.00     0.006 A 
ATOM      5  C4  UNL d   1       0.071  -2.773   0.424  0.00  0.00    -0.005 A 
ATOM      6  C5  UNL d   1       0.133  -1.415   0.751  0.00  0.00    -0.074 A 
ATOM      7  C6  UNL d   1      -1.100  -0.661   1.154  0.00  0.00     0.077 C 
ATOM      8  C7  UNL d   1       1.371  -0.760   0.714  0.00  0.00    -0.001 A 
ENDROOT
TORSDOF 0
ENDMDL
