MODEL 1
REMARK minimizedAffinity -3.82960606
REMARK minimizedRMSD -1
REMARK  0 active torsions:
REMARK  status: ('A' for Active; 'I' for Inactive)
ROOT
ATOM      1  C   UNL d   1       1.759  -4.382   0.112  0.00  0.00     0.077 C 
ATOM      2  C1  UNL d   1       1.726  -2.883   0.082  0.00  0.00    -0.074 A 
ATOM      3  C2  UNL d   1       2.728  -2.156  -0.569  0.00  0.00    -0.005 A 
ATOM      4  C3  UNL d   1       2.679  -0.762  -0.598  0.00  0.00     0.006 A 
ATOM      5  C4  UNL d   1       1.630  -0.083   0.024  0.00  0.00    -0.005 A 
ATOM      6  C5  UNL d   1       0.619  -0.794   0.679  0.00  0.00    -0.074 A 
ATOM      7  C6  UNL d   1      -0.520  -0.080   1.343  0.00  0.00     0.077 C 
ATOM      8  C7  UNL d   1       0.672  -2.194   0.697  0.00  0.00    -0.001 A 
ENDROOT
TORSDOF 0
ENDMDL
