MODEL 1
REMARK minimizedAffinity -2.85159588
REMARK minimizedRMSD -1
REMARK  0 active torsions:
REMARK  status: ('A' for Active; 'I' for Inactive)
ROOT
ATOM      1  C   UNL d   1       3.915  -3.640  -0.800  0.00  0.00     0.077 C 
ATOM      2  C1  UNL d   1       2.669  -2.967  -0.307  0.00  0.00    -0.074 A 
ATOM      3  C2  UNL d   1       1.446  -3.645  -0.287  0.00  0.00    -0.005 A 
ATOM      4  C3  UNL d   1       0.297  -3.009   0.183  0.00  0.00     0.006 A 
ATOM      5  C4  UNL d   1       0.359  -1.691   0.638  0.00  0.00    -0.005 A 
ATOM      6  C5  UNL d   1       1.574  -0.998   0.626  0.00  0.00    -0.074 A 
ATOM      7  C6  UNL d   1       1.660   0.416   1.120  0.00  0.00     0.077 C 
ATOM      8  C7  UNL d   1       2.725  -1.646   0.159  0.00  0.00    -0.001 A 
ENDROOT
TORSDOF 0
ENDMDL
