MODEL 1
REMARK minimizedAffinity -5.19964361
REMARK minimizedRMSD -1
REMARK  0 active torsions:
REMARK  status: ('A' for Active; 'I' for Inactive)
ROOT
ATOM      1  C   UNL d   1       2.695  -3.814  -0.297  0.00  0.00     0.077 C 
ATOM      2  C1  UNL d   1       1.710  -2.748   0.081  0.00  0.00    -0.074 A 
ATOM      3  C2  UNL d   1       2.054  -1.394   0.009  0.00  0.00    -0.005 A 
ATOM      4  C3  UNL d   1       1.125  -0.413   0.354  0.00  0.00     0.006 A 
ATOM      5  C4  UNL d   1      -0.156  -0.775   0.774  0.00  0.00    -0.005 A 
ATOM      6  C5  UNL d   1      -0.518  -2.123   0.852  0.00  0.00    -0.074 A 
ATOM      7  C6  UNL d   1      -1.893  -2.529   1.292  0.00  0.00     0.077 C 
ATOM      8  C7  UNL d   1       0.419  -3.103   0.496  0.00  0.00    -0.001 A 
ENDROOT
TORSDOF 0
ENDMDL
