MODEL 1
REMARK minimizedAffinity -1.54784012
REMARK minimizedRMSD -1
REMARK  0 active torsions:
REMARK  status: ('A' for Active; 'I' for Inactive)
ROOT
ATOM      1  C   UNL d   1      -0.510  -2.217   0.511  0.00  0.00     0.077 C 
ATOM      2  C1  UNL d   1       0.984  -2.252   0.381  0.00  0.00    -0.074 A 
ATOM      3  C2  UNL d   1       1.743  -1.082   0.489  0.00  0.00    -0.005 A 
ATOM      4  C3  UNL d   1       3.132  -1.132   0.376  0.00  0.00     0.006 A 
ATOM      5  C4  UNL d   1       3.776  -2.350   0.154  0.00  0.00    -0.005 A 
ATOM      6  C5  UNL d   1       3.034  -3.530   0.044  0.00  0.00    -0.074 A 
ATOM      7  C6  UNL d   1       3.710  -4.849  -0.185  0.00  0.00     0.077 C 
ATOM      8  C7  UNL d   1       1.639  -3.473   0.166  0.00  0.00    -0.001 A 
ENDROOT
TORSDOF 0
ENDMDL
