MODEL 1
REMARK minimizedAffinity -2.45253825
REMARK minimizedRMSD -1
REMARK  0 active torsions:
REMARK  status: ('A' for Active; 'I' for Inactive)
ROOT
ATOM      1  C   UNL d   1       0.462  -2.880   0.283  0.00  0.00     0.077 C 
ATOM      2  C1  UNL d   1       1.954  -3.001   0.180  0.00  0.00    -0.074 A 
ATOM      3  C2  UNL d   1       2.760  -1.865   0.049  0.00  0.00    -0.005 A 
ATOM      4  C3  UNL d   1       4.146  -1.993  -0.037  0.00  0.00     0.006 A 
ATOM      5  C4  UNL d   1       4.739  -3.255   0.009  0.00  0.00    -0.005 A 
ATOM      6  C5  UNL d   1       3.950  -4.402   0.140  0.00  0.00    -0.074 A 
ATOM      7  C6  UNL d   1       4.572  -5.765   0.201  0.00  0.00     0.077 C 
ATOM      8  C7  UNL d   1       2.558  -4.265   0.232  0.00  0.00    -0.001 A 
ENDROOT
TORSDOF 0
ENDMDL
