MODEL 1
REMARK minimizedAffinity 4.60760736
REMARK minimizedRMSD -1
REMARK  0 active torsions:
REMARK  status: ('A' for Active; 'I' for Inactive)
ROOT
ATOM      1  C   UNL d   1       3.534  -1.320  -0.154  0.00  0.00     0.077 C 
ATOM      2  C1  UNL d   1       2.169  -1.572   0.415  0.00  0.00    -0.074 A 
ATOM      3  C2  UNL d   1       1.233  -2.345  -0.279  0.00  0.00    -0.005 A 
ATOM      4  C3  UNL d   1      -0.029  -2.579   0.267  0.00  0.00     0.006 A 
ATOM      5  C4  UNL d   1      -0.367  -2.043   1.511  0.00  0.00    -0.005 A 
ATOM      6  C5  UNL d   1       0.557  -1.269   2.220  0.00  0.00    -0.074 A 
ATOM      7  C6  UNL d   1       0.214  -0.694   3.562  0.00  0.00     0.077 C 
ATOM      8  C7  UNL d   1       1.825  -1.044   1.667  0.00  0.00    -0.001 A 
ENDROOT
TORSDOF 0
ENDMDL
