MODEL 1
REMARK minimizedAffinity 0.589836895
REMARK minimizedRMSD -1
REMARK  0 active torsions:
REMARK  status: ('A' for Active; 'I' for Inactive)
ROOT
ATOM      1  C   UNL d   1       1.417  -3.100  -1.413  0.00  0.00     0.077 C 
ATOM      2  C1  UNL d   1       0.795  -2.209  -0.379  0.00  0.00    -0.074 A 
ATOM      3  C2  UNL d   1      -0.582  -2.240  -0.137  0.00  0.00    -0.005 A 
ATOM      4  C3  UNL d   1      -1.144  -1.412   0.835  0.00  0.00     0.006 A 
ATOM      5  C4  UNL d   1      -0.336  -0.547   1.573  0.00  0.00    -0.005 A 
ATOM      6  C5  UNL d   1       1.043  -0.502   1.346  0.00  0.00    -0.074 A 
ATOM      7  C6  UNL d   1       1.927   0.415   2.138  0.00  0.00     0.077 C 
ATOM      8  C7  UNL d   1       1.601  -1.342   0.373  0.00  0.00    -0.001 A 
ENDROOT
TORSDOF 0
ENDMDL
