MODEL 1
REMARK minimizedAffinity -0.654917598
REMARK minimizedRMSD -1
REMARK  0 active torsions:
REMARK  status: ('A' for Active; 'I' for Inactive)
ROOT
ATOM      1  C   UNL d   1      -1.668  -2.292   0.728  0.00  0.00     0.077 C 
ATOM      2  C1  UNL d   1      -0.215  -1.948   0.598  0.00  0.00    -0.074 A 
ATOM      3  C2  UNL d   1       0.241  -0.648   0.841  0.00  0.00    -0.005 A 
ATOM      4  C3  UNL d   1       1.597  -0.345   0.725  0.00  0.00     0.006 A 
ATOM      5  C4  UNL d   1       2.511  -1.337   0.365  0.00  0.00    -0.005 A 
ATOM      6  C5  UNL d   1       2.074  -2.642   0.119  0.00  0.00    -0.074 A 
ATOM      7  C6  UNL d   1       3.044  -3.722  -0.259  0.00  0.00     0.077 C 
ATOM      8  C7  UNL d   1       0.710  -2.941   0.245  0.00  0.00    -0.001 A 
ENDROOT
TORSDOF 0
ENDMDL
