MODEL 1
REMARK minimizedAffinity 12.0560055
REMARK minimizedRMSD -1
REMARK  0 active torsions:
REMARK  status: ('A' for Active; 'I' for Inactive)
ROOT
ATOM      1  C   UNL d   1       4.868  -0.830   0.125  0.00  0.00     0.077 C 
ATOM      2  C1  UNL d   1       4.630  -0.423  -1.299  0.00  0.00    -0.074 A 
ATOM      3  C2  UNL d   1       5.602  -0.639  -2.281  0.00  0.00    -0.005 A 
ATOM      4  C3  UNL d   1       5.362  -0.264  -3.603  0.00  0.00     0.006 A 
ATOM      5  C4  UNL d   1       4.149   0.329  -3.956  0.00  0.00    -0.005 A 
ATOM      6  C5  UNL d   1       3.165   0.551  -2.988  0.00  0.00    -0.074 A 
ATOM      7  C6  UNL d   1       1.852   1.179  -3.352  0.00  0.00     0.077 C 
ATOM      8  C7  UNL d   1       3.411   0.166  -1.663  0.00  0.00    -0.001 A 
ENDROOT
TORSDOF 0
ENDMDL
