MODEL 1
REMARK minimizedAffinity 4.42051458
REMARK minimizedRMSD -1
REMARK  0 active torsions:
REMARK  status: ('A' for Active; 'I' for Inactive)
ROOT
ATOM      1  C   UNL d   1      -0.525  -2.645   0.205  0.00  0.00     0.077 C 
ATOM      2  C1  UNL d   1       0.973  -2.576   0.180  0.00  0.00    -0.074 A 
ATOM      3  C2  UNL d   1       1.641  -1.362   0.371  0.00  0.00    -0.005 A 
ATOM      4  C3  UNL d   1       3.035  -1.316   0.354  0.00  0.00     0.006 A 
ATOM      5  C4  UNL d   1       3.774  -2.480   0.146  0.00  0.00    -0.005 A 
ATOM      6  C5  UNL d   1       3.124  -3.704  -0.046  0.00  0.00    -0.074 A 
ATOM      7  C6  UNL d   1       3.904  -4.967  -0.262  0.00  0.00     0.077 C 
ATOM      8  C7  UNL d   1       1.723  -3.743  -0.021  0.00  0.00    -0.001 A 
ENDROOT
TORSDOF 0
ENDMDL
