MODEL 1
REMARK minimizedAffinity 1.05091739
REMARK minimizedRMSD -1
REMARK  0 active torsions:
REMARK  status: ('A' for Active; 'I' for Inactive)
ROOT
ATOM      1  C   UNL d   1       4.653  -5.471  -0.115  0.00  0.00     0.077 C 
ATOM      2  C1  UNL d   1       3.817  -4.232   0.008  0.00  0.00    -0.074 A 
ATOM      3  C2  UNL d   1       4.408  -2.986   0.244  0.00  0.00    -0.005 A 
ATOM      4  C3  UNL d   1       3.618  -1.841   0.347  0.00  0.00     0.006 A 
ATOM      5  C4  UNL d   1       2.231  -1.930   0.215  0.00  0.00    -0.005 A 
ATOM      6  C5  UNL d   1       1.623  -3.167  -0.022  0.00  0.00    -0.074 A 
ATOM      7  C6  UNL d   1       0.135  -3.278  -0.177  0.00  0.00     0.077 C 
ATOM      8  C7  UNL d   1       2.424  -4.311  -0.131  0.00  0.00    -0.001 A 
ENDROOT
TORSDOF 0
ENDMDL
