MODEL 1
REMARK minimizedAffinity -3.34814906
REMARK minimizedRMSD -1
REMARK  0 active torsions:
REMARK  status: ('A' for Active; 'I' for Inactive)
ROOT
ATOM      1  C   UNL d   1       4.491  -2.337   0.022  0.00  0.00     0.077 C 
ATOM      2  C1  UNL d   1       3.002  -2.481   0.135  0.00  0.00    -0.074 A 
ATOM      3  C2  UNL d   1       2.386  -3.726  -0.028  0.00  0.00    -0.005 A 
ATOM      4  C3  UNL d   1       1.001  -3.846   0.089  0.00  0.00     0.006 A 
ATOM      5  C4  UNL d   1       0.220  -2.724   0.370  0.00  0.00    -0.005 A 
ATOM      6  C5  UNL d   1       0.819  -1.471   0.538  0.00  0.00    -0.074 A 
ATOM      7  C6  UNL d   1      -0.005  -0.257   0.850  0.00  0.00     0.077 C 
ATOM      8  C7  UNL d   1       2.211  -1.360   0.425  0.00  0.00    -0.001 A 
ENDROOT
TORSDOF 0
ENDMDL
