MODEL 1
REMARK minimizedAffinity -1.3170352
REMARK minimizedRMSD -1
REMARK  0 active torsions:
REMARK  status: ('A' for Active; 'I' for Inactive)
ROOT
ATOM      1  C   UNL d   1       3.765  -0.319   1.718  0.00  0.00     0.077 C 
ATOM      2  C1  UNL d   1       2.644  -1.097   1.094  0.00  0.00    -0.074 A 
ATOM      3  C2  UNL d   1       2.904  -2.184   0.254  0.00  0.00    -0.005 A 
ATOM      4  C3  UNL d   1       1.851  -2.903  -0.311  0.00  0.00     0.006 A 
ATOM      5  C4  UNL d   1       0.530  -2.543  -0.042  0.00  0.00    -0.005 A 
ATOM      6  C5  UNL d   1       0.251  -1.460   0.796  0.00  0.00    -0.074 A 
ATOM      7  C6  UNL d   1      -1.163  -1.066   1.104  0.00  0.00     0.077 C 
ATOM      8  C7  UNL d   1       1.314  -0.746   1.366  0.00  0.00    -0.001 A 
ENDROOT
TORSDOF 0
ENDMDL
