MODEL 1
REMARK minimizedAffinity -0.864304006
REMARK minimizedRMSD -1
REMARK  0 active torsions:
REMARK  status: ('A' for Active; 'I' for Inactive)
ROOT
ATOM      1  C   UNL d   1       0.439  -0.969   4.220  0.00  0.00     0.077 C 
ATOM      2  C1  UNL d   1       0.090  -1.184   2.777  0.00  0.00    -0.074 A 
ATOM      3  C2  UNL d   1      -0.793  -0.324   2.115  0.00  0.00    -0.005 A 
ATOM      4  C3  UNL d   1      -1.101  -0.532   0.771  0.00  0.00     0.006 A 
ATOM      5  C4  UNL d   1      -0.531  -1.599   0.076  0.00  0.00    -0.005 A 
ATOM      6  C5  UNL d   1       0.354  -2.469   0.721  0.00  0.00    -0.074 A 
ATOM      7  C6  UNL d   1       0.983  -3.615  -0.014  0.00  0.00     0.077 C 
ATOM      8  C7  UNL d   1       0.664  -2.250   2.070  0.00  0.00    -0.001 A 
ENDROOT
TORSDOF 0
ENDMDL
