MODEL 1
REMARK minimizedAffinity 1.68521023
REMARK minimizedRMSD -1
REMARK  0 active torsions:
REMARK  status: ('A' for Active; 'I' for Inactive)
ROOT
ATOM      1  C   UNL d   1      -0.004  -3.465   0.282  0.00  0.00     0.077 C 
ATOM      2  C1  UNL d   1       1.496  -3.445   0.283  0.00  0.00    -0.074 A 
ATOM      3  C2  UNL d   1       2.198  -2.235   0.293  0.00  0.00    -0.005 A 
ATOM      4  C3  UNL d   1       3.593  -2.232   0.304  0.00  0.00     0.006 A 
ATOM      5  C4  UNL d   1       4.298  -3.436   0.304  0.00  0.00    -0.005 A 
ATOM      6  C5  UNL d   1       3.613  -4.655   0.294  0.00  0.00    -0.074 A 
ATOM      7  C6  UNL d   1       4.356  -5.958   0.304  0.00  0.00     0.077 C 
ATOM      8  C7  UNL d   1       2.212  -4.650   0.291  0.00  0.00    -0.001 A 
ENDROOT
TORSDOF 0
ENDMDL
