MODEL 1
REMARK minimizedAffinity -0.93905592
REMARK minimizedRMSD -1
REMARK  0 active torsions:
REMARK  status: ('A' for Active; 'I' for Inactive)
ROOT
ATOM      1  C   UNL d   1       0.009  -3.319   0.483  0.00  0.00     0.077 C 
ATOM      2  C1  UNL d   1       1.502  -3.187   0.419  0.00  0.00    -0.074 A 
ATOM      3  C2  UNL d   1       2.119  -1.938   0.547  0.00  0.00    -0.005 A 
ATOM      4  C3  UNL d   1       3.509  -1.833   0.495  0.00  0.00     0.006 A 
ATOM      5  C4  UNL d   1       4.294  -2.972   0.316  0.00  0.00    -0.005 A 
ATOM      6  C5  UNL d   1       3.695  -4.229   0.188  0.00  0.00    -0.074 A 
ATOM      7  C6  UNL d   1       4.525  -5.465   0.005  0.00  0.00     0.077 C 
ATOM      8  C7  UNL d   1       2.298  -4.328   0.248  0.00  0.00    -0.001 A 
ENDROOT
TORSDOF 0
ENDMDL
