MODEL 1
REMARK minimizedAffinity -3.98777723
REMARK minimizedRMSD -1
REMARK  0 active torsions:
REMARK  status: ('A' for Active; 'I' for Inactive)
ROOT
ATOM      1  C   UNL d   1      -1.828  -2.234   1.889  0.00  0.00     0.020 A 
ATOM      2  C1  UNL d   1      -2.413  -0.969   1.896  0.00  0.00     0.020 A 
ATOM      3  C2  UNL d   1      -1.843   0.068   1.153  0.00  0.00     0.034 A 
ATOM      4  C3  UNL d   1      -0.684  -0.160   0.401  0.00  0.00     0.017 A 
ATOM      5  C4  UNL d   1      -0.098  -1.431   0.396  0.00  0.00     0.017 A 
ATOM      6  C5  UNL d   1      -0.673  -2.465   1.141  0.00  0.00     0.034 A 
ATOM      7 Cl   UNL d   1       1.332  -1.788  -0.507  0.00  0.00    -0.070 Cl
ATOM      8 Cl1  UNL d   1      -0.034   1.167  -0.493  0.00  0.00    -0.070 Cl
ENDROOT
TORSDOF 0
ENDMDL
