MODEL 1
REMARK minimizedAffinity -2.46295762
REMARK minimizedRMSD -1
REMARK  0 active torsions:
REMARK  status: ('A' for Active; 'I' for Inactive)
ROOT
ATOM      1  C   UNL d   1      -0.415  -2.304   1.490  0.00  0.00     0.020 A 
ATOM      2  C1  UNL d   1       0.720  -2.074   0.714  0.00  0.00     0.020 A 
ATOM      3  C2  UNL d   1       0.938  -0.815   0.152  0.00  0.00     0.034 A 
ATOM      4  C3  UNL d   1       0.020   0.220   0.365  0.00  0.00     0.017 A 
ATOM      5  C4  UNL d   1      -1.119  -0.012   1.145  0.00  0.00     0.017 A 
ATOM      6  C5  UNL d   1      -1.333  -1.275   1.705  0.00  0.00     0.034 A 
ATOM      7 Cl   UNL d   1      -2.297   1.216   1.453  0.00  0.00    -0.070 Cl
ATOM      8 Cl1  UNL d   1       0.353   1.753  -0.360  0.00  0.00    -0.070 Cl
ENDROOT
TORSDOF 0
ENDMDL
