MODEL 1
REMARK minimizedAffinity -1.08275151
REMARK minimizedRMSD -1
REMARK  0 active torsions:
REMARK  status: ('A' for Active; 'I' for Inactive)
ROOT
ATOM      1  C   UNL d   1       2.803   2.271  -3.867  0.00  0.00     0.020 A 
ATOM      2  C1  UNL d   1       3.366   1.842  -2.666  0.00  0.00     0.020 A 
ATOM      3  C2  UNL d   1       2.599   1.836  -1.498  0.00  0.00     0.034 A 
ATOM      4  C3  UNL d   1       1.266   2.259  -1.530  0.00  0.00     0.017 A 
ATOM      5  C4  UNL d   1       0.701   2.690  -2.736  0.00  0.00     0.017 A 
ATOM      6  C5  UNL d   1       1.473   2.694  -3.902  0.00  0.00     0.034 A 
ATOM      7 Cl   UNL d   1      -0.937   3.227  -2.853  0.00  0.00    -0.070 Cl
ATOM      8 Cl1  UNL d   1       0.377   2.225  -0.048  0.00  0.00    -0.070 Cl
ENDROOT
TORSDOF 0
ENDMDL
