MODEL 1
REMARK minimizedAffinity -3.56381273
REMARK minimizedRMSD -1
REMARK  0 active torsions:
REMARK  status: ('A' for Active; 'I' for Inactive)
ROOT
ATOM      1  C   UNL d   1       1.401  -0.818   0.330  0.00  0.00     0.020 A 
ATOM      2  C1  UNL d   1       0.983   0.510   0.258  0.00  0.00     0.020 A 
ATOM      3  C2  UNL d   1      -0.355   0.835   0.493  0.00  0.00     0.034 A 
ATOM      4  C3  UNL d   1      -1.279  -0.169   0.802  0.00  0.00     0.017 A 
ATOM      5  C4  UNL d   1      -0.859  -1.502   0.875  0.00  0.00     0.017 A 
ATOM      6  C5  UNL d   1       0.482  -1.822   0.638  0.00  0.00     0.034 A 
ATOM      7 Cl   UNL d   1      -1.941  -2.796   1.250  0.00  0.00    -0.070 Cl
ATOM      8 Cl1  UNL d   1      -2.917   0.305   1.081  0.00  0.00    -0.070 Cl
ENDROOT
TORSDOF 0
ENDMDL
