MODEL 1
REMARK minimizedAffinity -2.34000659
REMARK minimizedRMSD -1
REMARK  0 active torsions:
REMARK  status: ('A' for Active; 'I' for Inactive)
ROOT
ATOM      1  C   UNL d   1       0.788  -0.989  -0.145  0.00  0.00     0.020 A 
ATOM      2  C1  UNL d   1       0.472  -2.131   0.589  0.00  0.00     0.020 A 
ATOM      3  C2  UNL d   1      -0.578  -2.102   1.509  0.00  0.00     0.034 A 
ATOM      4  C3  UNL d   1      -1.316  -0.928   1.698  0.00  0.00     0.017 A 
ATOM      5  C4  UNL d   1      -0.999   0.218   0.961  0.00  0.00     0.017 A 
ATOM      6  C5  UNL d   1       0.054   0.184   0.041  0.00  0.00     0.034 A 
ATOM      7 Cl   UNL d   1      -1.864   1.704   1.139  0.00  0.00    -0.070 Cl
ATOM      8 Cl1  UNL d   1      -2.602  -0.964   2.852  0.00  0.00    -0.070 Cl
ENDROOT
TORSDOF 0
ENDMDL
