MODEL 1
REMARK minimizedAffinity -4.73448229
REMARK minimizedRMSD -1
REMARK  0 active torsions:
REMARK  status: ('A' for Active; 'I' for Inactive)
ROOT
ATOM      1  C   UNL d   1      -0.337  -2.833   1.445  0.00  0.00     0.020 A 
ATOM      2  C1  UNL d   1       0.778  -2.719   0.615  0.00  0.00     0.020 A 
ATOM      3  C2  UNL d   1       1.116  -1.480   0.067  0.00  0.00     0.034 A 
ATOM      4  C3  UNL d   1       0.339  -0.351   0.348  0.00  0.00     0.017 A 
ATOM      5  C4  UNL d   1      -0.779  -0.466   1.181  0.00  0.00     0.017 A 
ATOM      6  C5  UNL d   1      -1.114  -1.709   1.727  0.00  0.00     0.034 A 
ATOM      7 Cl   UNL d   1      -1.786   0.883   1.573  0.00  0.00    -0.070 Cl
ATOM      8 Cl1  UNL d   1       0.816   1.150  -0.364  0.00  0.00    -0.070 Cl
ENDROOT
TORSDOF 0
ENDMDL
