MODEL 1
REMARK minimizedAffinity -2.83622575
REMARK minimizedRMSD -1
REMARK  0 active torsions:
REMARK  status: ('A' for Active; 'I' for Inactive)
ROOT
ATOM      1  C   UNL d   1       0.807   0.269  -3.238  0.00  0.00     0.020 A 
ATOM      2  C1  UNL d   1       1.070   1.621  -3.019  0.00  0.00     0.020 A 
ATOM      3  C2  UNL d   1       1.150   2.114  -1.715  0.00  0.00     0.034 A 
ATOM      4  C3  UNL d   1       0.967   1.255  -0.625  0.00  0.00     0.017 A 
ATOM      5  C4  UNL d   1       0.704  -0.101  -0.846  0.00  0.00     0.017 A 
ATOM      6  C5  UNL d   1       0.624  -0.590  -2.154  0.00  0.00     0.034 A 
ATOM      7 Cl   UNL d   1       0.467  -1.222   0.448  0.00  0.00    -0.070 Cl
ATOM      8 Cl1  UNL d   1       1.080   1.934   0.960  0.00  0.00    -0.070 Cl
ENDROOT
TORSDOF 0
ENDMDL
