MODEL 1
REMARK minimizedAffinity -1.86743617
REMARK minimizedRMSD -1
REMARK  0 active torsions:
REMARK  status: ('A' for Active; 'I' for Inactive)
ROOT
ATOM      1  C   UNL d   1      -1.896  -1.531   0.367  0.00  0.00     0.020 A 
ATOM      2  C1  UNL d   1      -1.009  -2.431   0.956  0.00  0.00     0.020 A 
ATOM      3  C2  UNL d   1       0.362  -2.169   0.944  0.00  0.00     0.034 A 
ATOM      4  C3  UNL d   1       0.851  -1.004   0.340  0.00  0.00     0.017 A 
ATOM      5  C4  UNL d   1      -0.040  -0.102  -0.251  0.00  0.00     0.017 A 
ATOM      6  C5  UNL d   1      -1.412  -0.369  -0.236  0.00  0.00     0.034 A 
ATOM      7 Cl   UNL d   1       0.488   1.356  -1.015  0.00  0.00    -0.070 Cl
ATOM      8 Cl1  UNL d   1       2.559  -0.744   0.362  0.00  0.00    -0.070 Cl
ENDROOT
TORSDOF 0
ENDMDL
