MODEL 1
REMARK minimizedAffinity -1.61252236
REMARK minimizedRMSD -1
REMARK  0 active torsions:
REMARK  status: ('A' for Active; 'I' for Inactive)
ROOT
ATOM      1  C   UNL d   1       0.846   1.267  -0.739  0.00  0.00     0.020 A 
ATOM      2  C1  UNL d   1      -0.394   1.043  -0.143  0.00  0.00     0.020 A 
ATOM      3  C2  UNL d   1      -0.651  -0.171   0.499  0.00  0.00     0.034 A 
ATOM      4  C3  UNL d   1       0.333  -1.165   0.545  0.00  0.00     0.017 A 
ATOM      5  C4  UNL d   1       1.578  -0.939  -0.053  0.00  0.00     0.017 A 
ATOM      6  C5  UNL d   1       1.830   0.278  -0.694  0.00  0.00     0.034 A 
ATOM      7 Cl   UNL d   1       2.842  -2.117  -0.036  0.00  0.00    -0.070 Cl
ATOM      8 Cl1  UNL d   1      -0.054  -2.641   1.355  0.00  0.00    -0.070 Cl
ENDROOT
TORSDOF 0
ENDMDL
