MODEL 1
REMARK minimizedAffinity -3.56537962
REMARK minimizedRMSD -1
REMARK  0 active torsions:
REMARK  status: ('A' for Active; 'I' for Inactive)
ROOT
ATOM      1  C   UNL d   1       0.969  -1.983  -0.332  0.00  0.00     0.020 A 
ATOM      2  C1  UNL d   1       0.310  -1.891   0.893  0.00  0.00     0.020 A 
ATOM      3  C2  UNL d   1      -0.230  -0.671   1.306  0.00  0.00     0.034 A 
ATOM      4  C3  UNL d   1      -0.111   0.462   0.492  0.00  0.00     0.017 A 
ATOM      5  C4  UNL d   1       0.550   0.368  -0.738  0.00  0.00     0.017 A 
ATOM      6  C5  UNL d   1       1.088  -0.856  -1.146  0.00  0.00     0.034 A 
ATOM      7 Cl   UNL d   1       0.735   1.722  -1.796  0.00  0.00    -0.070 Cl
ATOM      8 Cl1  UNL d   1      -0.803   1.938   1.065  0.00  0.00    -0.070 Cl
ENDROOT
TORSDOF 0
ENDMDL
