MODEL 1
REMARK minimizedAffinity -3.17073727
REMARK minimizedRMSD -1
REMARK  0 active torsions:
REMARK  status: ('A' for Active; 'I' for Inactive)
ROOT
ATOM      1  C   UNL d   1      -0.026  -1.395  -0.131  0.00  0.00     0.020 A 
ATOM      2  C1  UNL d   1       0.320  -1.560  -1.472  0.00  0.00     0.020 A 
ATOM      3  C2  UNL d   1       0.596  -0.444  -2.265  0.00  0.00     0.034 A 
ATOM      4  C3  UNL d   1       0.525   0.842  -1.718  0.00  0.00     0.017 A 
ATOM      5  C4  UNL d   1       0.178   1.007  -0.372  0.00  0.00     0.017 A 
ATOM      6  C5  UNL d   1      -0.097  -0.114   0.417  0.00  0.00     0.034 A 
ATOM      7 Cl   UNL d   1       0.071   2.563   0.373  0.00  0.00    -0.070 Cl
ATOM      8 Cl1  UNL d   1       0.879   2.177  -2.757  0.00  0.00    -0.070 Cl
ENDROOT
TORSDOF 0
ENDMDL
