MODEL 1
REMARK minimizedAffinity -4.91164684
REMARK minimizedRMSD -1
REMARK  0 active torsions:
REMARK  status: ('A' for Active; 'I' for Inactive)
ROOT
ATOM      1  C   UNL d   1       0.065  -1.853   0.769  0.00  0.00     0.020 A 
ATOM      2  C1  UNL d   1       0.409  -2.151  -0.549  0.00  0.00     0.020 A 
ATOM      3  C2  UNL d   1       0.521  -1.125  -1.490  0.00  0.00     0.034 A 
ATOM      4  C3  UNL d   1       0.289   0.203  -1.115  0.00  0.00     0.017 A 
ATOM      5  C4  UNL d   1      -0.057   0.501   0.208  0.00  0.00     0.017 A 
ATOM      6  C5  UNL d   1      -0.167  -0.530   1.147  0.00  0.00     0.034 A 
ATOM      7 Cl   UNL d   1      -0.359   2.115   0.747  0.00  0.00    -0.070 Cl
ATOM      8 Cl1  UNL d   1       0.446   1.421  -2.330  0.00  0.00    -0.070 Cl
ENDROOT
TORSDOF 0
ENDMDL
