MODEL 1
REMARK minimizedAffinity -1.87936163
REMARK minimizedRMSD -1
REMARK  0 active torsions:
REMARK  status: ('A' for Active; 'I' for Inactive)
ROOT
ATOM      1  C   UNL d   1       0.408   0.920  -1.350  0.00  0.00     0.020 A 
ATOM      2  C1  UNL d   1       1.213  -0.171  -1.025  0.00  0.00     0.020 A 
ATOM      3  C2  UNL d   1       0.806  -1.070  -0.037  0.00  0.00     0.034 A 
ATOM      4  C3  UNL d   1      -0.410  -0.880   0.629  0.00  0.00     0.017 A 
ATOM      5  C4  UNL d   1      -1.218   0.216   0.302  0.00  0.00     0.017 A 
ATOM      6  C5  UNL d   1      -0.805   1.113  -0.688  0.00  0.00     0.034 A 
ATOM      7 Cl   UNL d   1      -2.731   0.517   1.081  0.00  0.00    -0.070 Cl
ATOM      8 Cl1  UNL d   1      -0.852  -2.031   1.840  0.00  0.00    -0.070 Cl
ENDROOT
TORSDOF 0
ENDMDL
