MODEL 1
REMARK minimizedAffinity -2.85717702
REMARK minimizedRMSD -1
REMARK  0 active torsions:
REMARK  status: ('A' for Active; 'I' for Inactive)
ROOT
ATOM      1  C   UNL d   1      -0.407  -1.302   0.695  0.00  0.00     0.020 A 
ATOM      2  C1  UNL d   1      -0.244  -1.645  -0.647  0.00  0.00     0.020 A 
ATOM      3  C2  UNL d   1       0.060  -0.658  -1.587  0.00  0.00     0.034 A 
ATOM      4  C3  UNL d   1       0.202   0.676  -1.187  0.00  0.00     0.017 A 
ATOM      5  C4  UNL d   1       0.038   1.018   0.160  0.00  0.00     0.017 A 
ATOM      6  C5  UNL d   1      -0.266   0.026   1.097  0.00  0.00     0.034 A 
ATOM      7 Cl   UNL d   1       0.198   2.642   0.729  0.00  0.00    -0.070 Cl
ATOM      8 Cl1  UNL d   1       0.579   1.844  -2.404  0.00  0.00    -0.070 Cl
ENDROOT
TORSDOF 0
ENDMDL
