MODEL 1
REMARK minimizedAffinity -1.05083752
REMARK minimizedRMSD -1
REMARK  0 active torsions:
REMARK  status: ('A' for Active; 'I' for Inactive)
ROOT
ATOM      1  C   UNL d   1      -0.314  -2.537   1.700  0.00  0.00     0.020 A 
ATOM      2  C1  UNL d   1      -0.644  -1.201   1.918  0.00  0.00     0.020 A 
ATOM      3  C2  UNL d   1      -0.326  -0.237   0.959  0.00  0.00     0.034 A 
ATOM      4  C3  UNL d   1       0.325  -0.609  -0.223  0.00  0.00     0.017 A 
ATOM      5  C4  UNL d   1       0.656  -1.951  -0.442  0.00  0.00     0.017 A 
ATOM      6  C5  UNL d   1       0.334  -2.912   0.522  0.00  0.00     0.034 A 
ATOM      7 Cl   UNL d   1       1.459  -2.486  -1.876  0.00  0.00    -0.070 Cl
ATOM      8 Cl1  UNL d   1       0.688   0.636  -1.366  0.00  0.00    -0.070 Cl
ENDROOT
TORSDOF 0
ENDMDL
