MODEL 1
REMARK minimizedAffinity 7.15312624
REMARK minimizedRMSD -1
REMARK  1 active torsions:
REMARK  status: ('A' for Active; 'I' for Inactive)
REMARK    1  A    between atoms: C1_2  and  C2_3 
ROOT
ATOM      1  C2  UNL d   1       0.388  -5.161   0.413  0.00  0.00    -0.081 A 
ATOM      2  C3  UNL d   1       0.065  -4.571  -0.815  0.00  0.00     0.006 A 
ATOM      3  C4  UNL d   1      -1.056  -3.746  -0.931  0.00  0.00     0.002 A 
ATOM      4  C5  UNL d   1      -1.867  -3.490   0.180  0.00  0.00    -0.080 A 
ATOM      5  C6  UNL d   1      -3.056  -2.582   0.077  0.00  0.00     0.076 C 
ATOM      6  C7  UNL d   1      -1.554  -4.094   1.403  0.00  0.00     0.002 A 
ATOM      7  C8  UNL d   1      -0.434  -4.919   1.519  0.00  0.00     0.006 A 
ENDROOT
BRANCH   1   8
ATOM      8  C1  UNL d   1       1.633  -5.999   0.556  0.00  0.00     0.054 C 
ATOM      9  C   UNL d   1       2.887  -5.137   0.528  0.00  0.00     0.018 C 
ENDBRANCH   1   8
TORSDOF 1
ENDMDL
