MODEL 1
REMARK minimizedAffinity 7.15492487
REMARK minimizedRMSD -1
REMARK  1 active torsions:
REMARK  status: ('A' for Active; 'I' for Inactive)
REMARK    1  A    between atoms: C1_2  and  C2_3 
ROOT
ATOM      1  C2  UNL d   1       1.218  -2.283   4.329  0.00  0.00    -0.081 A 
ATOM      2  C3  UNL d   1       1.803  -2.041   3.080  0.00  0.00     0.006 A 
ATOM      3  C4  UNL d   1       3.163  -2.286   2.876  0.00  0.00     0.002 A 
ATOM      4  C5  UNL d   1       3.958  -2.785   3.913  0.00  0.00    -0.080 A 
ATOM      5  C6  UNL d   1       5.412  -3.082   3.699  0.00  0.00     0.076 C 
ATOM      6  C7  UNL d   1       3.377  -3.010   5.166  0.00  0.00     0.002 A 
ATOM      7  C8  UNL d   1       2.018  -2.764   5.371  0.00  0.00     0.006 A 
ENDROOT
BRANCH   1   8
ATOM      8  C1  UNL d   1      -0.262  -2.080   4.534  0.00  0.00     0.054 C 
ATOM      9  C   UNL d   1      -0.588  -1.830   6.000  0.00  0.00     0.018 C 
ENDBRANCH   1   8
TORSDOF 1
ENDMDL
