MODEL 1
REMARK minimizedAffinity 10.0799551
REMARK minimizedRMSD -1
REMARK  1 active torsions:
REMARK  status: ('A' for Active; 'I' for Inactive)
REMARK    1  A    between atoms: C1_2  and  C2_3 
ROOT
ATOM      1  C2  UNL d   1      -2.061  -2.927  -0.125  0.00  0.00    -0.081 A 
ATOM      2  C3  UNL d   1      -0.853  -2.919  -0.833  0.00  0.00     0.006 A 
ATOM      3  C4  UNL d   1       0.114  -3.899  -0.595  0.00  0.00     0.002 A 
ATOM      4  C5  UNL d   1      -0.115  -4.908   0.347  0.00  0.00    -0.080 A 
ATOM      5  C6  UNL d   1       0.902  -5.983   0.590  0.00  0.00     0.076 C 
ATOM      6  C7  UNL d   1      -1.314  -4.905   1.067  0.00  0.00     0.002 A 
ATOM      7  C8  UNL d   1      -2.280  -3.925   0.831  0.00  0.00     0.006 A 
ENDROOT
BRANCH   1   8
ATOM      8  C1  UNL d   1      -3.132  -1.910  -0.424  0.00  0.00     0.054 C 
ATOM      9  C   UNL d   1      -4.521  -2.474  -0.162  0.00  0.00     0.018 C 
ENDBRANCH   1   8
TORSDOF 1
ENDMDL
