MODEL 1
REMARK minimizedAffinity 9.14494514
REMARK minimizedRMSD -1
REMARK  1 active torsions:
REMARK  status: ('A' for Active; 'I' for Inactive)
REMARK    1  A    between atoms: C1_2  and  C2_3 
ROOT
ATOM      1  C2  UNL d   1      -2.519  -2.865  -0.008  0.00  0.00    -0.081 A 
ATOM      2  C3  UNL d   1      -1.267  -2.483  -0.506  0.00  0.00     0.006 A 
ATOM      3  C4  UNL d   1      -0.168  -3.336  -0.385  0.00  0.00     0.002 A 
ATOM      4  C5  UNL d   1      -0.303  -4.587   0.227  0.00  0.00    -0.080 A 
ATOM      5  C6  UNL d   1       0.862  -5.525   0.335  0.00  0.00     0.076 C 
ATOM      6  C7  UNL d   1      -1.550  -4.961   0.740  0.00  0.00     0.002 A 
ATOM      7  C8  UNL d   1      -2.649  -4.108   0.621  0.00  0.00     0.006 A 
ENDROOT
BRANCH   1   8
ATOM      8  C1  UNL d   1      -3.721  -1.974  -0.193  0.00  0.00     0.054 C 
ATOM      9  C   UNL d   1      -5.018  -2.754  -0.027  0.00  0.00     0.018 C 
ENDBRANCH   1   8
TORSDOF 1
ENDMDL
