MODEL 1
REMARK minimizedAffinity 12.6283484
REMARK minimizedRMSD -1
REMARK  1 active torsions:
REMARK  status: ('A' for Active; 'I' for Inactive)
REMARK    1  A    between atoms: C1_2  and  C2_3 
ROOT
ATOM      1  C2  UNL d   1      -0.098  -2.521   1.619  0.00  0.00    -0.081 A 
ATOM      2  C3  UNL d   1       1.139  -1.914   1.865  0.00  0.00     0.006 A 
ATOM      3  C4  UNL d   1       1.451  -1.433   3.139  0.00  0.00     0.002 A 
ATOM      4  C5  UNL d   1       0.536  -1.559   4.189  0.00  0.00    -0.080 A 
ATOM      5  C6  UNL d   1       0.870  -1.074   5.568  0.00  0.00     0.076 C 
ATOM      6  C7  UNL d   1      -0.707  -2.150   3.939  0.00  0.00     0.002 A 
ATOM      7  C8  UNL d   1      -1.020  -2.630   2.666  0.00  0.00     0.006 A 
ENDROOT
BRANCH   1   8
ATOM      8  C1  UNL d   1      -0.413  -3.099   0.262  0.00  0.00     0.054 C 
ATOM      9  C   UNL d   1       0.321  -4.413   0.037  0.00  0.00     0.018 C 
ENDBRANCH   1   8
TORSDOF 1
ENDMDL
