MODEL 1
REMARK minimizedAffinity -3.87901497
REMARK minimizedRMSD -1
REMARK  1 active torsions:
REMARK  status: ('A' for Active; 'I' for Inactive)
REMARK    1  A    between atoms: C1_2  and  C2_3 
ROOT
ATOM      1  C2  UNL d   1      -2.232  -1.958  -0.525  0.00  0.00    -0.081 A 
ATOM      2  C3  UNL d   1      -1.732  -2.830   0.450  0.00  0.00     0.006 A 
ATOM      3  C4  UNL d   1      -0.432  -2.677   0.937  0.00  0.00     0.002 A 
ATOM      4  C5  UNL d   1       0.387  -1.647   0.464  0.00  0.00    -0.080 A 
ATOM      5  C6  UNL d   1       1.774  -1.454   1.000  0.00  0.00     0.076 C 
ATOM      6  C7  UNL d   1      -0.106  -0.786  -0.523  0.00  0.00     0.002 A 
ATOM      7  C8  UNL d   1      -1.406  -0.939  -1.011  0.00  0.00     0.006 A 
ENDROOT
BRANCH   1   8
ATOM      8  C1  UNL d   1      -3.655  -2.080  -1.005  0.00  0.00     0.054 C 
ATOM      9  C   UNL d   1      -4.608  -2.348   0.151  0.00  0.00     0.018 C 
ENDBRANCH   1   8
TORSDOF 1
ENDMDL
