MODEL 1
REMARK minimizedAffinity 13.4247198
REMARK minimizedRMSD -1
REMARK  1 active torsions:
REMARK  status: ('A' for Active; 'I' for Inactive)
REMARK    1  A    between atoms: C1_2  and  C2_3 
ROOT
ATOM      1  C2  UNL d   1      -2.073   0.746  -1.236  0.00  0.00    -0.076 A 
ATOM      2  C3  UNL d   1      -2.191   1.550  -0.088  0.00  0.00     0.004 A 
ATOM      3  C4  UNL d   1      -1.175   2.432   0.276  0.00  0.00    -0.003 A 
ATOM      4  C5  UNL d   1      -0.026   2.526  -0.501  0.00  0.00     0.000 A 
ATOM      5  C6  UNL d   1       0.100   1.749  -1.652  0.00  0.00     0.000 A 
ATOM      6  C7  UNL d   1      -0.922   0.866  -2.043  0.00  0.00    -0.073 A 
ATOM      7  C8  UNL d   1      -0.731   0.048  -3.291  0.00  0.00     0.078 C 
ENDROOT
BRANCH   1   8
ATOM      8  C1  UNL d   1      -3.195  -0.212  -1.567  0.00  0.00     0.053 C 
ATOM      9  C   UNL d   1      -3.562  -1.107  -0.394  0.00  0.00     0.018 C 
ENDBRANCH   1   8
TORSDOF 1
ENDMDL
