MODEL 1
REMARK minimizedAffinity 3.57960296
REMARK minimizedRMSD -1
REMARK  1 active torsions:
REMARK  status: ('A' for Active; 'I' for Inactive)
REMARK    1  A    between atoms: C1_2  and  C2_3 
ROOT
ATOM      1  C2  UNL d   1      -0.037   1.409   0.373  0.00  0.00    -0.076 A 
ATOM      2  C3  UNL d   1       0.110   0.472  -0.664  0.00  0.00     0.004 A 
ATOM      3  C4  UNL d   1      -0.280   0.777  -1.967  0.00  0.00    -0.003 A 
ATOM      4  C5  UNL d   1      -0.823   2.024  -2.254  0.00  0.00     0.000 A 
ATOM      5  C6  UNL d   1      -0.961   2.972  -1.241  0.00  0.00     0.000 A 
ATOM      6  C7  UNL d   1      -0.558   2.687   0.075  0.00  0.00    -0.073 A 
ATOM      7  C8  UNL d   1      -0.735   3.745   1.129  0.00  0.00     0.078 C 
ENDROOT
BRANCH   1   8
ATOM      8  C1  UNL d   1       0.378   1.013   1.772  0.00  0.00     0.053 C 
ATOM      9  C   UNL d   1      -0.790   1.006   2.746  0.00  0.00     0.018 C 
ENDBRANCH   1   8
TORSDOF 1
ENDMDL
