MODEL 1
REMARK minimizedAffinity 6.57952785
REMARK minimizedRMSD -1
REMARK  1 active torsions:
REMARK  status: ('A' for Active; 'I' for Inactive)
REMARK    1  A    between atoms: C1_2  and  C2_3 
ROOT
ATOM      1  C2  UNL d   1      -0.980   1.164  -0.859  0.00  0.00    -0.076 A 
ATOM      2  C3  UNL d   1      -0.063   1.561  -1.847  0.00  0.00     0.004 A 
ATOM      3  C4  UNL d   1      -0.052   0.954  -3.102  0.00  0.00    -0.003 A 
ATOM      4  C5  UNL d   1      -0.960  -0.059  -3.389  0.00  0.00     0.000 A 
ATOM      5  C6  UNL d   1      -1.889  -0.453  -2.427  0.00  0.00     0.000 A 
ATOM      6  C7  UNL d   1      -1.924   0.160  -1.163  0.00  0.00    -0.073 A 
ATOM      7  C8  UNL d   1      -2.943  -0.309  -0.161  0.00  0.00     0.078 C 
ENDROOT
BRANCH   1   8
ATOM      8  C1  UNL d   1      -0.926   1.840   0.493  0.00  0.00     0.053 C 
ATOM      9  C   UNL d   1       0.496   2.004   1.006  0.00  0.00     0.018 C 
ENDBRANCH   1   8
TORSDOF 1
ENDMDL
