MODEL 1
REMARK minimizedAffinity 1.26535761
REMARK minimizedRMSD -1
REMARK  1 active torsions:
REMARK  status: ('A' for Active; 'I' for Inactive)
REMARK    1  A    between atoms: C1_2  and  C2_3 
ROOT
ATOM      1  C2  UNL d   1       0.753   3.388   1.241  0.00  0.00    -0.076 A 
ATOM      2  C3  UNL d   1       1.420   2.186   0.950  0.00  0.00     0.004 A 
ATOM      3  C4  UNL d   1       0.716   1.057   0.535  0.00  0.00    -0.003 A 
ATOM      4  C5  UNL d   1      -0.668   1.113   0.404  0.00  0.00     0.000 A 
ATOM      5  C6  UNL d   1      -1.344   2.302   0.672  0.00  0.00     0.000 A 
ATOM      6  C7  UNL d   1      -0.647   3.454   1.076  0.00  0.00    -0.073 A 
ATOM      7  C8  UNL d   1      -1.428   4.708   1.357  0.00  0.00     0.078 C 
ENDROOT
BRANCH   1   8
ATOM      8  C1  UNL d   1       1.567   4.572   1.714  0.00  0.00     0.053 C 
ATOM      9  C   UNL d   1       1.898   5.538   0.587  0.00  0.00     0.018 C 
ENDBRANCH   1   8
TORSDOF 1
ENDMDL
