MODEL 1
REMARK minimizedAffinity -0.795435071
REMARK minimizedRMSD -1
REMARK  1 active torsions:
REMARK  status: ('A' for Active; 'I' for Inactive)
REMARK    1  A    between atoms: C1_2  and  C2_3 
ROOT
ATOM      1  C2  UNL d   1      -0.124   0.792   2.240  0.00  0.00    -0.076 A 
ATOM      2  C3  UNL d   1       0.867   0.180   1.452  0.00  0.00     0.004 A 
ATOM      3  C4  UNL d   1       1.099   0.595   0.142  0.00  0.00    -0.003 A 
ATOM      4  C5  UNL d   1       0.344   1.629  -0.402  0.00  0.00     0.000 A 
ATOM      5  C6  UNL d   1      -0.631   2.259   0.371  0.00  0.00     0.000 A 
ATOM      6  C7  UNL d   1      -0.866   1.864   1.699  0.00  0.00    -0.073 A 
ATOM      7  C8  UNL d   1      -1.935   2.574   2.485  0.00  0.00     0.078 C 
ENDROOT
BRANCH   1   8
ATOM      8  C1  UNL d   1      -0.350   0.281   3.645  0.00  0.00     0.053 C 
ATOM      9  C   UNL d   1       0.385  -1.022   3.916  0.00  0.00     0.018 C 
ENDBRANCH   1   8
TORSDOF 1
ENDMDL
