MODEL 1
REMARK minimizedAffinity 11.0864105
REMARK minimizedRMSD -1
REMARK  1 active torsions:
REMARK  status: ('A' for Active; 'I' for Inactive)
REMARK    1  A    between atoms: C1_2  and  C2_3 
ROOT
ATOM      1  C2  UNL d   1      -3.774   4.156  -5.095  0.00  0.00    -0.081 A 
ATOM      2  C3  UNL d   1      -3.100   4.619  -3.959  0.00  0.00     0.006 A 
ATOM      3  C4  UNL d   1      -2.376   3.735  -3.155  0.00  0.00     0.002 A 
ATOM      4  C5  UNL d   1      -2.308   2.375  -3.478  0.00  0.00    -0.080 A 
ATOM      5  C6  UNL d   1      -1.510   1.421  -2.640  0.00  0.00     0.076 C 
ATOM      6  C7  UNL d   1      -2.996   1.909  -4.604  0.00  0.00     0.002 A 
ATOM      7  C8  UNL d   1      -3.720   2.793  -5.407  0.00  0.00     0.006 A 
ENDROOT
BRANCH   1   8
ATOM      8  C1  UNL d   1      -4.501   5.117  -6.000  0.00  0.00     0.054 C 
ATOM      9  C   UNL d   1      -6.000   4.851  -6.000  0.00  0.00     0.018 C 
ENDBRANCH   1   8
TORSDOF 1
ENDMDL
