MODEL 1
REMARK minimizedAffinity 15.1122847
REMARK minimizedRMSD -1
REMARK  1 active torsions:
REMARK  status: ('A' for Active; 'I' for Inactive)
REMARK    1  A    between atoms: C1_2  and  C2_3 
ROOT
ATOM      1  C2  UNL d   1      -2.951   0.247  -0.870  0.00  0.00    -0.081 A 
ATOM      2  C3  UNL d   1      -2.280  -0.522  -1.828  0.00  0.00     0.006 A 
ATOM      3  C4  UNL d   1      -1.678   0.089  -2.931  0.00  0.00     0.002 A 
ATOM      4  C5  UNL d   1      -1.729   1.478  -3.089  0.00  0.00    -0.080 A 
ATOM      5  C6  UNL d   1      -1.061   2.149  -4.252  0.00  0.00     0.076 C 
ATOM      6  C7  UNL d   1      -2.415   2.244  -2.140  0.00  0.00     0.002 A 
ATOM      7  C8  UNL d   1      -3.018   1.634  -1.038  0.00  0.00     0.006 A 
ENDROOT
BRANCH   1   8
ATOM      8  C1  UNL d   1      -3.546  -0.402   0.354  0.00  0.00     0.054 C 
ATOM      9  C   UNL d   1      -4.141   0.635   1.296  0.00  0.00     0.018 C 
ENDBRANCH   1   8
TORSDOF 1
ENDMDL
