MODEL 1
REMARK minimizedAffinity 12.5787573
REMARK minimizedRMSD -1
REMARK  1 active torsions:
REMARK  status: ('A' for Active; 'I' for Inactive)
REMARK    1  A    between atoms: C1_2  and  C2_3 
ROOT
ATOM      1  C2  UNL d   1       1.757  -2.712   0.561  0.00  0.00    -0.081 A 
ATOM      2  C3  UNL d   1       2.885  -1.885   0.622  0.00  0.00     0.006 A 
ATOM      3  C4  UNL d   1       2.902  -0.770   1.463  0.00  0.00     0.002 A 
ATOM      4  C5  UNL d   1       1.795  -0.468   2.263  0.00  0.00    -0.080 A 
ATOM      5  C6  UNL d   1       1.811   0.708   3.193  0.00  0.00     0.076 C 
ATOM      6  C7  UNL d   1       0.661  -1.285   2.190  0.00  0.00     0.002 A 
ATOM      7  C8  UNL d   1       0.643  -2.399   1.348  0.00  0.00     0.006 A 
ENDROOT
BRANCH   1   8
ATOM      8  C1  UNL d   1       1.760  -3.952  -0.297  0.00  0.00     0.054 C 
ATOM      9  C   UNL d   1       1.426  -5.191   0.521  0.00  0.00     0.018 C 
ENDBRANCH   1   8
TORSDOF 1
ENDMDL
