MODEL 1
REMARK minimizedAffinity 15.5120363
REMARK minimizedRMSD -1
REMARK  1 active torsions:
REMARK  status: ('A' for Active; 'I' for Inactive)
REMARK    1  A    between atoms: C1_2  and  C2_3 
ROOT
ATOM      1  C2  UNL d   1       1.549  -0.147   1.746  0.00  0.00    -0.081 A 
ATOM      2  C3  UNL d   1       2.252  -1.143   2.435  0.00  0.00     0.006 A 
ATOM      3  C4  UNL d   1       2.364  -2.429   1.900  0.00  0.00     0.002 A 
ATOM      4  C5  UNL d   1       1.783  -2.737   0.666  0.00  0.00    -0.080 A 
ATOM      5  C6  UNL d   1       1.922  -4.105   0.066  0.00  0.00     0.076 C 
ATOM      6  C7  UNL d   1       1.066  -1.747  -0.014  0.00  0.00     0.002 A 
ATOM      7  C8  UNL d   1       0.953  -0.461   0.520  0.00  0.00     0.006 A 
ENDROOT
BRANCH   1   8
ATOM      8  C1  UNL d   1       1.482   1.258   2.289  0.00  0.00     0.054 C 
ATOM      9  C   UNL d   1       1.858   2.281   1.227  0.00  0.00     0.018 C 
ENDBRANCH   1   8
TORSDOF 1
ENDMDL
