MODEL 1
REMARK minimizedAffinity 4.20977449
REMARK minimizedRMSD -1
REMARK  1 active torsions:
REMARK  status: ('A' for Active; 'I' for Inactive)
REMARK    1  A    between atoms: C1_2  and  C2_3 
ROOT
ATOM      1  C2  UNL d   1      -2.819   2.788  -4.412  0.00  0.00    -0.081 A 
ATOM      2  C3  UNL d   1      -2.965   4.095  -3.931  0.00  0.00     0.006 A 
ATOM      3  C4  UNL d   1      -3.952   4.936  -4.451  0.00  0.00     0.002 A 
ATOM      4  C5  UNL d   1      -4.814   4.482  -5.454  0.00  0.00    -0.080 A 
ATOM      5  C6  UNL d   1      -5.898   5.364  -6.000  0.00  0.00     0.076 C 
ATOM      6  C7  UNL d   1      -4.658   3.182  -5.948  0.00  0.00     0.002 A 
ATOM      7  C8  UNL d   1      -3.671   2.341  -5.429  0.00  0.00     0.006 A 
ENDROOT
BRANCH   1   8
ATOM      8  C1  UNL d   1      -1.798   1.858  -3.809  0.00  0.00     0.054 C 
ATOM      9  C   UNL d   1      -1.879   1.860  -2.289  0.00  0.00     0.018 C 
ENDBRANCH   1   8
TORSDOF 1
ENDMDL
