MODEL 1
REMARK minimizedAffinity 12.2067051
REMARK minimizedRMSD -1
REMARK  0 active torsions:
REMARK  status: ('A' for Active; 'I' for Inactive)
ROOT
ATOM      1  C   UNL d   1       0.936   5.303   4.156  0.00  0.00     0.023 A 
ATOM      2  C1  UNL d   1       0.785   5.806   5.448  0.00  0.00     0.003 A 
ATOM      3  C2  UNL d   1      -0.492   5.999   5.979  0.00  0.00     0.048 A 
ATOM      4  C3  UNL d   1      -1.614   5.686   5.212  0.00  0.00     0.023 A 
ATOM      5  C4  UNL d   1      -1.467   5.182   3.918  0.00  0.00     0.048 A 
ATOM      6  C5  UNL d   1      -0.188   4.991   3.392  0.00  0.00     0.003 A 
ATOM      7  I   UNL d   1      -3.516   5.972   5.999  0.00  0.00    -0.146 I 
ENDROOT
TORSDOF 0
ENDMDL
