MODEL 1
REMARK minimizedAffinity 8.67453957
REMARK minimizedRMSD -1
REMARK  0 active torsions:
REMARK  status: ('A' for Active; 'I' for Inactive)
ROOT
ATOM      1  C   UNL d   1      -5.888   0.872   4.843  0.00  0.00     0.023 A 
ATOM      2  C1  UNL d   1      -5.632   1.768   3.805  0.00  0.00     0.003 A 
ATOM      3  C2  UNL d   1      -4.515   2.604   3.861  0.00  0.00     0.048 A 
ATOM      4  C3  UNL d   1      -3.657   2.538   4.959  0.00  0.00     0.023 A 
ATOM      5  C4  UNL d   1      -3.909   1.643   6.000  0.00  0.00     0.048 A 
ATOM      6  C5  UNL d   1      -5.027   0.809   5.939  0.00  0.00     0.003 A 
ATOM      7  I   UNL d   1      -1.994   3.781   5.046  0.00  0.00    -0.146 I 
ENDROOT
TORSDOF 0
ENDMDL
