MODEL 1
REMARK minimizedAffinity 14.0661039
REMARK minimizedRMSD -1
REMARK  0 active torsions:
REMARK  status: ('A' for Active; 'I' for Inactive)
ROOT
ATOM      1  C   UNL d   1       3.371  -1.906   4.133  0.00  0.00     0.023 A 
ATOM      2  C1  UNL d   1       3.534  -3.035   3.331  0.00  0.00     0.003 A 
ATOM      3  C2  UNL d   1       4.110  -4.192   3.860  0.00  0.00     0.048 A 
ATOM      4  C3  UNL d   1       4.518  -4.214   5.193  0.00  0.00     0.023 A 
ATOM      5  C4  UNL d   1       4.356  -3.087   6.000  0.00  0.00     0.048 A 
ATOM      6  C5  UNL d   1       3.782  -1.932   5.466  0.00  0.00     0.003 A 
ATOM      7  I   UNL d   1       5.374  -5.935   5.982  0.00  0.00    -0.146 I 
ENDROOT
TORSDOF 0
ENDMDL
