MODEL 1
REMARK minimizedAffinity 5.21335363
REMARK minimizedRMSD -1
REMARK  0 active torsions:
REMARK  status: ('A' for Active; 'I' for Inactive)
ROOT
ATOM      1  C   UNL d   1       0.600  -2.682   0.744  0.00  0.00     0.023 A 
ATOM      2  C1  UNL d   1       1.336  -3.841   0.500  0.00  0.00     0.003 A 
ATOM      3  C2  UNL d   1       2.732  -3.792   0.481  0.00  0.00     0.048 A 
ATOM      4  C3  UNL d   1       3.384  -2.581   0.707  0.00  0.00     0.023 A 
ATOM      5  C4  UNL d   1       2.651  -1.419   0.953  0.00  0.00     0.048 A 
ATOM      6  C5  UNL d   1       1.256  -1.472   0.970  0.00  0.00     0.003 A 
ATOM      7  I   UNL d   1       5.461  -2.506   0.680  0.00  0.00    -0.146 I 
ENDROOT
TORSDOF 0
ENDMDL
