MODEL 1
REMARK minimizedAffinity 9.24615288
REMARK minimizedRMSD -1
REMARK  0 active torsions:
REMARK  status: ('A' for Active; 'I' for Inactive)
ROOT
ATOM      1  C   UNL d   1      -6.000  -1.784  -4.091  0.00  0.00     0.023 A 
ATOM      2  C1  UNL d   1      -6.000  -0.452  -4.506  0.00  0.00     0.003 A 
ATOM      3  C2  UNL d   1      -5.067   0.444  -3.980  0.00  0.00     0.048 A 
ATOM      4  C3  UNL d   1      -4.136   0.002  -3.040  0.00  0.00     0.023 A 
ATOM      5  C4  UNL d   1      -4.132  -1.330  -2.623  0.00  0.00     0.048 A 
ATOM      6  C5  UNL d   1      -5.067  -2.222  -3.151  0.00  0.00     0.003 A 
ATOM      7  I   UNL d   1      -2.747   1.333  -2.256  0.00  0.00    -0.146 I 
ENDROOT
TORSDOF 0
ENDMDL
