MODEL 1
REMARK minimizedAffinity 14.8244095
REMARK minimizedRMSD -1
REMARK  0 active torsions:
REMARK  status: ('A' for Active; 'I' for Inactive)
ROOT
ATOM      1  C   UNL d   1       1.864  -3.792   0.481  0.00  0.00     0.023 A 
ATOM      2  C1  UNL d   1       0.588  -3.417   0.903  0.00  0.00     0.003 A 
ATOM      3  C2  UNL d   1       0.409  -2.230   1.617  0.00  0.00     0.048 A 
ATOM      4  C3  UNL d   1       1.509  -1.422   1.903  0.00  0.00     0.023 A 
ATOM      5  C4  UNL d   1       2.787  -1.794   1.482  0.00  0.00     0.048 A 
ATOM      6  C5  UNL d   1       2.961  -2.982   0.771  0.00  0.00     0.003 A 
ATOM      7  I   UNL d   1       1.244   0.345   2.964  0.00  0.00    -0.146 I 
ENDROOT
TORSDOF 0
ENDMDL
