MODEL 1
REMARK minimizedAffinity 13.8328419
REMARK minimizedRMSD -1
REMARK  0 active torsions:
REMARK  status: ('A' for Active; 'I' for Inactive)
ROOT
ATOM      1  C   UNL d   1      -3.824   1.140  -3.636  0.00  0.00     0.023 A 
ATOM      2  C1  UNL d   1      -2.963   1.892  -2.836  0.00  0.00     0.003 A 
ATOM      3  C2  UNL d   1      -2.989   3.287  -2.900  0.00  0.00     0.048 A 
ATOM      4  C3  UNL d   1      -3.879   3.923  -3.765  0.00  0.00     0.023 A 
ATOM      5  C4  UNL d   1      -4.742   3.175  -4.566  0.00  0.00     0.048 A 
ATOM      6  C5  UNL d   1      -4.713   1.781  -4.500  0.00  0.00     0.003 A 
ATOM      7  I   UNL d   1      -3.919   5.999  -3.861  0.00  0.00    -0.146 I 
ENDROOT
TORSDOF 0
ENDMDL
