MODEL 1
REMARK minimizedAffinity 6.03187227
REMARK minimizedRMSD -1
REMARK  0 active torsions:
REMARK  status: ('A' for Active; 'I' for Inactive)
ROOT
ATOM      1  C   UNL d   1       3.258  -3.025   0.862  0.00  0.00     0.023 A 
ATOM      2  C1  UNL d   1       2.099  -2.939   0.092  0.00  0.00     0.003 A 
ATOM      3  C2  UNL d   1       0.955  -2.333   0.615  0.00  0.00     0.048 A 
ATOM      4  C3  UNL d   1       0.978  -1.814   1.909  0.00  0.00     0.023 A 
ATOM      5  C4  UNL d   1       2.137  -1.897   2.683  0.00  0.00     0.048 A 
ATOM      6  C5  UNL d   1       3.278  -2.505   2.156  0.00  0.00     0.003 A 
ATOM      7  I   UNL d   1      -0.723  -0.911   2.691  0.00  0.00    -0.146 I 
ENDROOT
TORSDOF 0
ENDMDL
