MODEL 1
REMARK minimizedAffinity 6.6009903
REMARK minimizedRMSD -1
REMARK  0 active torsions:
REMARK  status: ('A' for Active; 'I' for Inactive)
ROOT
ATOM      1  C   UNL d   1       2.623  -0.937   1.585  0.00  0.00     0.023 A 
ATOM      2  C1  UNL d   1       1.870  -1.651   0.652  0.00  0.00     0.003 A 
ATOM      3  C2  UNL d   1       0.557  -2.022   0.950  0.00  0.00     0.048 A 
ATOM      4  C3  UNL d   1       0.002  -1.674   2.181  0.00  0.00     0.023 A 
ATOM      5  C4  UNL d   1       0.752  -0.959   3.117  0.00  0.00     0.048 A 
ATOM      6  C5  UNL d   1       2.064  -0.591   2.815  0.00  0.00     0.003 A 
ATOM      7  I   UNL d   1      -1.952  -2.225   2.627  0.00  0.00    -0.146 I 
ENDROOT
TORSDOF 0
ENDMDL
