MODEL 1
REMARK minimizedAffinity 13.451108
REMARK minimizedRMSD -1
REMARK  0 active torsions:
REMARK  status: ('A' for Active; 'I' for Inactive)
ROOT
ATOM      1  C   UNL d   1      -1.722   3.581  -3.968  0.00  0.00     0.023 A 
ATOM      2  C1  UNL d   1      -2.889   2.990  -3.482  0.00  0.00     0.003 A 
ATOM      3  C2  UNL d   1      -2.815   1.834  -2.701  0.00  0.00     0.048 A 
ATOM      4  C3  UNL d   1      -1.571   1.276  -2.409  0.00  0.00     0.023 A 
ATOM      5  C4  UNL d   1      -0.401   1.864  -2.892  0.00  0.00     0.048 A 
ATOM      6  C5  UNL d   1      -0.480   3.019  -3.673  0.00  0.00     0.003 A 
ATOM      7  I   UNL d   1      -1.458  -0.444  -1.247  0.00  0.00    -0.146 I 
ENDROOT
TORSDOF 0
ENDMDL
