MODEL 1
REMARK minimizedAffinity 15.955699
REMARK minimizedRMSD -1
REMARK  0 active torsions:
REMARK  status: ('A' for Active; 'I' for Inactive)
ROOT
ATOM      1  N1  IND d   1       1.018  -0.858  -0.442  0.00  0.00    -0.196 N 
ATOM      2  C2  IND d   1       1.582  -0.976   0.798  0.00  0.00     0.054 A 
ATOM      3  C3  IND d   1       0.833  -0.329   1.719  0.00  0.00    -0.031 A 
ATOM      4  C4  IND d   1      -1.408   0.903   1.431  0.00  0.00     0.051 A 
ATOM      5  C5  IND d   1      -2.300   1.309   0.479  0.00  0.00    -0.031 A 
ATOM      6  C6  IND d   1      -2.129   1.004  -0.856  0.00  0.00     0.015 A 
ATOM      7  C7  IND d   1      -1.062   0.270  -1.289  0.00  0.00    -0.016 A 
ATOM      8  C8  IND d   1      -0.150  -0.138  -0.325  0.00  0.00    -0.047 A 
ATOM      9  C9  IND d   1      -0.296   0.205   1.026  0.00  0.00    -0.096 A 
ATOM     10  HN1 IND d   1       1.339  -1.180  -1.172  0.00  0.00     0.298 HD
ENDROOT
TORSDOF 0
ENDMDL
