MODEL 1
REMARK minimizedAffinity 10.8563271
REMARK minimizedRMSD -1
REMARK  0 active torsions:
REMARK  status: ('A' for Active; 'I' for Inactive)
ROOT
ATOM      1  N1  IND d   1      -0.079   1.693   0.948  0.00  0.00    -0.196 N 
ATOM      2  C2  IND d   1       0.017   0.360   1.233  0.00  0.00     0.054 A 
ATOM      3  C3  IND d   1       0.881   0.159   2.254  0.00  0.00    -0.031 A 
ATOM      4  C4  IND d   1       2.170   1.881   3.669  0.00  0.00     0.051 A 
ATOM      5  C5  IND d   1       2.432   3.219   3.762  0.00  0.00    -0.031 A 
ATOM      6  C6  IND d   1       1.857   4.136   2.906  0.00  0.00     0.015 A 
ATOM      7  C7  IND d   1       0.985   3.748   1.928  0.00  0.00    -0.016 A 
ATOM      8  C8  IND d   1       0.722   2.389   1.826  0.00  0.00    -0.047 A 
ATOM      9  C9  IND d   1       1.335   1.450   2.665  0.00  0.00    -0.096 A 
ATOM     10  HN1 IND d   1      -0.560   2.039   0.324  0.00  0.00     0.298 HD
ENDROOT
TORSDOF 0
ENDMDL
