MODEL 1
REMARK minimizedAffinity -1.88041508
REMARK minimizedRMSD -1
REMARK  0 active torsions:
REMARK  status: ('A' for Active; 'I' for Inactive)
ROOT
ATOM      1  N1  IND d   1       0.285   0.240  -2.711  0.00  0.00    -0.196 N 
ATOM      2  C2  IND d   1       0.349  -0.943  -2.028  0.00  0.00     0.054 A 
ATOM      3  C3  IND d   1      -0.175  -0.800  -0.790  0.00  0.00    -0.031 A 
ATOM      4  C4  IND d   1      -1.284   1.257   0.290  0.00  0.00     0.051 A 
ATOM      5  C5  IND d   1      -1.543   2.581   0.071  0.00  0.00    -0.031 A 
ATOM      6  C6  IND d   1      -1.202   3.204  -1.112  0.00  0.00     0.015 A 
ATOM      7  C7  IND d   1      -0.596   2.521  -2.128  0.00  0.00    -0.016 A 
ATOM      8  C8  IND d   1      -0.325   1.178  -1.906  0.00  0.00    -0.047 A 
ATOM      9  C9  IND d   1      -0.630   0.550  -0.692  0.00  0.00    -0.096 A 
ATOM     10  HN1 IND d   1       0.577   0.376  -3.508  0.00  0.00     0.298 HD
ENDROOT
TORSDOF 0
ENDMDL
