MODEL 1
REMARK minimizedAffinity -2.73908472
REMARK minimizedRMSD -1
REMARK  0 active torsions:
REMARK  status: ('A' for Active; 'I' for Inactive)
ROOT
ATOM      1  N1  IND d   1       1.019  -0.001   1.044  0.00  0.00    -0.196 N 
ATOM      2  C2  IND d   1       0.375  -0.849   0.186  0.00  0.00     0.054 A 
ATOM      3  C3  IND d   1      -0.689  -0.232  -0.375  0.00  0.00    -0.031 A 
ATOM      4  C4  IND d   1      -1.500   2.196  -0.109  0.00  0.00     0.051 A 
ATOM      5  C5  IND d   1      -1.256   3.342   0.594  0.00  0.00    -0.031 A 
ATOM      6  C6  IND d   1      -0.219   3.435   1.500  0.00  0.00     0.015 A 
ATOM      7  C7  IND d   1       0.623   2.385   1.728  0.00  0.00    -0.016 A 
ATOM      8  C8  IND d   1       0.375   1.217   1.021  0.00  0.00    -0.047 A 
ATOM      9  C9  IND d   1      -0.702   1.103   0.132  0.00  0.00    -0.096 A 
ATOM     10  HN1 IND d   1       1.709  -0.195   1.517  0.00  0.00     0.298 HD
ENDROOT
TORSDOF 0
ENDMDL
