MODEL 1
REMARK minimizedAffinity -4.51791477
REMARK minimizedRMSD -1
REMARK  0 active torsions:
REMARK  status: ('A' for Active; 'I' for Inactive)
ROOT
ATOM      1  C1  DEN d   1       1.163   1.991  -0.727  0.00  0.00     0.130 A 
ATOM      2  C2  DEN d   1       0.385   3.162  -0.332  0.00  0.00    -0.031 A 
ATOM      3  C3  DEN d   1      -0.804   2.691   0.407  0.00  0.00     0.027 A 
ATOM      4  C4  DEN d   1      -1.509   0.277   0.978  0.00  0.00     0.027 A 
ATOM      5  C5  DEN d   1      -1.173  -1.052   0.844  0.00  0.00    -0.003 A 
ATOM      6  C6  DEN d   1      -0.062  -1.458   0.154  0.00  0.00     0.001 A 
ATOM      7  C7  DEN d   1       0.778  -0.524  -0.391  0.00  0.00     0.017 A 
ATOM      8  C8  DEN d   1       0.442   0.818  -0.267  0.00  0.00    -0.094 A 
ATOM      9  C9  DEN d   1      -0.679   1.209   0.446  0.00  0.00    -0.072 A 
ENDROOT
TORSDOF 0
ENDMDL
