MODEL 1
REMARK minimizedAffinity -5.21477127
REMARK minimizedRMSD -1
REMARK  0 active torsions:
REMARK  status: ('A' for Active; 'I' for Inactive)
ROOT
ATOM      1  C1  DEN d   1      -0.889   2.162   0.168  0.00  0.00     0.130 A 
ATOM      2  C2  DEN d   1      -0.138   3.413   0.104  0.00  0.00    -0.031 A 
ATOM      3  C3  DEN d   1       1.297   3.091   0.231  0.00  0.00     0.027 A 
ATOM      4  C4  DEN d   1       2.425   0.789   0.514  0.00  0.00     0.027 A 
ATOM      5  C5  DEN d   1       2.199  -0.565   0.633  0.00  0.00    -0.003 A 
ATOM      6  C6  DEN d   1       0.937  -1.097   0.640  0.00  0.00     0.001 A 
ATOM      7  C7  DEN d   1      -0.147  -0.274   0.480  0.00  0.00     0.017 A 
ATOM      8  C8  DEN d   1       0.073   1.092   0.366  0.00  0.00    -0.094 A 
ATOM      9  C9  DEN d   1       1.357   1.609   0.349  0.00  0.00    -0.072 A 
ENDROOT
TORSDOF 0
ENDMDL
