MODEL 1
REMARK minimizedAffinity -4.53322124
REMARK minimizedRMSD -1
REMARK  0 active torsions:
REMARK  status: ('A' for Active; 'I' for Inactive)
ROOT
ATOM      1  C1  DEN d   1       1.106  -0.348  -1.141  0.00  0.00     0.130 A 
ATOM      2  C2  DEN d   1       0.182  -1.440  -0.851  0.00  0.00    -0.031 A 
ATOM      3  C3  DEN d   1      -0.968  -0.881  -0.112  0.00  0.00     0.027 A 
ATOM      4  C4  DEN d   1      -1.407   1.558   0.602  0.00  0.00     0.027 A 
ATOM      5  C5  DEN d   1      -0.901   2.839   0.590  0.00  0.00    -0.003 A 
ATOM      6  C6  DEN d   1       0.314   3.140   0.035  0.00  0.00     0.001 A 
ATOM      7  C7  DEN d   1       1.046   2.153  -0.572  0.00  0.00     0.017 A 
ATOM      8  C8  DEN d   1       0.546   0.858  -0.557  0.00  0.00    -0.094 A 
ATOM      9  C9  DEN d   1      -0.691   0.576  -0.002  0.00  0.00    -0.072 A 
ENDROOT
TORSDOF 0
ENDMDL
