MODEL 1
REMARK minimizedAffinity -4.78725767
REMARK minimizedRMSD -1
REMARK  0 active torsions:
REMARK  status: ('A' for Active; 'I' for Inactive)
ROOT
ATOM      1  C1  DEN d   1       0.465  -0.700  -0.262  0.00  0.00     0.130 A 
ATOM      2  C2  DEN d   1      -0.615  -1.087   0.643  0.00  0.00    -0.031 A 
ATOM      3  C3  DEN d   1      -1.316   0.141   1.068  0.00  0.00     0.027 A 
ATOM      4  C4  DEN d   1      -0.842   2.590   0.415  0.00  0.00     0.027 A 
ATOM      5  C5  DEN d   1      -0.020   3.417  -0.318  0.00  0.00    -0.003 A 
ATOM      6  C6  DEN d   1       1.033   2.938  -1.051  0.00  0.00     0.001 A 
ATOM      7  C7  DEN d   1       1.265   1.588  -1.103  0.00  0.00     0.017 A 
ATOM      8  C8  DEN d   1       0.445   0.749  -0.360  0.00  0.00    -0.094 A 
ATOM      9  C9  DEN d   1      -0.622   1.252   0.364  0.00  0.00    -0.072 A 
ENDROOT
TORSDOF 0
ENDMDL
