MODEL 1
REMARK minimizedAffinity -3.32156825
REMARK minimizedRMSD -1
REMARK  0 active torsions:
REMARK  status: ('A' for Active; 'I' for Inactive)
ROOT
ATOM      1  C1  DEN d   1       1.059  -0.881  -0.266  0.00  0.00     0.130 A 
ATOM      2  C2  DEN d   1       0.036  -1.903  -0.064  0.00  0.00    -0.031 A 
ATOM      3  C3  DEN d   1      -1.221  -1.224   0.309  0.00  0.00     0.027 A 
ATOM      4  C4  DEN d   1      -1.682   1.298   0.588  0.00  0.00     0.027 A 
ATOM      5  C5  DEN d   1      -1.120   2.555   0.534  0.00  0.00    -0.003 A 
ATOM      6  C6  DEN d   1       0.205   2.750   0.246  0.00  0.00     0.001 A 
ATOM      7  C7  DEN d   1       1.002   1.675  -0.045  0.00  0.00     0.017 A 
ATOM      8  C8  DEN d   1       0.445   0.405   0.015  0.00  0.00    -0.094 A 
ATOM      9  C9  DEN d   1      -0.899   0.228   0.297  0.00  0.00    -0.072 A 
ENDROOT
TORSDOF 0
ENDMDL
