MODEL 1
REMARK minimizedAffinity -2.95875812
REMARK minimizedRMSD -1
REMARK  0 active torsions:
REMARK  status: ('A' for Active; 'I' for Inactive)
ROOT
ATOM      1  C1  DEN d   1      -0.039  -0.980  -0.385  0.00  0.00     0.130 A 
ATOM      2  C2  DEN d   1      -1.183  -1.275   0.473  0.00  0.00    -0.031 A 
ATOM      3  C3  DEN d   1      -1.725   0.007   0.967  0.00  0.00     0.027 A 
ATOM      4  C4  DEN d   1      -0.912   2.406   0.485  0.00  0.00     0.027 A 
ATOM      5  C5  DEN d   1       0.032   3.160  -0.178  0.00  0.00    -0.003 A 
ATOM      6  C6  DEN d   1       1.030   2.590  -0.923  0.00  0.00     0.001 A 
ATOM      7  C7  DEN d   1       1.081   1.228  -1.060  0.00  0.00     0.017 A 
ATOM      8  C8  DEN d   1       0.138   0.461  -0.388  0.00  0.00    -0.094 A 
ATOM      9  C9  DEN d   1      -0.871   1.057   0.350  0.00  0.00    -0.072 A 
ENDROOT
TORSDOF 0
ENDMDL
