MODEL 1
REMARK minimizedAffinity -1.89817643
REMARK minimizedRMSD -1
REMARK  0 active torsions:
REMARK  status: ('A' for Active; 'I' for Inactive)
ROOT
ATOM      1  C1  DEN d   1       0.217  -0.141  -1.160  0.00  0.00     0.130 A 
ATOM      2  C2  DEN d   1      -0.583  -1.002  -0.293  0.00  0.00    -0.031 A 
ATOM      3  C3  DEN d   1      -1.087  -0.180   0.826  0.00  0.00     0.027 A 
ATOM      4  C4  DEN d   1      -0.712   2.328   1.295  0.00  0.00     0.027 A 
ATOM      5  C5  DEN d   1      -0.094   3.474   0.846  0.00  0.00    -0.003 A 
ATOM      6  C6  DEN d   1       0.693   3.487  -0.275  0.00  0.00     0.001 A 
ATOM      7  C7  DEN d   1       0.845   2.342  -1.012  0.00  0.00     0.017 A 
ATOM      8  C8  DEN d   1       0.231   1.181  -0.561  0.00  0.00    -0.094 A 
ATOM      9  C9  DEN d   1      -0.571   1.191   0.568  0.00  0.00    -0.072 A 
ENDROOT
TORSDOF 0
ENDMDL
