MODEL 1
REMARK minimizedAffinity -5.63548708
REMARK minimizedRMSD -1
REMARK  0 active torsions:
REMARK  status: ('A' for Active; 'I' for Inactive)
ROOT
ATOM      1  C1  DEN d   1      -0.892   1.576  -0.417  0.00  0.00     0.130 A 
ATOM      2  C2  DEN d   1      -0.149   2.827  -0.543  0.00  0.00    -0.031 A 
ATOM      3  C3  DEN d   1       1.285   2.527  -0.360  0.00  0.00     0.027 A 
ATOM      4  C4  DEN d   1       2.422   0.257   0.098  0.00  0.00     0.027 A 
ATOM      5  C5  DEN d   1       2.203  -1.088   0.300  0.00  0.00    -0.003 A 
ATOM      6  C6  DEN d   1       0.945  -1.629   0.310  0.00  0.00     0.001 A 
ATOM      7  C7  DEN d   1      -0.141  -0.828   0.071  0.00  0.00     0.017 A 
ATOM      8  C8  DEN d   1       0.072   0.530  -0.126  0.00  0.00    -0.094 A 
ATOM      9  C9  DEN d   1       1.352   1.056  -0.145  0.00  0.00    -0.072 A 
ENDROOT
TORSDOF 0
ENDMDL
