MODEL 1
REMARK minimizedAffinity -4.94512367
REMARK minimizedRMSD -1
REMARK  0 active torsions:
REMARK  status: ('A' for Active; 'I' for Inactive)
ROOT
ATOM      1  C1  DEN d   1       0.949   3.118  -0.070  0.00  0.00     0.130 A 
ATOM      2  C2  DEN d   1      -0.433   3.581  -0.156  0.00  0.00    -0.031 A 
ATOM      3  C3  DEN d   1      -1.317   2.408  -0.007  0.00  0.00     0.027 A 
ATOM      4  C4  DEN d   1      -0.683  -0.067   0.353  0.00  0.00     0.027 A 
ATOM      5  C5  DEN d   1       0.367  -0.949   0.481  0.00  0.00    -0.003 A 
ATOM      6  C6  DEN d   1       1.673  -0.546   0.401  0.00  0.00     0.001 A 
ATOM      7  C7  DEN d   1       1.965   0.782   0.232  0.00  0.00     0.017 A 
ATOM      8  C8  DEN d   1       0.912   1.677   0.095  0.00  0.00    -0.094 A 
ATOM      9  C9  DEN d   1      -0.402   1.251   0.190  0.00  0.00    -0.072 A 
ENDROOT
TORSDOF 0
ENDMDL
