MODEL 1
REMARK minimizedAffinity -3.42366505
REMARK minimizedRMSD -1
REMARK  0 active torsions:
REMARK  status: ('A' for Active; 'I' for Inactive)
ROOT
ATOM      1  C1  DEN d   1       1.441  -0.669   0.221  0.00  0.00     0.130 A 
ATOM      2  C2  DEN d   1       0.619  -1.763  -0.292  0.00  0.00    -0.031 A 
ATOM      3  C3  DEN d   1      -0.743  -1.242  -0.521  0.00  0.00     0.027 A 
ATOM      4  C4  DEN d   1      -1.655   1.141  -0.140  0.00  0.00     0.027 A 
ATOM      5  C5  DEN d   1      -1.336   2.409   0.295  0.00  0.00    -0.003 A 
ATOM      6  C6  DEN d   1      -0.089   2.728   0.763  0.00  0.00     0.001 A 
ATOM      7  C7  DEN d   1       0.899   1.779   0.765  0.00  0.00     0.017 A 
ATOM      8  C8  DEN d   1       0.583   0.497   0.336  0.00  0.00    -0.094 A 
ATOM      9  C9  DEN d   1      -0.680   0.197  -0.145  0.00  0.00    -0.072 A 
ENDROOT
TORSDOF 0
ENDMDL
