MODEL 1
REMARK minimizedAffinity -5.83756542
REMARK minimizedRMSD -1
REMARK  0 active torsions:
REMARK  status: ('A' for Active; 'I' for Inactive)
ROOT
ATOM      1  C1  DEN d   1      -1.009  -0.212   1.214  0.00  0.00     0.130 A 
ATOM      2  C2  DEN d   1      -0.296  -1.372   0.685  0.00  0.00    -0.031 A 
ATOM      3  C3  DEN d   1       0.788  -0.881  -0.190  0.00  0.00     0.027 A 
ATOM      4  C4  DEN d   1       1.429   1.549  -0.772  0.00  0.00     0.027 A 
ATOM      5  C5  DEN d   1       1.107   2.873  -0.573  0.00  0.00    -0.003 A 
ATOM      6  C6  DEN d   1       0.045   3.258   0.202  0.00  0.00     0.001 A 
ATOM      7  C7  DEN d   1      -0.706   2.309   0.843  0.00  0.00     0.017 A 
ATOM      8  C8  DEN d   1      -0.392   0.971   0.641  0.00  0.00    -0.094 A 
ATOM      9  C9  DEN d   1       0.693   0.603  -0.135  0.00  0.00    -0.072 A 
ENDROOT
TORSDOF 0
ENDMDL
