MODEL 1
REMARK minimizedAffinity 1.04654729
REMARK minimizedRMSD -1
REMARK  0 active torsions:
REMARK  status: ('A' for Active; 'I' for Inactive)
ROOT
ATOM      1  C1  DEN d   1       0.804  -0.398  -1.132  0.00  0.00     0.130 A 
ATOM      2  C2  DEN d   1       0.154   0.112   0.073  0.00  0.00    -0.031 A 
ATOM      3  C3  DEN d   1      -0.892  -0.851   0.470  0.00  0.00     0.027 A 
ATOM      4  C4  DEN d   1      -1.563  -3.073  -0.655  0.00  0.00     0.027 A 
ATOM      5  C5  DEN d   1      -1.305  -3.920  -1.710  0.00  0.00    -0.003 A 
ATOM      6  C6  DEN d   1      -0.357  -3.638  -2.658  0.00  0.00     0.001 A 
ATOM      7  C7  DEN d   1       0.400  -2.501  -2.544  0.00  0.00     0.017 A 
ATOM      8  C8  DEN d   1       0.140  -1.639  -1.487  0.00  0.00    -0.094 A 
ATOM      9  C9  DEN d   1      -0.814  -1.948  -0.532  0.00  0.00    -0.072 A 
ENDROOT
TORSDOF 0
ENDMDL
