MODEL 1
REMARK minimizedAffinity 1.40087056
REMARK minimizedRMSD -1
REMARK  0 active torsions:
REMARK  status: ('A' for Active; 'I' for Inactive)
ROOT
ATOM      1  C1  DEN d   1      -0.002  -1.153   0.665  0.00  0.00     0.130 A 
ATOM      2  C2  DEN d   1       1.116  -0.295   0.285  0.00  0.00    -0.031 A 
ATOM      3  C3  DEN d   1       1.495  -0.626  -1.103  0.00  0.00     0.027 A 
ATOM      4  C4  DEN d   1       0.460  -2.372  -2.695  0.00  0.00     0.027 A 
ATOM      5  C5  DEN d   1      -0.504  -3.348  -2.816  0.00  0.00    -0.003 A 
ATOM      6  C6  DEN d   1      -1.339  -3.683  -1.782  0.00  0.00     0.001 A 
ATOM      7  C7  DEN d   1      -1.256  -3.003  -0.596  0.00  0.00     0.017 A 
ATOM      8  C8  DEN d   1      -0.282  -2.022  -0.464  0.00  0.00    -0.094 A 
ATOM      9  C9  DEN d   1       0.544  -1.690  -1.524  0.00  0.00    -0.072 A 
ENDROOT
TORSDOF 0
ENDMDL
