MODEL 1
REMARK minimizedAffinity 11.6526966
REMARK minimizedRMSD -1
REMARK  0 active torsions:
REMARK  status: ('A' for Active; 'I' for Inactive)
ROOT
ATOM      1  N1  IND d   1       2.272  -2.933  -0.534  0.00  0.00    -0.196 N 
ATOM      2  C2  IND d   1       1.438  -3.819  -1.155  0.00  0.00     0.054 A 
ATOM      3  C3  IND d   1       0.462  -3.161  -1.820  0.00  0.00    -0.031 A 
ATOM      4  C4  IND d   1       0.101  -0.628  -2.107  0.00  0.00     0.051 A 
ATOM      5  C5  IND d   1       0.584   0.582  -1.695  0.00  0.00    -0.031 A 
ATOM      6  C6  IND d   1       1.678   0.685  -0.860  0.00  0.00     0.015 A 
ATOM      7  C7  IND d   1       2.339  -0.424  -0.414  0.00  0.00    -0.016 A 
ATOM      8  C8  IND d   1       1.848  -1.654  -0.824  0.00  0.00    -0.047 A 
ATOM      9  C9  IND d   1       0.712  -1.766  -1.637  0.00  0.00    -0.096 A 
ATOM     10  HN1 IND d   1       2.948  -3.138  -0.044  0.00  0.00     0.298 HD
ENDROOT
TORSDOF 0
ENDMDL
