MODEL 1
REMARK minimizedAffinity 10.3244848
REMARK minimizedRMSD -1
REMARK  0 active torsions:
REMARK  status: ('A' for Active; 'I' for Inactive)
ROOT
ATOM      1  N1  IND d   1       1.952  -0.195  -0.034  0.00  0.00    -0.196 N 
ATOM      2  C2  IND d   1       2.019   1.165  -0.158  0.00  0.00     0.054 A 
ATOM      3  C3  IND d   1       1.393   1.566  -1.287  0.00  0.00    -0.031 A 
ATOM      4  C4  IND d   1       0.103   0.172  -3.025  0.00  0.00     0.051 A 
ATOM      5  C5  IND d   1      -0.202  -1.118  -3.360  0.00  0.00    -0.031 A 
ATOM      6  C6  IND d   1       0.202  -2.187  -2.587  0.00  0.00     0.015 A 
ATOM      7  C7  IND d   1       0.918  -2.005  -1.438  0.00  0.00    -0.016 A 
ATOM      8  C8  IND d   1       1.236  -0.697  -1.098  0.00  0.00    -0.047 A 
ATOM      9  C9  IND d   1       0.866   0.389  -1.902  0.00  0.00    -0.096 A 
ATOM     10  HN1 IND d   1       2.299  -0.659   0.601  0.00  0.00     0.298 HD
ENDROOT
TORSDOF 0
ENDMDL
