MODEL 1
REMARK minimizedAffinity 5.67209911
REMARK minimizedRMSD -1
REMARK  0 active torsions:
REMARK  status: ('A' for Active; 'I' for Inactive)
ROOT
ATOM      1  N1  IND d   1       4.379  -1.264  -0.701  0.00  0.00    -0.196 N 
ATOM      2  C2  IND d   1       4.038   0.015  -0.359  0.00  0.00     0.054 A 
ATOM      3  C3  IND d   1       2.697   0.175  -0.419  0.00  0.00    -0.031 A 
ATOM      4  C4  IND d   1       0.865  -1.552  -0.955  0.00  0.00     0.051 A 
ATOM      5  C5  IND d   1       0.690  -2.844  -1.365  0.00  0.00    -0.031 A 
ATOM      6  C6  IND d   1       1.757  -3.694  -1.576  0.00  0.00     0.015 A 
ATOM      7  C7  IND d   1       3.044  -3.284  -1.373  0.00  0.00    -0.016 A 
ATOM      8  C8  IND d   1       3.226  -1.970  -0.964  0.00  0.00    -0.047 A 
ATOM      9  C9  IND d   1       2.150  -1.091  -0.789  0.00  0.00    -0.096 A 
ATOM     10  HN1 IND d   1       5.180  -1.575  -0.744  0.00  0.00     0.298 HD
ENDROOT
TORSDOF 0
ENDMDL
