MODEL 1
REMARK minimizedAffinity 12.6347275
REMARK minimizedRMSD -1
REMARK  0 active torsions:
REMARK  status: ('A' for Active; 'I' for Inactive)
ROOT
ATOM      1  N1  IND d   1       4.088  -0.638  -0.585  0.00  0.00    -0.196 N 
ATOM      2  C2  IND d   1       3.786   0.663  -0.293  0.00  0.00     0.054 A 
ATOM      3  C3  IND d   1       2.447   0.848  -0.301  0.00  0.00    -0.031 A 
ATOM      4  C4  IND d   1       0.561  -0.866  -0.669  0.00  0.00     0.051 A 
ATOM      5  C5  IND d   1       0.344  -2.172  -1.006  0.00  0.00    -0.031 A 
ATOM      6  C6  IND d   1       1.384  -3.053  -1.221  0.00  0.00     0.015 A 
ATOM      7  C7  IND d   1       2.687  -2.660  -1.096  0.00  0.00    -0.016 A 
ATOM      8  C8  IND d   1       2.912  -1.332  -0.761  0.00  0.00    -0.047 A 
ATOM      9  C9  IND d   1       1.861  -0.424  -0.583  0.00  0.00    -0.096 A 
ATOM     10  HN1 IND d   1       4.880  -0.967  -0.649  0.00  0.00     0.298 HD
ENDROOT
TORSDOF 0
ENDMDL
