MODEL 1
REMARK minimizedAffinity -0.333945125
REMARK minimizedRMSD -1
REMARK  0 active torsions:
REMARK  status: ('A' for Active; 'I' for Inactive)
ROOT
ATOM      1  N1  IND d   1       0.153  -0.306   1.536  0.00  0.00    -0.196 N 
ATOM      2  C2  IND d   1      -0.067  -1.354   0.686  0.00  0.00     0.054 A 
ATOM      3  C3  IND d   1       0.450  -1.087  -0.534  0.00  0.00    -0.031 A 
ATOM      4  C4  IND d   1       1.788   0.964  -1.330  0.00  0.00     0.051 A 
ATOM      5  C5  IND d   1       2.212   2.198  -0.923  0.00  0.00    -0.031 A 
ATOM      6  C6  IND d   1       1.969   2.668   0.352  0.00  0.00     0.015 A 
ATOM      7  C7  IND d   1       1.299   1.914   1.274  0.00  0.00    -0.016 A 
ATOM      8  C8  IND d   1       0.861   0.664   0.861  0.00  0.00    -0.047 A 
ATOM      9  C9  IND d   1       1.067   0.198  -0.444  0.00  0.00    -0.096 A 
ATOM     10  HN1 IND d   1      -0.107  -0.261   2.354  0.00  0.00     0.298 HD
ENDROOT
TORSDOF 0
ENDMDL
