MODEL 1
REMARK minimizedAffinity 1.38256085
REMARK minimizedRMSD -1
REMARK  0 active torsions:
REMARK  status: ('A' for Active; 'I' for Inactive)
ROOT
ATOM      1  N1  IND d   1      -5.923  -2.405  -5.652  0.00  0.00    -0.196 N 
ATOM      2  C2  IND d   1      -4.902  -1.510  -5.497  0.00  0.00     0.054 A 
ATOM      3  C3  IND d   1      -3.712  -2.150  -5.487  0.00  0.00    -0.031 A 
ATOM      4  C4  IND d   1      -3.199  -4.652  -5.810  0.00  0.00     0.051 A 
ATOM      5  C5  IND d   1      -3.808  -5.868  -5.949  0.00  0.00    -0.031 A 
ATOM      6  C6  IND d   1      -5.181  -5.993  -5.999  0.00  0.00     0.015 A 
ATOM      7  C7  IND d   1      -6.000  -4.902  -5.924  0.00  0.00    -0.016 A 
ATOM      8  C8  IND d   1      -5.385  -3.667  -5.776  0.00  0.00    -0.047 A 
ATOM      9  C9  IND d   1      -3.993  -3.538  -5.681  0.00  0.00    -0.096 A 
ATOM     10  HN1 IND d   1      -6.761  -2.213  -5.669  0.00  0.00     0.298 HD
ENDROOT
TORSDOF 0
ENDMDL
