MODEL 1
REMARK minimizedAffinity 13.6932602
REMARK minimizedRMSD -1
REMARK  0 active torsions:
REMARK  status: ('A' for Active; 'I' for Inactive)
ROOT
ATOM      1  N1  IND d   1       1.544  -2.089  -0.176  0.00  0.00    -0.196 N 
ATOM      2  C2  IND d   1       0.675  -1.332  -0.912  0.00  0.00     0.054 A 
ATOM      3  C3  IND d   1       0.436  -1.918  -2.106  0.00  0.00    -0.031 A 
ATOM      4  C4  IND d   1       1.284  -4.171  -3.021  0.00  0.00     0.051 A 
ATOM      5  C5  IND d   1       2.130  -5.203  -2.728  0.00  0.00    -0.031 A 
ATOM      6  C6  IND d   1       2.837  -5.252  -1.543  0.00  0.00     0.015 A 
ATOM      7  C7  IND d   1       2.714  -4.272  -0.599  0.00  0.00    -0.016 A 
ATOM      8  C8  IND d   1       1.861  -3.219  -0.897  0.00  0.00    -0.047 A 
ATOM      9  C9  IND d   1       1.174  -3.142  -2.116  0.00  0.00    -0.096 A 
ATOM     10  HN1 IND d   1       1.842  -1.892   0.606  0.00  0.00     0.298 HD
ENDROOT
TORSDOF 0
ENDMDL
