MODEL 1
REMARK minimizedAffinity 3.2650187
REMARK minimizedRMSD -1
REMARK  0 active torsions:
REMARK  status: ('A' for Active; 'I' for Inactive)
ROOT
ATOM      1  N1  IND d   1       1.705  -1.516  -0.189  0.00  0.00    -0.196 N 
ATOM      2  C2  IND d   1       1.400  -2.610  -0.949  0.00  0.00     0.054 A 
ATOM      3  C3  IND d   1       1.025  -2.231  -2.191  0.00  0.00    -0.031 A 
ATOM      4  C4  IND d   1       0.939   0.125  -3.225  0.00  0.00     0.051 A 
ATOM      5  C5  IND d   1       1.092   1.446  -2.910  0.00  0.00    -0.031 A 
ATOM      6  C6  IND d   1       1.468   1.856  -1.647  0.00  0.00     0.015 A 
ATOM      7  C7  IND d   1       1.716   0.955  -0.651  0.00  0.00    -0.016 A 
ATOM      8  C8  IND d   1       1.555  -0.387  -0.965  0.00  0.00    -0.047 A 
ATOM      9  C9  IND d   1       1.133  -0.807  -2.233  0.00  0.00    -0.096 A 
ATOM     10  HN1 IND d   1       1.949  -1.529   0.635  0.00  0.00     0.298 HD
ENDROOT
TORSDOF 0
ENDMDL
