MODEL 1
REMARK minimizedAffinity -0.489553064
REMARK minimizedRMSD -1
REMARK  0 active torsions:
REMARK  status: ('A' for Active; 'I' for Inactive)
ROOT
ATOM      1  N1  IND d   1      -0.403  -1.054   0.267  0.00  0.00    -0.196 N 
ATOM      2  C2  IND d   1      -0.071  -0.113   1.202  0.00  0.00     0.054 A 
ATOM      3  C3  IND d   1       0.611   0.902   0.627  0.00  0.00    -0.031 A 
ATOM      4  C4  IND d   1       1.205   1.277  -1.850  0.00  0.00     0.051 A 
ATOM      5  C5  IND d   1       1.146   0.674  -3.075  0.00  0.00    -0.031 A 
ATOM      6  C6  IND d   1       0.553  -0.559  -3.253  0.00  0.00     0.015 A 
ATOM      7  C7  IND d   1      -0.016  -1.234  -2.209  0.00  0.00    -0.016 A 
ATOM      8  C8  IND d   1       0.049  -0.628  -0.963  0.00  0.00    -0.047 A 
ATOM      9  C9  IND d   1       0.687   0.604  -0.769  0.00  0.00    -0.096 A 
ATOM     10  HN1 IND d   1      -0.823  -1.788   0.421  0.00  0.00     0.298 HD
ENDROOT
TORSDOF 0
ENDMDL
