MODEL 1
REMARK minimizedAffinity 7.29335642
REMARK minimizedRMSD -1
REMARK  0 active torsions:
REMARK  status: ('A' for Active; 'I' for Inactive)
ROOT
ATOM      1  N1  IND d   1      -5.199   2.432   1.365  0.00  0.00    -0.196 N 
ATOM      2  C2  IND d   1      -5.728   2.004   2.550  0.00  0.00     0.054 A 
ATOM      3  C3  IND d   1      -4.775   1.977   3.509  0.00  0.00    -0.031 A 
ATOM      4  C4  IND d   1      -2.305   2.690   3.379  0.00  0.00     0.051 A 
ATOM      5  C5  IND d   1      -1.351   3.115   2.497  0.00  0.00    -0.031 A 
ATOM      6  C6  IND d   1      -1.638   3.341   1.166  0.00  0.00     0.015 A 
ATOM      7  C7  IND d   1      -2.897   3.160   0.668  0.00  0.00    -0.016 A 
ATOM      8  C8  IND d   1      -3.866   2.722   1.559  0.00  0.00    -0.047 A 
ATOM      9  C9  IND d   1      -3.572   2.451   2.902  0.00  0.00    -0.096 A 
ATOM     10  HN1 IND d   1      -5.626   2.507   0.622  0.00  0.00     0.298 HD
ENDROOT
TORSDOF 0
ENDMDL
