MODEL 1
REMARK minimizedAffinity 6.54686308
REMARK minimizedRMSD -1
REMARK  0 active torsions:
REMARK  status: ('A' for Active; 'I' for Inactive)
ROOT
ATOM      1  N1  IND d   1       1.243   4.914  -1.875  0.00  0.00    -0.196 N 
ATOM      2  C2  IND d   1       1.174   5.999  -1.046  0.00  0.00     0.054 A 
ATOM      3  C3  IND d   1       1.164   5.603   0.246  0.00  0.00    -0.031 A 
ATOM      4  C4  IND d   1       1.356   3.233   1.233  0.00  0.00     0.051 A 
ATOM      5  C5  IND d   1       1.403   1.916   0.871  0.00  0.00    -0.031 A 
ATOM      6  C6  IND d   1       1.401   1.523  -0.452  0.00  0.00     0.015 A 
ATOM      7  C7  IND d   1       1.364   2.437  -1.466  0.00  0.00    -0.016 A 
ATOM      8  C8  IND d   1       1.310   3.775  -1.102  0.00  0.00    -0.047 A 
ATOM      9  C9  IND d   1       1.268   4.178   0.238  0.00  0.00    -0.096 A 
ATOM     10  HN1 IND d   1       1.244   4.938  -2.735  0.00  0.00     0.298 HD
ENDROOT
TORSDOF 0
ENDMDL
