MODEL 1
REMARK minimizedAffinity 5.47855806
REMARK minimizedRMSD -1
REMARK  0 active torsions:
REMARK  status: ('A' for Active; 'I' for Inactive)
ROOT
ATOM      1  N1  IND d   1      -4.881  -0.018  -6.000  0.00  0.00    -0.196 N 
ATOM      2  C2  IND d   1      -4.394  -1.274  -5.769  0.00  0.00     0.054 A 
ATOM      3  C3  IND d   1      -3.447  -1.242  -4.805  0.00  0.00    -0.031 A 
ATOM      4  C4  IND d   1      -2.613   0.746  -3.398  0.00  0.00     0.051 A 
ATOM      5  C5  IND d   1      -2.734   2.101  -3.270  0.00  0.00    -0.031 A 
ATOM      6  C6  IND d   1      -3.597   2.834  -4.059  0.00  0.00     0.015 A 
ATOM      7  C7  IND d   1      -4.382   2.234  -5.003  0.00  0.00    -0.016 A 
ATOM      8  C8  IND d   1      -4.256   0.859  -5.141  0.00  0.00    -0.047 A 
ATOM      9  C9  IND d   1      -3.351   0.116  -4.371  0.00  0.00    -0.096 A 
ATOM     10  HN1 IND d   1      -5.477   0.189  -6.584  0.00  0.00     0.298 HD
ENDROOT
TORSDOF 0
ENDMDL
