MODEL 1
REMARK minimizedAffinity 11.2223158
REMARK minimizedRMSD -1
REMARK  0 active torsions:
REMARK  status: ('A' for Active; 'I' for Inactive)
ROOT
ATOM      1  N1  IND d   1       0.711  -5.571  -3.679  0.00  0.00    -0.196 N 
ATOM      2  C2  IND d   1      -0.497  -5.014  -3.998  0.00  0.00     0.054 A 
ATOM      3  C3  IND d   1      -0.758  -3.963  -3.189  0.00  0.00    -0.031 A 
ATOM      4  C4  IND d   1       0.699  -2.918  -1.342  0.00  0.00     0.051 A 
ATOM      5  C5  IND d   1       1.870  -3.101  -0.661  0.00  0.00    -0.031 A 
ATOM      6  C6  IND d   1       2.733  -4.135  -0.959  0.00  0.00     0.015 A 
ATOM      7  C7  IND d   1       2.461  -5.023  -1.962  0.00  0.00    -0.016 A 
ATOM      8  C8  IND d   1       1.270  -4.845  -2.650  0.00  0.00    -0.047 A 
ATOM      9  C9  IND d   1       0.370  -3.822  -2.324  0.00  0.00    -0.096 A 
ATOM     10  HN1 IND d   1       1.062  -6.258  -4.058  0.00  0.00     0.298 HD
ENDROOT
TORSDOF 0
ENDMDL
