MODEL 1
REMARK minimizedAffinity 6.48813105
REMARK minimizedRMSD -1
REMARK  0 active torsions:
REMARK  status: ('A' for Active; 'I' for Inactive)
ROOT
ATOM      1  N1  IND d   1       1.292  -0.506  -0.590  0.00  0.00    -0.196 N 
ATOM      2  C2  IND d   1       0.406  -1.249   0.138  0.00  0.00     0.054 A 
ATOM      3  C3  IND d   1      -0.033  -0.545   1.206  0.00  0.00    -0.031 A 
ATOM      4  C4  IND d   1       0.493   1.879   1.895  0.00  0.00     0.051 A 
ATOM      5  C5  IND d   1       1.278   2.947   1.561  0.00  0.00    -0.031 A 
ATOM      6  C6  IND d   1       2.122   2.920   0.470  0.00  0.00     0.015 A 
ATOM      7  C7  IND d   1       2.205   1.822  -0.339  0.00  0.00    -0.016 A 
ATOM      8  C8  IND d   1       1.415   0.733   0.001  0.00  0.00    -0.047 A 
ATOM      9  C9  IND d   1       0.588   0.739   1.132  0.00  0.00    -0.096 A 
ATOM     10  HN1 IND d   1       1.703  -0.767  -1.299  0.00  0.00     0.298 HD
ENDROOT
TORSDOF 0
ENDMDL
