MODEL 1
REMARK minimizedAffinity -1.71278811
REMARK minimizedRMSD -1
REMARK  0 active torsions:
REMARK  status: ('A' for Active; 'I' for Inactive)
ROOT
ATOM      1  N1  IND d   1       0.235   1.142   0.369  0.00  0.00    -0.196 N 
ATOM      2  C2  IND d   1       1.516   1.590   0.201  0.00  0.00     0.054 A 
ATOM      3  C3  IND d   1       2.059   1.055  -0.915  0.00  0.00    -0.031 A 
ATOM      4  C4  IND d   1       0.993  -0.500  -2.669  0.00  0.00     0.051 A 
ATOM      5  C5  IND d   1      -0.145  -1.210  -2.929  0.00  0.00    -0.031 A 
ATOM      6  C6  IND d   1      -1.238  -1.170  -2.087  0.00  0.00     0.015 A 
ATOM      7  C7  IND d   1      -1.237  -0.405  -0.955  0.00  0.00    -0.016 A 
ATOM      8  C8  IND d   1      -0.081   0.312  -0.684  0.00  0.00    -0.047 A 
ATOM      9  C9  IND d   1       1.047   0.242  -1.512  0.00  0.00    -0.096 A 
ATOM     10  HN1 IND d   1      -0.286   1.345   1.023  0.00  0.00     0.298 HD
ENDROOT
TORSDOF 0
ENDMDL
