MODEL 1
REMARK minimizedAffinity 4.49403048
REMARK minimizedRMSD -1
REMARK  0 active torsions:
REMARK  status: ('A' for Active; 'I' for Inactive)
ROOT
ATOM      1  N1  IND d   1      -5.174  -1.154  -3.853  0.00  0.00    -0.196 N 
ATOM      2  C2  IND d   1      -5.999  -0.753  -4.866  0.00  0.00     0.054 A 
ATOM      3  C3  IND d   1      -5.998  -1.665  -5.863  0.00  0.00    -0.031 A 
ATOM      4  C4  IND d   1      -4.795  -3.937  -6.000  0.00  0.00     0.051 A 
ATOM      5  C5  IND d   1      -3.898  -4.723  -5.332  0.00  0.00    -0.031 A 
ATOM      6  C6  IND d   1      -3.371  -4.353  -4.111  0.00  0.00     0.015 A 
ATOM      7  C7  IND d   1      -3.733  -3.183  -3.505  0.00  0.00    -0.016 A 
ATOM      8  C8  IND d   1      -4.639  -2.380  -4.183  0.00  0.00    -0.047 A 
ATOM      9  C9  IND d   1      -5.144  -2.730  -5.442  0.00  0.00    -0.096 A 
ATOM     10  HN1 IND d   1      -5.015  -0.715  -3.131  0.00  0.00     0.298 HD
ENDROOT
TORSDOF 0
ENDMDL
