MODEL 1
REMARK minimizedAffinity 20.5773869
REMARK minimizedRMSD -1
REMARK  0 active torsions:
REMARK  status: ('A' for Active; 'I' for Inactive)
ROOT
ATOM      1  N1  IND d   1      -3.029   2.017  -3.880  0.00  0.00    -0.196 N 
ATOM      2  C2  IND d   1      -3.404   2.709  -4.998  0.00  0.00     0.054 A 
ATOM      3  C3  IND d   1      -3.708   1.853  -6.000  0.00  0.00    -0.031 A 
ATOM      4  C4  IND d   1      -3.760  -0.721  -5.993  0.00  0.00     0.051 A 
ATOM      5  C5  IND d   1      -3.463  -1.802  -5.212  0.00  0.00    -0.031 A 
ATOM      6  C6  IND d   1      -2.999  -1.663  -3.920  0.00  0.00     0.015 A 
ATOM      7  C7  IND d   1      -2.826  -0.432  -3.355  0.00  0.00    -0.016 A 
ATOM      8  C8  IND d   1      -3.120   0.669  -4.147  0.00  0.00    -0.047 A 
ATOM      9  C9  IND d   1      -3.550   0.535  -5.473  0.00  0.00    -0.096 A 
ATOM     10  HN1 IND d   1      -2.779   2.366  -3.135  0.00  0.00     0.298 HD
ENDROOT
TORSDOF 0
ENDMDL
