MODEL 1
REMARK minimizedAffinity -1.32896638
REMARK minimizedRMSD -1
REMARK  0 active torsions:
REMARK  status: ('A' for Active; 'I' for Inactive)
ROOT
ATOM      1  C1  BNZ d   1       3.583   2.959  -5.563  0.00  0.00     0.000 A 
ATOM      2  C2  BNZ d   1       4.729   3.607  -5.185  0.00  0.00     0.000 A 
ATOM      3  C3  BNZ d   1       5.939   2.974  -5.235  0.00  0.00     0.000 A 
ATOM      4  C4  BNZ d   1       5.998   1.684  -5.624  0.00  0.00     0.000 A 
ATOM      5  C5  BNZ d   1       4.850   1.015  -6.000  0.00  0.00     0.000 A 
ATOM      6  C6  BNZ d   1       3.639   1.667  -5.985  0.00  0.00     0.000 A 
ENDROOT
TORSDOF 0
ENDMDL
