MODEL 1
REMARK minimizedAffinity -1.98559737
REMARK minimizedRMSD -1
REMARK  0 active torsions:
REMARK  status: ('A' for Active; 'I' for Inactive)
ROOT
ATOM      1  C1  BNZ d   1       4.842   1.085  -5.992  0.00  0.00     0.000 A 
ATOM      2  C2  BNZ d   1       3.673   1.798  -6.000  0.00  0.00     0.000 A 
ATOM      3  C3  BNZ d   1       3.651   3.111  -5.621  0.00  0.00     0.000 A 
ATOM      4  C4  BNZ d   1       4.789   3.698  -5.197  0.00  0.00     0.000 A 
ATOM      5  C5  BNZ d   1       5.974   2.990  -5.175  0.00  0.00     0.000 A 
ATOM      6  C6  BNZ d   1       6.000   1.679  -5.593  0.00  0.00     0.000 A 
ENDROOT
TORSDOF 0
ENDMDL
