MODEL 1
REMARK minimizedAffinity -3.27872062
REMARK minimizedRMSD -1
REMARK  0 active torsions:
REMARK  status: ('A' for Active; 'I' for Inactive)
ROOT
ATOM      1  C1  BNZ d   1       3.723   1.804  -5.948  0.00  0.00     0.000 A 
ATOM      2  C2  BNZ d   1       3.722   3.172  -5.996  0.00  0.00     0.000 A 
ATOM      3  C3  BNZ d   1       4.859   3.883  -5.733  0.00  0.00     0.000 A 
ATOM      4  C4  BNZ d   1       5.985   3.228  -5.384  0.00  0.00     0.000 A 
ATOM      5  C5  BNZ d   1       6.000   1.848  -5.322  0.00  0.00     0.000 A 
ATOM      6  C6  BNZ d   1       4.863   1.134  -5.625  0.00  0.00     0.000 A 
ENDROOT
TORSDOF 0
ENDMDL
