MODEL 1
REMARK minimizedAffinity -4.40324879
REMARK minimizedRMSD -1
REMARK  0 active torsions:
REMARK  status: ('A' for Active; 'I' for Inactive)
ROOT
ATOM      1  C1  BNZ d   1       1.768   1.983   1.051  0.00  0.00     0.000 A 
ATOM      2  C2  BNZ d   1       1.873   2.962   0.099  0.00  0.00     0.000 A 
ATOM      3  C3  BNZ d   1       2.932   3.826   0.098  0.00  0.00     0.000 A 
ATOM      4  C4  BNZ d   1       3.861   3.737   1.071  0.00  0.00     0.000 A 
ATOM      5  C5  BNZ d   1       3.764   2.762   2.044  0.00  0.00     0.000 A 
ATOM      6  C6  BNZ d   1       2.718   1.869   2.019  0.00  0.00     0.000 A 
ENDROOT
TORSDOF 0
ENDMDL
