MODEL 1
REMARK minimizedAffinity -2.13488197
REMARK minimizedRMSD -1
REMARK  0 active torsions:
REMARK  status: ('A' for Active; 'I' for Inactive)
ROOT
ATOM      1  C1  BNZ d   1       3.625   3.369  -5.961  0.00  0.00     0.000 A 
ATOM      2  C2  BNZ d   1       4.807   4.059  -6.000  0.00  0.00     0.000 A 
ATOM      3  C3  BNZ d   1       5.997   3.420  -5.785  0.00  0.00     0.000 A 
ATOM      4  C4  BNZ d   1       6.000   2.104  -5.493  0.00  0.00     0.000 A 
ATOM      5  C5  BNZ d   1       4.815   1.397  -5.441  0.00  0.00     0.000 A 
ATOM      6  C6  BNZ d   1       3.623   2.034  -5.696  0.00  0.00     0.000 A 
ENDROOT
TORSDOF 0
ENDMDL
