MODEL 1
REMARK minimizedAffinity -0.802297056
REMARK minimizedRMSD -1
REMARK  0 active torsions:
REMARK  status: ('A' for Active; 'I' for Inactive)
ROOT
ATOM      1  C1  BNZ d   1       4.355   3.860   1.440  0.00  0.00     0.000 A 
ATOM      2  C2  BNZ d   1       4.904   3.943   2.691  0.00  0.00     0.000 A 
ATOM      3  C3  BNZ d   1       4.455   3.146   3.707  0.00  0.00     0.000 A 
ATOM      4  C4  BNZ d   1       3.432   2.297   3.480  0.00  0.00     0.000 A 
ATOM      5  C5  BNZ d   1       2.861   2.209   2.226  0.00  0.00     0.000 A 
ATOM      6  C6  BNZ d   1       3.342   2.985   1.196  0.00  0.00     0.000 A 
ENDROOT
TORSDOF 0
ENDMDL
