MODEL 1
REMARK minimizedAffinity -1.63585091
REMARK minimizedRMSD -1
REMARK  0 active torsions:
REMARK  status: ('A' for Active; 'I' for Inactive)
ROOT
ATOM      1  C1  BNZ d   1       3.624   3.044  -5.984  0.00  0.00     0.000 A 
ATOM      2  C2  BNZ d   1       4.809   3.730  -6.000  0.00  0.00     0.000 A 
ATOM      3  C3  BNZ d   1       5.999   3.074  -5.846  0.00  0.00     0.000 A 
ATOM      4  C4  BNZ d   1       6.000   1.742  -5.637  0.00  0.00     0.000 A 
ATOM      5  C5  BNZ d   1       4.812   1.038  -5.608  0.00  0.00     0.000 A 
ATOM      6  C6  BNZ d   1       3.619   1.695  -5.802  0.00  0.00     0.000 A 
ENDROOT
TORSDOF 0
ENDMDL
