MODEL 1
REMARK minimizedAffinity -2.40726948
REMARK minimizedRMSD -1
REMARK  0 active torsions:
REMARK  status: ('A' for Active; 'I' for Inactive)
ROOT
ATOM      1  C1  BNZ d   1       3.659   3.088  -6.000  0.00  0.00     0.000 A 
ATOM      2  C2  BNZ d   1       3.679   1.719  -5.992  0.00  0.00     0.000 A 
ATOM      3  C3  BNZ d   1       4.848   1.038  -5.794  0.00  0.00     0.000 A 
ATOM      4  C4  BNZ d   1       5.998   1.725  -5.644  0.00  0.00     0.000 A 
ATOM      5  C5  BNZ d   1       5.995   3.106  -5.659  0.00  0.00     0.000 A 
ATOM      6  C6  BNZ d   1       4.812   3.788  -5.820  0.00  0.00     0.000 A 
ENDROOT
TORSDOF 0
ENDMDL
