MODEL 1
REMARK minimizedAffinity -0.785968363
REMARK minimizedRMSD -1
REMARK  0 active torsions:
REMARK  status: ('A' for Active; 'I' for Inactive)
ROOT
ATOM      1  C1  BNZ d   1      -1.221  -5.416   1.543  0.00  0.00     0.000 A 
ATOM      2  C2  BNZ d   1      -1.164  -5.427   2.912  0.00  0.00     0.000 A 
ATOM      3  C3  BNZ d   1      -1.382  -4.286   3.631  0.00  0.00     0.000 A 
ATOM      4  C4  BNZ d   1      -1.617  -3.128   2.981  0.00  0.00     0.000 A 
ATOM      5  C5  BNZ d   1      -1.669  -3.098   1.602  0.00  0.00     0.000 A 
ATOM      6  C6  BNZ d   1      -1.487  -4.257   0.882  0.00  0.00     0.000 A 
ENDROOT
TORSDOF 0
ENDMDL
