MODEL 1
REMARK minimizedAffinity 2.0825603
REMARK minimizedRMSD -1
REMARK  0 active torsions:
REMARK  status: ('A' for Active; 'I' for Inactive)
ROOT
ATOM      1  C1  BNZ d   1      -0.321  -2.969  -1.723  0.00  0.00     0.000 A 
ATOM      2  C2  BNZ d   1       0.089  -1.939  -0.919  0.00  0.00     0.000 A 
ATOM      3  C3  BNZ d   1      -0.483  -1.738   0.307  0.00  0.00     0.000 A 
ATOM      4  C4  BNZ d   1      -1.488  -2.542   0.709  0.00  0.00     0.000 A 
ATOM      5  C5  BNZ d   1      -1.918  -3.579  -0.094  0.00  0.00     0.000 A 
ATOM      6  C6  BNZ d   1      -1.315  -3.802  -1.310  0.00  0.00     0.000 A 
ENDROOT
TORSDOF 0
ENDMDL
