MODEL 1
REMARK minimizedAffinity -4.20767641
REMARK minimizedRMSD -1
REMARK  0 active torsions:
REMARK  status: ('A' for Active; 'I' for Inactive)
ROOT
ATOM      1  C1  BNZ d   1       3.162   4.016   0.782  0.00  0.00     0.000 A 
ATOM      2  C2  BNZ d   1       4.144   4.327   1.685  0.00  0.00     0.000 A 
ATOM      3  C3  BNZ d   1       4.504   3.439   2.661  0.00  0.00     0.000 A 
ATOM      4  C4  BNZ d   1       3.855   2.261   2.758  0.00  0.00     0.000 A 
ATOM      5  C5  BNZ d   1       2.856   1.937   1.861  0.00  0.00     0.000 A 
ATOM      6  C6  BNZ d   1       2.524   2.817   0.856  0.00  0.00     0.000 A 
ENDROOT
TORSDOF 0
ENDMDL
