MODEL 1
REMARK minimizedAffinity -0.839682341
REMARK minimizedRMSD -1
REMARK  0 active torsions:
REMARK  status: ('A' for Active; 'I' for Inactive)
ROOT
ATOM      1  C1  BNZ d   1       0.803  -0.111   1.147  0.00  0.00     0.000 A 
ATOM      2  C2  BNZ d   1       0.746   1.247   0.978  0.00  0.00     0.000 A 
ATOM      3  C3  BNZ d   1       1.886   2.002   0.985  0.00  0.00     0.000 A 
ATOM      4  C4  BNZ d   1       3.075   1.405   1.202  0.00  0.00     0.000 A 
ATOM      5  C5  BNZ d   1       3.149   0.038   1.384  0.00  0.00     0.000 A 
ATOM      6  C6  BNZ d   1       2.004  -0.724   1.337  0.00  0.00     0.000 A 
ENDROOT
TORSDOF 0
ENDMDL
