MODEL 1
REMARK minimizedAffinity -0.230774388
REMARK minimizedRMSD -1
REMARK  0 active torsions:
REMARK  status: ('A' for Active; 'I' for Inactive)
ROOT
ATOM      1  C1  BNZ d   1       4.071   4.304   0.767  0.00  0.00     0.000 A 
ATOM      2  C2  BNZ d   1       4.879   4.624   1.826  0.00  0.00     0.000 A 
ATOM      3  C3  BNZ d   1       5.018   3.770   2.884  0.00  0.00     0.000 A 
ATOM      4  C4  BNZ d   1       4.318   2.617   2.901  0.00  0.00     0.000 A 
ATOM      5  C5  BNZ d   1       3.492   2.285   1.846  0.00  0.00     0.000 A 
ATOM      6  C6  BNZ d   1       3.385   3.129   0.765  0.00  0.00     0.000 A 
ENDROOT
TORSDOF 0
ENDMDL
