MODEL 1
REMARK minimizedAffinity -1.00126088
REMARK minimizedRMSD -1
REMARK  0 active torsions:
REMARK  status: ('A' for Active; 'I' for Inactive)
ROOT
ATOM      1  C1  BNZ d   1       3.824   2.135   2.827  0.00  0.00     0.000 A 
ATOM      2  C2  BNZ d   1       3.038   2.010   1.713  0.00  0.00     0.000 A 
ATOM      3  C3  BNZ d   1       3.191   2.855   0.650  0.00  0.00     0.000 A 
ATOM      4  C4  BNZ d   1       4.102   3.847   0.717  0.00  0.00     0.000 A 
ATOM      5  C5  BNZ d   1       4.896   3.992   1.837  0.00  0.00     0.000 A 
ATOM      6  C6  BNZ d   1       4.766   3.116   2.890  0.00  0.00     0.000 A 
ENDROOT
TORSDOF 0
ENDMDL
