MODEL 1
REMARK minimizedAffinity -2.13357472
REMARK minimizedRMSD -1
REMARK  0 active torsions:
REMARK  status: ('A' for Active; 'I' for Inactive)
ROOT
ATOM      1  C1  BNZ d   1       1.473   2.038   1.613  0.00  0.00     0.000 A 
ATOM      2  C2  BNZ d   1       2.600   1.716   2.322  0.00  0.00     0.000 A 
ATOM      3  C3  BNZ d   1       3.795   2.322   2.049  0.00  0.00     0.000 A 
ATOM      4  C4  BNZ d   1       3.870   3.217   1.044  0.00  0.00     0.000 A 
ATOM      5  C5  BNZ d   1       2.745   3.545   0.314  0.00  0.00     0.000 A 
ATOM      6  C6  BNZ d   1       1.536   2.962   0.617  0.00  0.00     0.000 A 
ENDROOT
TORSDOF 0
ENDMDL
