MODEL 1
REMARK minimizedAffinity -2.14332819
REMARK minimizedRMSD -1
REMARK  0 active torsions:
REMARK  status: ('A' for Active; 'I' for Inactive)
ROOT
ATOM      1  C1  BNZ d   1       0.351   3.948   3.371  0.00  0.00     0.000 A 
ATOM      2  C2  BNZ d   1       0.975   3.147   2.453  0.00  0.00     0.000 A 
ATOM      3  C3  BNZ d   1       0.263   2.251   1.707  0.00  0.00     0.000 A 
ATOM      4  C4  BNZ d   1      -1.065   2.128   1.908  0.00  0.00     0.000 A 
ATOM      5  C5  BNZ d   1      -1.708   2.922   2.837  0.00  0.00     0.000 A 
ATOM      6  C6  BNZ d   1      -0.994   3.851   3.558  0.00  0.00     0.000 A 
ENDROOT
TORSDOF 0
ENDMDL
