MODEL 1
REMARK minimizedAffinity -3.6579771
REMARK minimizedRMSD -1
REMARK  0 active torsions:
REMARK  status: ('A' for Active; 'I' for Inactive)
ROOT
ATOM      1  C1  BNZ d   1       1.858   1.689   0.016  0.00  0.00     0.000 A 
ATOM      2  C2  BNZ d   1       0.493   1.788  -0.010  0.00  0.00     0.000 A 
ATOM      3  C3  BNZ d   1      -0.287   0.675  -0.161  0.00  0.00     0.000 A 
ATOM      4  C4  BNZ d   1       0.300  -0.528  -0.326  0.00  0.00     0.000 A 
ATOM      5  C5  BNZ d   1       1.676  -0.643  -0.312  0.00  0.00     0.000 A 
ATOM      6  C6  BNZ d   1       2.456   0.474  -0.120  0.00  0.00     0.000 A 
ENDROOT
TORSDOF 0
ENDMDL
