MODEL 1
REMARK minimizedAffinity -4.6988759
REMARK minimizedRMSD -1
REMARK  0 active torsions:
REMARK  status: ('A' for Active; 'I' for Inactive)
ROOT
ATOM      1  C2' OXE d   1      -2.314  -0.144  -0.196  0.00  0.00     0.078 C 
ATOM      2  C1' OXE d   1       0.352  -0.398  -1.037  0.00  0.00     0.078 C 
ATOM      3  C1  OXE d   1       0.096   0.229   0.310  0.00  0.00    -0.078 A 
ATOM      4  C2  OXE d   1      -1.214   0.392   0.693  0.00  0.00    -0.078 A 
ATOM      5  C3  OXE d   1      -1.504   0.916   1.950  0.00  0.00     0.003 A 
ATOM      6  C4  OXE d   1      -0.481   1.419   2.762  0.00  0.00    -0.002 A 
ATOM      7  C5  OXE d   1       0.858   1.299   2.373  0.00  0.00    -0.002 A 
ATOM      8  C6  OXE d   1       1.165   0.670   1.172  0.00  0.00     0.003 A 
ENDROOT
TORSDOF 0
ENDMDL
