MODEL 1
REMARK minimizedAffinity -4.47312117
REMARK minimizedRMSD -1
REMARK  0 active torsions:
REMARK  status: ('A' for Active; 'I' for Inactive)
ROOT
ATOM      1  C2' OXE d   1       1.742   1.189   2.767  0.00  0.00     0.078 C 
ATOM      2  C1' OXE d   1      -0.936   1.582   3.514  0.00  0.00     0.078 C 
ATOM      3  C1  OXE d   1      -0.666   0.868   2.213  0.00  0.00    -0.078 A 
ATOM      4  C2  OXE d   1       0.647   0.721   1.833  0.00  0.00    -0.078 A 
ATOM      5  C3  OXE d   1       0.953   0.021   0.670  0.00  0.00     0.003 A 
ATOM      6  C4  OXE d   1      -0.066  -0.400  -0.194  0.00  0.00    -0.002 A 
ATOM      7  C5  OXE d   1      -1.409  -0.225   0.155  0.00  0.00    -0.002 A 
ATOM      8  C6  OXE d   1      -1.725   0.367   1.373  0.00  0.00     0.003 A 
ENDROOT
TORSDOF 0
ENDMDL
