MODEL 1
REMARK minimizedAffinity -3.28634357
REMARK minimizedRMSD -1
REMARK  0 active torsions:
REMARK  status: ('A' for Active; 'I' for Inactive)
ROOT
ATOM      1  C2' OXE d   1      -0.532   1.138   2.250  0.00  0.00     0.078 C 
ATOM      2  C1' OXE d   1       2.090   0.176   1.971  0.00  0.00     0.078 C 
ATOM      3  C1  OXE d   1       1.144  -0.014   0.812  0.00  0.00    -0.078 A 
ATOM      4  C2  OXE d   1      -0.150   0.418   0.975  0.00  0.00    -0.078 A 
ATOM      5  C3  OXE d   1      -1.049   0.317  -0.084  0.00  0.00     0.003 A 
ATOM      6  C4  OXE d   1      -0.690  -0.359  -1.256  0.00  0.00    -0.002 A 
ATOM      7  C5  OXE d   1       0.611  -0.843  -1.427  0.00  0.00    -0.002 A 
ATOM      8  C6  OXE d   1       1.551  -0.641  -0.422  0.00  0.00     0.003 A 
ENDROOT
TORSDOF 0
ENDMDL
