MODEL 1
REMARK minimizedAffinity -4.26407433
REMARK minimizedRMSD -1
REMARK  0 active torsions:
REMARK  status: ('A' for Active; 'I' for Inactive)
ROOT
ATOM      1  C2' OXE d   1      -2.361   0.012  -0.029  0.00  0.00     0.078 C 
ATOM      2  C1' OXE d   1      -1.081   1.371   2.067  0.00  0.00     0.078 C 
ATOM      3  C1  OXE d   1      -0.276   0.361   1.289  0.00  0.00    -0.078 A 
ATOM      4  C2  OXE d   1      -0.923  -0.333   0.295  0.00  0.00    -0.078 A 
ATOM      5  C3  OXE d   1      -0.213  -1.237  -0.490  0.00  0.00     0.003 A 
ATOM      6  C4  OXE d   1       1.113  -1.558  -0.177  0.00  0.00    -0.002 A 
ATOM      7  C5  OXE d   1       1.780  -0.891   0.857  0.00  0.00    -0.002 A 
ATOM      8  C6  OXE d   1       1.114   0.099   1.570  0.00  0.00     0.003 A 
ENDROOT
TORSDOF 0
ENDMDL
