MODEL 1
REMARK minimizedAffinity 0.0818651393
REMARK minimizedRMSD -1
REMARK  0 active torsions:
REMARK  status: ('A' for Active; 'I' for Inactive)
ROOT
ATOM      1  C2' OXE d   1       0.486  -0.367  -1.342  0.00  0.00     0.078 C 
ATOM      2  C1' OXE d   1       1.934  -0.866   1.011  0.00  0.00     0.078 C 
ATOM      3  C1  OXE d   1       0.501  -0.416   1.149  0.00  0.00    -0.078 A 
ATOM      4  C2  OXE d   1      -0.185  -0.129  -0.006  0.00  0.00    -0.078 A 
ATOM      5  C3  OXE d   1      -1.527   0.237   0.062  0.00  0.00     0.003 A 
ATOM      6  C4  OXE d   1      -2.137   0.464   1.301  0.00  0.00    -0.002 A 
ATOM      7  C5  OXE d   1      -1.444   0.217   2.490  0.00  0.00    -0.002 A 
ATOM      8  C6  OXE d   1      -0.140  -0.263   2.431  0.00  0.00     0.003 A 
ENDROOT
TORSDOF 0
ENDMDL
