MODEL 1
REMARK minimizedAffinity 1.09221327
REMARK minimizedRMSD -1
REMARK  0 active torsions:
REMARK  status: ('A' for Active; 'I' for Inactive)
ROOT
ATOM      1  C2' OXE d   1       1.669  -0.597   0.696  0.00  0.00     0.078 C 
ATOM      2  C1' OXE d   1       0.100   1.731   0.659  0.00  0.00     0.078 C 
ATOM      3  C1  OXE d   1       0.153   0.938   1.942  0.00  0.00    -0.078 A 
ATOM      4  C2  OXE d   1       0.886  -0.224   1.937  0.00  0.00    -0.078 A 
ATOM      5  C3  OXE d   1       1.012  -0.964   3.109  0.00  0.00     0.003 A 
ATOM      6  C4  OXE d   1       0.277  -0.618   4.249  0.00  0.00    -0.002 A 
ATOM      7  C5  OXE d   1      -0.507   0.541   4.263  0.00  0.00    -0.002 A 
ATOM      8  C6  OXE d   1      -0.546   1.351   3.134  0.00  0.00     0.003 A 
ENDROOT
TORSDOF 0
ENDMDL
