MODEL 1
REMARK minimizedAffinity -4.93338728
REMARK minimizedRMSD -1
REMARK  0 active torsions:
REMARK  status: ('A' for Active; 'I' for Inactive)
ROOT
ATOM      1  C2' OXE d   1      -2.138  -0.727   0.020  0.00  0.00     0.078 C 
ATOM      2  C1' OXE d   1       0.541  -0.484  -0.783  0.00  0.00     0.078 C 
ATOM      3  C1  OXE d   1       0.130   0.182   0.506  0.00  0.00    -0.078 A 
ATOM      4  C2  OXE d   1      -1.193   0.098   0.867  0.00  0.00    -0.078 A 
ATOM      5  C3  OXE d   1      -1.614   0.648   2.074  0.00  0.00     0.003 A 
ATOM      6  C4  OXE d   1      -0.737   1.418   2.848  0.00  0.00    -0.002 A 
ATOM      7  C5  OXE d   1       0.606   1.550   2.477  0.00  0.00    -0.002 A 
ATOM      8  C6  OXE d   1       1.064   0.904   1.334  0.00  0.00     0.003 A 
ENDROOT
TORSDOF 0
ENDMDL
