MODEL 1
REMARK minimizedAffinity -5.62158108
REMARK minimizedRMSD -1
REMARK  0 active torsions:
REMARK  status: ('A' for Active; 'I' for Inactive)
ROOT
ATOM      1  C2' OXE d   1      -2.256  -0.650  -0.210  0.00  0.00     0.078 C 
ATOM      2  C1' OXE d   1       0.475  -0.647  -0.857  0.00  0.00     0.078 C 
ATOM      3  C1  OXE d   1       0.047   0.079   0.394  0.00  0.00    -0.078 A 
ATOM      4  C2  OXE d   1      -1.297   0.112   0.678  0.00  0.00    -0.078 A 
ATOM      5  C3  OXE d   1      -1.739   0.721   1.849  0.00  0.00     0.003 A 
ATOM      6  C4  OXE d   1      -0.846   1.433   2.659  0.00  0.00    -0.002 A 
ATOM      7  C5  OXE d   1       0.522   1.446   2.367  0.00  0.00    -0.002 A 
ATOM      8  C6  OXE d   1       0.989   0.740   1.264  0.00  0.00     0.003 A 
ENDROOT
TORSDOF 0
ENDMDL
