MODEL 1
REMARK minimizedAffinity 0.475042284
REMARK minimizedRMSD -1
REMARK  0 active torsions:
REMARK  status: ('A' for Active; 'I' for Inactive)
ROOT
ATOM      1  C2' OXE d   1      -1.444  -1.528   3.657  0.00  0.00     0.078 C 
ATOM      2  C1' OXE d   1      -1.009  -0.498   1.082  0.00  0.00     0.078 C 
ATOM      3  C1  OXE d   1      -0.465   0.282   2.253  0.00  0.00    -0.078 A 
ATOM      4  C2  OXE d   1      -0.723  -0.205   3.512  0.00  0.00    -0.078 A 
ATOM      5  C3  OXE d   1      -0.197   0.446   4.624  0.00  0.00     0.003 A 
ATOM      6  C4  OXE d   1       0.460   1.674   4.482  0.00  0.00    -0.002 A 
ATOM      7  C5  OXE d   1       0.699   2.208   3.211  0.00  0.00    -0.002 A 
ATOM      8  C6  OXE d   1       0.281   1.505   2.087  0.00  0.00     0.003 A 
ENDROOT
TORSDOF 0
ENDMDL
