MODEL 1
REMARK minimizedAffinity -2.33815575
REMARK minimizedRMSD -1
REMARK  0 active torsions:
REMARK  status: ('A' for Active; 'I' for Inactive)
ROOT
ATOM      1  C2' OXE d   1       0.586  -0.196  -0.865  0.00  0.00     0.078 C 
ATOM      2  C1' OXE d   1      -2.042  -0.958  -0.237  0.00  0.00     0.078 C 
ATOM      3  C1  OXE d   1      -1.349   0.007   0.692  0.00  0.00    -0.078 A 
ATOM      4  C2  OXE d   1      -0.047   0.338   0.402  0.00  0.00    -0.078 A 
ATOM      5  C3  OXE d   1       0.621   1.267   1.195  0.00  0.00     0.003 A 
ATOM      6  C4  OXE d   1       0.033   1.749   2.370  0.00  0.00    -0.002 A 
ATOM      7  C5  OXE d   1      -1.278   1.394   2.705  0.00  0.00    -0.002 A 
ATOM      8  C6  OXE d   1      -1.996   0.559   1.856  0.00  0.00     0.003 A 
ENDROOT
TORSDOF 0
ENDMDL
