MODEL 1
REMARK minimizedAffinity 6.92531872
REMARK minimizedRMSD -1
REMARK  0 active torsions:
REMARK  status: ('A' for Active; 'I' for Inactive)
ROOT
ATOM      1  C   UNL d   1       4.953   1.648   1.043  0.00  0.00    -0.002 A 
ATOM      2  C1  UNL d   1       4.620   2.142  -0.211  0.00  0.00     0.010 A 
ATOM      3  C2  UNL d   1       3.997   1.323  -1.154  0.00  0.00     0.041 A 
ATOM      4  C3  UNL d   1       3.710  -0.014  -0.812  0.00  0.00    -0.075 A 
ATOM      5  S   UNL d   1       2.951  -1.200  -1.806  0.00  0.00     0.015 SA
ATOM      6  C4  UNL d   1       3.050  -2.390  -0.590  0.00  0.00     0.022 A 
ATOM      7  C5  UNL d   1       3.646  -1.911   0.553  0.00  0.00     0.026 A 
ATOM      8  C6  UNL d   1       4.035  -0.533   0.444  0.00  0.00    -0.082 A 
ATOM      9  C7  UNL d   1       4.667   0.322   1.378  0.00  0.00     0.045 A 
ENDROOT
TORSDOF 0
ENDMDL
