MODEL 1
REMARK minimizedAffinity -2.23130703
REMARK minimizedRMSD -1
REMARK  0 active torsions:
REMARK  status: ('A' for Active; 'I' for Inactive)
ROOT
ATOM      1  C   UNL d   1       5.245   1.757   4.891  0.00  0.00    -0.002 A 
ATOM      2  C1  UNL d   1       5.836   2.956   4.519  0.00  0.00     0.010 A 
ATOM      3  C2  UNL d   1       5.136   4.159   4.635  0.00  0.00     0.041 A 
ATOM      4  C3  UNL d   1       3.821   4.136   5.139  0.00  0.00    -0.075 A 
ATOM      5  S   UNL d   1       2.773   5.485   5.371  0.00  0.00     0.015 SA
ATOM      6  C4  UNL d   1       1.517   4.501   5.971  0.00  0.00     0.022 A 
ATOM      7  C5  UNL d   1       1.871   3.173   6.000  0.00  0.00     0.026 A 
ATOM      8  C6  UNL d   1       3.205   2.941   5.522  0.00  0.00    -0.082 A 
ATOM      9  C7  UNL d   1       3.940   1.738   5.390  0.00  0.00     0.045 A 
ENDROOT
TORSDOF 0
ENDMDL
