MODEL 1
REMARK minimizedAffinity 6.43651438
REMARK minimizedRMSD -1
REMARK  0 active torsions:
REMARK  status: ('A' for Active; 'I' for Inactive)
ROOT
ATOM      1  C   UNL d   1       4.129   0.891   5.451  0.00  0.00    -0.002 A 
ATOM      2  C1  UNL d   1       2.808   1.119   5.809  0.00  0.00     0.010 A 
ATOM      3  C2  UNL d   1       2.338   2.420   5.999  0.00  0.00     0.041 A 
ATOM      4  C3  UNL d   1       3.226   3.498   5.821  0.00  0.00    -0.075 A 
ATOM      5  S   UNL d   1       2.873   5.176   6.000  0.00  0.00     0.015 SA
ATOM      6  C4  UNL d   1       4.468   5.630   5.605  0.00  0.00     0.022 A 
ATOM      7  C5  UNL d   1       5.264   4.541   5.341  0.00  0.00     0.026 A 
ATOM      8  C6  UNL d   1       4.561   3.294   5.461  0.00  0.00    -0.082 A 
ATOM      9  C7  UNL d   1       5.008   1.963   5.276  0.00  0.00     0.045 A 
ENDROOT
TORSDOF 0
ENDMDL
