MODEL 1
REMARK minimizedAffinity 4.06256533
REMARK minimizedRMSD -1
REMARK  0 active torsions:
REMARK  status: ('A' for Active; 'I' for Inactive)
ROOT
ATOM      1  C   UNL d   1       4.940   1.659   5.076  0.00  0.00    -0.002 A 
ATOM      2  C1  UNL d   1       3.764   1.246   5.688  0.00  0.00     0.010 A 
ATOM      3  C2  UNL d   1       2.764   2.170   6.000  0.00  0.00     0.041 A 
ATOM      4  C3  UNL d   1       2.967   3.527   5.681  0.00  0.00    -0.075 A 
ATOM      5  S   UNL d   1       1.881   4.835   5.968  0.00  0.00     0.015 SA
ATOM      6  C4  UNL d   1       2.951   5.971   5.285  0.00  0.00     0.022 A 
ATOM      7  C5  UNL d   1       4.113   5.385   4.843  0.00  0.00     0.026 A 
ATOM      8  C6  UNL d   1       4.141   3.966   5.064  0.00  0.00    -0.082 A 
ATOM      9  C7  UNL d   1       5.137   3.006   4.762  0.00  0.00     0.045 A 
ENDROOT
TORSDOF 0
ENDMDL
