MODEL 1
REMARK minimizedAffinity 1.31650448
REMARK minimizedRMSD -1
REMARK  0 active torsions:
REMARK  status: ('A' for Active; 'I' for Inactive)
ROOT
ATOM      1  C   UNL d   1       3.809   1.153   4.874  0.00  0.00    -0.002 A 
ATOM      2  C1  UNL d   1       2.778   1.708   5.619  0.00  0.00     0.010 A 
ATOM      3  C2  UNL d   1       2.821   3.051   6.000  0.00  0.00     0.041 A 
ATOM      4  C3  UNL d   1       3.927   3.833   5.615  0.00  0.00    -0.075 A 
ATOM      5  S   UNL d   1       4.195   5.500   5.967  0.00  0.00     0.015 SA
ATOM      6  C4  UNL d   1       5.683   5.514   5.136  0.00  0.00     0.022 A 
ATOM      7  C5  UNL d   1       5.984   4.285   4.597  0.00  0.00     0.026 A 
ATOM      8  C6  UNL d   1       4.977   3.297   4.864  0.00  0.00    -0.082 A 
ATOM      9  C7  UNL d   1       4.904   1.932   4.493  0.00  0.00     0.045 A 
ENDROOT
TORSDOF 0
ENDMDL
