MODEL 1
REMARK minimizedAffinity -2.03776717
REMARK minimizedRMSD -1
REMARK  0 active torsions:
REMARK  status: ('A' for Active; 'I' for Inactive)
ROOT
ATOM      1  C   UNL d   1       2.390   6.000   5.751  0.00  0.00    -0.002 A 
ATOM      2  C1  UNL d   1       1.419   5.041   5.998  0.00  0.00     0.010 A 
ATOM      3  C2  UNL d   1       1.745   3.683   6.000  0.00  0.00     0.041 A 
ATOM      4  C3  UNL d   1       3.078   3.302   5.748  0.00  0.00    -0.075 A 
ATOM      5  S   UNL d   1       3.709   1.699   5.700  0.00  0.00     0.015 SA
ATOM      6  C4  UNL d   1       5.284   2.249   5.351  0.00  0.00     0.022 A 
ATOM      7  C5  UNL d   1       5.344   3.620   5.269  0.00  0.00     0.026 A 
ATOM      8  C6  UNL d   1       4.074   4.250   5.497  0.00  0.00    -0.082 A 
ATOM      9  C7  UNL d   1       3.711   5.618   5.501  0.00  0.00     0.045 A 
ENDROOT
TORSDOF 0
ENDMDL
