MODEL 1
REMARK minimizedAffinity -2.84118414
REMARK minimizedRMSD -1
REMARK  2 active torsions:
REMARK  status: ('A' for Active; 'I' for Inactive)
REMARK    1  A    between atoms: C2'_3  and  C1'_4 
REMARK    2  A    between atoms: C1'_4  and  C1_5 
ROOT
ATOM      1  C1  I4B d   1      -4.528   3.883   3.327  0.00  0.00    -0.075 A 
ATOM      2  C2  I4B d   1      -3.559   4.101   4.274  0.00  0.00     0.003 A 
ATOM      3  C3  I4B d   1      -3.790   3.747   5.626  0.00  0.00     0.002 A 
ATOM      4  C4  I4B d   1      -5.015   3.229   5.993  0.00  0.00    -0.004 A 
ATOM      5  C5  I4B d   1      -5.988   2.988   5.028  0.00  0.00     0.002 A 
ATOM      6  C6  I4B d   1      -5.740   3.305   3.684  0.00  0.00     0.003 A 
ENDROOT
BRANCH   1   7
ATOM      7  C1' I4B d   1      -4.263   4.298   1.915  0.00  0.00     0.060 C 
BRANCH   7   8
ATOM      8  C2' I4B d   1      -4.738   5.728   1.752  0.00  0.00    -0.013 C 
ATOM      9  C4' I4B d   1      -5.173   6.000   0.336  0.00  0.00     0.013 C 
ATOM     10  C3' I4B d   1      -5.862   5.955   2.718  0.00  0.00     0.013 C 
ENDBRANCH   7   8
ENDBRANCH   1   7
TORSDOF 2
ENDMDL
