MODEL 1
REMARK minimizedAffinity -2.69562483
REMARK minimizedRMSD -1
REMARK  2 active torsions:
REMARK  status: ('A' for Active; 'I' for Inactive)
REMARK    1  A    between atoms: C2'_3  and  C1'_4 
REMARK    2  A    between atoms: C1'_4  and  C1_5 
ROOT
ATOM      1  C1  I4B d   1      -4.652   3.813   3.384  0.00  0.00    -0.075 A 
ATOM      2  C2  I4B d   1      -3.752   4.056   4.392  0.00  0.00     0.003 A 
ATOM      3  C3  I4B d   1      -3.961   3.508   5.681  0.00  0.00     0.002 A 
ATOM      4  C4  I4B d   1      -5.101   2.770   5.929  0.00  0.00    -0.004 A 
ATOM      5  C5  I4B d   1      -6.000   2.506   4.900  0.00  0.00     0.002 A 
ATOM      6  C6  I4B d   1      -5.768   3.020   3.616  0.00  0.00     0.003 A 
ENDROOT
BRANCH   1   7
ATOM      7  C1' I4B d   1      -4.418   4.435   2.044  0.00  0.00     0.060 C 
BRANCH   7   8
ATOM      8  C2' I4B d   1      -5.038   5.817   2.055  0.00  0.00    -0.013 C 
ATOM      9  C4' I4B d   1      -5.984   6.000   0.898  0.00  0.00     0.013 C 
ATOM     10  C3' I4B d   1      -5.744   5.997   3.366  0.00  0.00     0.013 C 
ENDBRANCH   7   8
ENDBRANCH   1   7
TORSDOF 2
ENDMDL
