MODEL 1
REMARK minimizedAffinity 7.48539352
REMARK minimizedRMSD -1
REMARK  2 active torsions:
REMARK  status: ('A' for Active; 'I' for Inactive)
REMARK    1  A    between atoms: C2'_3  and  C1'_4 
REMARK    2  A    between atoms: C1'_4  and  C1_5 
ROOT
ATOM      1  C1  I4B d   1      -4.873   3.685   1.911  0.00  0.00    -0.075 A 
ATOM      2  C2  I4B d   1      -4.869   4.998   1.512  0.00  0.00     0.003 A 
ATOM      3  C3  I4B d   1      -5.417   6.000   2.349  0.00  0.00     0.002 A 
ATOM      4  C4  I4B d   1      -5.999   5.640   3.547  0.00  0.00    -0.004 A 
ATOM      5  C5  I4B d   1      -5.982   4.312   3.962  0.00  0.00     0.002 A 
ATOM      6  C6  I4B d   1      -5.404   3.329   3.144  0.00  0.00     0.003 A 
ENDROOT
BRANCH   1   7
ATOM      7  C1' I4B d   1      -4.316   2.649   0.988  0.00  0.00     0.060 C 
BRANCH   7   8
ATOM      8  C2' I4B d   1      -4.233   1.341   1.749  0.00  0.00    -0.013 C 
ATOM      9  C4' I4B d   1      -3.734   0.228   0.866  0.00  0.00     0.013 C 
ATOM     10  C3' I4B d   1      -3.327   1.547   2.926  0.00  0.00     0.013 C 
ENDBRANCH   7   8
ENDBRANCH   1   7
TORSDOF 2
ENDMDL
