MODEL 1
REMARK minimizedAffinity -2.73200727
REMARK minimizedRMSD -1
REMARK  2 active torsions:
REMARK  status: ('A' for Active; 'I' for Inactive)
REMARK    1  A    between atoms: C2'_3  and  C1'_4 
REMARK    2  A    between atoms: C1'_4  and  C1_5 
ROOT
ATOM      1  C1  I4B d   1      -4.968   3.806   2.969  0.00  0.00    -0.075 A 
ATOM      2  C2  I4B d   1      -4.865   3.826   1.600  0.00  0.00     0.003 A 
ATOM      3  C3  I4B d   1      -5.321   4.949   0.867  0.00  0.00     0.002 A 
ATOM      4  C4  I4B d   1      -5.915   6.000   1.535  0.00  0.00    -0.004 A 
ATOM      5  C5  I4B d   1      -5.999   5.987   2.924  0.00  0.00     0.002 A 
ATOM      6  C6  I4B d   1      -5.511   4.889   3.647  0.00  0.00     0.003 A 
ENDROOT
BRANCH   1   7
ATOM      7  C1' I4B d   1      -4.506   2.590   3.708  0.00  0.00     0.060 C 
BRANCH   7   8
ATOM      8  C2' I4B d   1      -4.947   2.727   5.151  0.00  0.00    -0.013 C 
ATOM      9  C4' I4B d   1      -5.428   1.410   5.701  0.00  0.00     0.013 C 
ATOM     10  C3' I4B d   1      -3.785   3.251   5.942  0.00  0.00     0.013 C 
ENDBRANCH   7   8
ENDBRANCH   1   7
TORSDOF 2
ENDMDL
