MODEL 1
REMARK minimizedAffinity -0.914562166
REMARK minimizedRMSD -1
REMARK  2 active torsions:
REMARK  status: ('A' for Active; 'I' for Inactive)
REMARK    1  A    between atoms: C2'_3  and  C1'_4 
REMARK    2  A    between atoms: C1'_4  and  C1_5 
ROOT
ATOM      1  C1  I4B d   1       2.548   2.092   2.457  0.00  0.00    -0.075 A 
ATOM      2  C2  I4B d   1       2.006   2.415   3.676  0.00  0.00     0.003 A 
ATOM      3  C3  I4B d   1       1.733   1.401   4.626  0.00  0.00     0.002 A 
ATOM      4  C4  I4B d   1       1.970   0.082   4.299  0.00  0.00    -0.004 A 
ATOM      5  C5  I4B d   1       2.542  -0.242   3.071  0.00  0.00     0.002 A 
ATOM      6  C6  I4B d   1       2.844   0.771   2.149  0.00  0.00     0.003 A 
ENDROOT
BRANCH   1   7
ATOM      7  C1' I4B d   1       2.793   3.185   1.465  0.00  0.00     0.060 C 
BRANCH   7   8
ATOM      8  C2' I4B d   1       2.502   2.634   0.084  0.00  0.00    -0.013 C 
ATOM      9  C4' I4B d   1       1.020   2.504  -0.150  0.00  0.00     0.013 C 
ATOM     10  C3' I4B d   1       3.130   3.552  -0.922  0.00  0.00     0.013 C 
ENDBRANCH   7   8
ENDBRANCH   1   7
TORSDOF 2
ENDMDL
