MODEL 1
REMARK minimizedAffinity -0.912779391
REMARK minimizedRMSD -1
REMARK  2 active torsions:
REMARK  status: ('A' for Active; 'I' for Inactive)
REMARK    1  A    between atoms: C2'_3  and  C1'_4 
REMARK    2  A    between atoms: C1'_4  and  C1_5 
ROOT
ATOM      1  C1  I4B d   1      -5.673   3.616   3.419  0.00  0.00    -0.075 A 
ATOM      2  C2  I4B d   1      -5.028   2.422   3.625  0.00  0.00     0.003 A 
ATOM      3  C3  I4B d   1      -4.680   2.017   4.936  0.00  0.00     0.002 A 
ATOM      4  C4  I4B d   1      -4.949   2.854   6.000  0.00  0.00    -0.004 A 
ATOM      5  C5  I4B d   1      -5.624   4.053   5.792  0.00  0.00     0.002 A 
ATOM      6  C6  I4B d   1      -6.000   4.431   4.494  0.00  0.00     0.003 A 
ENDROOT
BRANCH   1   7
ATOM      7  C1' I4B d   1      -5.997   4.028   2.018  0.00  0.00     0.060 C 
BRANCH   7   8
ATOM      8  C2' I4B d   1      -5.861   5.534   1.931  0.00  0.00    -0.013 C 
ATOM      9  C4' I4B d   1      -4.545   5.997   2.500  0.00  0.00     0.013 C 
ATOM     10  C3' I4B d   1      -5.996   5.929   0.490  0.00  0.00     0.013 C 
ENDBRANCH   7   8
ENDBRANCH   1   7
TORSDOF 2
ENDMDL
