MODEL 1
REMARK minimizedAffinity -2.54410052
REMARK minimizedRMSD -1
REMARK  2 active torsions:
REMARK  status: ('A' for Active; 'I' for Inactive)
REMARK    1  A    between atoms: C2'_3  and  C1'_4 
REMARK    2  A    between atoms: C1'_4  and  C1_5 
ROOT
ATOM      1  C1  I4B d   1      -4.303   4.604   3.926  0.00  0.00    -0.075 A 
ATOM      2  C2  I4B d   1      -4.863   5.180   5.039  0.00  0.00     0.003 A 
ATOM      3  C3  I4B d   1      -5.525   4.378   6.000  0.00  0.00     0.002 A 
ATOM      4  C4  I4B d   1      -5.648   3.021   5.784  0.00  0.00    -0.004 A 
ATOM      5  C5  I4B d   1      -5.060   2.435   4.666  0.00  0.00     0.002 A 
ATOM      6  C6  I4B d   1      -4.372   3.230   3.737  0.00  0.00     0.003 A 
ENDROOT
BRANCH   1   7
ATOM      7  C1' I4B d   1      -3.639   5.485   2.916  0.00  0.00     0.060 C 
BRANCH   7   8
ATOM      8  C2' I4B d   1      -4.676   5.874   1.882  0.00  0.00    -0.013 C 
ATOM      9  C4' I4B d   1      -4.739   4.866   0.765  0.00  0.00     0.013 C 
ATOM     10  C3' I4B d   1      -6.000   5.994   2.578  0.00  0.00     0.013 C 
ENDBRANCH   7   8
ENDBRANCH   1   7
TORSDOF 2
ENDMDL
