MODEL 1
REMARK minimizedAffinity -2.53440499
REMARK minimizedRMSD -1
REMARK  2 active torsions:
REMARK  status: ('A' for Active; 'I' for Inactive)
REMARK    1  A    between atoms: C2'_3  and  C1'_4 
REMARK    2  A    between atoms: C1'_4  and  C1_5 
ROOT
ATOM      1  C1  I4B d   1      -5.233   5.240   4.110  0.00  0.00    -0.075 A 
ATOM      2  C2  I4B d   1      -5.773   4.079   4.604  0.00  0.00     0.003 A 
ATOM      3  C3  I4B d   1      -5.074   3.325   5.578  0.00  0.00     0.002 A 
ATOM      4  C4  I4B d   1      -3.824   3.740   5.989  0.00  0.00    -0.004 A 
ATOM      5  C5  I4B d   1      -3.288   4.930   5.505  0.00  0.00     0.002 A 
ATOM      6  C6  I4B d   1      -4.002   5.692   4.568  0.00  0.00     0.003 A 
ENDROOT
BRANCH   1   7
ATOM      7  C1' I4B d   1      -5.984   5.994   3.058  0.00  0.00     0.060 C 
BRANCH   7   8
ATOM      8  C2' I4B d   1      -5.965   5.167   1.789  0.00  0.00    -0.013 C 
ATOM      9  C4' I4B d   1      -4.752   5.479   0.953  0.00  0.00     0.013 C 
ATOM     10  C3' I4B d   1      -5.996   3.719   2.178  0.00  0.00     0.013 C 
ENDBRANCH   7   8
ENDBRANCH   1   7
TORSDOF 2
ENDMDL
