MODEL 1
REMARK minimizedAffinity -1.88827026
REMARK minimizedRMSD -1
REMARK  2 active torsions:
REMARK  status: ('A' for Active; 'I' for Inactive)
REMARK    1  A    between atoms: C2'_3  and  C1'_4 
REMARK    2  A    between atoms: C1'_4  and  C1_5 
ROOT
ATOM      1  C1  I4B d   1      -5.468   4.811   3.696  0.00  0.00    -0.075 A 
ATOM      2  C2  I4B d   1      -5.804   4.908   5.023  0.00  0.00     0.003 A 
ATOM      3  C3  I4B d   1      -5.434   3.885   5.929  0.00  0.00     0.002 A 
ATOM      4  C4  I4B d   1      -4.777   2.766   5.459  0.00  0.00    -0.004 A 
ATOM      5  C5  I4B d   1      -4.417   2.680   4.117  0.00  0.00     0.002 A 
ATOM      6  C6  I4B d   1      -4.754   3.714   3.232  0.00  0.00     0.003 A 
ENDROOT
BRANCH   1   7
ATOM      7  C1' I4B d   1      -5.904   5.894   2.761  0.00  0.00     0.060 C 
BRANCH   7   8
ATOM      8  C2' I4B d   1      -4.875   5.997   1.653  0.00  0.00    -0.013 C 
ATOM      9  C4' I4B d   1      -3.863   4.885   1.744  0.00  0.00     0.013 C 
ATOM     10  C3' I4B d   1      -5.601   5.962   0.342  0.00  0.00     0.013 C 
ENDBRANCH   7   8
ENDBRANCH   1   7
TORSDOF 2
ENDMDL
