MODEL 1
REMARK minimizedAffinity -1.80489504
REMARK minimizedRMSD -1
REMARK  2 active torsions:
REMARK  status: ('A' for Active; 'I' for Inactive)
REMARK    1  A    between atoms: C2'_3  and  C1'_4 
REMARK    2  A    between atoms: C1'_4  and  C1_5 
ROOT
ATOM      1  C1  I4B d   1      -5.914   4.266   3.254  0.00  0.00    -0.075 A 
ATOM      2  C2  I4B d   1      -5.867   2.987   3.749  0.00  0.00     0.003 A 
ATOM      3  C3  I4B d   1      -5.772   2.765   5.144  0.00  0.00     0.002 A 
ATOM      4  C4  I4B d   1      -5.677   3.845   5.999  0.00  0.00    -0.004 A 
ATOM      5  C5  I4B d   1      -5.749   5.141   5.497  0.00  0.00     0.002 A 
ATOM      6  C6  I4B d   1      -5.881   5.354   4.117  0.00  0.00     0.003 A 
ENDROOT
BRANCH   1   7
ATOM      7  C1' I4B d   1      -5.981   4.464   1.773  0.00  0.00     0.060 C 
BRANCH   7   8
ATOM      8  C2' I4B d   1      -5.408   5.830   1.458  0.00  0.00    -0.013 C 
ATOM      9  C4' I4B d   1      -4.021   5.984   2.024  0.00  0.00     0.013 C 
ATOM     10  C3' I4B d   1      -5.407   6.000  -0.032  0.00  0.00     0.013 C 
ENDBRANCH   7   8
ENDBRANCH   1   7
TORSDOF 2
ENDMDL
