MODEL 1
REMARK minimizedAffinity -2.10993958
REMARK minimizedRMSD -1
REMARK  2 active torsions:
REMARK  status: ('A' for Active; 'I' for Inactive)
REMARK    1  A    between atoms: C2'_3  and  C1'_4 
REMARK    2  A    between atoms: C1'_4  and  C1_5 
ROOT
ATOM      1  C1  I4B d   1      -5.836   3.597   3.340  0.00  0.00    -0.075 A 
ATOM      2  C2  I4B d   1      -6.000   4.514   4.348  0.00  0.00     0.003 A 
ATOM      3  C3  I4B d   1      -5.915   4.108   5.702  0.00  0.00     0.002 A 
ATOM      4  C4  I4B d   1      -5.716   2.775   6.000  0.00  0.00    -0.004 A 
ATOM      5  C5  I4B d   1      -5.527   1.851   4.976  0.00  0.00     0.002 A 
ATOM      6  C6  I4B d   1      -5.575   2.266   3.638  0.00  0.00     0.003 A 
ENDROOT
BRANCH   1   7
ATOM      7  C1' I4B d   1      -5.965   4.055   1.921  0.00  0.00     0.060 C 
BRANCH   7   8
ATOM      8  C2' I4B d   1      -5.519   5.501   1.855  0.00  0.00    -0.013 C 
ATOM      9  C4' I4B d   1      -4.067   5.642   2.230  0.00  0.00     0.013 C 
ATOM     10  C3' I4B d   1      -5.769   5.999   0.463  0.00  0.00     0.013 C 
ENDBRANCH   7   8
ENDBRANCH   1   7
TORSDOF 2
ENDMDL
