MODEL 1
REMARK minimizedAffinity -1.47115374
REMARK minimizedRMSD -1
REMARK  2 active torsions:
REMARK  status: ('A' for Active; 'I' for Inactive)
REMARK    1  A    between atoms: C2'_3  and  C1'_4 
REMARK    2  A    between atoms: C1'_4  and  C1_5 
ROOT
ATOM      1  C1  I4B d   1      -5.271   4.786   4.176  0.00  0.00    -0.075 A 
ATOM      2  C2  I4B d   1      -5.999   4.085   3.247  0.00  0.00     0.003 A 
ATOM      3  C3  I4B d   1      -5.810   4.323   1.865  0.00  0.00     0.002 A 
ATOM      4  C4  I4B d   1      -4.924   5.301   1.459  0.00  0.00    -0.004 A 
ATOM      5  C5  I4B d   1      -4.170   5.995   2.401  0.00  0.00     0.002 A 
ATOM      6  C6  I4B d   1      -4.335   5.727   3.767  0.00  0.00     0.003 A 
ENDROOT
BRANCH   1   7
ATOM      7  C1' I4B d   1      -5.521   4.532   5.629  0.00  0.00     0.060 C 
BRANCH   7   8
ATOM      8  C2' I4B d   1      -4.836   3.233   6.000  0.00  0.00    -0.013 C 
ATOM      9  C4' I4B d   1      -5.805   2.080   5.974  0.00  0.00     0.013 C 
ATOM     10  C3' I4B d   1      -3.707   3.013   5.038  0.00  0.00     0.013 C 
ENDBRANCH   7   8
ENDBRANCH   1   7
TORSDOF 2
ENDMDL
