MODEL 1
REMARK minimizedAffinity -2.39822078
REMARK minimizedRMSD -1
REMARK  2 active torsions:
REMARK  status: ('A' for Active; 'I' for Inactive)
REMARK    1  A    between atoms: C2'_3  and  C1'_4 
REMARK    2  A    between atoms: C1'_4  and  C1_5 
ROOT
ATOM      1  C1  I4B d   1      -5.044   4.697   4.161  0.00  0.00    -0.075 A 
ATOM      2  C2  I4B d   1      -6.000   4.405   5.101  0.00  0.00     0.003 A 
ATOM      3  C3  I4B d   1      -5.836   3.294   5.964  0.00  0.00     0.002 A 
ATOM      4  C4  I4B d   1      -4.732   2.478   5.819  0.00  0.00    -0.004 A 
ATOM      5  C5  I4B d   1      -3.752   2.789   4.880  0.00  0.00     0.002 A 
ATOM      6  C6  I4B d   1      -3.902   3.912   4.054  0.00  0.00     0.003 A 
ENDROOT
BRANCH   1   7
ATOM      7  C1' I4B d   1      -5.265   5.858   3.245  0.00  0.00     0.060 C 
BRANCH   7   8
ATOM      8  C2' I4B d   1      -5.821   5.324   1.940  0.00  0.00    -0.013 C 
ATOM      9  C4' I4B d   1      -4.912   5.652   0.785  0.00  0.00     0.013 C 
ATOM     10  C3' I4B d   1      -6.000   3.842   2.085  0.00  0.00     0.013 C 
ENDBRANCH   7   8
ENDBRANCH   1   7
TORSDOF 2
ENDMDL
