MODEL 1
REMARK minimizedAffinity -2.67445993
REMARK minimizedRMSD -1
REMARK  2 active torsions:
REMARK  status: ('A' for Active; 'I' for Inactive)
REMARK    1  A    between atoms: C2'_3  and  C1'_4 
REMARK    2  A    between atoms: C1'_4  and  C1_5 
ROOT
ATOM      1  C1  I4B d   1      -4.536   4.266   3.605  0.00  0.00    -0.075 A 
ATOM      2  C2  I4B d   1      -5.399   3.315   3.121  0.00  0.00     0.003 A 
ATOM      3  C3  I4B d   1      -5.999   3.478   1.849  0.00  0.00     0.002 A 
ATOM      4  C4  I4B d   1      -5.748   4.624   1.121  0.00  0.00    -0.004 A 
ATOM      5  C5  I4B d   1      -4.855   5.576   1.603  0.00  0.00     0.002 A 
ATOM      6  C6  I4B d   1      -4.236   5.391   2.848  0.00  0.00     0.003 A 
ENDROOT
BRANCH   1   7
ATOM      7  C1' I4B d   1      -3.946   4.078   4.967  0.00  0.00     0.060 C 
BRANCH   7   8
ATOM      8  C2' I4B d   1      -5.048   4.288   5.986  0.00  0.00    -0.013 C 
ATOM      9  C4' I4B d   1      -5.761   5.594   5.756  0.00  0.00     0.013 C 
ATOM     10  C3' I4B d   1      -5.995   3.130   5.889  0.00  0.00     0.013 C 
ENDBRANCH   7   8
ENDBRANCH   1   7
TORSDOF 2
ENDMDL
