MODEL 1
REMARK minimizedAffinity -4.08486843
REMARK minimizedRMSD -1
REMARK  0 active torsions:
REMARK  status: ('A' for Active; 'I' for Inactive)
ROOT
ATOM      1  C1  BNZ d   1      -1.024  -0.053  -0.186  0.00  0.00     0.000 A 
ATOM      2  C2  BNZ d   1      -2.122   0.333   0.535  0.00  0.00     0.000 A 
ATOM      3  C3  BNZ d   1      -1.996   0.760   1.828  0.00  0.00     0.000 A 
ATOM      4  C4  BNZ d   1      -0.780   0.763   2.409  0.00  0.00     0.000 A 
ATOM      5  C5  BNZ d   1       0.336   0.368   1.698  0.00  0.00     0.000 A 
ATOM      6  C6  BNZ d   1       0.211  -0.024   0.386  0.00  0.00     0.000 A 
ENDROOT
TORSDOF 0
ENDMDL
