MODEL 1
REMARK minimizedAffinity -4.12047243
REMARK minimizedRMSD -1
REMARK  0 active torsions:
REMARK  status: ('A' for Active; 'I' for Inactive)
ROOT
ATOM      1  C1  BNZ d   1       0.327   1.030   1.336  0.00  0.00     0.000 A 
ATOM      2  C2  BNZ d   1       0.060   1.414   2.622  0.00  0.00     0.000 A 
ATOM      3  C3  BNZ d   1      -1.086   1.012   3.249  0.00  0.00     0.000 A 
ATOM      4  C4  BNZ d   1      -1.981   0.261   2.577  0.00  0.00     0.000 A 
ATOM      5  C5  BNZ d   1      -1.731  -0.128   1.276  0.00  0.00     0.000 A 
ATOM      6  C6  BNZ d   1      -0.558   0.247   0.661  0.00  0.00     0.000 A 
ENDROOT
TORSDOF 0
ENDMDL
