MODEL 1
REMARK minimizedAffinity -4.53968334
REMARK minimizedRMSD -1
REMARK  0 active torsions:
REMARK  status: ('A' for Active; 'I' for Inactive)
ROOT
ATOM      1  C1  BNZ d   1      -1.065   0.037   0.165  0.00  0.00     0.000 A 
ATOM      2  C2  BNZ d   1      -2.098   0.368   1.000  0.00  0.00     0.000 A 
ATOM      3  C3  BNZ d   1      -1.856   0.841   2.260  0.00  0.00     0.000 A 
ATOM      4  C4  BNZ d   1      -0.584   0.944   2.696  0.00  0.00     0.000 A 
ATOM      5  C5  BNZ d   1       0.468   0.605   1.869  0.00  0.00     0.000 A 
ATOM      6  C6  BNZ d   1       0.222   0.166   0.588  0.00  0.00     0.000 A 
ENDROOT
TORSDOF 0
ENDMDL
