MODEL 1
REMARK minimizedAffinity -4.49927759
REMARK minimizedRMSD -1
REMARK  0 active torsions:
REMARK  status: ('A' for Active; 'I' for Inactive)
ROOT
ATOM      1  C1  BNZ d   1      -1.642   0.389   1.153  0.00  0.00     0.000 A 
ATOM      2  C2  BNZ d   1      -0.516  -0.065   0.519  0.00  0.00     0.000 A 
ATOM      3  C3  BNZ d   1       0.727   0.273   0.976  0.00  0.00     0.000 A 
ATOM      4  C4  BNZ d   1       0.843   1.095   2.038  0.00  0.00     0.000 A 
ATOM      5  C5  BNZ d   1      -0.283   1.568   2.682  0.00  0.00     0.000 A 
ATOM      6  C6  BNZ d   1      -1.533   1.195   2.244  0.00  0.00     0.000 A 
ENDROOT
TORSDOF 0
ENDMDL
