MODEL 1
REMARK minimizedAffinity -4.04844427
REMARK minimizedRMSD -1
REMARK  0 active torsions:
REMARK  status: ('A' for Active; 'I' for Inactive)
ROOT
ATOM      1  C1  BNZ d   1      -1.096   1.309   2.354  0.00  0.00     0.000 A 
ATOM      2  C2  BNZ d   1      -1.886   0.584   1.501  0.00  0.00     0.000 A 
ATOM      3  C3  BNZ d   1      -1.333  -0.157   0.495  0.00  0.00     0.000 A 
ATOM      4  C4  BNZ d   1       0.004  -0.142   0.318  0.00  0.00     0.000 A 
ATOM      5  C5  BNZ d   1       0.813   0.591   1.163  0.00  0.00     0.000 A 
ATOM      6  C6  BNZ d   1       0.256   1.305   2.199  0.00  0.00     0.000 A 
ENDROOT
TORSDOF 0
ENDMDL
