MODEL 1
REMARK minimizedAffinity -4.76639271
REMARK minimizedRMSD -1
REMARK  0 active torsions:
REMARK  status: ('A' for Active; 'I' for Inactive)
ROOT
ATOM      1  C1  BNZ d   1       0.188   1.606   2.240  0.00  0.00     0.000 A 
ATOM      2  C2  BNZ d   1      -1.086   1.573   2.742  0.00  0.00     0.000 A 
ATOM      3  C3  BNZ d   1      -2.017   0.711   2.233  0.00  0.00     0.000 A 
ATOM      4  C4  BNZ d   1      -1.685  -0.086   1.197  0.00  0.00     0.000 A 
ATOM      5  C5  BNZ d   1      -0.408  -0.057   0.673  0.00  0.00     0.000 A 
ATOM      6  C6  BNZ d   1       0.538   0.784   1.215  0.00  0.00     0.000 A 
ENDROOT
TORSDOF 0
ENDMDL
