MODEL 1
REMARK minimizedAffinity -4.18621063
REMARK minimizedRMSD -1
REMARK  0 active torsions:
REMARK  status: ('A' for Active; 'I' for Inactive)
ROOT
ATOM      1  C1  BNZ d   1       0.198  -0.002  -5.165  0.00  0.00     0.000 A 
ATOM      2  C2  BNZ d   1       1.476   0.473  -5.299  0.00  0.00     0.000 A 
ATOM      3  C3  BNZ d   1       1.999   1.342  -4.382  0.00  0.00     0.000 A 
ATOM      4  C4  BNZ d   1       1.232   1.766  -3.358  0.00  0.00     0.000 A 
ATOM      5  C5  BNZ d   1      -0.061   1.304  -3.214  0.00  0.00     0.000 A 
ATOM      6  C6  BNZ d   1      -0.571   0.399  -4.117  0.00  0.00     0.000 A 
ENDROOT
TORSDOF 0
ENDMDL
