MODEL 1
REMARK minimizedAffinity -4.64133072
REMARK minimizedRMSD -1
REMARK  0 active torsions:
REMARK  status: ('A' for Active; 'I' for Inactive)
ROOT
ATOM      1  C1  BNZ d   1      -0.431  -0.202   0.168  0.00  0.00     0.000 A 
ATOM      2  C2  BNZ d   1      -1.711  -0.126   0.650  0.00  0.00     0.000 A 
ATOM      3  C3  BNZ d   1      -1.976   0.501   1.836  0.00  0.00     0.000 A 
ATOM      4  C4  BNZ d   1      -0.959   1.014   2.557  0.00  0.00     0.000 A 
ATOM      5  C5  BNZ d   1       0.338   0.937   2.089  0.00  0.00     0.000 A 
ATOM      6  C6  BNZ d   1       0.597   0.340   0.876  0.00  0.00     0.000 A 
ENDROOT
TORSDOF 0
ENDMDL
