MODEL 1
REMARK minimizedAffinity -4.8731184
REMARK minimizedRMSD -1
REMARK  0 active torsions:
REMARK  status: ('A' for Active; 'I' for Inactive)
ROOT
ATOM      1  C1  BNZ d   1      -1.916   0.131   1.049  0.00  0.00     0.000 A 
ATOM      2  C2  BNZ d   1      -0.759   0.086   0.318  0.00  0.00     0.000 A 
ATOM      3  C3  BNZ d   1       0.405   0.599   0.818  0.00  0.00     0.000 A 
ATOM      4  C4  BNZ d   1       0.403   1.191   2.030  0.00  0.00     0.000 A 
ATOM      5  C5  BNZ d   1      -0.758   1.253   2.775  0.00  0.00     0.000 A 
ATOM      6  C6  BNZ d   1      -1.919   0.701   2.285  0.00  0.00     0.000 A 
ENDROOT
TORSDOF 0
ENDMDL
