MODEL 1
REMARK minimizedAffinity -5.03147125
REMARK minimizedRMSD -1
REMARK  0 active torsions:
REMARK  status: ('A' for Active; 'I' for Inactive)
ROOT
ATOM      1  C1  BNZ d   1       1.505  -0.563   1.413  0.00  0.00     0.000 A 
ATOM      2  C2  BNZ d   1       1.290  -0.316   2.743  0.00  0.00     0.000 A 
ATOM      3  C3  BNZ d   1       0.208   0.413   3.154  0.00  0.00     0.000 A 
ATOM      4  C4  BNZ d   1      -0.633   0.926   2.233  0.00  0.00     0.000 A 
ATOM      5  C5  BNZ d   1      -0.425   0.693   0.888  0.00  0.00     0.000 A 
ATOM      6  C6  BNZ d   1       0.643  -0.073   0.481  0.00  0.00     0.000 A 
ENDROOT
TORSDOF 0
ENDMDL
