MODEL 1
REMARK minimizedAffinity -4.26192188
REMARK minimizedRMSD -1
REMARK  0 active torsions:
REMARK  status: ('A' for Active; 'I' for Inactive)
ROOT
ATOM      1  C   UNL d   1      -0.374  -5.645  -2.271  0.00  0.00     0.078 C 
ATOM      2  C1  UNL d   1       0.365  -5.688  -3.575  0.00  0.00    -0.077 A 
ATOM      3  C2  UNL d   1      -0.325  -5.723  -4.794  0.00  0.00    -0.001 A 
ATOM      4  C3  UNL d   1       0.376  -5.773  -6.000  0.00  0.00     0.003 A 
ATOM      5  C4  UNL d   1       1.769  -5.789  -6.000  0.00  0.00    -0.005 A 
ATOM      6  C5  UNL d   1       2.464  -5.757  -4.792  0.00  0.00     0.003 A 
ATOM      7  C6  UNL d   1       1.765  -5.707  -3.585  0.00  0.00    -0.001 A 
ENDROOT
TORSDOF 0
ENDMDL
