MODEL 1
REMARK minimizedAffinity -0.183415025
REMARK minimizedRMSD -1
REMARK  0 active torsions:
REMARK  status: ('A' for Active; 'I' for Inactive)
ROOT
ATOM      1  C   UNL d   1      -0.786  -0.190   3.123  0.00  0.00     0.078 C 
ATOM      2  C1  UNL d   1      -1.312  -0.020   1.729  0.00  0.00    -0.077 A 
ATOM      3  C2  UNL d   1      -1.885  -1.095   1.039  0.00  0.00    -0.001 A 
ATOM      4  C3  UNL d   1      -2.362  -0.925  -0.262  0.00  0.00     0.003 A 
ATOM      5  C4  UNL d   1      -2.270   0.318  -0.884  0.00  0.00    -0.005 A 
ATOM      6  C5  UNL d   1      -1.699   1.393  -0.206  0.00  0.00     0.003 A 
ATOM      7  C6  UNL d   1      -1.222   1.225   1.095  0.00  0.00    -0.001 A 
ENDROOT
TORSDOF 0
ENDMDL
