MODEL 1
REMARK minimizedAffinity -2.51372337
REMARK minimizedRMSD -1
REMARK  0 active torsions:
REMARK  status: ('A' for Active; 'I' for Inactive)
ROOT
ATOM      1  C   UNL d   1      -2.953  -1.408   3.164  0.00  0.00     0.078 C 
ATOM      2  C1  UNL d   1      -1.472  -1.197   3.056  0.00  0.00    -0.077 A 
ATOM      3  C2  UNL d   1      -0.928  -0.417   2.027  0.00  0.00    -0.001 A 
ATOM      4  C3  UNL d   1       0.453  -0.237   1.933  0.00  0.00     0.003 A 
ATOM      5  C4  UNL d   1       1.301  -0.834   2.863  0.00  0.00    -0.005 A 
ATOM      6  C5  UNL d   1       0.769  -1.613   3.889  0.00  0.00     0.003 A 
ATOM      7  C6  UNL d   1      -0.611  -1.794   3.985  0.00  0.00    -0.001 A 
ENDROOT
TORSDOF 0
ENDMDL
