MODEL 1
REMARK minimizedAffinity -1.80207837
REMARK minimizedRMSD -1
REMARK  0 active torsions:
REMARK  status: ('A' for Active; 'I' for Inactive)
ROOT
ATOM      1  C   UNL d   1      -0.584   0.238   1.215  0.00  0.00     0.078 C 
ATOM      2  C1  UNL d   1      -0.596  -0.659   2.416  0.00  0.00    -0.077 A 
ATOM      3  C2  UNL d   1       0.588  -0.975   3.092  0.00  0.00    -0.001 A 
ATOM      4  C3  UNL d   1       0.562  -1.820   4.204  0.00  0.00     0.003 A 
ATOM      5  C4  UNL d   1      -0.645  -2.356   4.647  0.00  0.00    -0.005 A 
ATOM      6  C5  UNL d   1      -1.828  -2.049   3.979  0.00  0.00     0.003 A 
ATOM      7  C6  UNL d   1      -1.805  -1.204   2.868  0.00  0.00    -0.001 A 
ENDROOT
TORSDOF 0
ENDMDL
