MODEL 1
REMARK minimizedAffinity -5.4261179
REMARK minimizedRMSD -1
REMARK  0 active torsions:
REMARK  status: ('A' for Active; 'I' for Inactive)
ROOT
ATOM      1  C   UNL d   1       1.404   0.501   1.547  0.00  0.00     0.078 C 
ATOM      2  C1  UNL d   1       0.763  -0.281   2.654  0.00  0.00    -0.077 A 
ATOM      3  C2  UNL d   1       1.516  -1.152   3.451  0.00  0.00    -0.001 A 
ATOM      4  C3  UNL d   1       0.905  -1.881   4.473  0.00  0.00     0.003 A 
ATOM      5  C4  UNL d   1      -0.462  -1.748   4.706  0.00  0.00    -0.005 A 
ATOM      6  C5  UNL d   1      -1.220  -0.886   3.916  0.00  0.00     0.003 A 
ATOM      7  C6  UNL d   1      -0.611  -0.156   2.895  0.00  0.00    -0.001 A 
ENDROOT
TORSDOF 0
ENDMDL
