MODEL 1
REMARK minimizedAffinity -0.673436105
REMARK minimizedRMSD -1
REMARK  0 active torsions:
REMARK  status: ('A' for Active; 'I' for Inactive)
ROOT
ATOM      1  C   UNL d   1       1.492  -2.151   4.356  0.00  0.00     0.078 C 
ATOM      2  C1  UNL d   1       0.893  -1.401   3.204  0.00  0.00    -0.077 A 
ATOM      3  C2  UNL d   1       1.696  -0.907   2.169  0.00  0.00    -0.001 A 
ATOM      4  C3  UNL d   1       1.126  -0.202   1.108  0.00  0.00     0.003 A 
ATOM      5  C4  UNL d   1      -0.250   0.016   1.072  0.00  0.00    -0.005 A 
ATOM      6  C5  UNL d   1      -1.057  -0.470   2.098  0.00  0.00     0.003 A 
ATOM      7  C6  UNL d   1      -0.488  -1.175   3.161  0.00  0.00    -0.001 A 
ENDROOT
TORSDOF 0
ENDMDL
