MODEL 1
REMARK minimizedAffinity 4.63507557
REMARK minimizedRMSD -1
REMARK  0 active torsions:
REMARK  status: ('A' for Active; 'I' for Inactive)
ROOT
ATOM      1  C   UNL d   1      -0.753  -5.987  -6.000  0.00  0.00     0.078 C 
ATOM      2  C1  UNL d   1       0.117  -5.555  -4.858  0.00  0.00    -0.077 A 
ATOM      3  C2  UNL d   1      -0.131  -6.000  -3.553  0.00  0.00    -0.001 A 
ATOM      4  C3  UNL d   1       0.682  -5.582  -2.498  0.00  0.00     0.003 A 
ATOM      5  C4  UNL d   1       1.748  -4.716  -2.737  0.00  0.00    -0.005 A 
ATOM      6  C5  UNL d   1       2.001  -4.267  -4.031  0.00  0.00     0.003 A 
ATOM      7  C6  UNL d   1       1.190  -4.684  -5.087  0.00  0.00    -0.001 A 
ENDROOT
TORSDOF 0
ENDMDL
