MODEL 1
REMARK minimizedAffinity -2.44555092
REMARK minimizedRMSD -1
REMARK  0 active torsions:
REMARK  status: ('A' for Active; 'I' for Inactive)
ROOT
ATOM      1  C   UNL d   1      -0.023  -5.999  -6.000  0.00  0.00     0.078 C 
ATOM      2  C1  UNL d   1       0.589  -5.584  -4.696  0.00  0.00    -0.077 A 
ATOM      3  C2  UNL d   1       0.039  -5.997  -3.476  0.00  0.00    -0.001 A 
ATOM      4  C3  UNL d   1       0.613  -5.594  -2.270  0.00  0.00     0.003 A 
ATOM      5  C4  UNL d   1       1.741  -4.776  -2.270  0.00  0.00    -0.005 A 
ATOM      6  C5  UNL d   1       2.295  -4.358  -3.479  0.00  0.00     0.003 A 
ATOM      7  C6  UNL d   1       1.721  -4.759  -4.686  0.00  0.00    -0.001 A 
ENDROOT
TORSDOF 0
ENDMDL
