MODEL 1
REMARK minimizedAffinity 2.49587417
REMARK minimizedRMSD -1
REMARK  0 active torsions:
REMARK  status: ('A' for Active; 'I' for Inactive)
ROOT
ATOM      1  O1  BZF d   1       1.436   1.047  -2.072  0.00  0.00    -0.204 OA
ATOM      2  C2  BZF d   1       2.218   2.046  -1.525  0.00  0.00     0.174 A 
ATOM      3  C3  BZF d   1       2.016   2.137  -0.195  0.00  0.00    -0.012 A 
ATOM      4  C3A BZF d   1       1.115   1.072   0.123  0.00  0.00    -0.107 A 
ATOM      5  C4  BZF d   1       0.552   0.635   1.288  0.00  0.00     0.055 A 
ATOM      6  C5  BZF d   1      -0.343  -0.387   1.246  0.00  0.00    -0.016 A 
ATOM      7  C6  BZF d   1      -0.701  -0.991   0.058  0.00  0.00     0.022 A 
ATOM      8  C7  BZF d   1      -0.165  -0.595  -1.123  0.00  0.00     0.029 A 
ATOM      9  C7A BZF d   1       0.764   0.416  -1.080  0.00  0.00     0.058 A 
ENDROOT
TORSDOF 0
ENDMDL
