MODEL 1
REMARK minimizedAffinity 6.44294882
REMARK minimizedRMSD -1
REMARK  0 active torsions:
REMARK  status: ('A' for Active; 'I' for Inactive)
ROOT
ATOM      1  O1  BZF d   1      -3.029  -0.052   4.205  0.00  0.00    -0.204 OA
ATOM      2  C2  BZF d   1      -2.906  -1.415   4.395  0.00  0.00     0.174 A 
ATOM      3  C3  BZF d   1      -1.736  -1.864   3.898  0.00  0.00    -0.012 A 
ATOM      4  C3A BZF d   1      -1.046  -0.695   3.446  0.00  0.00    -0.107 A 
ATOM      5  C4  BZF d   1       0.174  -0.490   2.868  0.00  0.00     0.055 A 
ATOM      6  C5  BZF d   1       0.518   0.766   2.480  0.00  0.00    -0.016 A 
ATOM      7  C6  BZF d   1      -0.334   1.837   2.649  0.00  0.00     0.022 A 
ATOM      8  C7  BZF d   1      -1.553   1.684   3.222  0.00  0.00     0.029 A 
ATOM      9  C7A BZF d   1      -1.890   0.421   3.645  0.00  0.00     0.058 A 
ENDROOT
TORSDOF 0
ENDMDL
