MODEL 1
REMARK minimizedAffinity 12.8527861
REMARK minimizedRMSD -1
REMARK  0 active torsions:
REMARK  status: ('A' for Active; 'I' for Inactive)
ROOT
ATOM      1  O1  BZF d   1       1.450  -1.047   2.325  0.00  0.00    -0.204 OA
ATOM      2  C2  BZF d   1       0.310  -0.387   2.741  0.00  0.00     0.174 A 
ATOM      3  C3  BZF d   1       0.012   0.628   1.904  0.00  0.00    -0.012 A 
ATOM      4  C3A BZF d   1       0.977   0.542   0.851  0.00  0.00    -0.107 A 
ATOM      5  C4  BZF d   1       1.192   1.266  -0.287  0.00  0.00     0.055 A 
ATOM      6  C5  BZF d   1       2.265   0.970  -1.066  0.00  0.00    -0.016 A 
ATOM      7  C6  BZF d   1       3.145  -0.039  -0.736  0.00  0.00     0.022 A 
ATOM      8  C7  BZF d   1       2.971  -0.788   0.380  0.00  0.00     0.029 A 
ATOM      9  C7A BZF d   1       1.869  -0.513   1.152  0.00  0.00     0.058 A 
ENDROOT
TORSDOF 0
ENDMDL
