MODEL 1
REMARK minimizedAffinity 5.54755116
REMARK minimizedRMSD -1
REMARK  0 active torsions:
REMARK  status: ('A' for Active; 'I' for Inactive)
ROOT
ATOM      1  O1  BZF d   1       2.013  -0.832   2.018  0.00  0.00    -0.204 OA
ATOM      2  C2  BZF d   1       3.103  -0.195   2.579  0.00  0.00     0.174 A 
ATOM      3  C3  BZF d   1       2.733   0.968   3.154  0.00  0.00    -0.012 A 
ATOM      4  C3A BZF d   1       1.309   1.018   3.019  0.00  0.00    -0.107 A 
ATOM      5  C4  BZF d   1       0.360   1.921   3.406  0.00  0.00     0.055 A 
ATOM      6  C5  BZF d   1      -0.935   1.709   3.056  0.00  0.00    -0.016 A 
ATOM      7  C6  BZF d   1      -1.316   0.609   2.315  0.00  0.00     0.022 A 
ATOM      8  C7  BZF d   1      -0.412  -0.316   1.912  0.00  0.00     0.029 A 
ATOM      9  C7A BZF d   1       0.893  -0.122   2.293  0.00  0.00     0.058 A 
ENDROOT
TORSDOF 0
ENDMDL
