MODEL 1
REMARK minimizedAffinity 9.58194351
REMARK minimizedRMSD -1
REMARK  0 active torsions:
REMARK  status: ('A' for Active; 'I' for Inactive)
ROOT
ATOM      1  O1  BZF d   1       1.106  -0.791   1.331  0.00  0.00    -0.204 OA
ATOM      2  C2  BZF d   1       2.382  -0.263   1.276  0.00  0.00     0.174 A 
ATOM      3  C3  BZF d   1       2.458   0.878   1.990  0.00  0.00    -0.012 A 
ATOM      4  C3A BZF d   1       1.173   1.026   2.601  0.00  0.00    -0.107 A 
ATOM      5  C4  BZF d   1       0.635   1.958   3.443  0.00  0.00     0.055 A 
ATOM      6  C5  BZF d   1      -0.673   1.852   3.796  0.00  0.00    -0.016 A 
ATOM      7  C6  BZF d   1      -1.473   0.832   3.323  0.00  0.00     0.022 A 
ATOM      8  C7  BZF d   1      -0.983  -0.119   2.490  0.00  0.00     0.029 A 
ATOM      9  C7A BZF d   1       0.347  -0.033   2.158  0.00  0.00     0.058 A 
ENDROOT
TORSDOF 0
ENDMDL
