MODEL 1
REMARK minimizedAffinity 4.67809105
REMARK minimizedRMSD -1
REMARK  0 active torsions:
REMARK  status: ('A' for Active; 'I' for Inactive)
ROOT
ATOM      1  O1  BZF d   1      -1.045  -3.722  -2.417  0.00  0.00    -0.204 OA
ATOM      2  C2  BZF d   1      -0.679  -5.003  -2.781  0.00  0.00     0.174 A 
ATOM      3  C3  BZF d   1      -0.042  -4.999  -3.969  0.00  0.00    -0.012 A 
ATOM      4  C3A BZF d   1       0.075  -3.619  -4.329  0.00  0.00    -0.107 A 
ATOM      5  C4  BZF d   1       0.628  -2.971  -5.396  0.00  0.00     0.055 A 
ATOM      6  C5  BZF d   1       0.509  -1.620  -5.482  0.00  0.00    -0.016 A 
ATOM      7  C6  BZF d   1      -0.160  -0.888  -4.524  0.00  0.00     0.022 A 
ATOM      8  C7  BZF d   1      -0.721  -1.486  -3.445  0.00  0.00     0.029 A 
ATOM      9  C7A BZF d   1      -0.574  -2.847  -3.338  0.00  0.00     0.058 A 
ENDROOT
TORSDOF 0
ENDMDL
