MODEL 1
REMARK minimizedAffinity 16.6014614
REMARK minimizedRMSD -1
REMARK  0 active torsions:
REMARK  status: ('A' for Active; 'I' for Inactive)
ROOT
ATOM      1  O1  BZF d   1      -1.218  -4.329  -0.984  0.00  0.00    -0.204 OA
ATOM      2  C2  BZF d   1      -1.695  -3.037  -0.885  0.00  0.00     0.174 A 
ATOM      3  C3  BZF d   1      -1.967  -2.533  -2.106  0.00  0.00    -0.012 A 
ATOM      4  C3A BZF d   1      -1.726  -3.608  -3.019  0.00  0.00    -0.107 A 
ATOM      5  C4  BZF d   1      -1.835  -3.731  -4.375  0.00  0.00     0.055 A 
ATOM      6  C5  BZF d   1      -1.453  -4.893  -4.966  0.00  0.00    -0.016 A 
ATOM      7  C6  BZF d   1      -0.954  -5.950  -4.233  0.00  0.00     0.022 A 
ATOM      8  C7  BZF d   1      -0.832  -5.878  -2.885  0.00  0.00     0.029 A 
ATOM      9  C7A BZF d   1      -1.248  -4.716  -2.282  0.00  0.00     0.058 A 
ENDROOT
TORSDOF 0
ENDMDL
