MODEL 1
REMARK minimizedAffinity 5.55889845
REMARK minimizedRMSD -1
REMARK  0 active torsions:
REMARK  status: ('A' for Active; 'I' for Inactive)
ROOT
ATOM      1  N1  IND d   1       4.087   4.122  -4.793  0.00  0.00    -0.196 N 
ATOM      2  C2  IND d   1       4.775   5.131  -5.406  0.00  0.00     0.054 A 
ATOM      3  C3  IND d   1       3.919   5.994  -5.998  0.00  0.00    -0.031 A 
ATOM      4  C4  IND d   1       1.344   5.998  -5.999  0.00  0.00     0.051 A 
ATOM      5  C5  IND d   1       0.265   5.259  -5.603  0.00  0.00    -0.031 A 
ATOM      6  C6  IND d   1       0.408   4.080  -4.900  0.00  0.00     0.015 A 
ATOM      7  C7  IND d   1       1.640   3.601  -4.555  0.00  0.00    -0.016 A 
ATOM      8  C8  IND d   1       2.738   4.346  -4.962  0.00  0.00    -0.047 A 
ATOM      9  C9  IND d   1       2.601   5.520  -5.713  0.00  0.00    -0.096 A 
ATOM     10  HN1 IND d   1       4.437   3.459  -4.372  0.00  0.00     0.298 HD
ENDROOT
TORSDOF 0
ENDMDL
