MODEL 1
REMARK minimizedAffinity 9.75065136
REMARK minimizedRMSD -1
REMARK  0 active torsions:
REMARK  status: ('A' for Active; 'I' for Inactive)
ROOT
ATOM      1  N1  IND d   1       0.881  -4.873   0.116  0.00  0.00    -0.196 N 
ATOM      2  C2  IND d   1       2.024  -5.608   0.267  0.00  0.00     0.054 A 
ATOM      3  C3  IND d   1       3.022  -4.833   0.747  0.00  0.00    -0.031 A 
ATOM      4  C4  IND d   1       2.976  -2.358   1.452  0.00  0.00     0.051 A 
ATOM      5  C5  IND d   1       2.166  -1.256   1.465  0.00  0.00    -0.031 A 
ATOM      6  C6  IND d   1       0.860  -1.306   1.022  0.00  0.00     0.015 A 
ATOM      7  C7  IND d   1       0.309  -2.467   0.559  0.00  0.00    -0.016 A 
ATOM      8  C8  IND d   1       1.130  -3.586   0.538  0.00  0.00    -0.047 A 
ATOM      9  C9  IND d   1       2.469  -3.531   0.946  0.00  0.00    -0.096 A 
ATOM     10  HN1 IND d   1       0.133  -5.166  -0.190  0.00  0.00     0.298 HD
ENDROOT
TORSDOF 0
ENDMDL
