MODEL 1
REMARK minimizedAffinity 9.67191505
REMARK minimizedRMSD -1
REMARK  0 active torsions:
REMARK  status: ('A' for Active; 'I' for Inactive)
ROOT
ATOM      1  N1  IND d   1       5.893  -3.792   0.360  0.00  0.00    -0.196 N 
ATOM      2  C2  IND d   1       5.847  -5.100  -0.035  0.00  0.00     0.054 A 
ATOM      3  C3  IND d   1       4.565  -5.526  -0.103  0.00  0.00    -0.031 A 
ATOM      4  C4  IND d   1       2.384  -4.217   0.290  0.00  0.00     0.051 A 
ATOM      5  C5  IND d   1       1.917  -3.002   0.704  0.00  0.00    -0.031 A 
ATOM      6  C6  IND d   1       2.768  -1.966   1.029  0.00  0.00     0.015 A 
ATOM      7  C7  IND d   1       4.124  -2.104   0.940  0.00  0.00    -0.016 A 
ATOM      8  C8  IND d   1       4.602  -3.339   0.526  0.00  0.00    -0.047 A 
ATOM      9  C9  IND d   1       3.744  -4.408   0.237  0.00  0.00    -0.096 A 
ATOM     10  HN1 IND d   1       6.607  -3.330   0.483  0.00  0.00     0.298 HD
ENDROOT
TORSDOF 0
ENDMDL
