MODEL 1
REMARK minimizedAffinity 3.16658926
REMARK minimizedRMSD -1
REMARK  0 active torsions:
REMARK  status: ('A' for Active; 'I' for Inactive)
ROOT
ATOM      1  N1  IND d   1      -4.914   1.563  -2.907  0.00  0.00    -0.196 N 
ATOM      2  C2  IND d   1      -4.122   1.880  -1.839  0.00  0.00     0.054 A 
ATOM      3  C3  IND d   1      -3.361   0.819  -1.487  0.00  0.00    -0.031 A 
ATOM      4  C4  IND d   1      -3.181  -1.501  -2.587  0.00  0.00     0.051 A 
ATOM      5  C5  IND d   1      -3.735  -2.274  -3.570  0.00  0.00    -0.031 A 
ATOM      6  C6  IND d   1      -4.728  -1.796  -4.400  0.00  0.00     0.015 A 
ATOM      7  C7  IND d   1      -5.199  -0.518  -4.285  0.00  0.00    -0.016 A 
ATOM      8  C8  IND d   1      -4.644   0.266  -3.284  0.00  0.00    -0.047 A 
ATOM      9  C9  IND d   1      -3.666  -0.227  -2.411  0.00  0.00    -0.096 A 
ATOM     10  HN1 IND d   1      -5.485   2.086  -3.280  0.00  0.00     0.298 HD
ENDROOT
TORSDOF 0
ENDMDL
