MODEL 1
REMARK minimizedAffinity 16.2923012
REMARK minimizedRMSD -1
REMARK  0 active torsions:
REMARK  status: ('A' for Active; 'I' for Inactive)
ROOT
ATOM      1  N1  IND d   1       1.130  -4.492  -0.033  0.00  0.00    -0.196 N 
ATOM      2  C2  IND d   1       2.432  -4.909  -0.022  0.00  0.00     0.054 A 
ATOM      3  C3  IND d   1       3.235  -3.932   0.455  0.00  0.00    -0.031 A 
ATOM      4  C4  IND d   1       2.616  -1.608   1.372  0.00  0.00     0.051 A 
ATOM      5  C5  IND d   1       1.556  -0.761   1.533  0.00  0.00    -0.031 A 
ATOM      6  C6  IND d   1       0.273  -1.123   1.176  0.00  0.00     0.015 A 
ATOM      7  C7  IND d   1      -0.000  -2.355   0.652  0.00  0.00    -0.016 A 
ATOM      8  C8  IND d   1       1.075  -3.215   0.481  0.00  0.00    -0.047 A 
ATOM      9  C9  IND d   1       2.386  -2.838   0.802  0.00  0.00    -0.096 A 
ATOM     10  HN1 IND d   1       0.459  -4.950  -0.313  0.00  0.00     0.298 HD
ENDROOT
TORSDOF 0
ENDMDL
