MODEL 1
REMARK minimizedAffinity 8.30163765
REMARK minimizedRMSD -1
REMARK  0 active torsions:
REMARK  status: ('A' for Active; 'I' for Inactive)
ROOT
ATOM      1  N1  IND d   1       6.000  -1.873   4.384  0.00  0.00    -0.196 N 
ATOM      2  C2  IND d   1       5.077  -2.243   5.322  0.00  0.00     0.054 A 
ATOM      3  C3  IND d   1       3.948  -2.685   4.722  0.00  0.00    -0.031 A 
ATOM      4  C4  IND d   1       3.436  -2.983   2.217  0.00  0.00     0.051 A 
ATOM      5  C5  IND d   1       3.956  -2.746   0.976  0.00  0.00    -0.031 A 
ATOM      6  C6  IND d   1       5.211  -2.198   0.803  0.00  0.00     0.015 A 
ATOM      7  C7  IND d   1       6.000  -1.875   1.871  0.00  0.00    -0.016 A 
ATOM      8  C8  IND d   1       5.472  -2.108   3.133  0.00  0.00    -0.047 A 
ATOM      9  C9  IND d   1       4.182  -2.624   3.314  0.00  0.00    -0.096 A 
ATOM     10  HN1 IND d   1       6.779  -1.549   4.547  0.00  0.00     0.298 HD
ENDROOT
TORSDOF 0
ENDMDL
