MODEL 1
REMARK minimizedAffinity 9.97042561
REMARK minimizedRMSD -1
REMARK  0 active torsions:
REMARK  status: ('A' for Active; 'I' for Inactive)
ROOT
ATOM      1  N1  IND d   1      -2.607  -2.334   1.188  0.00  0.00    -0.196 N 
ATOM      2  C2  IND d   1      -1.402  -1.835   1.597  0.00  0.00     0.054 A 
ATOM      3  C3  IND d   1      -1.024  -0.808   0.802  0.00  0.00    -0.031 A 
ATOM      4  C4  IND d   1      -2.277   0.285  -1.163  0.00  0.00     0.051 A 
ATOM      5  C5  IND d   1      -3.399   0.153  -1.933  0.00  0.00    -0.031 A 
ATOM      6  C6  IND d   1      -4.334  -0.833  -1.694  0.00  0.00     0.015 A 
ATOM      7  C7  IND d   1      -4.188  -1.721  -0.666  0.00  0.00    -0.016 A 
ATOM      8  C8  IND d   1      -3.046  -1.594   0.112  0.00  0.00    -0.047 A 
ATOM      9  C9  IND d   1      -2.072  -0.622  -0.151  0.00  0.00    -0.096 A 
ATOM     10  HN1 IND d   1      -3.021  -2.999   1.543  0.00  0.00     0.298 HD
ENDROOT
TORSDOF 0
ENDMDL
