MODEL 1
REMARK minimizedAffinity 10.352891
REMARK minimizedRMSD -1
REMARK  0 active torsions:
REMARK  status: ('A' for Active; 'I' for Inactive)
ROOT
ATOM      1  N1  IND d   1      -3.328  -1.119  -1.761  0.00  0.00    -0.196 N 
ATOM      2  C2  IND d   1      -2.957   0.162  -1.460  0.00  0.00     0.054 A 
ATOM      3  C3  IND d   1      -3.593   1.039  -2.269  0.00  0.00    -0.031 A 
ATOM      4  C4  IND d   1      -5.361   0.600  -4.088  0.00  0.00     0.051 A 
ATOM      5  C5  IND d   1      -5.998  -0.412  -4.750  0.00  0.00    -0.031 A 
ATOM      6  C6  IND d   1      -5.774  -1.739  -4.441  0.00  0.00     0.015 A 
ATOM      7  C7  IND d   1      -4.911  -2.103  -3.447  0.00  0.00    -0.016 A 
ATOM      8  C8  IND d   1      -4.257  -1.078  -2.778  0.00  0.00    -0.047 A 
ATOM      9  C9  IND d   1      -4.448   0.268  -3.115  0.00  0.00    -0.096 A 
ATOM     10  HN1 IND d   1      -3.031  -1.830  -1.380  0.00  0.00     0.298 HD
ENDROOT
TORSDOF 0
ENDMDL
