MODEL 1
REMARK minimizedAffinity 15.7180729
REMARK minimizedRMSD -1
REMARK  0 active torsions:
REMARK  status: ('A' for Active; 'I' for Inactive)
ROOT
ATOM      1  N1  IND d   1      -4.860   0.164  -2.262  0.00  0.00    -0.196 N 
ATOM      2  C2  IND d   1      -4.643  -1.052  -1.678  0.00  0.00     0.054 A 
ATOM      3  C3  IND d   1      -4.917  -2.049  -2.549  0.00  0.00    -0.031 A 
ATOM      4  C4  IND d   1      -5.637  -1.911  -5.017  0.00  0.00     0.051 A 
ATOM      5  C5  IND d   1      -6.000  -1.017  -5.985  0.00  0.00    -0.031 A 
ATOM      6  C6  IND d   1      -5.999   0.344  -5.758  0.00  0.00     0.015 A 
ATOM      7  C7  IND d   1      -5.622   0.864  -4.552  0.00  0.00    -0.016 A 
ATOM      8  C8  IND d   1      -5.260  -0.041  -3.565  0.00  0.00    -0.047 A 
ATOM      9  C9  IND d   1      -5.299  -1.425  -3.776  0.00  0.00    -0.096 A 
ATOM     10  HN1 IND d   1      -4.763   0.929  -1.881  0.00  0.00     0.298 HD
ENDROOT
TORSDOF 0
ENDMDL
