MODEL 1
REMARK minimizedAffinity 9.54437828
REMARK minimizedRMSD -1
REMARK  0 active torsions:
REMARK  status: ('A' for Active; 'I' for Inactive)
ROOT
ATOM      1  N1  IND d   1       1.178  -5.092   0.054  0.00  0.00    -0.196 N 
ATOM      2  C2  IND d   1       2.309  -4.509  -0.445  0.00  0.00     0.054 A 
ATOM      3  C3  IND d   1       2.302  -3.180  -0.198  0.00  0.00    -0.031 A 
ATOM      4  C4  IND d   1       0.584  -1.767   1.098  0.00  0.00     0.051 A 
ATOM      5  C5  IND d   1      -0.635  -1.848   1.711  0.00  0.00    -0.031 A 
ATOM      6  C6  IND d   1      -1.325  -3.039   1.806  0.00  0.00     0.015 A 
ATOM      7  C7  IND d   1      -0.814  -4.201   1.301  0.00  0.00    -0.016 A 
ATOM      8  C8  IND d   1       0.421  -4.121   0.672  0.00  0.00    -0.047 A 
ATOM      9  C9  IND d   1       1.106  -2.907   0.535  0.00  0.00    -0.096 A 
ATOM     10  HN1 IND d   1       0.973  -5.925  -0.008  0.00  0.00     0.298 HD
ENDROOT
TORSDOF 0
ENDMDL
