MODEL 1
REMARK minimizedAffinity 7.02676392
REMARK minimizedRMSD -1
REMARK  0 active torsions:
REMARK  status: ('A' for Active; 'I' for Inactive)
ROOT
ATOM      1  N1  IND d   1      -3.665  -0.950   0.685  0.00  0.00    -0.196 N 
ATOM      2  C2  IND d   1      -4.114   0.182   1.305  0.00  0.00     0.054 A 
ATOM      3  C3  IND d   1      -3.108   1.076   1.437  0.00  0.00    -0.031 A 
ATOM      4  C4  IND d   1      -0.673   0.931   0.615  0.00  0.00     0.051 A 
ATOM      5  C5  IND d   1       0.216   0.076   0.027  0.00  0.00    -0.031 A 
ATOM      6  C6  IND d   1      -0.151  -1.190  -0.383  0.00  0.00     0.015 A 
ATOM      7  C7  IND d   1      -1.430  -1.645  -0.229  0.00  0.00    -0.016 A 
ATOM      8  C8  IND d   1      -2.334  -0.782   0.375  0.00  0.00    -0.047 A 
ATOM      9  C9  IND d   1      -1.956   0.488   0.831  0.00  0.00    -0.096 A 
ATOM     10  HN1 IND d   1      -4.136  -1.650   0.518  0.00  0.00     0.298 HD
ENDROOT
TORSDOF 0
ENDMDL
