MODEL 1
REMARK minimizedAffinity -0.335876167
REMARK minimizedRMSD -1
REMARK  0 active torsions:
REMARK  status: ('A' for Active; 'I' for Inactive)
ROOT
ATOM      1  N1  IND d   1      -4.377   1.938   3.697  0.00  0.00    -0.196 N 
ATOM      2  C2  IND d   1      -3.277   2.483   4.299  0.00  0.00     0.054 A 
ATOM      3  C3  IND d   1      -2.148   2.061   3.686  0.00  0.00    -0.031 A 
ATOM      4  C4  IND d   1      -1.876   0.557   1.615  0.00  0.00     0.051 A 
ATOM      5  C5  IND d   1      -2.591  -0.212   0.740  0.00  0.00    -0.031 A 
ATOM      6  C6  IND d   1      -3.967  -0.303   0.806  0.00  0.00     0.015 A 
ATOM      7  C7  IND d   1      -4.682   0.383   1.747  0.00  0.00    -0.016 A 
ATOM      8  C8  IND d   1      -3.958   1.159   2.641  0.00  0.00    -0.047 A 
ATOM      9  C9  IND d   1      -2.559   1.222   2.606  0.00  0.00    -0.096 A 
ATOM     10  HN1 IND d   1      -5.193   2.060   3.938  0.00  0.00     0.298 HD
ENDROOT
TORSDOF 0
ENDMDL
