MODEL 1
REMARK minimizedAffinity -3.26317859
REMARK minimizedRMSD -1
REMARK  0 active torsions:
REMARK  status: ('A' for Active; 'I' for Inactive)
ROOT
ATOM      1  N1  IND d   1       0.827   0.771   0.843  0.00  0.00    -0.196 N 
ATOM      2  C2  IND d   1      -0.490   0.460   1.037  0.00  0.00     0.054 A 
ATOM      3  C3  IND d   1      -1.030  -0.029  -0.103  0.00  0.00    -0.031 A 
ATOM      4  C4  IND d   1       0.089  -0.500  -2.372  0.00  0.00     0.051 A 
ATOM      5  C5  IND d   1       1.269  -0.345  -3.044  0.00  0.00    -0.031 A 
ATOM      6  C6  IND d   1       2.386   0.198  -2.441  0.00  0.00     0.015 A 
ATOM      7  C7  IND d   1       2.366   0.598  -1.135  0.00  0.00    -0.016 A 
ATOM      8  C8  IND d   1       1.168   0.449  -0.452  0.00  0.00    -0.047 A 
ATOM      9  C9  IND d   1       0.020  -0.062  -1.071  0.00  0.00    -0.096 A 
ATOM     10  HN1 IND d   1       1.354   1.111   1.432  0.00  0.00     0.298 HD
ENDROOT
TORSDOF 0
ENDMDL
