MODEL 1
REMARK minimizedAffinity -1.38085198
REMARK minimizedRMSD -1
REMARK  0 active torsions:
REMARK  status: ('A' for Active; 'I' for Inactive)
ROOT
ATOM      1  N1  IND d   1      -1.858   2.506   3.891  0.00  0.00    -0.196 N 
ATOM      2  C2  IND d   1      -3.065   3.112   4.100  0.00  0.00     0.054 A 
ATOM      3  C3  IND d   1      -4.033   2.490   3.391  0.00  0.00    -0.031 A 
ATOM      4  C4  IND d   1      -3.880   0.395   1.902  0.00  0.00     0.051 A 
ATOM      5  C5  IND d   1      -2.980  -0.489   1.376  0.00  0.00    -0.031 A 
ATOM      6  C6  IND d   1      -1.633  -0.421   1.670  0.00  0.00     0.015 A 
ATOM      7  C7  IND d   1      -1.136   0.532   2.513  0.00  0.00    -0.016 A 
ATOM      8  C8  IND d   1      -2.045   1.436   3.043  0.00  0.00    -0.047 A 
ATOM      9  C9  IND d   1      -3.407   1.397   2.716  0.00  0.00    -0.096 A 
ATOM     10  HN1 IND d   1      -1.107   2.751   4.231  0.00  0.00     0.298 HD
ENDROOT
TORSDOF 0
ENDMDL
