MODEL 1
REMARK minimizedAffinity -1.99678874
REMARK minimizedRMSD -1
REMARK  0 active torsions:
REMARK  status: ('A' for Active; 'I' for Inactive)
ROOT
ATOM      1  N1  IND d   1       2.338   0.414  -1.477  0.00  0.00    -0.196 N 
ATOM      2  C2  IND d   1       1.985  -0.280  -2.600  0.00  0.00     0.054 A 
ATOM      3  C3  IND d   1       0.784  -0.877  -2.426  0.00  0.00    -0.031 A 
ATOM      4  C4  IND d   1      -0.821  -0.766  -0.416  0.00  0.00     0.051 A 
ATOM      5  C5  IND d   1      -0.919  -0.285   0.859  0.00  0.00    -0.031 A 
ATOM      6  C6  IND d   1       0.084   0.471   1.432  0.00  0.00     0.015 A 
ATOM      7  C7  IND d   1       1.221   0.785   0.743  0.00  0.00    -0.016 A 
ATOM      8  C8  IND d   1       1.326   0.293  -0.550  0.00  0.00    -0.047 A 
ATOM      9  C9  IND d   1       0.331  -0.511  -1.122  0.00  0.00    -0.096 A 
ATOM     10  HN1 IND d   1       3.070   0.853  -1.368  0.00  0.00     0.298 HD
ENDROOT
TORSDOF 0
ENDMDL
