MODEL 1
REMARK minimizedAffinity -2.90229559
REMARK minimizedRMSD -1
REMARK  0 active torsions:
REMARK  status: ('A' for Active; 'I' for Inactive)
ROOT
ATOM      1  N1  IND d   1       0.114   0.309   1.274  0.00  0.00    -0.196 N 
ATOM      2  C2  IND d   1       0.464   0.828   0.060  0.00  0.00     0.054 A 
ATOM      3  C3  IND d   1       1.380   1.811   0.215  0.00  0.00    -0.031 A 
ATOM      4  C4  IND d   1       2.521   2.660   2.361  0.00  0.00     0.051 A 
ATOM      5  C5  IND d   1       2.501   2.517   3.720  0.00  0.00    -0.031 A 
ATOM      6  C6  IND d   1       1.670   1.611   4.346  0.00  0.00     0.015 A 
ATOM      7  C7  IND d   1       0.832   0.802   3.632  0.00  0.00    -0.016 A 
ATOM      8  C8  IND d   1       0.844   0.949   2.252  0.00  0.00    -0.047 A 
ATOM      9  C9  IND d   1       1.654   1.897   1.614  0.00  0.00    -0.096 A 
ATOM     10  HN1 IND d   1      -0.465  -0.313   1.406  0.00  0.00     0.298 HD
ENDROOT
TORSDOF 0
ENDMDL
