MODEL 1
REMARK minimizedAffinity -4.05407238
REMARK minimizedRMSD -1
REMARK  0 active torsions:
REMARK  status: ('A' for Active; 'I' for Inactive)
ROOT
ATOM      1  N1  IND d   1       0.107  -2.453   0.094  0.00  0.00    -0.196 N 
ATOM      2  C2  IND d   1      -0.498  -1.886   1.181  0.00  0.00     0.054 A 
ATOM      3  C3  IND d   1      -0.597  -0.548   1.019  0.00  0.00    -0.031 A 
ATOM      4  C4  IND d   1       0.075   0.911  -0.993  0.00  0.00     0.051 A 
ATOM      5  C5  IND d   1       0.700   0.849  -2.207  0.00  0.00    -0.031 A 
ATOM      6  C6  IND d   1       1.165  -0.341  -2.728  0.00  0.00     0.015 A 
ATOM      7  C7  IND d   1       1.013  -1.520  -2.056  0.00  0.00    -0.016 A 
ATOM      8  C8  IND d   1       0.386  -1.461  -0.820  0.00  0.00    -0.047 A 
ATOM      9  C9  IND d   1      -0.051  -0.250  -0.267  0.00  0.00    -0.096 A 
ATOM     10  HN1 IND d   1       0.283  -3.289  -0.003  0.00  0.00     0.298 HD
ENDROOT
TORSDOF 0
ENDMDL
