MODEL 1
REMARK minimizedAffinity -4.57558918
REMARK minimizedRMSD -1
REMARK  0 active torsions:
REMARK  status: ('A' for Active; 'I' for Inactive)
ROOT
ATOM      1  N1  IND d   1       2.184   1.203  -1.650  0.00  0.00    -0.196 N 
ATOM      2  C2  IND d   1       2.188   0.294  -2.671  0.00  0.00     0.054 A 
ATOM      3  C3  IND d   1       1.301  -0.696  -2.423  0.00  0.00    -0.031 A 
ATOM      4  C4  IND d   1      -0.335  -0.971  -0.455  0.00  0.00     0.051 A 
ATOM      5  C5  IND d   1      -0.682  -0.413   0.743  0.00  0.00    -0.031 A 
ATOM      6  C6  IND d   1      -0.082   0.737   1.213  0.00  0.00     0.015 A 
ATOM      7  C7  IND d   1       0.885   1.381   0.494  0.00  0.00    -0.016 A 
ATOM      8  C8  IND d   1       1.245   0.813  -0.720  0.00  0.00    -0.047 A 
ATOM      9  C9  IND d   1       0.669  -0.377  -1.183  0.00  0.00    -0.096 A 
ATOM     10  HN1 IND d   1       2.683   1.901  -1.598  0.00  0.00     0.298 HD
ENDROOT
TORSDOF 0
ENDMDL
