MODEL 1
REMARK minimizedAffinity -0.911866009
REMARK minimizedRMSD -1
REMARK  0 active torsions:
REMARK  status: ('A' for Active; 'I' for Inactive)
ROOT
ATOM      1  N1  IND d   1      -0.523  -0.503   1.893  0.00  0.00    -0.196 N 
ATOM      2  C2  IND d   1      -0.805  -0.492   0.556  0.00  0.00     0.054 A 
ATOM      3  C3  IND d   1      -0.111   0.490  -0.063  0.00  0.00    -0.031 A 
ATOM      4  C4  IND d   1       1.621   2.129   0.906  0.00  0.00     0.051 A 
ATOM      5  C5  IND d   1       2.185   2.527   2.085  0.00  0.00    -0.031 A 
ATOM      6  C6  IND d   1       1.871   1.921   3.285  0.00  0.00     0.015 A 
ATOM      7  C7  IND d   1       0.986   0.883   3.348  0.00  0.00    -0.016 A 
ATOM      8  C8  IND d   1       0.406   0.480   2.154  0.00  0.00    -0.047 A 
ATOM      9  C9  IND d   1       0.688   1.119   0.939  0.00  0.00    -0.096 A 
ATOM     10  HN1 IND d   1      -0.867  -1.036   2.474  0.00  0.00     0.298 HD
ENDROOT
TORSDOF 0
ENDMDL
