MODEL 1
REMARK minimizedAffinity -1.40126097
REMARK minimizedRMSD -1
REMARK  0 active torsions:
REMARK  status: ('A' for Active; 'I' for Inactive)
ROOT
ATOM      1  N1  IND d   1       2.817   2.023   2.184  0.00  0.00    -0.196 N 
ATOM      2  C2  IND d   1       2.564   1.740   3.497  0.00  0.00     0.054 A 
ATOM      3  C3  IND d   1       1.434   1.006   3.611  0.00  0.00    -0.031 A 
ATOM      4  C4  IND d   1      -0.101   0.070   1.769  0.00  0.00     0.051 A 
ATOM      5  C5  IND d   1      -0.299   0.094   0.417  0.00  0.00    -0.031 A 
ATOM      6  C6  IND d   1       0.550   0.774  -0.433  0.00  0.00     0.015 A 
ATOM      7  C7  IND d   1       1.640   1.448   0.039  0.00  0.00    -0.016 A 
ATOM      8  C8  IND d   1       1.841   1.432   1.412  0.00  0.00    -0.047 A 
ATOM      9  C9  IND d   1       0.959   0.780   2.283  0.00  0.00    -0.096 A 
ATOM     10  HN1 IND d   1       3.475   2.491   1.890  0.00  0.00     0.298 HD
ENDROOT
TORSDOF 0
ENDMDL
