MODEL 1
REMARK minimizedAffinity -1.63839221
REMARK minimizedRMSD -1
REMARK  0 active torsions:
REMARK  status: ('A' for Active; 'I' for Inactive)
ROOT
ATOM      1  N1  IND d   1      -1.110  -0.744  -0.437  0.00  0.00    -0.196 N 
ATOM      2  C2  IND d   1      -1.309  -0.162   0.784  0.00  0.00     0.054 A 
ATOM      3  C3  IND d   1      -0.252   0.614   1.113  0.00  0.00    -0.031 A 
ATOM      4  C4  IND d   1       1.865   1.156  -0.247  0.00  0.00     0.051 A 
ATOM      5  C5  IND d   1       2.514   0.831  -1.406  0.00  0.00    -0.031 A 
ATOM      6  C6  IND d   1       1.975  -0.050  -2.321  0.00  0.00     0.015 A 
ATOM      7  C7  IND d   1       0.757  -0.635  -2.115  0.00  0.00    -0.016 A 
ATOM      8  C8  IND d   1       0.099  -0.313  -0.936  0.00  0.00    -0.047 A 
ATOM      9  C9  IND d   1       0.660   0.548   0.016  0.00  0.00    -0.096 A 
ATOM     10  HN1 IND d   1      -1.650  -1.288  -0.827  0.00  0.00     0.298 HD
ENDROOT
TORSDOF 0
ENDMDL
