MODEL 1
REMARK minimizedAffinity -0.00223226845
REMARK minimizedRMSD -1
REMARK  0 active torsions:
REMARK  status: ('A' for Active; 'I' for Inactive)
ROOT
ATOM      1  N1  IND d   1      -1.414  -1.752   0.861  0.00  0.00    -0.196 N 
ATOM      2  C2  IND d   1      -0.334  -0.947   0.626  0.00  0.00     0.054 A 
ATOM      3  C3  IND d   1      -0.689   0.354   0.713  0.00  0.00    -0.031 A 
ATOM      4  C4  IND d   1      -2.963   1.391   1.330  0.00  0.00     0.051 A 
ATOM      5  C5  IND d   1      -4.262   1.060   1.594  0.00  0.00    -0.031 A 
ATOM      6  C6  IND d   1      -4.687  -0.253   1.631  0.00  0.00     0.015 A 
ATOM      7  C7  IND d   1      -3.821  -1.288   1.415  0.00  0.00    -0.016 A 
ATOM      8  C8  IND d   1      -2.503  -0.954   1.140  0.00  0.00    -0.047 A 
ATOM      9  C9  IND d   1      -2.075   0.377   1.059  0.00  0.00    -0.096 A 
ATOM     10  HN1 IND d   1      -1.414  -2.611   0.839  0.00  0.00     0.298 HD
ENDROOT
TORSDOF 0
ENDMDL
