MODEL 1
REMARK minimizedAffinity -0.748305798
REMARK minimizedRMSD -1
REMARK  0 active torsions:
REMARK  status: ('A' for Active; 'I' for Inactive)
ROOT
ATOM      1  N1  IND d   1      -0.370  -0.574   1.604  0.00  0.00    -0.196 N 
ATOM      2  C2  IND d   1      -0.061   0.753   1.713  0.00  0.00     0.054 A 
ATOM      3  C3  IND d   1       0.563   1.184   0.594  0.00  0.00    -0.031 A 
ATOM      4  C4  IND d   1       1.090  -0.091  -1.579  0.00  0.00     0.051 A 
ATOM      5  C5  IND d   1       1.033  -1.337  -2.138  0.00  0.00    -0.031 A 
ATOM      6  C6  IND d   1       0.491  -2.413  -1.466  0.00  0.00     0.015 A 
ATOM      7  C7  IND d   1      -0.026  -2.281  -0.208  0.00  0.00    -0.016 A 
ATOM      8  C8  IND d   1       0.037  -1.019   0.365  0.00  0.00    -0.047 A 
ATOM      9  C9  IND d   1       0.625   0.068  -0.295  0.00  0.00    -0.096 A 
ATOM     10  HN1 IND d   1      -0.755  -1.051   2.207  0.00  0.00     0.298 HD
ENDROOT
TORSDOF 0
ENDMDL
