MODEL 1
REMARK minimizedAffinity -0.899017751
REMARK minimizedRMSD -1
REMARK  0 active torsions:
REMARK  status: ('A' for Active; 'I' for Inactive)
ROOT
ATOM      1  N1  IND d   1       0.010   0.449   1.875  0.00  0.00    -0.196 N 
ATOM      2  C2  IND d   1       0.161  -0.344   0.772  0.00  0.00     0.054 A 
ATOM      3  C3  IND d   1      -1.046  -0.687   0.270  0.00  0.00    -0.031 A 
ATOM      4  C4  IND d   1      -3.398   0.024   1.039  0.00  0.00     0.051 A 
ATOM      5  C5  IND d   1      -4.047   0.714   2.024  0.00  0.00    -0.031 A 
ATOM      6  C6  IND d   1      -3.362   1.366   3.030  0.00  0.00     0.015 A 
ATOM      7  C7  IND d   1      -1.997   1.362   3.080  0.00  0.00    -0.016 A 
ATOM      8  C8  IND d   1      -1.335   0.657   2.085  0.00  0.00    -0.047 A 
ATOM      9  C9  IND d   1      -2.026  -0.042   1.086  0.00  0.00    -0.096 A 
ATOM     10  HN1 IND d   1       0.649   0.765   2.357  0.00  0.00     0.298 HD
ENDROOT
TORSDOF 0
ENDMDL
