MODEL 1
REMARK minimizedAffinity -5.67428207
REMARK minimizedRMSD -1
REMARK  0 active torsions:
REMARK  status: ('A' for Active; 'I' for Inactive)
ROOT
ATOM      1  N1  IND d   1      -0.312  -0.067   1.892  0.00  0.00    -0.196 N 
ATOM      2  C2  IND d   1       0.606   0.499   2.732  0.00  0.00     0.054 A 
ATOM      3  C3  IND d   1       0.004   1.384   3.558  0.00  0.00    -0.031 A 
ATOM      4  C4  IND d   1      -2.490   1.984   3.775  0.00  0.00     0.051 A 
ATOM      5  C5  IND d   1      -3.708   1.753   3.199  0.00  0.00    -0.031 A 
ATOM      6  C6  IND d   1      -3.859   0.884   2.138  0.00  0.00     0.015 A 
ATOM      7  C7  IND d   1      -2.796   0.202   1.619  0.00  0.00    -0.016 A 
ATOM      8  C8  IND d   1      -1.557   0.439   2.197  0.00  0.00    -0.047 A 
ATOM      9  C9  IND d   1      -1.390   1.352   3.246  0.00  0.00    -0.096 A 
ATOM     10  HN1 IND d   1      -0.141  -0.643   1.277  0.00  0.00     0.298 HD
ENDROOT
TORSDOF 0
ENDMDL
