MODEL 1
REMARK minimizedAffinity -4.29943991
REMARK minimizedRMSD -1
REMARK  0 active torsions:
REMARK  status: ('A' for Active; 'I' for Inactive)
ROOT
ATOM      1  N1  IND d   1      -0.350   0.006   1.152  0.00  0.00    -0.196 N 
ATOM      2  C2  IND d   1      -0.253   0.170  -0.201  0.00  0.00     0.054 A 
ATOM      3  C3  IND d   1       0.611   1.168  -0.494  0.00  0.00    -0.031 A 
ATOM      4  C4  IND d   1       2.054   2.598   1.088  0.00  0.00     0.051 A 
ATOM      5  C5  IND d   1       2.283   2.840   2.414  0.00  0.00    -0.031 A 
ATOM      6  C6  IND d   1       1.635   2.134   3.406  0.00  0.00     0.015 A 
ATOM      7  C7  IND d   1       0.738   1.147   3.109  0.00  0.00    -0.016 A 
ATOM      8  C8  IND d   1       0.498   0.903   1.764  0.00  0.00    -0.047 A 
ATOM      9  C9  IND d   1       1.121   1.645   0.753  0.00  0.00    -0.096 A 
ATOM     10  HN1 IND d   1      -0.856  -0.561   1.554  0.00  0.00     0.298 HD
ENDROOT
TORSDOF 0
ENDMDL
