MODEL 1
REMARK minimizedAffinity -4.95378494
REMARK minimizedRMSD -1
REMARK  0 active torsions:
REMARK  status: ('A' for Active; 'I' for Inactive)
ROOT
ATOM      1  N1  IND d   1       0.396   0.977   0.944  0.00  0.00    -0.196 N 
ATOM      2  C2  IND d   1      -0.499   0.003   1.291  0.00  0.00     0.054 A 
ATOM      3  C3  IND d   1      -0.573  -0.935   0.320  0.00  0.00    -0.031 A 
ATOM      4  C4  IND d   1       0.759  -1.125  -1.875  0.00  0.00     0.051 A 
ATOM      5  C5  IND d   1       1.667  -0.455  -2.646  0.00  0.00    -0.031 A 
ATOM      6  C6  IND d   1       2.211   0.750  -2.250  0.00  0.00     0.015 A 
ATOM      7  C7  IND d   1       1.874   1.326  -1.058  0.00  0.00    -0.016 A 
ATOM      8  C8  IND d   1       0.947   0.652  -0.276  0.00  0.00    -0.047 A 
ATOM      9  C9  IND d   1       0.360  -0.550  -0.692  0.00  0.00    -0.096 A 
ATOM     10  HN1 IND d   1       0.583   1.675   1.410  0.00  0.00     0.298 HD
ENDROOT
TORSDOF 0
ENDMDL
