MODEL 1
REMARK minimizedAffinity -5.14408636
REMARK minimizedRMSD -1
REMARK  0 active torsions:
REMARK  status: ('A' for Active; 'I' for Inactive)
ROOT
ATOM      1  C   UNL d   1       0.492  -0.868  -1.028  0.00  0.00     0.078 C 
ATOM      2  C1  UNL d   1      -0.197   0.082  -0.095  0.00  0.00    -0.077 A 
ATOM      3  C2  UNL d   1      -0.401  -0.249   1.250  0.00  0.00    -0.001 A 
ATOM      4  C3  UNL d   1      -1.052   0.641   2.106  0.00  0.00     0.003 A 
ATOM      5  C4  UNL d   1      -1.506   1.868   1.625  0.00  0.00    -0.005 A 
ATOM      6  C5  UNL d   1      -1.309   2.205   0.288  0.00  0.00     0.003 A 
ATOM      7  C6  UNL d   1      -0.658   1.316  -0.569  0.00  0.00    -0.001 A 
ENDROOT
TORSDOF 0
ENDMDL
