MODEL 1
REMARK minimizedAffinity -4.18751144
REMARK minimizedRMSD -1
REMARK  0 active torsions:
REMARK  status: ('A' for Active; 'I' for Inactive)
ROOT
ATOM      1  C   UNL d   1      -2.255   2.137   1.601  0.00  0.00     0.078 C 
ATOM      2  C1  UNL d   1      -1.315   1.225   0.871  0.00  0.00    -0.077 A 
ATOM      3  C2  UNL d   1      -0.804   0.074   1.484  0.00  0.00    -0.001 A 
ATOM      4  C3  UNL d   1       0.077  -0.761   0.795  0.00  0.00     0.003 A 
ATOM      5  C4  UNL d   1       0.457  -0.453  -0.510  0.00  0.00    -0.005 A 
ATOM      6  C5  UNL d   1      -0.044   0.691  -1.127  0.00  0.00     0.003 A 
ATOM      7  C6  UNL d   1      -0.926   1.527  -0.440  0.00  0.00    -0.001 A 
ENDROOT
TORSDOF 0
ENDMDL
