MODEL 1
REMARK minimizedAffinity -1.29319727
REMARK minimizedRMSD -1
REMARK  0 active torsions:
REMARK  status: ('A' for Active; 'I' for Inactive)
ROOT
ATOM      1  C   UNL d   1       1.194  -2.386  -1.543  0.00  0.00     0.078 C 
ATOM      2  C1  UNL d   1       0.550  -1.289  -0.748  0.00  0.00    -0.077 A 
ATOM      3  C2  UNL d   1       0.025  -1.535   0.526  0.00  0.00    -0.001 A 
ATOM      4  C3  UNL d   1      -0.580  -0.506   1.251  0.00  0.00     0.003 A 
ATOM      5  C4  UNL d   1      -0.667   0.774   0.709  0.00  0.00    -0.005 A 
ATOM      6  C5  UNL d   1      -0.149   1.028  -0.560  0.00  0.00     0.003 A 
ATOM      7  C6  UNL d   1       0.456   0.001  -1.286  0.00  0.00    -0.001 A 
ENDROOT
TORSDOF 0
ENDMDL
