MODEL 1
REMARK minimizedAffinity -5.20156384
REMARK minimizedRMSD -1
REMARK  0 active torsions:
REMARK  status: ('A' for Active; 'I' for Inactive)
ROOT
ATOM      1  C   UNL d   1       0.864  -0.941  -0.545  0.00  0.00     0.078 C 
ATOM      2  C1  UNL d   1      -0.155  -0.049   0.098  0.00  0.00    -0.077 A 
ATOM      3  C2  UNL d   1      -0.579   1.130  -0.528  0.00  0.00    -0.001 A 
ATOM      4  C3  UNL d   1      -1.522   1.956   0.087  0.00  0.00     0.003 A 
ATOM      5  C4  UNL d   1      -2.047   1.613   1.331  0.00  0.00    -0.005 A 
ATOM      6  C5  UNL d   1      -1.629   0.443   1.963  0.00  0.00     0.003 A 
ATOM      7  C6  UNL d   1      -0.687  -0.384   1.350  0.00  0.00    -0.001 A 
ENDROOT
TORSDOF 0
ENDMDL
