MODEL 1
REMARK minimizedAffinity -4.07400608
REMARK minimizedRMSD -1
REMARK  0 active torsions:
REMARK  status: ('A' for Active; 'I' for Inactive)
ROOT
ATOM      1  C   UNL d   1      -2.251   2.045   1.189  0.00  0.00     0.078 C 
ATOM      2  C1  UNL d   1      -1.131   1.273   0.558  0.00  0.00    -0.077 A 
ATOM      3  C2  UNL d   1      -0.614   1.641  -0.690  0.00  0.00    -0.001 A 
ATOM      4  C3  UNL d   1       0.422   0.907  -1.269  0.00  0.00     0.003 A 
ATOM      5  C4  UNL d   1       0.949  -0.201  -0.609  0.00  0.00    -0.005 A 
ATOM      6  C5  UNL d   1       0.440  -0.577   0.632  0.00  0.00     0.003 A 
ATOM      7  C6  UNL d   1      -0.596   0.156   1.214  0.00  0.00    -0.001 A 
ENDROOT
TORSDOF 0
ENDMDL
