MODEL 1
REMARK minimizedAffinity -5.11834955
REMARK minimizedRMSD -1
REMARK  0 active torsions:
REMARK  status: ('A' for Active; 'I' for Inactive)
ROOT
ATOM      1  C   UNL d   1       0.712  -0.158  -0.791  0.00  0.00     0.078 C 
ATOM      2  C1  UNL d   1      -0.085   1.036  -0.358  0.00  0.00    -0.077 A 
ATOM      3  C2  UNL d   1       0.085   2.280  -0.977  0.00  0.00    -0.001 A 
ATOM      4  C3  UNL d   1      -0.657   3.385  -0.557  0.00  0.00     0.003 A 
ATOM      5  C4  UNL d   1      -1.573   3.257   0.486  0.00  0.00    -0.005 A 
ATOM      6  C5  UNL d   1      -1.748   2.024   1.109  0.00  0.00     0.003 A 
ATOM      7  C6  UNL d   1      -1.006   0.918   0.690  0.00  0.00    -0.001 A 
ENDROOT
TORSDOF 0
ENDMDL
