MODEL 1
REMARK minimizedAffinity -3.52840257
REMARK minimizedRMSD -1
REMARK  0 active torsions:
REMARK  status: ('A' for Active; 'I' for Inactive)
ROOT
ATOM      1  C   UNL d   1      -1.760   1.770   0.803  0.00  0.00     0.078 C 
ATOM      2  C1  UNL d   1      -0.750   0.842   0.197  0.00  0.00    -0.077 A 
ATOM      3  C2  UNL d   1      -0.158   1.129  -1.039  0.00  0.00    -0.001 A 
ATOM      4  C3  UNL d   1       0.774   0.251  -1.597  0.00  0.00     0.003 A 
ATOM      5  C4  UNL d   1       1.121  -0.919  -0.925  0.00  0.00    -0.005 A 
ATOM      6  C5  UNL d   1       0.536  -1.214   0.305  0.00  0.00     0.003 A 
ATOM      7  C6  UNL d   1      -0.396  -0.338   0.863  0.00  0.00    -0.001 A 
ENDROOT
TORSDOF 0
ENDMDL
