MODEL 1
REMARK minimizedAffinity -4.192976
REMARK minimizedRMSD -1
REMARK  0 active torsions:
REMARK  status: ('A' for Active; 'I' for Inactive)
ROOT
ATOM      1  C   UNL d   1       0.500  -0.890  -0.707  0.00  0.00     0.078 C 
ATOM      2  C1  UNL d   1      -0.367   0.074   0.048  0.00  0.00    -0.077 A 
ATOM      3  C2  UNL d   1      -0.655  -0.126   1.403  0.00  0.00    -0.001 A 
ATOM      4  C3  UNL d   1      -1.471   0.774   2.091  0.00  0.00     0.003 A 
ATOM      5  C4  UNL d   1      -2.007   1.878   1.431  0.00  0.00    -0.005 A 
ATOM      6  C5  UNL d   1      -1.727   2.084   0.082  0.00  0.00     0.003 A 
ATOM      7  C6  UNL d   1      -0.911   1.185  -0.608  0.00  0.00    -0.001 A 
ENDROOT
TORSDOF 0
ENDMDL
