MODEL 1
REMARK minimizedAffinity -3.89410567
REMARK minimizedRMSD -1
REMARK  0 active torsions:
REMARK  status: ('A' for Active; 'I' for Inactive)
ROOT
ATOM      1  C   UNL d   1      -2.308   1.974   1.547  0.00  0.00     0.078 C 
ATOM      2  C1  UNL d   1      -1.284   1.073   0.925  0.00  0.00    -0.077 A 
ATOM      3  C2  UNL d   1      -0.928  -0.140   1.529  0.00  0.00    -0.001 A 
ATOM      4  C3  UNL d   1       0.033  -0.965   0.943  0.00  0.00     0.003 A 
ATOM      5  C4  UNL d   1       0.649  -0.586  -0.248  0.00  0.00    -0.005 A 
ATOM      6  C5  UNL d   1       0.304   0.620  -0.855  0.00  0.00     0.003 A 
ATOM      7  C6  UNL d   1      -0.658   1.446  -0.271  0.00  0.00    -0.001 A 
ENDROOT
TORSDOF 0
ENDMDL
