MODEL 1
REMARK minimizedAffinity -2.96339393
REMARK minimizedRMSD -1
REMARK  0 active torsions:
REMARK  status: ('A' for Active; 'I' for Inactive)
ROOT
ATOM      1  C   UNL d   1       0.189   2.971  -1.012  0.00  0.00     0.078 C 
ATOM      2  C1  UNL d   1      -0.107   1.872  -0.035  0.00  0.00    -0.077 A 
ATOM      3  C2  UNL d   1      -0.894   2.109   1.099  0.00  0.00    -0.001 A 
ATOM      4  C3  UNL d   1      -1.154   1.080   2.005  0.00  0.00     0.003 A 
ATOM      5  C4  UNL d   1      -0.630  -0.193   1.787  0.00  0.00    -0.005 A 
ATOM      6  C5  UNL d   1       0.155  -0.438   0.662  0.00  0.00     0.003 A 
ATOM      7  C6  UNL d   1       0.416   0.590  -0.245  0.00  0.00    -0.001 A 
ENDROOT
TORSDOF 0
ENDMDL
