MODEL 1
REMARK minimizedAffinity -4.01624346
REMARK minimizedRMSD -1
REMARK  0 active torsions:
REMARK  status: ('A' for Active; 'I' for Inactive)
ROOT
ATOM      1  C   UNL d   1      -2.127   2.829   1.450  0.00  0.00     0.078 C 
ATOM      2  C1  UNL d   1      -1.119   1.863   0.903  0.00  0.00    -0.077 A 
ATOM      3  C2  UNL d   1      -0.389   2.160  -0.254  0.00  0.00    -0.001 A 
ATOM      4  C3  UNL d   1       0.540   1.247  -0.757  0.00  0.00     0.003 A 
ATOM      5  C4  UNL d   1       0.746   0.031  -0.110  0.00  0.00    -0.005 A 
ATOM      6  C5  UNL d   1       0.023  -0.275   1.041  0.00  0.00     0.003 A 
ATOM      7  C6  UNL d   1      -0.906   0.637   1.545  0.00  0.00    -0.001 A 
ENDROOT
TORSDOF 0
ENDMDL
