MODEL 1
REMARK minimizedAffinity -4.5790267
REMARK minimizedRMSD -1
REMARK  0 active torsions:
REMARK  status: ('A' for Active; 'I' for Inactive)
ROOT
ATOM      1  C   UNL d   1      -2.372   1.598   0.746  0.00  0.00     0.078 C 
ATOM      2  C1  UNL d   1      -1.090   0.865   0.485  0.00  0.00    -0.077 A 
ATOM      3  C2  UNL d   1      -0.389   1.042  -0.714  0.00  0.00    -0.001 A 
ATOM      4  C3  UNL d   1       0.798   0.346  -0.947  0.00  0.00     0.003 A 
ATOM      5  C4  UNL d   1       1.293  -0.534   0.013  0.00  0.00    -0.005 A 
ATOM      6  C5  UNL d   1       0.601  -0.719   1.208  0.00  0.00     0.003 A 
ATOM      7  C6  UNL d   1      -0.586  -0.023   1.443  0.00  0.00    -0.001 A 
ENDROOT
TORSDOF 0
ENDMDL
