MODEL 1
REMARK minimizedAffinity -5.17763567
REMARK minimizedRMSD -1
REMARK  0 active torsions:
REMARK  status: ('A' for Active; 'I' for Inactive)
ROOT
ATOM      1  C   UNL d   1       0.499  -1.167  -0.444  0.00  0.00     0.078 C 
ATOM      2  C1  UNL d   1      -0.294  -0.106   0.259  0.00  0.00    -0.077 A 
ATOM      3  C2  UNL d   1      -0.954  -0.378   1.464  0.00  0.00    -0.001 A 
ATOM      4  C3  UNL d   1      -1.696   0.616   2.103  0.00  0.00     0.003 A 
ATOM      5  C4  UNL d   1      -1.787   1.889   1.544  0.00  0.00    -0.005 A 
ATOM      6  C5  UNL d   1      -1.136   2.169   0.344  0.00  0.00     0.003 A 
ATOM      7  C6  UNL d   1      -0.393   1.175  -0.296  0.00  0.00    -0.001 A 
ENDROOT
TORSDOF 0
ENDMDL
