MODEL 1
REMARK minimizedAffinity -4.20045185
REMARK minimizedRMSD -1
REMARK  0 active torsions:
REMARK  status: ('A' for Active; 'I' for Inactive)
ROOT
ATOM      1  C   UNL d   1      -1.822   1.574   1.548  0.00  0.00     0.078 C 
ATOM      2  C1  UNL d   1      -0.854   0.709   0.798  0.00  0.00    -0.077 A 
ATOM      3  C2  UNL d   1       0.218   1.269   0.093  0.00  0.00    -0.001 A 
ATOM      4  C3  UNL d   1       1.105   0.452  -0.609  0.00  0.00     0.003 A 
ATOM      5  C4  UNL d   1       0.928  -0.930  -0.615  0.00  0.00    -0.005 A 
ATOM      6  C5  UNL d   1      -0.137  -1.497   0.082  0.00  0.00     0.003 A 
ATOM      7  C6  UNL d   1      -1.025  -0.681   0.785  0.00  0.00    -0.001 A 
ENDROOT
TORSDOF 0
ENDMDL
