MODEL 1
REMARK minimizedAffinity 1.15116358
REMARK minimizedRMSD -1
REMARK  1 active torsions:
REMARK  status: ('A' for Active; 'I' for Inactive)
REMARK    1  A    between atoms: C1_2  and  C2_3 
ROOT
ATOM      1  C2  UNL d   1       1.310   2.291  -0.768  0.00  0.00    -0.076 A 
ATOM      2  C3  UNL d   1       2.316   1.741  -1.582  0.00  0.00     0.004 A 
ATOM      3  C4  UNL d   1       2.478   0.361  -1.687  0.00  0.00    -0.003 A 
ATOM      4  C5  UNL d   1       1.637  -0.492  -0.981  0.00  0.00     0.000 A 
ATOM      5  C6  UNL d   1       0.623   0.036  -0.183  0.00  0.00     0.000 A 
ATOM      6  C7  UNL d   1       0.435   1.425  -0.078  0.00  0.00    -0.073 A 
ATOM      7  C8  UNL d   1      -0.670   1.939   0.802  0.00  0.00     0.078 C 
ENDROOT
BRANCH   1   8
ATOM      8  C1  UNL d   1       1.199   3.796  -0.671  0.00  0.00     0.053 C 
ATOM      9  C   UNL d   1       1.364   4.302   0.754  0.00  0.00     0.018 C 
ENDBRANCH   1   8
TORSDOF 1
ENDMDL
