MODEL 1
REMARK minimizedAffinity -3.78096676
REMARK minimizedRMSD -1
REMARK  1 active torsions:
REMARK  status: ('A' for Active; 'I' for Inactive)
REMARK    1  A    between atoms: C1_2  and  C2_3 
ROOT
ATOM      1  C2  UNL d   1       1.229   2.698   0.047  0.00  0.00    -0.076 A 
ATOM      2  C3  UNL d   1       1.564   1.803   1.079  0.00  0.00     0.004 A 
ATOM      3  C4  UNL d   1       1.589   0.428   0.855  0.00  0.00    -0.003 A 
ATOM      4  C5  UNL d   1       1.281  -0.075  -0.404  0.00  0.00     0.000 A 
ATOM      5  C6  UNL d   1       0.964   0.798  -1.443  0.00  0.00     0.000 A 
ATOM      6  C7  UNL d   1       0.950   2.189  -1.239  0.00  0.00    -0.073 A 
ATOM      7  C8  UNL d   1       0.595   3.085  -2.394  0.00  0.00     0.078 C 
ENDROOT
BRANCH   1   8
ATOM      8  C1  UNL d   1       1.191   4.178   0.356  0.00  0.00     0.053 C 
ATOM      9  C   UNL d   1       1.981   5.003  -0.648  0.00  0.00     0.018 C 
ENDBRANCH   1   8
TORSDOF 1
ENDMDL
