MODEL 1
REMARK minimizedAffinity -3.9392302
REMARK minimizedRMSD -1
REMARK  1 active torsions:
REMARK  status: ('A' for Active; 'I' for Inactive)
REMARK    1  A    between atoms: C1_2  and  C2_3 
ROOT
ATOM      1  C2  UNL d   1       0.868   1.600  -0.613  0.00  0.00    -0.076 A 
ATOM      2  C3  UNL d   1       1.295   2.478  -1.624  0.00  0.00     0.004 A 
ATOM      3  C4  UNL d   1       1.450   3.840  -1.374  0.00  0.00    -0.003 A 
ATOM      4  C5  UNL d   1       1.180   4.347  -0.107  0.00  0.00     0.000 A 
ATOM      5  C6  UNL d   1       0.772   3.488   0.913  0.00  0.00     0.000 A 
ATOM      6  C7  UNL d   1       0.627   2.109   0.681  0.00  0.00    -0.073 A 
ATOM      7  C8  UNL d   1       0.178   1.230   1.816  0.00  0.00     0.078 C 
ENDROOT
BRANCH   1   8
ATOM      8  C1  UNL d   1       0.692   0.137  -0.950  0.00  0.00     0.053 C 
ATOM      9  C   UNL d   1       2.007  -0.627  -0.934  0.00  0.00     0.018 C 
ENDBRANCH   1   8
TORSDOF 1
ENDMDL
