MODEL 1
REMARK minimizedAffinity 1.62511969
REMARK minimizedRMSD -1
REMARK  1 active torsions:
REMARK  status: ('A' for Active; 'I' for Inactive)
REMARK    1  A    between atoms: C1_2  and  C2_3 
ROOT
ATOM      1  C2  UNL d   1       1.224   2.184  -0.267  0.00  0.00    -0.076 A 
ATOM      2  C3  UNL d   1       1.633   1.372   0.805  0.00  0.00     0.004 A 
ATOM      3  C4  UNL d   1       1.663  -0.017   0.681  0.00  0.00    -0.003 A 
ATOM      4  C5  UNL d   1       1.285  -0.615  -0.516  0.00  0.00     0.000 A 
ATOM      5  C6  UNL d   1       0.893   0.177  -1.595  0.00  0.00     0.000 A 
ATOM      6  C7  UNL d   1       0.873   1.579  -1.493  0.00  0.00    -0.073 A 
ATOM      7  C8  UNL d   1       0.436   2.383  -2.686  0.00  0.00     0.078 C 
ENDROOT
BRANCH   1   8
ATOM      8  C1  UNL d   1       1.185   3.682  -0.066  0.00  0.00     0.053 C 
ATOM      9  C   UNL d   1       1.743   4.445  -1.258  0.00  0.00     0.018 C 
ENDBRANCH   1   8
TORSDOF 1
ENDMDL
