MODEL 1
REMARK minimizedAffinity 0.271030784
REMARK minimizedRMSD -1
REMARK  1 active torsions:
REMARK  status: ('A' for Active; 'I' for Inactive)
REMARK    1  A    between atoms: C1_2  and  C2_3 
ROOT
ATOM      1  C2  UNL d   1       0.947   2.068  -0.488  0.00  0.00    -0.076 A 
ATOM      2  C3  UNL d   1       0.937   2.933   0.620  0.00  0.00     0.004 A 
ATOM      3  C4  UNL d   1       1.371   4.252   0.504  0.00  0.00    -0.003 A 
ATOM      4  C5  UNL d   1       1.822   4.728  -0.722  0.00  0.00     0.000 A 
ATOM      5  C6  UNL d   1       1.822   3.889  -1.836  0.00  0.00     0.000 A 
ATOM      6  C7  UNL d   1       1.372   2.561  -1.740  0.00  0.00    -0.073 A 
ATOM      7  C8  UNL d   1       1.400   1.699  -2.972  0.00  0.00     0.078 C 
ENDROOT
BRANCH   1   8
ATOM      8  C1  UNL d   1       0.489   0.640  -0.296  0.00  0.00     0.053 C 
ATOM      9  C   UNL d   1       1.518  -0.208   0.435  0.00  0.00     0.018 C 
ENDBRANCH   1   8
TORSDOF 1
ENDMDL
