MODEL 1
REMARK minimizedAffinity -0.53608793
REMARK minimizedRMSD -1
REMARK  1 active torsions:
REMARK  status: ('A' for Active; 'I' for Inactive)
REMARK    1  A    between atoms: C1_2  and  C2_3 
ROOT
ATOM      1  C2  UNL d   1       1.185   2.150  -0.311  0.00  0.00    -0.076 A 
ATOM      2  C3  UNL d   1       1.032   2.244  -1.705  0.00  0.00     0.004 A 
ATOM      3  C4  UNL d   1       1.042   1.104  -2.507  0.00  0.00    -0.003 A 
ATOM      4  C5  UNL d   1       1.205  -0.150  -1.927  0.00  0.00     0.000 A 
ATOM      5  C6  UNL d   1       1.340  -0.263  -0.544  0.00  0.00     0.000 A 
ATOM      6  C7  UNL d   1       1.316   0.875   0.280  0.00  0.00    -0.073 A 
ATOM      7  C8  UNL d   1       1.473   0.695   1.765  0.00  0.00     0.078 C 
ENDROOT
BRANCH   1   8
ATOM      8  C1  UNL d   1       1.193   3.423   0.504  0.00  0.00     0.053 C 
ATOM      9  C   UNL d   1       1.539   4.647  -0.330  0.00  0.00     0.018 C 
ENDBRANCH   1   8
TORSDOF 1
ENDMDL
