MODEL 1
REMARK minimizedAffinity 3.45344925
REMARK minimizedRMSD -1
REMARK  1 active torsions:
REMARK  status: ('A' for Active; 'I' for Inactive)
REMARK    1  A    between atoms: C1_2  and  C2_3 
ROOT
ATOM      1  C2  UNL d   1       1.735   4.291  -0.010  0.00  0.00    -0.076 A 
ATOM      2  C3  UNL d   1       1.812   4.794   1.300  0.00  0.00     0.004 A 
ATOM      3  C4  UNL d   1       1.842   3.935   2.397  0.00  0.00    -0.003 A 
ATOM      4  C5  UNL d   1       1.797   2.559   2.202  0.00  0.00     0.000 A 
ATOM      5  C6  UNL d   1       1.739   2.042   0.908  0.00  0.00     0.000 A 
ATOM      6  C7  UNL d   1       1.724   2.894  -0.210  0.00  0.00    -0.073 A 
ATOM      7  C8  UNL d   1       1.654   2.283  -1.583  0.00  0.00     0.078 C 
ENDROOT
BRANCH   1   8
ATOM      8  C1  UNL d   1       1.678   5.272  -1.160  0.00  0.00     0.053 C 
ATOM      9  C   UNL d   1       2.997   5.998  -1.373  0.00  0.00     0.018 C 
ENDBRANCH   1   8
TORSDOF 1
ENDMDL
