MODEL 1
REMARK minimizedAffinity 6.35170746
REMARK minimizedRMSD -1
REMARK  1 active torsions:
REMARK  status: ('A' for Active; 'I' for Inactive)
REMARK    1  A    between atoms: C1_2  and  C2_3 
ROOT
ATOM      1  C2  UNL d   1       1.586   1.072  -0.206  0.00  0.00    -0.076 A 
ATOM      2  C3  UNL d   1       1.964   2.421  -0.095  0.00  0.00     0.004 A 
ATOM      3  C4  UNL d   1       1.767   3.311  -1.150  0.00  0.00    -0.003 A 
ATOM      4  C5  UNL d   1       1.188   2.865  -2.334  0.00  0.00     0.000 A 
ATOM      5  C6  UNL d   1       0.791   1.534  -2.455  0.00  0.00     0.000 A 
ATOM      6  C7  UNL d   1       0.967   0.628  -1.395  0.00  0.00    -0.073 A 
ATOM      7  C8  UNL d   1       0.526  -0.798  -1.582  0.00  0.00     0.078 C 
ENDROOT
BRANCH   1   8
ATOM      8  C1  UNL d   1       1.849   0.148   0.961  0.00  0.00     0.053 C 
ATOM      9  C   UNL d   1       2.495   0.864   2.137  0.00  0.00     0.018 C 
ENDBRANCH   1   8
TORSDOF 1
ENDMDL
