MODEL 1
REMARK minimizedAffinity 4.13182592
REMARK minimizedRMSD -1
REMARK  1 active torsions:
REMARK  status: ('A' for Active; 'I' for Inactive)
REMARK    1  A    between atoms: C1_2  and  C2_3 
ROOT
ATOM      1  C2  UNL d   1       1.111  -0.052  -0.436  0.00  0.00    -0.076 A 
ATOM      2  C3  UNL d   1       1.881  -0.302   0.713  0.00  0.00     0.004 A 
ATOM      3  C4  UNL d   1       1.986   0.649   1.727  0.00  0.00    -0.003 A 
ATOM      4  C5  UNL d   1       1.323   1.865   1.607  0.00  0.00     0.000 A 
ATOM      5  C6  UNL d   1       0.541   2.123   0.482  0.00  0.00     0.000 A 
ATOM      6  C7  UNL d   1       0.411   1.169  -0.542  0.00  0.00    -0.073 A 
ATOM      7  C8  UNL d   1      -0.440   1.502  -1.736  0.00  0.00     0.078 C 
ENDROOT
BRANCH   1   8
ATOM      8  C1  UNL d   1       1.056  -1.111  -1.515  0.00  0.00     0.053 C 
ATOM      9  C   UNL d   1       0.656  -2.474  -0.973  0.00  0.00     0.018 C 
ENDBRANCH   1   8
TORSDOF 1
ENDMDL
