MODEL 1
REMARK minimizedAffinity 7.20733452
REMARK minimizedRMSD -1
REMARK  1 active torsions:
REMARK  status: ('A' for Active; 'I' for Inactive)
REMARK    1  A    between atoms: C1_2  and  C2_3 
ROOT
ATOM      1  C2  UNL d   1       1.498   3.851  -1.064  0.00  0.00    -0.076 A 
ATOM      2  C3  UNL d   1       1.571   3.495  -2.422  0.00  0.00     0.004 A 
ATOM      3  C4  UNL d   1       1.329   2.185  -2.834  0.00  0.00    -0.003 A 
ATOM      4  C5  UNL d   1       1.009   1.211  -1.894  0.00  0.00     0.000 A 
ATOM      5  C6  UNL d   1       0.914   1.551  -0.545  0.00  0.00     0.000 A 
ATOM      6  C7  UNL d   1       1.139   2.870  -0.115  0.00  0.00    -0.073 A 
ATOM      7  C8  UNL d   1       1.030   3.179   1.353  0.00  0.00     0.078 C 
ENDROOT
BRANCH   1   8
ATOM      8  C1  UNL d   1       1.797   5.281  -0.673  0.00  0.00     0.053 C 
ATOM      9  C   UNL d   1       2.666   5.995  -1.697  0.00  0.00     0.018 C 
ENDBRANCH   1   8
TORSDOF 1
ENDMDL
