MODEL 1
REMARK minimizedAffinity -2.21206713
REMARK minimizedRMSD -1
REMARK  1 active torsions:
REMARK  status: ('A' for Active; 'I' for Inactive)
REMARK    1  A    between atoms: C1_2  and  C2_3 
ROOT
ATOM      1  C2  UNL d   1       1.122   2.767  -0.562  0.00  0.00    -0.076 A 
ATOM      2  C3  UNL d   1       1.235   3.469   0.651  0.00  0.00     0.004 A 
ATOM      3  C4  UNL d   1       1.575   4.820   0.669  0.00  0.00    -0.003 A 
ATOM      4  C5  UNL d   1       1.807   5.493  -0.526  0.00  0.00     0.000 A 
ATOM      5  C6  UNL d   1       1.682   4.816  -1.740  0.00  0.00     0.000 A 
ATOM      6  C7  UNL d   1       1.324   3.458  -1.776  0.00  0.00    -0.073 A 
ATOM      7  C8  UNL d   1       1.210   2.777  -3.112  0.00  0.00     0.078 C 
ENDROOT
BRANCH   1   8
ATOM      8  C1  UNL d   1       0.778   1.295  -0.518  0.00  0.00     0.053 C 
ATOM      9  C   UNL d   1       1.418   0.582   0.663  0.00  0.00     0.018 C 
ENDBRANCH   1   8
TORSDOF 1
ENDMDL
