MODEL 1
REMARK minimizedAffinity -1.0610472
REMARK minimizedRMSD -1
REMARK  1 active torsions:
REMARK  status: ('A' for Active; 'I' for Inactive)
REMARK    1  A    between atoms: C1_2  and  C2_3 
ROOT
ATOM      1  C2  UNL d   1       1.665   3.963  -0.619  0.00  0.00    -0.076 A 
ATOM      2  C3  UNL d   1       1.698   3.138  -1.758  0.00  0.00     0.004 A 
ATOM      3  C4  UNL d   1       1.714   1.750  -1.638  0.00  0.00    -0.003 A 
ATOM      4  C5  UNL d   1       1.698   1.163  -0.377  0.00  0.00     0.000 A 
ATOM      5  C6  UNL d   1       1.648   1.965   0.762  0.00  0.00     0.000 A 
ATOM      6  C7  UNL d   1       1.614   3.366   0.659  0.00  0.00    -0.073 A 
ATOM      7  C8  UNL d   1       1.567   4.182   1.921  0.00  0.00     0.078 C 
ENDROOT
BRANCH   1   8
ATOM      8  C1  UNL d   1       1.676   5.462  -0.811  0.00  0.00     0.053 C 
ATOM      9  C   UNL d   1       3.062   5.999  -1.131  0.00  0.00     0.018 C 
ENDBRANCH   1   8
TORSDOF 1
ENDMDL
