MODEL 1
REMARK minimizedAffinity -1.65941429
REMARK minimizedRMSD -1
REMARK  1 active torsions:
REMARK  status: ('A' for Active; 'I' for Inactive)
REMARK    1  A    between atoms: C1_2  and  C2_3 
ROOT
ATOM      1  C2  UNL d   1       1.331   2.594  -1.077  0.00  0.00    -0.076 A 
ATOM      2  C3  UNL d   1       1.514   1.417  -1.824  0.00  0.00     0.004 A 
ATOM      3  C4  UNL d   1       1.624   0.178  -1.196  0.00  0.00    -0.003 A 
ATOM      4  C5  UNL d   1       1.553   0.095   0.191  0.00  0.00     0.000 A 
ATOM      5  C6  UNL d   1       1.355   1.250   0.947  0.00  0.00     0.000 A 
ATOM      6  C7  UNL d   1       1.226   2.505   0.328  0.00  0.00    -0.073 A 
ATOM      7  C8  UNL d   1       1.019   3.719   1.192  0.00  0.00     0.078 C 
ENDROOT
BRANCH   1   8
ATOM      8  C1  UNL d   1       1.246   3.913  -1.812  0.00  0.00     0.053 C 
ATOM      9  C   UNL d   1       2.103   4.993  -1.171  0.00  0.00     0.018 C 
ENDBRANCH   1   8
TORSDOF 1
ENDMDL
