MODEL 1
REMARK minimizedAffinity 13.9984541
REMARK minimizedRMSD -1
REMARK  3 active torsions:
REMARK  status: ('A' for Active; 'I' for Inactive)
REMARK    1  A    between atoms: C3'_2  and  C2'_3 
REMARK    2  A    between atoms: C2'_3  and  C1'_4 
REMARK    3  A    between atoms: C1'_4  and  C1_5 
ROOT
ATOM      1  C1  N4B d   1       3.004  -0.886   2.887  0.00  0.00    -0.075 A 
ATOM      2  C2  N4B d   1       4.210  -1.065   3.601  0.00  0.00     0.002 A 
ATOM      3  C3  N4B d   1       5.404  -1.124   2.926  0.00  0.00     0.002 A 
ATOM      4  C4  N4B d   1       5.416  -1.026   1.542  0.00  0.00    -0.004 A 
ATOM      5  C5  N4B d   1       4.250  -0.827   0.863  0.00  0.00     0.002 A 
ATOM      6  C6  N4B d   1       3.042  -0.762   1.529  0.00  0.00     0.002 A 
ENDROOT
BRANCH   1   7
ATOM      7  C1' N4B d   1       1.666  -0.901   3.574  0.00  0.00     0.057 C 
BRANCH   7   8
ATOM      8  C2' N4B d   1       0.584  -0.510   2.571  0.00  0.00     0.009 C 
BRANCH   8   9
ATOM      9  C3' N4B d   1      -0.639  -1.406   2.677  0.00  0.00     0.004 C 
ATOM     10  C4' N4B d   1      -1.080  -1.945   1.349  0.00  0.00     0.003 C 
ENDBRANCH   8   9
ENDBRANCH   7   8
ENDBRANCH   1   7
TORSDOF 3
ENDMDL
