MODEL 1
REMARK minimizedAffinity 10.3733492
REMARK minimizedRMSD -1
REMARK  3 active torsions:
REMARK  status: ('A' for Active; 'I' for Inactive)
REMARK    1  A    between atoms: C3'_2  and  C2'_3 
REMARK    2  A    between atoms: C2'_3  and  C1'_4 
REMARK    3  A    between atoms: C1'_4  and  C1_5 
ROOT
ATOM      1  C1  N4B d   1      -4.943   1.734   4.709  0.00  0.00    -0.075 A 
ATOM      2  C2  N4B d   1      -4.578   0.832   3.685  0.00  0.00     0.002 A 
ATOM      3  C3  N4B d   1      -4.800  -0.514   3.844  0.00  0.00     0.002 A 
ATOM      4  C4  N4B d   1      -5.366  -0.981   5.021  0.00  0.00    -0.004 A 
ATOM      5  C5  N4B d   1      -5.738  -0.101   5.995  0.00  0.00     0.002 A 
ATOM      6  C6  N4B d   1      -5.525   1.254   5.847  0.00  0.00     0.002 A 
ENDROOT
BRANCH   1   7
ATOM      7  C1' N4B d   1      -4.642   3.204   4.616  0.00  0.00     0.057 C 
BRANCH   7   8
ATOM      8  C2' N4B d   1      -4.838   3.843   5.988  0.00  0.00     0.009 C 
BRANCH   8   9
ATOM      9  C3' N4B d   1      -5.989   4.835   5.994  0.00  0.00     0.004 C 
ATOM     10  C4' N4B d   1      -5.759   5.996   5.073  0.00  0.00     0.003 C 
ENDBRANCH   8   9
ENDBRANCH   7   8
ENDBRANCH   1   7
TORSDOF 3
ENDMDL
