MODEL 1
REMARK minimizedAffinity 7.86706161
REMARK minimizedRMSD -1
REMARK  3 active torsions:
REMARK  status: ('A' for Active; 'I' for Inactive)
REMARK    1  A    between atoms: C3'_2  and  C2'_3 
REMARK    2  A    between atoms: C2'_3  and  C1'_4 
REMARK    3  A    between atoms: C1'_4  and  C1_5 
ROOT
ATOM      1  C1  N4B d   1       4.025  -0.083   1.601  0.00  0.00    -0.075 A 
ATOM      2  C2  N4B d   1       2.843   0.463   2.150  0.00  0.00     0.002 A 
ATOM      3  C3  N4B d   1       2.142   1.418   1.456  0.00  0.00     0.002 A 
ATOM      4  C4  N4B d   1       2.611   1.855   0.226  0.00  0.00    -0.004 A 
ATOM      5  C5  N4B d   1       3.739   1.304  -0.309  0.00  0.00     0.002 A 
ATOM      6  C6  N4B d   1       4.452   0.340   0.376  0.00  0.00     0.002 A 
ENDROOT
BRANCH   1   7
ATOM      7  C1' N4B d   1       4.871  -1.068   2.361  0.00  0.00     0.057 C 
BRANCH   7   8
ATOM      8  C2' N4B d   1       4.676  -0.846   3.858  0.00  0.00     0.009 C 
BRANCH   8   9
ATOM      9  C3' N4B d   1       5.967  -0.434   4.544  0.00  0.00     0.004 C 
ATOM     10  C4' N4B d   1       5.991  -0.795   6.000  0.00  0.00     0.003 C 
ENDBRANCH   8   9
ENDBRANCH   7   8
ENDBRANCH   1   7
TORSDOF 3
ENDMDL
