MODEL 1
REMARK minimizedAffinity 17.1348743
REMARK minimizedRMSD -1
REMARK  3 active torsions:
REMARK  status: ('A' for Active; 'I' for Inactive)
REMARK    1  A    between atoms: C3'_2  and  C2'_3 
REMARK    2  A    between atoms: C2'_3  and  C1'_4 
REMARK    3  A    between atoms: C1'_4  and  C1_5 
ROOT
ATOM      1  C1  N4B d   1      -3.128  -3.111  -2.406  0.00  0.00    -0.075 A 
ATOM      2  C2  N4B d   1      -2.206  -3.053  -3.474  0.00  0.00     0.002 A 
ATOM      3  C3  N4B d   1      -1.138  -2.193  -3.413  0.00  0.00     0.002 A 
ATOM      4  C4  N4B d   1      -0.982  -1.370  -2.307  0.00  0.00    -0.004 A 
ATOM      5  C5  N4B d   1      -1.862  -1.451  -1.268  0.00  0.00     0.002 A 
ATOM      6  C6  N4B d   1      -2.939  -2.314  -1.315  0.00  0.00     0.002 A 
ENDROOT
BRANCH   1   7
ATOM      7  C1' N4B d   1      -4.359  -3.974  -2.465  0.00  0.00     0.057 C 
BRANCH   7   8
ATOM      8  C2' N4B d   1      -5.479  -3.201  -3.155  0.00  0.00     0.009 C 
BRANCH   8   9
ATOM      9  C3' N4B d   1      -5.305  -3.173  -4.664  0.00  0.00     0.004 C 
ATOM     10  C4' N4B d   1      -6.000  -2.010  -5.307  0.00  0.00     0.003 C 
ENDBRANCH   8   9
ENDBRANCH   7   8
ENDBRANCH   1   7
TORSDOF 3
ENDMDL
