MODEL 1
REMARK minimizedAffinity 15.9923849
REMARK minimizedRMSD -1
REMARK  3 active torsions:
REMARK  status: ('A' for Active; 'I' for Inactive)
REMARK    1  A    between atoms: C3'_2  and  C2'_3 
REMARK    2  A    between atoms: C2'_3  and  C1'_4 
REMARK    3  A    between atoms: C1'_4  and  C1_5 
ROOT
ATOM      1  C1  N4B d   1       3.362  -0.485   1.390  0.00  0.00    -0.075 A 
ATOM      2  C2  N4B d   1       3.959  -0.896   0.178  0.00  0.00     0.002 A 
ATOM      3  C3  N4B d   1       5.267  -1.315   0.165  0.00  0.00     0.002 A 
ATOM      4  C4  N4B d   1       5.999  -1.314   1.342  0.00  0.00    -0.004 A 
ATOM      5  C5  N4B d   1       5.407  -0.939   2.513  0.00  0.00     0.002 A 
ATOM      6  C6  N4B d   1       4.093  -0.519   2.542  0.00  0.00     0.002 A 
ENDROOT
BRANCH   1   7
ATOM      7  C1' N4B d   1       1.961   0.063   1.439  0.00  0.00     0.057 C 
BRANCH   7   8
ATOM      8  C2' N4B d   1       1.912   1.382   0.673  0.00  0.00     0.009 C 
BRANCH   8   9
ATOM      9  C3' N4B d   1       3.272   2.056   0.615  0.00  0.00     0.004 C 
ATOM     10  C4' N4B d   1       3.761   2.257  -0.789  0.00  0.00     0.003 C 
ENDBRANCH   8   9
ENDBRANCH   7   8
ENDBRANCH   1   7
TORSDOF 3
ENDMDL
