MODEL 1
REMARK minimizedAffinity 15.6279259
REMARK minimizedRMSD -1
REMARK  3 active torsions:
REMARK  status: ('A' for Active; 'I' for Inactive)
REMARK    1  A    between atoms: C3'_2  and  C2'_3 
REMARK    2  A    between atoms: C2'_3  and  C1'_4 
REMARK    3  A    between atoms: C1'_4  and  C1_5 
ROOT
ATOM      1  C1  N4B d   1       1.987   0.721   1.329  0.00  0.00    -0.075 A 
ATOM      2  C2  N4B d   1       2.876  -0.364   1.489  0.00  0.00     0.002 A 
ATOM      3  C3  N4B d   1       4.126  -0.317   0.922  0.00  0.00     0.002 A 
ATOM      4  C4  N4B d   1       4.500   0.792   0.178  0.00  0.00    -0.004 A 
ATOM      5  C5  N4B d   1       3.645   1.847   0.049  0.00  0.00     0.002 A 
ATOM      6  C6  N4B d   1       2.387   1.814   0.617  0.00  0.00     0.002 A 
ENDROOT
BRANCH   1   7
ATOM      7  C1' N4B d   1       0.579   0.678   1.857  0.00  0.00     0.057 C 
BRANCH   7   8
ATOM      8  C2' N4B d   1       0.250  -0.747   2.291  0.00  0.00     0.009 C 
BRANCH   8   9
ATOM      9  C3' N4B d   1      -1.117  -1.189   1.799  0.00  0.00     0.004 C 
ATOM     10  C4' N4B d   1      -1.043  -2.322   0.819  0.00  0.00     0.003 C 
ENDBRANCH   8   9
ENDBRANCH   7   8
ENDBRANCH   1   7
TORSDOF 3
ENDMDL
