MODEL 1
REMARK minimizedAffinity 10.0817261
REMARK minimizedRMSD -1
REMARK  3 active torsions:
REMARK  status: ('A' for Active; 'I' for Inactive)
REMARK    1  A    between atoms: C3'_2  and  C2'_3 
REMARK    2  A    between atoms: C2'_3  and  C1'_4 
REMARK    3  A    between atoms: C1'_4  and  C1_5 
ROOT
ATOM      1  C1  N4B d   1      -4.815   0.597   3.869  0.00  0.00    -0.075 A 
ATOM      2  C2  N4B d   1      -4.222   1.874   3.983  0.00  0.00     0.002 A 
ATOM      3  C3  N4B d   1      -4.533   2.682   5.049  0.00  0.00     0.002 A 
ATOM      4  C4  N4B d   1      -5.443   2.245   5.999  0.00  0.00    -0.004 A 
ATOM      5  C5  N4B d   1      -5.992   1.000   5.895  0.00  0.00     0.002 A 
ATOM      6  C6  N4B d   1      -5.686   0.175   4.831  0.00  0.00     0.002 A 
ENDROOT
BRANCH   1   7
ATOM      7  C1' N4B d   1      -4.572  -0.287   2.677  0.00  0.00     0.057 C 
BRANCH   7   8
ATOM      8  C2' N4B d   1      -3.263  -1.046   2.874  0.00  0.00     0.009 C 
BRANCH   8   9
ATOM      9  C3' N4B d   1      -2.906  -1.889   1.662  0.00  0.00     0.004 C 
ATOM     10  C4' N4B d   1      -1.810  -2.874   1.941  0.00  0.00     0.003 C 
ENDBRANCH   8   9
ENDBRANCH   7   8
ENDBRANCH   1   7
TORSDOF 3
ENDMDL
