MODEL 1
REMARK minimizedAffinity 13.0725193
REMARK minimizedRMSD -1
REMARK  3 active torsions:
REMARK  status: ('A' for Active; 'I' for Inactive)
REMARK    1  A    between atoms: C3'_2  and  C2'_3 
REMARK    2  A    between atoms: C2'_3  and  C1'_4 
REMARK    3  A    between atoms: C1'_4  and  C1_5 
ROOT
ATOM      1  C1  N4B d   1       2.603   0.065   2.579  0.00  0.00    -0.075 A 
ATOM      2  C2  N4B d   1       1.475  -0.098   3.413  0.00  0.00     0.002 A 
ATOM      3  C3  N4B d   1       0.371   0.699   3.237  0.00  0.00     0.002 A 
ATOM      4  C4  N4B d   1       0.379   1.674   2.250  0.00  0.00    -0.004 A 
ATOM      5  C5  N4B d   1       1.462   1.808   1.433  0.00  0.00     0.002 A 
ATOM      6  C6  N4B d   1       2.578   1.011   1.596  0.00  0.00     0.002 A 
ENDROOT
BRANCH   1   7
ATOM      7  C1' N4B d   1       3.866  -0.725   2.789  0.00  0.00     0.057 C 
BRANCH   7   8
ATOM      8  C2' N4B d   1       4.200  -0.750   4.277  0.00  0.00     0.009 C 
BRANCH   8   9
ATOM      9  C3' N4B d   1       5.644  -0.362   4.543  0.00  0.00     0.004 C 
ATOM     10  C4' N4B d   1       5.999  -0.403   5.999  0.00  0.00     0.003 C 
ENDBRANCH   8   9
ENDBRANCH   7   8
ENDBRANCH   1   7
TORSDOF 3
ENDMDL
