MODEL 1
REMARK minimizedAffinity 7.76528597
REMARK minimizedRMSD -1
REMARK  3 active torsions:
REMARK  status: ('A' for Active; 'I' for Inactive)
REMARK    1  A    between atoms: C3'_2  and  C2'_3 
REMARK    2  A    between atoms: C2'_3  and  C1'_4 
REMARK    3  A    between atoms: C1'_4  and  C1_5 
ROOT
ATOM      1  C1  N4B d   1      -1.901  -3.954  -3.557  0.00  0.00    -0.075 A 
ATOM      2  C2  N4B d   1      -1.698  -5.316  -3.242  0.00  0.00     0.002 A 
ATOM      3  C3  N4B d   1      -0.646  -6.000  -3.800  0.00  0.00     0.002 A 
ATOM      4  C4  N4B d   1       0.202  -5.351  -4.685  0.00  0.00    -0.004 A 
ATOM      5  C5  N4B d   1       0.014  -4.029  -4.964  0.00  0.00     0.002 A 
ATOM      6  C6  N4B d   1      -1.037  -3.328  -4.408  0.00  0.00     0.002 A 
ENDROOT
BRANCH   1   7
ATOM      7  C1' N4B d   1      -3.088  -3.188  -3.039  0.00  0.00     0.057 C 
BRANCH   7   8
ATOM      8  C2' N4B d   1      -4.316  -4.094  -3.058  0.00  0.00     0.009 C 
BRANCH   8   9
ATOM      9  C3' N4B d   1      -5.477  -3.460  -3.804  0.00  0.00     0.004 C 
ATOM     10  C4' N4B d   1      -5.271  -3.439  -5.290  0.00  0.00     0.003 C 
ENDBRANCH   8   9
ENDBRANCH   7   8
ENDBRANCH   1   7
TORSDOF 3
ENDMDL
