MODEL 1
REMARK minimizedAffinity 21.7826843
REMARK minimizedRMSD -1
REMARK  3 active torsions:
REMARK  status: ('A' for Active; 'I' for Inactive)
REMARK    1  A    between atoms: C3'_2  and  C2'_3 
REMARK    2  A    between atoms: C2'_3  and  C1'_4 
REMARK    3  A    between atoms: C1'_4  and  C1_5 
ROOT
ATOM      1  C1  N4B d   1      -3.297  -3.662  -2.858  0.00  0.00    -0.075 A 
ATOM      2  C2  N4B d   1      -4.473  -3.157  -3.453  0.00  0.00     0.002 A 
ATOM      3  C3  N4B d   1      -5.609  -3.928  -3.491  0.00  0.00     0.002 A 
ATOM      4  C4  N4B d   1      -5.587  -5.209  -2.960  0.00  0.00    -0.004 A 
ATOM      5  C5  N4B d   1      -4.454  -5.680  -2.364  0.00  0.00     0.002 A 
ATOM      6  C6  N4B d   1      -3.306  -4.915  -2.315  0.00  0.00     0.002 A 
ENDROOT
BRANCH   1   7
ATOM      7  C1' N4B d   1      -2.006  -2.889  -2.869  0.00  0.00     0.057 C 
BRANCH   7   8
ATOM      8  C2' N4B d   1      -1.291  -3.127  -4.196  0.00  0.00     0.009 C 
BRANCH   8   9
ATOM      9  C3' N4B d   1      -0.077  -4.026  -4.035  0.00  0.00     0.004 C 
ATOM     10  C4' N4B d   1      -0.253  -5.362  -4.691  0.00  0.00     0.003 C 
ENDBRANCH   8   9
ENDBRANCH   7   8
ENDBRANCH   1   7
TORSDOF 3
ENDMDL
