MODEL 1
REMARK minimizedAffinity 16.4529152
REMARK minimizedRMSD -1
REMARK  3 active torsions:
REMARK  status: ('A' for Active; 'I' for Inactive)
REMARK    1  A    between atoms: C3'_2  and  C2'_3 
REMARK    2  A    between atoms: C2'_3  and  C1'_4 
REMARK    3  A    between atoms: C1'_4  and  C1_5 
ROOT
ATOM      1  C1  N4B d   1       0.141   1.133   3.123  0.00  0.00    -0.075 A 
ATOM      2  C2  N4B d   1       0.593   2.288   2.448  0.00  0.00     0.002 A 
ATOM      3  C3  N4B d   1       1.655   2.205   1.580  0.00  0.00     0.002 A 
ATOM      4  C4  N4B d   1       2.289   0.987   1.387  0.00  0.00    -0.004 A 
ATOM      5  C5  N4B d   1       1.831  -0.129   2.024  0.00  0.00     0.002 A 
ATOM      6  C6  N4B d   1       0.762  -0.061   2.895  0.00  0.00     0.002 A 
ENDROOT
BRANCH   1   7
ATOM      7  C1' N4B d   1      -0.960   1.191   4.145  0.00  0.00     0.057 C 
BRANCH   7   8
ATOM      8  C2' N4B d   1      -1.921   2.320   3.784  0.00  0.00     0.009 C 
BRANCH   8   9
ATOM      9  C3' N4B d   1      -3.327   2.055   4.292  0.00  0.00     0.004 C 
ATOM     10  C4' N4B d   1      -4.020   0.959   3.538  0.00  0.00     0.003 C 
ENDBRANCH   8   9
ENDBRANCH   7   8
ENDBRANCH   1   7
TORSDOF 3
ENDMDL
