MODEL 1
REMARK minimizedAffinity -5.28798485
REMARK minimizedRMSD -1
REMARK  1 active torsions:
REMARK  status: ('A' for Active; 'I' for Inactive)
REMARK    1  A    between atoms: C1_2  and  C2_3 
ROOT
ATOM      1  C2  UNL d   1      -0.100   0.375   0.006  0.00  0.00    -0.081 A 
ATOM      2  C3  UNL d   1      -0.747   1.255  -0.870  0.00  0.00     0.006 A 
ATOM      3  C4  UNL d   1      -1.313   2.440  -0.394  0.00  0.00     0.002 A 
ATOM      4  C5  UNL d   1      -1.234   2.768   0.964  0.00  0.00    -0.080 A 
ATOM      5  C6  UNL d   1      -1.810   4.052   1.483  0.00  0.00     0.076 C 
ATOM      6  C7  UNL d   1      -0.603   1.881   1.842  0.00  0.00     0.002 A 
ATOM      7  C8  UNL d   1      -0.037   0.696   1.366  0.00  0.00     0.006 A 
ENDROOT
BRANCH   1   8
ATOM      8  C1  UNL d   1       0.567  -0.872  -0.515  0.00  0.00     0.054 C 
ATOM      9  C   UNL d   1      -0.455  -1.951  -0.843  0.00  0.00     0.018 C 
ENDBRANCH   1   8
TORSDOF 1
ENDMDL
