MODEL 1
REMARK minimizedAffinity -4.81840944
REMARK minimizedRMSD -1
REMARK  1 active torsions:
REMARK  status: ('A' for Active; 'I' for Inactive)
REMARK    1  A    between atoms: C1_2  and  C2_3 
ROOT
ATOM      1  C2  UNL d   1       0.284  -0.228  -0.241  0.00  0.00    -0.081 A 
ATOM      2  C3  UNL d   1      -0.282   0.746  -1.073  0.00  0.00     0.006 A 
ATOM      3  C4  UNL d   1      -0.819   1.915  -0.531  0.00  0.00     0.002 A 
ATOM      4  C5  UNL d   1      -0.792   2.135   0.851  0.00  0.00    -0.080 A 
ATOM      5  C6  UNL d   1      -1.338   3.400   1.443  0.00  0.00     0.076 C 
ATOM      6  C7  UNL d   1      -0.243   1.154   1.684  0.00  0.00     0.002 A 
ATOM      7  C8  UNL d   1       0.293  -0.016   1.142  0.00  0.00     0.006 A 
ENDROOT
BRANCH   1   8
ATOM      8  C1  UNL d   1       0.922  -1.462  -0.828  0.00  0.00     0.054 C 
ATOM      9  C   UNL d   1      -0.127  -2.484  -1.241  0.00  0.00     0.018 C 
ENDBRANCH   1   8
TORSDOF 1
ENDMDL
