MODEL 1
REMARK minimizedAffinity -4.96056032
REMARK minimizedRMSD -1
REMARK  1 active torsions:
REMARK  status: ('A' for Active; 'I' for Inactive)
REMARK    1  A    between atoms: C1_2  and  C2_3 
ROOT
ATOM      1  C2  UNL d   1       0.166  -0.621  -0.031  0.00  0.00    -0.081 A 
ATOM      2  C3  UNL d   1       0.189  -0.172   1.295  0.00  0.00     0.006 A 
ATOM      3  C4  UNL d   1      -0.277   1.105   1.619  0.00  0.00     0.002 A 
ATOM      4  C5  UNL d   1      -0.782   1.949   0.624  0.00  0.00    -0.080 A 
ATOM      5  C6  UNL d   1      -1.314   3.310   0.963  0.00  0.00     0.076 C 
ATOM      6  C7  UNL d   1      -0.790   1.507  -0.703  0.00  0.00     0.002 A 
ATOM      7  C8  UNL d   1      -0.323   0.231  -1.027  0.00  0.00     0.006 A 
ENDROOT
BRANCH   1   8
ATOM      8  C1  UNL d   1       0.608  -2.020  -0.374  0.00  0.00     0.054 C 
ATOM      9  C   UNL d   1      -0.497  -2.793  -1.080  0.00  0.00     0.018 C 
ENDBRANCH   1   8
TORSDOF 1
ENDMDL
