MODEL 1
REMARK minimizedAffinity -6.1845746
REMARK minimizedRMSD -1
REMARK  1 active torsions:
REMARK  status: ('A' for Active; 'I' for Inactive)
REMARK    1  A    between atoms: C1_2  and  C2_3 
ROOT
ATOM      1  C2  UNL d   1       0.247   0.510  -0.648  0.00  0.00    -0.081 A 
ATOM      2  C3  UNL d   1      -0.203   1.643  -1.336  0.00  0.00     0.006 A 
ATOM      3  C4  UNL d   1      -0.811   2.695  -0.648  0.00  0.00     0.002 A 
ATOM      4  C5  UNL d   1      -0.973   2.635   0.741  0.00  0.00    -0.080 A 
ATOM      5  C6  UNL d   1      -1.598   3.770   1.496  0.00  0.00     0.076 C 
ATOM      6  C7  UNL d   1      -0.540   1.495   1.426  0.00  0.00     0.002 A 
ATOM      7  C8  UNL d   1       0.068   0.443   0.738  0.00  0.00     0.006 A 
ENDROOT
BRANCH   1   8
ATOM      8  C1  UNL d   1       0.962  -0.597  -1.379  0.00  0.00     0.054 C 
ATOM      9  C   UNL d   1       0.295  -1.943  -1.133  0.00  0.00     0.018 C 
ENDBRANCH   1   8
TORSDOF 1
ENDMDL
