MODEL 1
REMARK minimizedAffinity 7.61701822
REMARK minimizedRMSD -1
REMARK  1 active torsions:
REMARK  status: ('A' for Active; 'I' for Inactive)
REMARK    1  A    between atoms: C1_2  and  C2_3 
ROOT
ATOM      1  C2  UNL d   1      -4.553   2.399  -2.610  0.00  0.00    -0.081 A 
ATOM      2  C3  UNL d   1      -4.220   1.556  -3.677  0.00  0.00     0.006 A 
ATOM      3  C4  UNL d   1      -4.411   0.176  -3.576  0.00  0.00     0.002 A 
ATOM      4  C5  UNL d   1      -4.945  -0.383  -2.410  0.00  0.00    -0.080 A 
ATOM      5  C6  UNL d   1      -5.183  -1.859  -2.299  0.00  0.00     0.076 C 
ATOM      6  C7  UNL d   1      -5.261   0.457  -1.337  0.00  0.00     0.002 A 
ATOM      7  C8  UNL d   1      -5.070   1.837  -1.437  0.00  0.00     0.006 A 
ENDROOT
BRANCH   1   8
ATOM      8  C1  UNL d   1      -4.409   3.894  -2.740  0.00  0.00     0.054 C 
ATOM      9  C   UNL d   1      -5.069   4.405  -4.013  0.00  0.00     0.018 C 
ENDBRANCH   1   8
TORSDOF 1
ENDMDL
