MODEL 1
REMARK minimizedAffinity 6.10747814
REMARK minimizedRMSD -1
REMARK  1 active torsions:
REMARK  status: ('A' for Active; 'I' for Inactive)
REMARK    1  A    between atoms: C1_2  and  C2_3 
ROOT
ATOM      1  C2  UNL d   1       0.295   0.579  -0.127  0.00  0.00    -0.081 A 
ATOM      2  C3  UNL d   1       1.188  -0.496  -0.219  0.00  0.00     0.006 A 
ATOM      3  C4  UNL d   1       1.634  -1.146   0.934  0.00  0.00     0.002 A 
ATOM      4  C5  UNL d   1       1.189  -0.738   2.196  0.00  0.00    -0.080 A 
ATOM      5  C6  UNL d   1       1.637  -1.447   3.440  0.00  0.00     0.076 C 
ATOM      6  C7  UNL d   1       0.311   0.347   2.289  0.00  0.00     0.002 A 
ATOM      7  C8  UNL d   1      -0.135   0.998   1.137  0.00  0.00     0.006 A 
ENDROOT
BRANCH   1   8
ATOM      8  C1  UNL d   1      -0.238   1.241  -1.372  0.00  0.00     0.054 C 
ATOM      9  C   UNL d   1      -1.757   1.169  -1.429  0.00  0.00     0.018 C 
ENDBRANCH   1   8
TORSDOF 1
ENDMDL
