MODEL 1
REMARK minimizedAffinity 3.72596765
REMARK minimizedRMSD -1
REMARK  1 active torsions:
REMARK  status: ('A' for Active; 'I' for Inactive)
REMARK    1  A    between atoms: N_2  and  C1_3 
ROOT
ATOM      1  C1  UNL d   1       0.440  -2.269   1.203  0.00  0.00     0.143 A 
ATOM      2  C2  UNL d   1       0.634  -3.092   2.318  0.00  0.00    -0.057 A 
ATOM      3  C3  UNL d   1       1.481  -2.708   3.365  0.00  0.00     0.033 A 
ATOM      4  C4  UNL d   1       2.173  -1.503   3.302  0.00  0.00    -0.042 A 
ATOM      5  C5  UNL d   1       2.015  -0.681   2.193  0.00  0.00     0.033 A 
ATOM      6  C6  UNL d   1       1.163  -1.066   1.153  0.00  0.00    -0.057 A 
ENDROOT
BRANCH   1   7
ATOM      7  N   UNL d   1      -0.311  -2.638   0.085  0.00  0.00    -0.732 N 
ATOM      8  C   UNL d   1      -1.500  -1.900  -0.281  0.00  0.00     0.284 C 
ATOM      9  H3  UNL d   1       0.273  -2.904  -0.705  0.00  0.00     0.395 HD
ENDBRANCH   1   7
TORSDOF 1
ENDMDL
