MODEL 1
REMARK minimizedAffinity 4.97116375
REMARK minimizedRMSD -1
REMARK  1 active torsions:
REMARK  status: ('A' for Active; 'I' for Inactive)
REMARK    1  A    between atoms: N_2  and  C1_3 
ROOT
ATOM      1  C1  UNL d   1       2.474  -0.216   2.937  0.00  0.00     0.143 A 
ATOM      2  C2  UNL d   1       2.606  -0.107   1.549  0.00  0.00    -0.057 A 
ATOM      3  C3  UNL d   1       2.850   1.129   0.937  0.00  0.00     0.033 A 
ATOM      4  C4  UNL d   1       2.938   2.286   1.704  0.00  0.00    -0.042 A 
ATOM      5  C5  UNL d   1       2.785   2.205   3.084  0.00  0.00     0.033 A 
ATOM      6  C6  UNL d   1       2.548   0.967   3.689  0.00  0.00    -0.057 A 
ENDROOT
BRANCH   1   7
ATOM      7  N   UNL d   1       2.133  -1.400   3.595  0.00  0.00    -0.732 N 
ATOM      8  C   UNL d   1       1.274  -2.376   2.959  0.00  0.00     0.284 C 
ATOM      9  H3  UNL d   1       2.919  -1.804   4.100  0.00  0.00     0.395 HD
ENDBRANCH   1   7
TORSDOF 1
ENDMDL
