MODEL 1
REMARK minimizedAffinity 1.64734066
REMARK minimizedRMSD -1
REMARK  1 active torsions:
REMARK  status: ('A' for Active; 'I' for Inactive)
REMARK    1  A    between atoms: N_2  and  C1_3 
ROOT
ATOM      1  C1  UNL d   1       3.278  -2.261   3.615  0.00  0.00     0.143 A 
ATOM      2  C2  UNL d   1       3.699  -2.934   4.767  0.00  0.00    -0.057 A 
ATOM      3  C3  UNL d   1       5.047  -3.248   4.973  0.00  0.00     0.033 A 
ATOM      4  C4  UNL d   1       5.999  -2.919   4.014  0.00  0.00    -0.042 A 
ATOM      5  C5  UNL d   1       5.601  -2.272   2.849  0.00  0.00     0.033 A 
ATOM      6  C6  UNL d   1       4.253  -1.955   2.652  0.00  0.00    -0.057 A 
ENDROOT
BRANCH   1   7
ATOM      7  N   UNL d   1       1.939  -2.008   3.306  0.00  0.00    -0.732 N 
ATOM      8  C   UNL d   1       1.579  -1.364   2.062  0.00  0.00     0.284 C 
ATOM      9  H3  UNL d   1       1.328  -2.778   3.568  0.00  0.00     0.395 HD
ENDBRANCH   1   7
TORSDOF 1
ENDMDL
