MODEL 1
REMARK minimizedAffinity 0.226845965
REMARK minimizedRMSD -1
REMARK  1 active torsions:
REMARK  status: ('A' for Active; 'I' for Inactive)
REMARK    1  A    between atoms: N_2  and  C1_3 
ROOT
ATOM      1  C1  UNL d   1       1.035  -0.485   1.135  0.00  0.00     0.143 A 
ATOM      2  C2  UNL d   1       1.642   0.580   0.460  0.00  0.00    -0.057 A 
ATOM      3  C3  UNL d   1       2.700   1.295   1.034  0.00  0.00     0.033 A 
ATOM      4  C4  UNL d   1       3.152   0.975   2.310  0.00  0.00    -0.042 A 
ATOM      5  C5  UNL d   1       2.548  -0.063   3.010  0.00  0.00     0.033 A 
ATOM      6  C6  UNL d   1       1.496  -0.778   2.428  0.00  0.00    -0.057 A 
ENDROOT
BRANCH   1   7
ATOM      7  N   UNL d   1      -0.084  -1.171   0.659  0.00  0.00    -0.732 N 
ATOM      8  C   UNL d   1       0.037  -2.523   0.158  0.00  0.00     0.284 C 
ATOM      9  H3  UNL d   1      -0.910  -1.013   1.232  0.00  0.00     0.395 HD
ENDBRANCH   1   7
TORSDOF 1
ENDMDL
