MODEL 1
REMARK minimizedAffinity -0.00150448061
REMARK minimizedRMSD -1
REMARK  1 active torsions:
REMARK  status: ('A' for Active; 'I' for Inactive)
REMARK    1  A    between atoms: N_2  and  C1_3 
ROOT
ATOM      1  C1  UNL d   1       3.887  -3.772  -4.820  0.00  0.00     0.143 A 
ATOM      2  C2  UNL d   1       3.711  -3.038  -5.998  0.00  0.00    -0.057 A 
ATOM      3  C3  UNL d   1       3.764  -1.639  -5.996  0.00  0.00     0.033 A 
ATOM      4  C4  UNL d   1       3.968  -0.946  -4.808  0.00  0.00    -0.042 A 
ATOM      5  C5  UNL d   1       4.121  -1.654  -3.621  0.00  0.00     0.033 A 
ATOM      6  C6  UNL d   1       4.072  -3.051  -3.630  0.00  0.00    -0.057 A 
ENDROOT
BRANCH   1   7
ATOM      7  N   UNL d   1       3.746  -5.160  -4.739  0.00  0.00    -0.732 N 
ATOM      8  C   UNL d   1       3.770  -5.974  -5.936  0.00  0.00     0.284 C 
ATOM      9  H3  UNL d   1       4.259  -5.557  -3.956  0.00  0.00     0.395 HD
ENDBRANCH   1   7
TORSDOF 1
ENDMDL
