MODEL 1
REMARK minimizedAffinity -4.69172812
REMARK minimizedRMSD -1
REMARK  1 active torsions:
REMARK  status: ('A' for Active; 'I' for Inactive)
REMARK    1  A    between atoms: C1_2  and  C2_3 
ROOT
ATOM      1  C2  UNL d   1      -0.868  -1.008   0.478  0.00  0.00    -0.077 A 
ATOM      2  C3  UNL d   1      -0.366  -1.903   1.434  0.00  0.00     0.002 A 
ATOM      3  C4  UNL d   1      -1.084  -3.052   1.771  0.00  0.00     0.002 A 
ATOM      4  C5  UNL d   1      -2.305  -3.319   1.156  0.00  0.00    -0.004 A 
ATOM      5  C6  UNL d   1      -2.814  -2.434   0.206  0.00  0.00     0.002 A 
ATOM      6  C7  UNL d   1      -2.098  -1.284  -0.132  0.00  0.00     0.002 A 
ENDROOT
BRANCH   1   7
ATOM      7  C1  UNL d   1      -0.072   0.206   0.077  0.00  0.00     0.055 C 
ATOM      8  C   UNL d   1       1.412  -0.113  -0.021  0.00  0.00     0.019 C 
ENDBRANCH   1   7
TORSDOF 1
ENDMDL
