MODEL 1
REMARK minimizedAffinity -6.26273441
REMARK minimizedRMSD -1
REMARK  1 active torsions:
REMARK  status: ('A' for Active; 'I' for Inactive)
REMARK    1  A    between atoms: C1_2  and  C2_3 
ROOT
ATOM      1  C2  UNL d   1      -0.511  -0.719  -0.185  0.00  0.00    -0.077 A 
ATOM      2  C3  UNL d   1      -1.536  -0.419  -1.093  0.00  0.00     0.002 A 
ATOM      3  C4  UNL d   1      -2.834  -0.881  -0.870  0.00  0.00     0.002 A 
ATOM      4  C5  UNL d   1      -3.121  -1.640   0.262  0.00  0.00    -0.004 A 
ATOM      5  C6  UNL d   1      -2.109  -1.944   1.171  0.00  0.00     0.002 A 
ATOM      6  C7  UNL d   1      -0.810  -1.485   0.949  0.00  0.00     0.002 A 
ENDROOT
BRANCH   1   7
ATOM      7  C1  UNL d   1       0.880  -0.181  -0.398  0.00  0.00     0.055 C 
ATOM      8  C   UNL d   1       1.912  -0.993   0.372  0.00  0.00     0.019 C 
ENDBRANCH   1   7
TORSDOF 1
ENDMDL
