MODEL 1
REMARK minimizedAffinity -5.68444443
REMARK minimizedRMSD -1
REMARK  1 active torsions:
REMARK  status: ('A' for Active; 'I' for Inactive)
REMARK    1  A    between atoms: C1_2  and  C2_3 
ROOT
ATOM      1  C2  UNL d   1      -1.636  -0.444  -0.402  0.00  0.00    -0.077 A 
ATOM      2  C3  UNL d   1      -1.176   0.048  -1.631  0.00  0.00     0.002 A 
ATOM      3  C4  UNL d   1       0.172   0.366  -1.806  0.00  0.00     0.002 A 
ATOM      4  C5  UNL d   1       1.072   0.190  -0.757  0.00  0.00    -0.004 A 
ATOM      5  C6  UNL d   1       0.625  -0.297   0.471  0.00  0.00     0.002 A 
ATOM      6  C7  UNL d   1      -0.723  -0.613   0.647  0.00  0.00     0.002 A 
ENDROOT
BRANCH   1   7
ATOM      7  C1  UNL d   1      -3.080  -0.833  -0.227  0.00  0.00     0.055 C 
ATOM      8  C   UNL d   1      -3.210  -2.245   0.324  0.00  0.00     0.019 C 
ENDBRANCH   1   7
TORSDOF 1
ENDMDL
