MODEL 1
REMARK minimizedAffinity -5.10672855
REMARK minimizedRMSD -1
REMARK  1 active torsions:
REMARK  status: ('A' for Active; 'I' for Inactive)
REMARK    1  A    between atoms: C1_2  and  C2_3 
ROOT
ATOM      1  C2  UNL d   1      -2.335  -1.492   0.293  0.00  0.00    -0.077 A 
ATOM      2  C3  UNL d   1      -1.149  -0.867   0.701  0.00  0.00     0.002 A 
ATOM      3  C4  UNL d   1      -0.333  -1.461   1.665  0.00  0.00     0.002 A 
ATOM      4  C5  UNL d   1      -0.692  -2.684   2.227  0.00  0.00    -0.004 A 
ATOM      5  C6  UNL d   1      -1.871  -3.313   1.829  0.00  0.00     0.002 A 
ATOM      6  C7  UNL d   1      -2.688  -2.721   0.865  0.00  0.00     0.002 A 
ENDROOT
BRANCH   1   7
ATOM      7  C1  UNL d   1      -3.192  -0.877  -0.783  0.00  0.00     0.055 C 
ATOM      8  C   UNL d   1      -2.621  -1.149  -2.168  0.00  0.00     0.019 C 
ENDBRANCH   1   7
TORSDOF 1
ENDMDL
