MODEL 1
REMARK minimizedAffinity -5.53924561
REMARK minimizedRMSD -1
REMARK  1 active torsions:
REMARK  status: ('A' for Active; 'I' for Inactive)
REMARK    1  A    between atoms: C1_2  and  C2_3 
ROOT
ATOM      1  C2  UNL d   1      -0.683  -0.460   0.277  0.00  0.00    -0.077 A 
ATOM      2  C3  UNL d   1      -1.957   0.001  -0.084  0.00  0.00     0.002 A 
ATOM      3  C4  UNL d   1      -3.091  -0.764   0.198  0.00  0.00     0.002 A 
ATOM      4  C5  UNL d   1      -2.962  -1.991   0.845  0.00  0.00    -0.004 A 
ATOM      5  C6  UNL d   1      -1.699  -2.459   1.206  0.00  0.00     0.002 A 
ATOM      6  C7  UNL d   1      -0.565  -1.697   0.923  0.00  0.00     0.002 A 
ENDROOT
BRANCH   1   7
ATOM      7  C1  UNL d   1       0.536   0.386   0.018  0.00  0.00     0.055 C 
ATOM      8  C   UNL d   1       0.836   1.301   1.196  0.00  0.00     0.019 C 
ENDBRANCH   1   7
TORSDOF 1
ENDMDL
