MODEL 1
REMARK minimizedAffinity -5.9127574
REMARK minimizedRMSD -1
REMARK  1 active torsions:
REMARK  status: ('A' for Active; 'I' for Inactive)
REMARK    1  A    between atoms: C1_2  and  C2_3 
ROOT
ATOM      1  C2  UNL d   1      -0.375  -0.991   0.381  0.00  0.00    -0.077 A 
ATOM      2  C3  UNL d   1      -0.933  -2.038   1.128  0.00  0.00     0.002 A 
ATOM      3  C4  UNL d   1      -2.298  -2.321   1.038  0.00  0.00     0.002 A 
ATOM      4  C5  UNL d   1      -3.114  -1.566   0.198  0.00  0.00    -0.004 A 
ATOM      5  C6  UNL d   1      -2.569  -0.522  -0.548  0.00  0.00     0.002 A 
ATOM      6  C7  UNL d   1      -1.206  -0.237  -0.458  0.00  0.00     0.002 A 
ENDROOT
BRANCH   1   7
ATOM      7  C1  UNL d   1       1.104  -0.716   0.439  0.00  0.00     0.055 C 
ATOM      8  C   UNL d   1       1.391   0.778   0.389  0.00  0.00     0.019 C 
ENDBRANCH   1   7
TORSDOF 1
ENDMDL
