MODEL 1
REMARK minimizedAffinity -6.11044598
REMARK minimizedRMSD -1
REMARK  1 active torsions:
REMARK  status: ('A' for Active; 'I' for Inactive)
REMARK    1  A    between atoms: C1_2  and  C2_3 
ROOT
ATOM      1  C2  UNL d   1      -0.630  -0.838   0.554  0.00  0.00    -0.077 A 
ATOM      2  C3  UNL d   1      -1.199  -2.008   1.076  0.00  0.00     0.002 A 
ATOM      3  C4  UNL d   1      -2.546  -2.299   0.853  0.00  0.00     0.002 A 
ATOM      4  C5  UNL d   1      -3.334  -1.428   0.103  0.00  0.00    -0.004 A 
ATOM      5  C6  UNL d   1      -2.778  -0.261  -0.419  0.00  0.00     0.002 A 
ATOM      6  C7  UNL d   1      -1.432   0.032  -0.196  0.00  0.00     0.002 A 
ENDROOT
BRANCH   1   7
ATOM      7  C1  UNL d   1       0.835  -0.547   0.752  0.00  0.00     0.055 C 
ATOM      8  C   UNL d   1       1.263   0.689  -0.024  0.00  0.00     0.019 C 
ENDBRANCH   1   7
TORSDOF 1
ENDMDL
