MODEL 1
REMARK minimizedAffinity -6.0548625
REMARK minimizedRMSD -1
REMARK  1 active torsions:
REMARK  status: ('A' for Active; 'I' for Inactive)
REMARK    1  A    between atoms: C1_2  and  C2_3 
ROOT
ATOM      1  C2  UNL d   1      -0.937  -0.627   0.639  0.00  0.00    -0.077 A 
ATOM      2  C3  UNL d   1      -0.871  -1.717   1.519  0.00  0.00     0.002 A 
ATOM      3  C4  UNL d   1      -1.996  -2.512   1.745  0.00  0.00     0.002 A 
ATOM      4  C5  UNL d   1      -3.194  -2.227   1.093  0.00  0.00    -0.004 A 
ATOM      5  C6  UNL d   1      -3.271  -1.144   0.218  0.00  0.00     0.002 A 
ATOM      6  C7  UNL d   1      -2.148  -0.348  -0.008  0.00  0.00     0.002 A 
ENDROOT
BRANCH   1   7
ATOM      7  C1  UNL d   1       0.289   0.201   0.356  0.00  0.00     0.055 C 
ATOM      8  C   UNL d   1       0.313   0.678  -1.089  0.00  0.00     0.019 C 
ENDBRANCH   1   7
TORSDOF 1
ENDMDL
