MODEL 1
REMARK minimizedAffinity -5.97109795
REMARK minimizedRMSD -1
REMARK  1 active torsions:
REMARK  status: ('A' for Active; 'I' for Inactive)
REMARK    1  A    between atoms: C1_2  and  C2_3 
ROOT
ATOM      1  C2  UNL d   1      -0.980  -0.488  -0.245  0.00  0.00    -0.077 A 
ATOM      2  C3  UNL d   1      -0.858  -1.463   0.755  0.00  0.00     0.002 A 
ATOM      3  C4  UNL d   1      -1.984  -2.150   1.212  0.00  0.00     0.002 A 
ATOM      4  C5  UNL d   1      -3.239  -1.873   0.673  0.00  0.00    -0.004 A 
ATOM      5  C6  UNL d   1      -3.371  -0.904  -0.320  0.00  0.00     0.002 A 
ATOM      6  C7  UNL d   1      -2.247  -0.215  -0.778  0.00  0.00     0.002 A 
ENDROOT
BRANCH   1   7
ATOM      7  C1  UNL d   1       0.240   0.219  -0.775  0.00  0.00     0.055 C 
ATOM      8  C   UNL d   1       1.495  -0.207  -0.027  0.00  0.00     0.019 C 
ENDBRANCH   1   7
TORSDOF 1
ENDMDL
