MODEL 1
REMARK minimizedAffinity -6.13141155
REMARK minimizedRMSD -1
REMARK  1 active torsions:
REMARK  status: ('A' for Active; 'I' for Inactive)
REMARK    1  A    between atoms: C1_2  and  C2_3 
ROOT
ATOM      1  C2  UNL d   1      -1.101  -0.566  -0.249  0.00  0.00    -0.077 A 
ATOM      2  C3  UNL d   1      -0.871  -1.393   0.860  0.00  0.00     0.002 A 
ATOM      3  C4  UNL d   1      -1.856  -2.281   1.295  0.00  0.00     0.002 A 
ATOM      4  C5  UNL d   1      -3.075  -2.354   0.626  0.00  0.00    -0.004 A 
ATOM      5  C6  UNL d   1      -3.315  -1.535  -0.476  0.00  0.00     0.002 A 
ATOM      6  C7  UNL d   1      -2.332  -0.645  -0.912  0.00  0.00     0.002 A 
ENDROOT
BRANCH   1   7
ATOM      7  C1  UNL d   1      -0.022   0.358  -0.750  0.00  0.00     0.055 C 
ATOM      8  C   UNL d   1       1.253   0.215   0.068  0.00  0.00     0.019 C 
ENDBRANCH   1   7
TORSDOF 1
ENDMDL
