MODEL 1
REMARK minimizedAffinity -5.5580554
REMARK minimizedRMSD -1
REMARK  1 active torsions:
REMARK  status: ('A' for Active; 'I' for Inactive)
REMARK    1  A    between atoms: C1_2  and  C2_3 
ROOT
ATOM      1  C2  UNL d   1      -0.506  -0.359  -0.207  0.00  0.00    -0.077 A 
ATOM      2  C3  UNL d   1      -1.127  -0.825   0.960  0.00  0.00     0.002 A 
ATOM      3  C4  UNL d   1      -2.441  -1.296   0.921  0.00  0.00     0.002 A 
ATOM      4  C5  UNL d   1      -3.143  -1.308  -0.282  0.00  0.00    -0.004 A 
ATOM      5  C6  UNL d   1      -2.534  -0.845  -1.448  0.00  0.00     0.002 A 
ATOM      6  C7  UNL d   1      -1.222  -0.373  -1.411  0.00  0.00     0.002 A 
ENDROOT
BRANCH   1   7
ATOM      7  C1  UNL d   1       0.928   0.103  -0.176  0.00  0.00     0.055 C 
ATOM      8  C   UNL d   1       1.147   1.157   0.898  0.00  0.00     0.019 C 
ENDBRANCH   1   7
TORSDOF 1
ENDMDL
