MODEL 1
REMARK minimizedAffinity -4.78151941
REMARK minimizedRMSD -1
REMARK  1 active torsions:
REMARK  status: ('A' for Active; 'I' for Inactive)
REMARK    1  A    between atoms: C1_2  and  C2_3 
ROOT
ATOM      1  C2  UNL d   1      -0.466  -0.298  -0.376  0.00  0.00    -0.077 A 
ATOM      2  C3  UNL d   1      -0.658  -1.093   0.762  0.00  0.00     0.002 A 
ATOM      3  C4  UNL d   1      -1.922  -1.607   1.059  0.00  0.00     0.002 A 
ATOM      4  C5  UNL d   1      -3.001  -1.336   0.221  0.00  0.00    -0.004 A 
ATOM      5  C6  UNL d   1      -2.820  -0.544  -0.913  0.00  0.00     0.002 A 
ATOM      6  C7  UNL d   1      -1.558  -0.028  -1.210  0.00  0.00     0.002 A 
ENDROOT
BRANCH   1   7
ATOM      7  C1  UNL d   1       0.906   0.217  -0.725  0.00  0.00     0.055 C 
ATOM      8  C   UNL d   1       1.781   0.344   0.514  0.00  0.00     0.019 C 
ENDBRANCH   1   7
TORSDOF 1
ENDMDL
