MODEL 1
REMARK minimizedAffinity -1.82141888
REMARK minimizedRMSD -1
REMARK  0 active torsions:
REMARK  status: ('A' for Active; 'I' for Inactive)
ROOT
ATOM      1  C   UNL d   1       0.833   4.431  -0.380  0.00  0.00     0.124 A 
ATOM      2  C1  UNL d   1       1.114   3.661   0.740  0.00  0.00     0.062 A 
ATOM      3  C2  UNL d   1       1.307   2.288   0.615  0.00  0.00     0.162 A 
ATOM      4  C3  UNL d   1       1.222   1.676  -0.636  0.00  0.00    -0.034 A 
ATOM      5  C4  UNL d   1       0.939   2.458  -1.757  0.00  0.00     0.162 A 
ATOM      6  C5  UNL d   1       0.746   3.829  -1.627  0.00  0.00     0.062 A 
ATOM      7  F   UNL d   1       0.475   4.572  -2.710  0.00  0.00    -0.097 F 
ATOM      8  F1  UNL d   1       0.850   1.902  -2.975  0.00  0.00    -0.096 F 
ATOM      9  I   UNL d   1       1.511  -0.376  -0.827  0.00  0.00    -0.060 I 
ATOM     10  F2  UNL d   1       1.577   1.568   1.714  0.00  0.00    -0.096 F 
ATOM     11  F3  UNL d   1       1.197   4.240   1.947  0.00  0.00    -0.097 F 
ATOM     12  F4  UNL d   1       0.646   5.751  -0.256  0.00  0.00    -0.092 F 
ENDROOT
TORSDOF 0
ENDMDL
