MODEL 1
REMARK minimizedAffinity 8.02103138
REMARK minimizedRMSD -1
REMARK  0 active torsions:
REMARK  status: ('A' for Active; 'I' for Inactive)
ROOT
ATOM      1  C   UNL d   1       0.903   2.357  -1.007  0.00  0.00     0.124 A 
ATOM      2  C1  UNL d   1       1.136   1.932   0.294  0.00  0.00     0.062 A 
ATOM      3  C2  UNL d   1       1.258   0.574   0.575  0.00  0.00     0.162 A 
ATOM      4  C3  UNL d   1       1.147  -0.369  -0.446  0.00  0.00    -0.034 A 
ATOM      5  C4  UNL d   1       0.911   0.066  -1.752  0.00  0.00     0.162 A 
ATOM      6  C5  UNL d   1       0.791   1.424  -2.028  0.00  0.00     0.062 A 
ATOM      7  F   UNL d   1       0.565   1.833  -3.285  0.00  0.00    -0.097 F 
ATOM      8  F1  UNL d   1       0.799  -0.814  -2.758  0.00  0.00    -0.096 F 
ATOM      9  I   UNL d   1       1.328  -2.400  -0.029  0.00  0.00    -0.060 I 
ATOM     10  F2  UNL d   1       1.483   0.192   1.841  0.00  0.00    -0.096 F 
ATOM     11  F3  UNL d   1       1.244   2.831   1.282  0.00  0.00    -0.097 F 
ATOM     12  F4  UNL d   1       0.786   3.664  -1.275  0.00  0.00    -0.092 F 
ENDROOT
TORSDOF 0
ENDMDL
