MODEL 1
REMARK minimizedAffinity 11.0420122
REMARK minimizedRMSD -1
REMARK  0 active torsions:
REMARK  status: ('A' for Active; 'I' for Inactive)
ROOT
ATOM      1  C   UNL d   1      -4.056   1.458   2.290  0.00  0.00     0.124 A 
ATOM      2  C1  UNL d   1      -3.417   1.716   3.495  0.00  0.00     0.062 A 
ATOM      3  C2  UNL d   1      -2.893   2.979   3.753  0.00  0.00     0.162 A 
ATOM      4  C3  UNL d   1      -3.007   3.996   2.805  0.00  0.00    -0.034 A 
ATOM      5  C4  UNL d   1      -3.651   3.729   1.595  0.00  0.00     0.162 A 
ATOM      6  C5  UNL d   1      -4.173   2.465   1.342  0.00  0.00     0.062 A 
ATOM      7  F   UNL d   1      -4.791   2.218   0.177  0.00  0.00    -0.097 F 
ATOM      8  F1  UNL d   1      -3.779   4.684   0.662  0.00  0.00    -0.096 F 
ATOM      9  I   UNL d   1      -2.225   5.886   3.188  0.00  0.00    -0.060 I 
ATOM     10  F2  UNL d   1      -2.280   3.199   4.926  0.00  0.00    -0.096 F 
ATOM     11  F3  UNL d   1      -3.302   0.745   4.412  0.00  0.00    -0.097 F 
ATOM     12  F4  UNL d   1      -4.559   0.242   2.043  0.00  0.00    -0.092 F 
ENDROOT
TORSDOF 0
ENDMDL
