MODEL 1
REMARK minimizedAffinity 1.80615067
REMARK minimizedRMSD -1
REMARK  0 active torsions:
REMARK  status: ('A' for Active; 'I' for Inactive)
ROOT
ATOM      1  C   UNL d   1       1.363   2.757   0.271  0.00  0.00     0.124 A 
ATOM      2  C1  UNL d   1       1.268   2.774  -1.114  0.00  0.00     0.062 A 
ATOM      3  C2  UNL d   1       1.081   1.587  -1.817  0.00  0.00     0.162 A 
ATOM      4  C3  UNL d   1       0.987   0.373  -1.136  0.00  0.00    -0.034 A 
ATOM      5  C4  UNL d   1       1.085   0.364   0.256  0.00  0.00     0.162 A 
ATOM      6  C5  UNL d   1       1.271   1.553   0.954  0.00  0.00     0.062 A 
ATOM      7  F   UNL d   1       1.363   1.535   2.292  0.00  0.00    -0.097 F 
ATOM      8  F1  UNL d   1       0.999  -0.785   0.942  0.00  0.00    -0.096 F 
ATOM      9  I   UNL d   1       0.708  -1.404  -2.184  0.00  0.00    -0.060 I 
ATOM     10  F2  UNL d   1       0.993   1.632  -3.155  0.00  0.00    -0.096 F 
ATOM     11  F3  UNL d   1       1.357   3.936  -1.777  0.00  0.00    -0.097 F 
ATOM     12  F4  UNL d   1       1.543   3.900   0.944  0.00  0.00    -0.092 F 
ENDROOT
TORSDOF 0
ENDMDL
