MODEL 1
REMARK minimizedAffinity 3.48667383
REMARK minimizedRMSD -1
REMARK  0 active torsions:
REMARK  status: ('A' for Active; 'I' for Inactive)
ROOT
ATOM      1  C   UNL d   1       0.866   3.405  -0.882  0.00  0.00     0.124 A 
ATOM      2  C1  UNL d   1       0.856   2.570  -1.991  0.00  0.00     0.062 A 
ATOM      3  C2  UNL d   1       1.061   1.202  -1.838  0.00  0.00     0.162 A 
ATOM      4  C3  UNL d   1       1.275   0.659  -0.571  0.00  0.00    -0.034 A 
ATOM      5  C4  UNL d   1       1.285   1.506   0.539  0.00  0.00     0.162 A 
ATOM      6  C5  UNL d   1       1.080   2.872   0.381  0.00  0.00     0.062 A 
ATOM      7  F   UNL d   1       1.090   3.678   1.454  0.00  0.00    -0.097 F 
ATOM      8  F1  UNL d   1       1.489   1.017   1.772  0.00  0.00    -0.096 F 
ATOM      9  I   UNL d   1       1.581  -1.386  -0.339  0.00  0.00    -0.060 I 
ATOM     10  F2  UNL d   1       1.046   0.418  -2.927  0.00  0.00    -0.096 F 
ATOM     11  F3  UNL d   1       0.651   3.082  -3.212  0.00  0.00    -0.097 F 
ATOM     12  F4  UNL d   1       0.671   4.721  -1.032  0.00  0.00    -0.092 F 
ENDROOT
TORSDOF 0
ENDMDL
