MODEL 1
REMARK minimizedAffinity 8.20624733
REMARK minimizedRMSD -1
REMARK  0 active torsions:
REMARK  status: ('A' for Active; 'I' for Inactive)
ROOT
ATOM      1  C   UNL d   1       1.023   2.374  -0.760  0.00  0.00     0.124 A 
ATOM      2  C1  UNL d   1       0.907   1.432  -1.772  0.00  0.00     0.062 A 
ATOM      3  C2  UNL d   1       0.934   0.073  -1.470  0.00  0.00     0.162 A 
ATOM      4  C3  UNL d   1       1.076  -0.352  -0.150  0.00  0.00    -0.034 A 
ATOM      5  C4  UNL d   1       1.194   0.602   0.863  0.00  0.00     0.162 A 
ATOM      6  C5  UNL d   1       1.166   1.959   0.557  0.00  0.00     0.062 A 
ATOM      7  F   UNL d   1       1.278   2.868   1.536  0.00  0.00    -0.097 F 
ATOM      8  F1  UNL d   1       1.332   0.228   2.144  0.00  0.00    -0.096 F 
ATOM      9  I   UNL d   1       1.117  -2.382   0.306  0.00  0.00    -0.060 I 
ATOM     10  F2  UNL d   1       0.819  -0.815  -2.469  0.00  0.00    -0.096 F 
ATOM     11  F3  UNL d   1       0.769   1.831  -3.045  0.00  0.00    -0.097 F 
ATOM     12  F4  UNL d   1       0.997   3.681  -1.053  0.00  0.00    -0.092 F 
ENDROOT
TORSDOF 0
ENDMDL
