MODEL 1
REMARK minimizedAffinity 14.4446249
REMARK minimizedRMSD -1
REMARK  0 active torsions:
REMARK  status: ('A' for Active; 'I' for Inactive)
ROOT
ATOM      1  C   UNL d   1       0.793   2.843  -1.275  0.00  0.00     0.124 A 
ATOM      2  C1  UNL d   1       1.105   1.848  -2.191  0.00  0.00     0.062 A 
ATOM      3  C2  UNL d   1       1.293   0.537  -1.764  0.00  0.00     0.162 A 
ATOM      4  C3  UNL d   1       1.169   0.212  -0.413  0.00  0.00    -0.034 A 
ATOM      5  C4  UNL d   1       0.856   1.218   0.503  0.00  0.00     0.162 A 
ATOM      6  C5  UNL d   1       0.669   2.527   0.071  0.00  0.00     0.062 A 
ATOM      7  F   UNL d   1       0.368   3.487   0.958  0.00  0.00    -0.097 F 
ATOM      8  F1  UNL d   1       0.729   0.941   1.809  0.00  0.00    -0.096 F 
ATOM      9  I   UNL d   1       1.449  -1.747   0.230  0.00  0.00    -0.060 I 
ATOM     10  F2  UNL d   1       1.593  -0.404  -2.671  0.00  0.00    -0.096 F 
ATOM     11  F3  UNL d   1       1.226   2.151  -3.492  0.00  0.00    -0.097 F 
ATOM     12  F4  UNL d   1       0.613   4.104  -1.688  0.00  0.00    -0.092 F 
ENDROOT
TORSDOF 0
ENDMDL
