MODEL 1
REMARK minimizedAffinity 1.01032805
REMARK minimizedRMSD -1
REMARK  0 active torsions:
REMARK  status: ('A' for Active; 'I' for Inactive)
ROOT
ATOM      1  C   UNL d   1       0.916   1.919  -1.559  0.00  0.00     0.124 A 
ATOM      2  C1  UNL d   1       0.870   0.589  -1.165  0.00  0.00     0.062 A 
ATOM      3  C2  UNL d   1       0.968   0.255   0.183  0.00  0.00     0.162 A 
ATOM      4  C3  UNL d   1       1.113   1.253   1.147  0.00  0.00    -0.034 A 
ATOM      5  C4  UNL d   1       1.159   2.588   0.742  0.00  0.00     0.162 A 
ATOM      6  C5  UNL d   1       1.061   2.917  -0.606  0.00  0.00     0.062 A 
ATOM      7  F   UNL d   1       1.106   4.202  -0.985  0.00  0.00    -0.097 F 
ATOM      8  F1  UNL d   1       1.298   3.573   1.643  0.00  0.00    -0.096 F 
ATOM      9  I   UNL d   1       1.260   0.757   3.163  0.00  0.00    -0.060 I 
ATOM     10  F2  UNL d   1       0.920  -1.038   0.536  0.00  0.00    -0.096 F 
ATOM     11  F3  UNL d   1       0.731  -0.377  -2.084  0.00  0.00    -0.097 F 
ATOM     12  F4  UNL d   1       0.822   2.238  -2.856  0.00  0.00    -0.092 F 
ENDROOT
TORSDOF 0
ENDMDL
