MODEL 1
REMARK minimizedAffinity 8.62535191
REMARK minimizedRMSD -1
REMARK  0 active torsions:
REMARK  status: ('A' for Active; 'I' for Inactive)
ROOT
ATOM      1  C   UNL d   1       0.656   2.457  -1.158  0.00  0.00     0.124 A 
ATOM      2  C1  UNL d   1       0.854   1.559  -2.197  0.00  0.00     0.062 A 
ATOM      3  C2  UNL d   1       1.270   0.258  -1.929  0.00  0.00     0.162 A 
ATOM      4  C3  UNL d   1       1.490  -0.153  -0.614  0.00  0.00    -0.034 A 
ATOM      5  C4  UNL d   1       1.289   0.756   0.426  0.00  0.00     0.162 A 
ATOM      6  C5  UNL d   1       0.873   2.055   0.153  0.00  0.00     0.062 A 
ATOM      7  F   UNL d   1       0.682   2.921   1.158  0.00  0.00    -0.097 F 
ATOM      8  F1  UNL d   1       1.491   0.393   1.701  0.00  0.00    -0.096 F 
ATOM      9  I   UNL d   1       2.112  -2.098  -0.209  0.00  0.00    -0.060 I 
ATOM     10  F2  UNL d   1       1.454  -0.588  -2.953  0.00  0.00    -0.096 F 
ATOM     11  F3  UNL d   1       0.646   1.946  -3.464  0.00  0.00    -0.097 F 
ATOM     12  F4  UNL d   1       0.257   3.708  -1.419  0.00  0.00    -0.092 F 
ENDROOT
TORSDOF 0
ENDMDL
