MODEL 1
REMARK minimizedAffinity 9.93888569
REMARK minimizedRMSD -1
REMARK  0 active torsions:
REMARK  status: ('A' for Active; 'I' for Inactive)
ROOT
ATOM      1  C   UNL d   1       1.178   2.759  -0.597  0.00  0.00     0.124 A 
ATOM      2  C1  UNL d   1       1.271   2.297   0.709  0.00  0.00     0.062 A 
ATOM      3  C2  UNL d   1       1.246   0.931   0.971  0.00  0.00     0.162 A 
ATOM      4  C3  UNL d   1       1.129   0.015  -0.074  0.00  0.00    -0.034 A 
ATOM      5  C4  UNL d   1       1.036   0.487  -1.385  0.00  0.00     0.162 A 
ATOM      6  C5  UNL d   1       1.061   1.853  -1.642  0.00  0.00     0.062 A 
ATOM      7  F   UNL d   1       0.971   2.297  -2.905  0.00  0.00    -0.097 F 
ATOM      8  F1  UNL d   1       0.923  -0.366  -2.414  0.00  0.00    -0.096 F 
ATOM      9  I   UNL d   1       1.092  -2.029   0.314  0.00  0.00    -0.060 I 
ATOM     10  F2  UNL d   1       1.337   0.513   2.243  0.00  0.00    -0.096 F 
ATOM     11  F3  UNL d   1       1.383   3.170   1.720  0.00  0.00    -0.097 F 
ATOM     12  F4  UNL d   1       1.201   4.074  -0.847  0.00  0.00    -0.092 F 
ENDROOT
TORSDOF 0
ENDMDL
