MODEL 1
REMARK minimizedAffinity 15.718709
REMARK minimizedRMSD -1
REMARK  0 active torsions:
REMARK  status: ('A' for Active; 'I' for Inactive)
ROOT
ATOM      1  C   UNL d   1       0.869  -2.840  -0.891  0.00  0.00     0.124 A 
ATOM      2  C1  UNL d   1       1.378  -3.306   0.314  0.00  0.00     0.062 A 
ATOM      3  C2  UNL d   1       0.529  -3.871   1.261  0.00  0.00     0.162 A 
ATOM      4  C3  UNL d   1      -0.839  -3.974   1.007  0.00  0.00    -0.034 A 
ATOM      5  C4  UNL d   1      -1.343  -3.502  -0.206  0.00  0.00     0.162 A 
ATOM      6  C5  UNL d   1      -0.491  -2.939  -1.149  0.00  0.00     0.062 A 
ATOM      7  F   UNL d   1      -0.984  -2.489  -2.312  0.00  0.00    -0.097 F 
ATOM      8  F1  UNL d   1      -2.653  -3.586  -0.482  0.00  0.00    -0.096 F 
ATOM      9  I   UNL d   1      -2.112  -4.818   2.421  0.00  0.00    -0.060 I 
ATOM     10  F2  UNL d   1       1.048  -4.313   2.416  0.00  0.00    -0.096 F 
ATOM     11  F3  UNL d   1       2.692  -3.212   0.566  0.00  0.00    -0.097 F 
ATOM     12  F4  UNL d   1       1.689  -2.297  -1.800  0.00  0.00    -0.092 F 
ENDROOT
TORSDOF 0
ENDMDL
