MODEL 1
REMARK minimizedAffinity 3.47911358
REMARK minimizedRMSD -1
REMARK  0 active torsions:
REMARK  status: ('A' for Active; 'I' for Inactive)
ROOT
ATOM      1  C   UNL d   1       0.782   3.236  -0.630  0.00  0.00     0.124 A 
ATOM      2  C1  UNL d   1       1.168   2.676   0.580  0.00  0.00     0.062 A 
ATOM      3  C2  UNL d   1       1.361   1.302   0.686  0.00  0.00     0.162 A 
ATOM      4  C3  UNL d   1       1.168   0.477  -0.422  0.00  0.00    -0.034 A 
ATOM      5  C4  UNL d   1       0.779   1.047  -1.636  0.00  0.00     0.162 A 
ATOM      6  C5  UNL d   1       0.588   2.422  -1.736  0.00  0.00     0.062 A 
ATOM      7  F   UNL d   1       0.215   2.961  -2.906  0.00  0.00    -0.097 F 
ATOM      8  F1  UNL d   1       0.586   0.284  -2.721  0.00  0.00    -0.096 F 
ATOM      9  I   UNL d   1       1.455  -1.578  -0.268  0.00  0.00    -0.060 I 
ATOM     10  F2  UNL d   1       1.734   0.788   1.868  0.00  0.00    -0.096 F 
ATOM     11  F3  UNL d   1       1.355   3.461   1.651  0.00  0.00    -0.097 F 
ATOM     12  F4  UNL d   1       0.596   4.559  -0.728  0.00  0.00    -0.092 F 
ENDROOT
TORSDOF 0
ENDMDL
