MODEL 1
REMARK minimizedAffinity 20.0772934
REMARK minimizedRMSD -1
REMARK  0 active torsions:
REMARK  status: ('A' for Active; 'I' for Inactive)
ROOT
ATOM      1  C   UNL d   1       1.056   3.033  -2.804  0.00  0.00     0.124 A 
ATOM      2  C1  UNL d   1       1.029   4.201  -2.055  0.00  0.00     0.062 A 
ATOM      3  C2  UNL d   1       1.195   4.151  -0.674  0.00  0.00     0.162 A 
ATOM      4  C3  UNL d   1       1.391   2.927  -0.033  0.00  0.00    -0.034 A 
ATOM      5  C4  UNL d   1       1.416   1.757  -0.793  0.00  0.00     0.162 A 
ATOM      6  C5  UNL d   1       1.250   1.812  -2.173  0.00  0.00     0.062 A 
ATOM      7  F   UNL d   1       1.276   0.683  -2.895  0.00  0.00    -0.097 F 
ATOM      8  F1  UNL d   1       1.603   0.564  -0.209  0.00  0.00    -0.096 F 
ATOM      9  I   UNL d   1       1.640   2.848   2.032  0.00  0.00    -0.060 I 
ATOM     10  F2  UNL d   1       1.164   5.295   0.025  0.00  0.00    -0.096 F 
ATOM     11  F3  UNL d   1       0.841   5.381  -2.662  0.00  0.00    -0.097 F 
ATOM     12  F4  UNL d   1       0.895   3.084  -4.133  0.00  0.00    -0.092 F 
ENDROOT
TORSDOF 0
ENDMDL
