MODEL 1
REMARK minimizedAffinity -0.523978531
REMARK minimizedRMSD -1
REMARK  0 active torsions:
REMARK  status: ('A' for Active; 'I' for Inactive)
ROOT
ATOM      1  C   UNL d   1       0.660   0.313   0.271  0.00  0.00     0.124 A 
ATOM      2  C1  UNL d   1       1.012   1.246   1.237  0.00  0.00     0.062 A 
ATOM      3  C2  UNL d   1       1.311   2.555   0.869  0.00  0.00     0.162 A 
ATOM      4  C3  UNL d   1       1.258   2.939  -0.471  0.00  0.00    -0.034 A 
ATOM      5  C4  UNL d   1       0.905   1.995  -1.436  0.00  0.00     0.162 A 
ATOM      6  C5  UNL d   1       0.608   0.688  -1.064  0.00  0.00     0.062 A 
ATOM      7  F   UNL d   1       0.268  -0.212  -1.998  0.00  0.00    -0.097 F 
ATOM      8  F1  UNL d   1       0.845   2.330  -2.733  0.00  0.00    -0.096 F 
ATOM      9  I   UNL d   1       1.704   4.895  -1.024  0.00  0.00    -0.060 I 
ATOM     10  F2  UNL d   1       1.647   3.436   1.824  0.00  0.00    -0.096 F 
ATOM     11  F3  UNL d   1       1.065   0.886   2.527  0.00  0.00    -0.097 F 
ATOM     12  F4  UNL d   1       0.374  -0.946   0.627  0.00  0.00    -0.092 F 
ENDROOT
TORSDOF 0
ENDMDL
