MODEL 1
REMARK minimizedAffinity 10.5486803
REMARK minimizedRMSD -1
REMARK  0 active torsions:
REMARK  status: ('A' for Active; 'I' for Inactive)
ROOT
ATOM      1  C   UNL d   1       1.031   0.322  -0.926  0.00  0.00     0.124 A 
ATOM      2  C1  UNL d   1       1.391  -0.095   0.348  0.00  0.00     0.062 A 
ATOM      3  C2  UNL d   1       1.718   0.841   1.324  0.00  0.00     0.162 A 
ATOM      4  C3  UNL d   1       1.686   2.205   1.031  0.00  0.00    -0.034 A 
ATOM      5  C4  UNL d   1       1.323   2.616  -0.253  0.00  0.00     0.162 A 
ATOM      6  C5  UNL d   1       0.997   1.677  -1.225  0.00  0.00     0.062 A 
ATOM      7  F   UNL d   1       0.649   2.081  -2.455  0.00  0.00    -0.097 F 
ATOM      8  F1  UNL d   1       1.281   3.919  -0.568  0.00  0.00    -0.096 F 
ATOM      9  I   UNL d   1       2.174   3.608   2.488  0.00  0.00    -0.060 I 
ATOM     10  F2  UNL d   1       2.063   0.410   2.547  0.00  0.00    -0.096 F 
ATOM     11  F3  UNL d   1       1.425  -1.403   0.639  0.00  0.00    -0.097 F 
ATOM     12  F4  UNL d   1       0.717  -0.581  -1.864  0.00  0.00    -0.092 F 
ENDROOT
TORSDOF 0
ENDMDL
