MODEL 1
REMARK minimizedAffinity -3.23917842
REMARK minimizedRMSD -1
REMARK  0 active torsions:
REMARK  status: ('A' for Active; 'I' for Inactive)
ROOT
ATOM      1  C   UNL d   1       5.021  -4.975  -5.933  0.00  0.00     0.172 C 
ATOM      2  N   UNL d   1       4.106  -5.391  -4.896  0.00  0.00    -0.070 N 
ATOM      3  C1  UNL d   1       2.765  -5.616  -5.057  0.00  0.00    -0.004 A 
ATOM      4  C2  UNL d   1       2.251  -5.997  -3.837  0.00  0.00    -0.047 A 
ATOM      5  C3  UNL d   1       3.320  -6.000  -2.909  0.00  0.00    -0.047 A 
ATOM      6  C4  UNL d   1       4.457  -5.621  -3.592  0.00  0.00    -0.004 A 
ENDROOT
TORSDOF 0
ENDMDL
