MODEL 1
REMARK minimizedAffinity -2.41767001
REMARK minimizedRMSD -1
REMARK  0 active torsions:
REMARK  status: ('A' for Active; 'I' for Inactive)
ROOT
ATOM      1  C   UNL d   1       3.774  -5.530  -2.405  0.00  0.00     0.172 C 
ATOM      2  N   UNL d   1       4.037  -5.642  -3.820  0.00  0.00    -0.070 N 
ATOM      3  C1  UNL d   1       5.242  -5.410  -4.429  0.00  0.00    -0.004 A 
ATOM      4  C2  UNL d   1       5.080  -5.624  -5.781  0.00  0.00    -0.047 A 
ATOM      5  C3  UNL d   1       3.731  -5.997  -5.992  0.00  0.00    -0.047 A 
ATOM      6  C4  UNL d   1       3.108  -6.000  -4.761  0.00  0.00    -0.004 A 
ENDROOT
TORSDOF 0
ENDMDL
