MODEL 1
REMARK minimizedAffinity -2.72419167
REMARK minimizedRMSD -1
REMARK  0 active torsions:
REMARK  status: ('A' for Active; 'I' for Inactive)
ROOT
ATOM      1  C   UNL d   1       4.152  -5.979  -5.442  0.00  0.00     0.172 C 
ATOM      2  N   UNL d   1       4.562  -5.834  -4.065  0.00  0.00    -0.070 N 
ATOM      3  C1  UNL d   1       3.739  -5.525  -3.015  0.00  0.00    -0.004 A 
ATOM      4  C2  UNL d   1       4.510  -5.481  -1.874  0.00  0.00    -0.047 A 
ATOM      5  C3  UNL d   1       5.843  -5.773  -2.251  0.00  0.00    -0.047 A 
ATOM      6  C4  UNL d   1       5.846  -5.988  -3.613  0.00  0.00    -0.004 A 
ENDROOT
TORSDOF 0
ENDMDL
