MODEL 1
REMARK minimizedAffinity -3.03636765
REMARK minimizedRMSD -1
REMARK  0 active torsions:
REMARK  status: ('A' for Active; 'I' for Inactive)
ROOT
ATOM      1  C   UNL d   1       5.735  -5.979  -6.000  0.00  0.00     0.172 C 
ATOM      2  N   UNL d   1       4.683  -5.754  -5.036  0.00  0.00    -0.070 N 
ATOM      3  C1  UNL d   1       3.351  -5.999  -5.236  0.00  0.00    -0.004 A 
ATOM      4  C2  UNL d   1       2.681  -5.655  -4.082  0.00  0.00    -0.047 A 
ATOM      5  C3  UNL d   1       3.643  -5.185  -3.157  0.00  0.00    -0.047 A 
ATOM      6  C4  UNL d   1       4.875  -5.257  -3.774  0.00  0.00    -0.004 A 
ENDROOT
TORSDOF 0
ENDMDL
