MODEL 1
REMARK minimizedAffinity -2.74934387
REMARK minimizedRMSD -1
REMARK  0 active torsions:
REMARK  status: ('A' for Active; 'I' for Inactive)
ROOT
ATOM      1  C   UNL d   1       2.975  -5.065  -2.578  0.00  0.00     0.172 C 
ATOM      2  N   UNL d   1       3.502  -5.302  -3.901  0.00  0.00    -0.070 N 
ATOM      3  C1  UNL d   1       2.871  -5.998  -4.898  0.00  0.00    -0.004 A 
ATOM      4  C2  UNL d   1       3.699  -6.000  -6.000  0.00  0.00    -0.047 A 
ATOM      5  C3  UNL d   1       4.868  -5.281  -5.653  0.00  0.00    -0.047 A 
ATOM      6  C4  UNL d   1       4.719  -4.861  -4.348  0.00  0.00    -0.004 A 
ENDROOT
TORSDOF 0
ENDMDL
