MODEL 1
REMARK minimizedAffinity -3.32476974
REMARK minimizedRMSD -1
REMARK  0 active torsions:
REMARK  status: ('A' for Active; 'I' for Inactive)
ROOT
ATOM      1  C   UNL d   1       4.575  -5.902  -5.998  0.00  0.00     0.172 C 
ATOM      2  N   UNL d   1       4.560  -5.448  -4.627  0.00  0.00    -0.070 N 
ATOM      3  C1  UNL d   1       5.580  -4.792  -3.992  0.00  0.00    -0.004 A 
ATOM      4  C2  UNL d   1       5.176  -4.534  -2.700  0.00  0.00    -0.047 A 
ATOM      5  C3  UNL d   1       3.868  -5.054  -2.553  0.00  0.00    -0.047 A 
ATOM      6  C4  UNL d   1       3.512  -5.615  -3.761  0.00  0.00    -0.004 A 
ENDROOT
TORSDOF 0
ENDMDL
