MODEL 1
REMARK minimizedAffinity -3.13530707
REMARK minimizedRMSD -1
REMARK  0 active torsions:
REMARK  status: ('A' for Active; 'I' for Inactive)
ROOT
ATOM      1  C   UNL d   1       4.867   4.002   3.461  0.00  0.00     0.172 C 
ATOM      2  N   UNL d   1       4.083   3.137   2.610  0.00  0.00    -0.070 N 
ATOM      3  C1  UNL d   1       3.279   3.547   1.579  0.00  0.00    -0.004 A 
ATOM      4  C2  UNL d   1       2.707   2.426   1.019  0.00  0.00    -0.047 A 
ATOM      5  C3  UNL d   1       3.183   1.303   1.737  0.00  0.00    -0.047 A 
ATOM      6  C4  UNL d   1       4.032   1.773   2.717  0.00  0.00    -0.004 A 
ENDROOT
TORSDOF 0
ENDMDL
