MODEL 1
REMARK minimizedAffinity -2.84026575
REMARK minimizedRMSD -1
REMARK  0 active torsions:
REMARK  status: ('A' for Active; 'I' for Inactive)
ROOT
ATOM      1  C   UNL d   1       5.584  -4.304  -6.000  0.00  0.00     0.172 C 
ATOM      2  N   UNL d   1       4.725  -4.855  -4.977  0.00  0.00    -0.070 N 
ATOM      3  C1  UNL d   1       5.083  -5.089  -3.676  0.00  0.00    -0.004 A 
ATOM      4  C2  UNL d   1       3.987  -5.615  -3.026  0.00  0.00    -0.047 A 
ATOM      5  C3  UNL d   1       2.936  -5.701  -3.969  0.00  0.00    -0.047 A 
ATOM      6  C4  UNL d   1       3.420  -5.223  -5.169  0.00  0.00    -0.004 A 
ENDROOT
TORSDOF 0
ENDMDL
