MODEL 1
REMARK minimizedAffinity -3.16482902
REMARK minimizedRMSD -1
REMARK  0 active torsions:
REMARK  status: ('A' for Active; 'I' for Inactive)
ROOT
ATOM      1  C   UNL d   1       4.881  -5.999  -5.980  0.00  0.00     0.172 C 
ATOM      2  N   UNL d   1       4.553  -5.916  -4.576  0.00  0.00    -0.070 N 
ATOM      3  C1  UNL d   1       5.450  -5.744  -3.555  0.00  0.00    -0.004 A 
ATOM      4  C2  UNL d   1       4.743  -5.716  -2.372  0.00  0.00    -0.047 A 
ATOM      5  C3  UNL d   1       3.374  -5.878  -2.693  0.00  0.00    -0.047 A 
ATOM      6  C4  UNL d   1       3.285  -6.000  -4.064  0.00  0.00    -0.004 A 
ENDROOT
TORSDOF 0
ENDMDL
