MODEL 1
REMARK minimizedAffinity -3.46548867
REMARK minimizedRMSD -1
REMARK  0 active torsions:
REMARK  status: ('A' for Active; 'I' for Inactive)
ROOT
ATOM      1  C   UNL d   1       2.525  -6.000  -4.693  0.00  0.00     0.172 C 
ATOM      2  N   UNL d   1       3.865  -5.645  -4.287  0.00  0.00    -0.070 N 
ATOM      3  C1  UNL d   1       4.890  -5.305  -5.129  0.00  0.00    -0.004 A 
ATOM      4  C2  UNL d   1       5.999  -5.037  -4.356  0.00  0.00    -0.047 A 
ATOM      5  C3  UNL d   1       5.628  -5.224  -3.003  0.00  0.00    -0.047 A 
ATOM      6  C4  UNL d   1       4.302  -5.600  -2.989  0.00  0.00    -0.004 A 
ENDROOT
TORSDOF 0
ENDMDL
