MODEL 1
REMARK minimizedAffinity -3.3952868
REMARK minimizedRMSD -1
REMARK  0 active torsions:
REMARK  status: ('A' for Active; 'I' for Inactive)
ROOT
ATOM      1  C   UNL d   1       5.537  -5.970  -6.000  0.00  0.00     0.172 C 
ATOM      2  N   UNL d   1       5.028  -5.496  -4.735  0.00  0.00    -0.070 N 
ATOM      3  C1  UNL d   1       5.700  -4.688  -3.856  0.00  0.00    -0.004 A 
ATOM      4  C2  UNL d   1       4.875  -4.463  -2.775  0.00  0.00    -0.047 A 
ATOM      5  C3  UNL d   1       3.667  -5.161  -3.011  0.00  0.00    -0.047 A 
ATOM      6  C4  UNL d   1       3.789  -5.791  -4.232  0.00  0.00    -0.004 A 
ENDROOT
TORSDOF 0
ENDMDL
