MODEL 1
REMARK minimizedAffinity -3.09155703
REMARK minimizedRMSD -1
REMARK  0 active torsions:
REMARK  status: ('A' for Active; 'I' for Inactive)
ROOT
ATOM      1  C   UNL d   1       2.133   2.214   1.461  0.00  0.00     0.172 C 
ATOM      2  N   UNL d   1       3.482   2.483   1.901  0.00  0.00    -0.070 N 
ATOM      3  C1  UNL d   1       4.036   3.724   2.062  0.00  0.00    -0.004 A 
ATOM      4  C2  UNL d   1       5.334   3.554   2.493  0.00  0.00    -0.047 A 
ATOM      5  C3  UNL d   1       5.568   2.162   2.594  0.00  0.00    -0.047 A 
ATOM      6  C4  UNL d   1       4.405   1.522   2.221  0.00  0.00    -0.004 A 
ENDROOT
TORSDOF 0
ENDMDL
