MODEL 1
REMARK minimizedAffinity -2.5182147
REMARK minimizedRMSD -1
REMARK  0 active torsions:
REMARK  status: ('A' for Active; 'I' for Inactive)
ROOT
ATOM      1  C   UNL d   1       2.533   2.651   2.012  0.00  0.00     0.172 C 
ATOM      2  N   UNL d   1       3.805   3.175   2.453  0.00  0.00    -0.070 N 
ATOM      3  C1  UNL d   1       4.061   4.481   2.777  0.00  0.00    -0.004 A 
ATOM      4  C2  UNL d   1       5.386   4.571   3.147  0.00  0.00    -0.047 A 
ATOM      5  C3  UNL d   1       5.945   3.276   3.040  0.00  0.00    -0.047 A 
ATOM      6  C4  UNL d   1       4.944   2.431   2.608  0.00  0.00    -0.004 A 
ENDROOT
TORSDOF 0
ENDMDL
