MODEL 1
REMARK minimizedAffinity -3.18892837
REMARK minimizedRMSD -1
REMARK  0 active torsions:
REMARK  status: ('A' for Active; 'I' for Inactive)
ROOT
ATOM      1  C   UNL d   1       6.000  -5.442  -5.591  0.00  0.00     0.172 C 
ATOM      2  N   UNL d   1       4.802  -5.519  -4.789  0.00  0.00    -0.070 N 
ATOM      3  C1  UNL d   1       3.574  -5.943  -5.225  0.00  0.00    -0.004 A 
ATOM      4  C2  UNL d   1       2.700  -5.869  -4.162  0.00  0.00    -0.047 A 
ATOM      5  C3  UNL d   1       3.427  -5.385  -3.049  0.00  0.00    -0.047 A 
ATOM      6  C4  UNL d   1       4.725  -5.176  -3.465  0.00  0.00    -0.004 A 
ENDROOT
TORSDOF 0
ENDMDL
