MODEL 1
REMARK minimizedAffinity -3.25471902
REMARK minimizedRMSD -1
REMARK  0 active torsions:
REMARK  status: ('A' for Active; 'I' for Inactive)
ROOT
ATOM      1  C   UNL d   1       5.495  -5.769  -5.998  0.00  0.00     0.172 C 
ATOM      2  N   UNL d   1       4.967  -5.534  -4.675  0.00  0.00    -0.070 N 
ATOM      3  C1  UNL d   1       5.619  -4.888  -3.659  0.00  0.00    -0.004 A 
ATOM      4  C2  UNL d   1       4.782  -4.870  -2.564  0.00  0.00    -0.047 A 
ATOM      5  C3  UNL d   1       3.586  -5.529  -2.935  0.00  0.00    -0.047 A 
ATOM      6  C4  UNL d   1       3.727  -5.930  -4.247  0.00  0.00    -0.004 A 
ENDROOT
TORSDOF 0
ENDMDL
