MODEL 1
REMARK minimizedAffinity -3.39876223
REMARK minimizedRMSD -1
REMARK  0 active torsions:
REMARK  status: ('A' for Active; 'I' for Inactive)
ROOT
ATOM      1  C   UNL d   1       5.628  -5.224  -5.979  0.00  0.00     0.172 C 
ATOM      2  N   UNL d   1       4.719  -5.219  -4.857  0.00  0.00    -0.070 N 
ATOM      3  C1  UNL d   1       4.969  -4.662  -3.631  0.00  0.00    -0.004 A 
ATOM      4  C2  UNL d   1       3.858  -4.867  -2.841  0.00  0.00    -0.047 A 
ATOM      5  C3  UNL d   1       2.909  -5.571  -3.619  0.00  0.00    -0.047 A 
ATOM      6  C4  UNL d   1       3.468  -5.776  -4.863  0.00  0.00    -0.004 A 
ENDROOT
TORSDOF 0
ENDMDL
