MODEL 1
REMARK minimizedAffinity -0.957328916
REMARK minimizedRMSD -1
REMARK  0 active torsions:
REMARK  status: ('A' for Active; 'I' for Inactive)
ROOT
ATOM      1  C   UNL d   1      -3.420  -1.922   3.373  0.00  0.00     0.077 C 
ATOM      2  C1  UNL d   1      -1.986  -1.499   3.252  0.00  0.00    -0.074 A 
ATOM      3  C2  UNL d   1      -1.570  -0.656   2.216  0.00  0.00    -0.005 A 
ATOM      4  C3  UNL d   1      -0.235  -0.263   2.123  0.00  0.00     0.006 A 
ATOM      5  C4  UNL d   1       0.696  -0.708   3.062  0.00  0.00    -0.005 A 
ATOM      6  C5  UNL d   1       0.298  -1.551   4.105  0.00  0.00    -0.074 A 
ATOM      7  C6  UNL d   1       1.284  -2.030   5.129  0.00  0.00     0.077 C 
ATOM      8  C7  UNL d   1      -1.047  -1.935   4.196  0.00  0.00    -0.001 A 
ENDROOT
TORSDOF 0
ENDMDL
