MODEL 1
REMARK minimizedAffinity 13.937953
REMARK minimizedRMSD -1
REMARK  0 active torsions:
REMARK  status: ('A' for Active; 'I' for Inactive)
ROOT
ATOM      1  C   UNL d   1      -0.655  -3.202  -4.874  0.00  0.00     0.077 C 
ATOM      2  C1  UNL d   1      -0.751  -1.756  -5.261  0.00  0.00    -0.074 A 
ATOM      3  C2  UNL d   1      -1.995  -1.136  -5.423  0.00  0.00    -0.005 A 
ATOM      4  C3  UNL d   1      -2.068   0.212  -5.774  0.00  0.00     0.006 A 
ATOM      5  C4  UNL d   1      -0.901   0.952  -5.966  0.00  0.00    -0.005 A 
ATOM      6  C5  UNL d   1       0.351   0.350  -5.807  0.00  0.00    -0.074 A 
ATOM      7  C6  UNL d   1       1.615   1.135  -6.000  0.00  0.00     0.077 C 
ATOM      8  C7  UNL d   1       0.416  -1.003  -5.447  0.00  0.00    -0.001 A 
ENDROOT
TORSDOF 0
ENDMDL
