MODEL 1
REMARK minimizedAffinity 11.31674
REMARK minimizedRMSD -1
REMARK  0 active torsions:
REMARK  status: ('A' for Active; 'I' for Inactive)
ROOT
ATOM      1  C   UNL d   1      -0.833  -3.325  -5.996  0.00  0.00     0.077 C 
ATOM      2  C1  UNL d   1      -0.827  -1.872  -5.623  0.00  0.00    -0.074 A 
ATOM      3  C2  UNL d   1      -1.896  -1.306  -4.921  0.00  0.00    -0.005 A 
ATOM      4  C3  UNL d   1      -1.872   0.045  -4.572  0.00  0.00     0.006 A 
ATOM      5  C4  UNL d   1      -0.781   0.841  -4.922  0.00  0.00    -0.005 A 
ATOM      6  C5  UNL d   1       0.297   0.292  -5.623  0.00  0.00    -0.074 A 
ATOM      7  C6  UNL d   1       1.482   1.132  -5.998  0.00  0.00     0.077 C 
ATOM      8  C7  UNL d   1       0.269  -1.067  -5.964  0.00  0.00    -0.001 A 
ENDROOT
TORSDOF 0
ENDMDL
