MODEL 1
REMARK minimizedAffinity 7.95255136
REMARK minimizedRMSD -1
REMARK  0 active torsions:
REMARK  status: ('A' for Active; 'I' for Inactive)
ROOT
ATOM      1  C   UNL d   1      -3.274  -2.395   1.770  0.00  0.00     0.077 C 
ATOM      2  C1  UNL d   1      -2.253  -1.310   1.947  0.00  0.00    -0.074 A 
ATOM      3  C2  UNL d   1      -2.559   0.021   1.647  0.00  0.00    -0.005 A 
ATOM      4  C3  UNL d   1      -1.602   1.020   1.825  0.00  0.00     0.006 A 
ATOM      5  C4  UNL d   1      -0.332   0.698   2.304  0.00  0.00    -0.005 A 
ATOM      6  C5  UNL d   1      -0.008  -0.627   2.610  0.00  0.00    -0.074 A 
ATOM      7  C6  UNL d   1       1.350  -0.989   3.135  0.00  0.00     0.077 C 
ATOM      8  C7  UNL d   1      -0.977  -1.624   2.435  0.00  0.00    -0.001 A 
ENDROOT
TORSDOF 0
ENDMDL
