MODEL 1
REMARK minimizedAffinity 4.97603464
REMARK minimizedRMSD -1
REMARK  0 active torsions:
REMARK  status: ('A' for Active; 'I' for Inactive)
ROOT
ATOM      1  C   UNL d   1       3.199   1.052   1.422  0.00  0.00     0.077 C 
ATOM      2  C1  UNL d   1       2.704   0.016   2.386  0.00  0.00    -0.074 A 
ATOM      3  C2  UNL d   1       1.542  -0.717   2.120  0.00  0.00    -0.005 A 
ATOM      4  C3  UNL d   1       1.099  -1.684   3.022  0.00  0.00     0.006 A 
ATOM      5  C4  UNL d   1       1.811  -1.929   4.197  0.00  0.00    -0.005 A 
ATOM      6  C5  UNL d   1       2.975  -1.207   4.479  0.00  0.00    -0.074 A 
ATOM      7  C6  UNL d   1       3.758  -1.464   5.733  0.00  0.00     0.077 C 
ATOM      8  C7  UNL d   1       3.418  -0.241   3.565  0.00  0.00    -0.001 A 
ENDROOT
TORSDOF 0
ENDMDL
