MODEL 1
REMARK minimizedAffinity 8.5417099
REMARK minimizedRMSD -1
REMARK  0 active torsions:
REMARK  status: ('A' for Active; 'I' for Inactive)
ROOT
ATOM      1  C   UNL d   1      -0.653   5.859   1.756  0.00  0.00     0.077 C 
ATOM      2  C1  UNL d   1      -1.060   5.332   0.413  0.00  0.00    -0.074 A 
ATOM      3  C2  UNL d   1      -0.588   5.922  -0.764  0.00  0.00    -0.005 A 
ATOM      4  C3  UNL d   1      -0.967   5.414  -2.007  0.00  0.00     0.006 A 
ATOM      5  C4  UNL d   1      -1.821   4.313  -2.085  0.00  0.00    -0.005 A 
ATOM      6  C5  UNL d   1      -2.303   3.710  -0.919  0.00  0.00    -0.074 A 
ATOM      7  C6  UNL d   1      -3.214   2.520  -0.985  0.00  0.00     0.077 C 
ATOM      8  C7  UNL d   1      -1.911   4.221   0.326  0.00  0.00    -0.001 A 
ENDROOT
TORSDOF 0
ENDMDL
