MODEL 1
REMARK minimizedAffinity 0.175963998
REMARK minimizedRMSD -1
REMARK  0 active torsions:
REMARK  status: ('A' for Active; 'I' for Inactive)
ROOT
ATOM      1  C   UNL d   1      -1.469   1.785   1.790  0.00  0.00     0.077 C 
ATOM      2  C1  UNL d   1      -1.300   0.388   2.310  0.00  0.00    -0.074 A 
ATOM      3  C2  UNL d   1      -2.335  -0.547   2.210  0.00  0.00    -0.005 A 
ATOM      4  C3  UNL d   1      -2.159  -1.844   2.690  0.00  0.00     0.006 A 
ATOM      5  C4  UNL d   1      -0.948  -2.220   3.273  0.00  0.00    -0.005 A 
ATOM      6  C5  UNL d   1       0.099  -1.299   3.380  0.00  0.00    -0.074 A 
ATOM      7  C6  UNL d   1       1.410  -1.689   3.995  0.00  0.00     0.077 C 
ATOM      8  C7  UNL d   1      -0.083   0.001   2.890  0.00  0.00    -0.001 A 
ENDROOT
TORSDOF 0
ENDMDL
