MODEL 1
REMARK minimizedAffinity 6.88275337
REMARK minimizedRMSD -1
REMARK  0 active torsions:
REMARK  status: ('A' for Active; 'I' for Inactive)
ROOT
ATOM      1  C   UNL d   1       3.689  -0.723   1.102  0.00  0.00     0.077 C 
ATOM      2  C1  UNL d   1       2.539   0.178   1.440  0.00  0.00    -0.074 A 
ATOM      3  C2  UNL d   1       1.394  -0.323   2.068  0.00  0.00    -0.005 A 
ATOM      4  C3  UNL d   1       0.336   0.529   2.385  0.00  0.00     0.006 A 
ATOM      5  C4  UNL d   1       0.412   1.888   2.078  0.00  0.00    -0.005 A 
ATOM      6  C5  UNL d   1       1.549   2.407   1.450  0.00  0.00    -0.074 A 
ATOM      7  C6  UNL d   1       1.651   3.867   1.122  0.00  0.00     0.077 C 
ATOM      8  C7  UNL d   1       2.611   1.546   1.141  0.00  0.00    -0.001 A 
ENDROOT
TORSDOF 0
ENDMDL
