MODEL 1
REMARK minimizedAffinity 2.36240458
REMARK minimizedRMSD -1
REMARK  0 active torsions:
REMARK  status: ('A' for Active; 'I' for Inactive)
ROOT
ATOM      1  C   UNL d   1      -1.977   2.064  -4.164  0.00  0.00    -0.002 A 
ATOM      2  C1  UNL d   1      -3.104   1.882  -3.375  0.00  0.00     0.010 A 
ATOM      3  C2  UNL d   1      -2.984   1.433  -2.058  0.00  0.00     0.041 A 
ATOM      4  C3  UNL d   1      -1.699   1.169  -1.543  0.00  0.00    -0.075 A 
ATOM      5  S   UNL d   1      -1.310   0.613   0.042  0.00  0.00     0.015 SA
ATOM      6  C4  UNL d   1       0.362   0.604  -0.291  0.00  0.00     0.022 A 
ATOM      7  C5  UNL d   1       0.634   1.012  -1.576  0.00  0.00     0.026 A 
ATOM      8  C6  UNL d   1      -0.550   1.346  -2.318  0.00  0.00    -0.082 A 
ATOM      9  C7  UNL d   1      -0.705   1.801  -3.649  0.00  0.00     0.045 A 
ENDROOT
TORSDOF 0
ENDMDL
