MODEL 1
REMARK minimizedAffinity -2.49541163
REMARK minimizedRMSD -1
REMARK  0 active torsions:
REMARK  status: ('A' for Active; 'I' for Inactive)
ROOT
ATOM      1  C   UNL d   1      -1.401   3.382  -4.000  0.00  0.00    -0.002 A 
ATOM      2  C1  UNL d   1      -2.085   2.199  -3.759  0.00  0.00     0.010 A 
ATOM      3  C2  UNL d   1      -1.909   1.509  -2.558  0.00  0.00     0.041 A 
ATOM      4  C3  UNL d   1      -1.028   2.036  -1.593  0.00  0.00    -0.075 A 
ATOM      5  S   UNL d   1      -0.656   1.365  -0.049  0.00  0.00     0.015 SA
ATOM      6  C4  UNL d   1       0.418   2.634   0.327  0.00  0.00     0.022 A 
ATOM      7  C5  UNL d   1       0.503   3.555  -0.689  0.00  0.00     0.026 A 
ATOM      8  C6  UNL d   1      -0.329   3.226  -1.812  0.00  0.00    -0.082 A 
ATOM      9  C7  UNL d   1      -0.528   3.901  -3.041  0.00  0.00     0.045 A 
ENDROOT
TORSDOF 0
ENDMDL
