MODEL 1
REMARK minimizedAffinity -2.79295611
REMARK minimizedRMSD -1
REMARK  0 active torsions:
REMARK  status: ('A' for Active; 'I' for Inactive)
ROOT
ATOM      1  C   UNL d   1       0.031   3.775  -0.379  0.00  0.00    -0.002 A 
ATOM      2  C1  UNL d   1       0.081   4.412  -1.611  0.00  0.00     0.010 A 
ATOM      3  C2  UNL d   1      -0.669   3.935  -2.688  0.00  0.00     0.041 A 
ATOM      4  C3  UNL d   1      -1.478   2.797  -2.504  0.00  0.00    -0.075 A 
ATOM      5  S   UNL d   1      -2.483   2.036  -3.680  0.00  0.00     0.015 SA
ATOM      6  C4  UNL d   1      -3.003   0.847  -2.575  0.00  0.00     0.022 A 
ATOM      7  C5  UNL d   1      -2.434   1.012  -1.335  0.00  0.00     0.026 A 
ATOM      8  C6  UNL d   1      -1.546   2.139  -1.273  0.00  0.00    -0.082 A 
ATOM      9  C7  UNL d   1      -0.773   2.646  -0.201  0.00  0.00     0.045 A 
ENDROOT
TORSDOF 0
ENDMDL
