MODEL 1
REMARK minimizedAffinity 0.502572894
REMARK minimizedRMSD -1
REMARK  0 active torsions:
REMARK  status: ('A' for Active; 'I' for Inactive)
ROOT
ATOM      1  C   UNL d   1       0.549  -2.718   0.976  0.00  0.00    -0.002 A 
ATOM      2  C1  UNL d   1       1.865  -2.281   1.043  0.00  0.00     0.010 A 
ATOM      3  C2  UNL d   1       2.200  -0.977   0.673  0.00  0.00     0.041 A 
ATOM      4  C3  UNL d   1       1.180  -0.110   0.232  0.00  0.00    -0.075 A 
ATOM      5  S   UNL d   1       1.355   1.529  -0.272  0.00  0.00     0.015 SA
ATOM      6  C4  UNL d   1      -0.313   1.689  -0.586  0.00  0.00     0.022 A 
ATOM      7  C5  UNL d   1      -1.001   0.529  -0.320  0.00  0.00     0.026 A 
ATOM      8  C6  UNL d   1      -0.152  -0.527   0.157  0.00  0.00    -0.082 A 
ATOM      9  C7  UNL d   1      -0.459  -1.855   0.538  0.00  0.00     0.045 A 
ENDROOT
TORSDOF 0
ENDMDL
