MODEL 1
REMARK minimizedAffinity -1.80457461
REMARK minimizedRMSD -1
REMARK  0 active torsions:
REMARK  status: ('A' for Active; 'I' for Inactive)
ROOT
ATOM      1  C   UNL d   1       0.441  -2.847   0.427  0.00  0.00    -0.002 A 
ATOM      2  C1  UNL d   1       1.484  -2.266   1.135  0.00  0.00     0.010 A 
ATOM      3  C2  UNL d   1       1.739  -0.897   1.030  0.00  0.00     0.041 A 
ATOM      4  C3  UNL d   1       0.918  -0.114   0.194  0.00  0.00    -0.075 A 
ATOM      5  S   UNL d   1       1.042   1.583  -0.088  0.00  0.00     0.015 SA
ATOM      6  C4  UNL d   1      -0.287   1.577  -1.155  0.00  0.00     0.022 A 
ATOM      7  C5  UNL d   1      -0.824   0.320  -1.304  0.00  0.00     0.026 A 
ATOM      8  C6  UNL d   1      -0.138  -0.675  -0.528  0.00  0.00    -0.082 A 
ATOM      9  C7  UNL d   1      -0.371  -2.066  -0.401  0.00  0.00     0.045 A 
ENDROOT
TORSDOF 0
ENDMDL
