MODEL 1
REMARK minimizedAffinity -1.35983467
REMARK minimizedRMSD -1
REMARK  0 active torsions:
REMARK  status: ('A' for Active; 'I' for Inactive)
ROOT
ATOM      1  C   UNL d   1       0.625  -1.881   1.704  0.00  0.00    -0.002 A 
ATOM      2  C1  UNL d   1      -0.463  -1.123   2.115  0.00  0.00     0.010 A 
ATOM      3  C2  UNL d   1      -1.160  -0.329   1.202  0.00  0.00     0.041 A 
ATOM      4  C3  UNL d   1      -0.744  -0.311  -0.143  0.00  0.00    -0.075 A 
ATOM      5  S   UNL d   1      -1.447   0.585  -1.437  0.00  0.00     0.015 SA
ATOM      6  C4  UNL d   1      -0.321  -0.017  -2.566  0.00  0.00     0.022 A 
ATOM      7  C5  UNL d   1       0.577  -0.882  -1.987  0.00  0.00     0.026 A 
ATOM      8  C6  UNL d   1       0.348  -1.066  -0.581  0.00  0.00    -0.082 A 
ATOM      9  C7  UNL d   1       1.035  -1.860   0.368  0.00  0.00     0.045 A 
ENDROOT
TORSDOF 0
ENDMDL
