MODEL 1
REMARK minimizedAffinity -3.35147572
REMARK minimizedRMSD -1
REMARK  0 active torsions:
REMARK  status: ('A' for Active; 'I' for Inactive)
ROOT
ATOM      1  C   UNL d   1       1.852  -2.479   0.396  0.00  0.00    -0.002 A 
ATOM      2  C1  UNL d   1       0.705  -2.684   1.149  0.00  0.00     0.010 A 
ATOM      3  C2  UNL d   1      -0.297  -1.712   1.196  0.00  0.00     0.041 A 
ATOM      4  C3  UNL d   1      -0.125  -0.521   0.465  0.00  0.00    -0.075 A 
ATOM      5  S   UNL d   1      -1.220   0.808   0.372  0.00  0.00     0.015 SA
ATOM      6  C4  UNL d   1      -0.191   1.679  -0.671  0.00  0.00     0.022 A 
ATOM      7  C5  UNL d   1       0.964   0.988  -0.951  0.00  0.00     0.026 A 
ATOM      8  C6  UNL d   1       1.020  -0.292  -0.302  0.00  0.00    -0.082 A 
ATOM      9  C7  UNL d   1       2.019  -1.295  -0.329  0.00  0.00     0.045 A 
ENDROOT
TORSDOF 0
ENDMDL
