MODEL 1
REMARK minimizedAffinity -5.14587831
REMARK minimizedRMSD -1
REMARK  0 active torsions:
REMARK  status: ('A' for Active; 'I' for Inactive)
ROOT
ATOM      1  C   UNL d   1      -0.200   4.337  -2.977  0.00  0.00    -0.002 A 
ATOM      2  C1  UNL d   1      -0.418   4.229  -4.343  0.00  0.00     0.010 A 
ATOM      3  C2  UNL d   1      -1.498   3.492  -4.834  0.00  0.00     0.041 A 
ATOM      4  C3  UNL d   1      -2.365   2.862  -3.919  0.00  0.00    -0.075 A 
ATOM      5  S   UNL d   1      -3.753   1.908  -4.290  0.00  0.00     0.015 SA
ATOM      6  C4  UNL d   1      -4.089   1.623  -2.643  0.00  0.00     0.022 A 
ATOM      7  C5  UNL d   1      -3.174   2.232  -1.817  0.00  0.00     0.026 A 
ATOM      8  C6  UNL d   1      -2.166   2.957  -2.539  0.00  0.00    -0.082 A 
ATOM      9  C7  UNL d   1      -1.061   3.710  -2.073  0.00  0.00     0.045 A 
ENDROOT
TORSDOF 0
ENDMDL
