MODEL 1
REMARK minimizedAffinity -5.02453184
REMARK minimizedRMSD -1
REMARK  0 active torsions:
REMARK  status: ('A' for Active; 'I' for Inactive)
ROOT
ATOM      1  C   UNL d   1       1.852  -2.728   0.766  0.00  0.00    -0.002 A 
ATOM      2  C1  UNL d   1       0.493  -2.866   1.008  0.00  0.00     0.010 A 
ATOM      3  C2  UNL d   1      -0.369  -1.777   0.864  0.00  0.00     0.041 A 
ATOM      4  C3  UNL d   1       0.164  -0.535   0.467  0.00  0.00    -0.075 A 
ATOM      5  S   UNL d   1      -0.699   0.938   0.226  0.00  0.00     0.015 SA
ATOM      6  C4  UNL d   1       0.716   1.785  -0.205  0.00  0.00     0.022 A 
ATOM      7  C5  UNL d   1       1.829   0.979  -0.170  0.00  0.00     0.026 A 
ATOM      8  C6  UNL d   1       1.530  -0.371   0.217  0.00  0.00    -0.082 A 
ATOM      9  C7  UNL d   1       2.377  -1.495   0.373  0.00  0.00     0.045 A 
ENDROOT
TORSDOF 0
ENDMDL
