MODEL 1
REMARK minimizedAffinity -4.60794973
REMARK minimizedRMSD -1
REMARK  0 active torsions:
REMARK  status: ('A' for Active; 'I' for Inactive)
ROOT
ATOM      1  C   UNL d   1       0.982  -1.261  -0.082  0.00  0.00    -0.002 A 
ATOM      2  C1  UNL d   1      -0.335  -0.826  -0.033  0.00  0.00     0.010 A 
ATOM      3  C2  UNL d   1      -0.631   0.537   0.016  0.00  0.00     0.041 A 
ATOM      4  C3  UNL d   1       0.429   1.466   0.011  0.00  0.00    -0.075 A 
ATOM      5  S   UNL d   1       0.306   3.184   0.063  0.00  0.00     0.015 SA
ATOM      6  C4  UNL d   1       1.998   3.382   0.020  0.00  0.00     0.022 A 
ATOM      7  C5  UNL d   1       2.657   2.176  -0.033  0.00  0.00     0.026 A 
ATOM      8  C6  UNL d   1       1.763   1.052  -0.039  0.00  0.00    -0.082 A 
ATOM      9  C7  UNL d   1       2.031  -0.338  -0.086  0.00  0.00     0.045 A 
ENDROOT
TORSDOF 0
ENDMDL
