MODEL 1
REMARK minimizedAffinity 14.7784872
REMARK minimizedRMSD -1
REMARK  0 active torsions:
REMARK  status: ('A' for Active; 'I' for Inactive)
ROOT
ATOM      1  N1  IND d   1      -2.266   2.085  -0.183  0.00  0.00    -0.196 N 
ATOM      2  C2  IND d   1      -2.801   2.234  -1.432  0.00  0.00     0.054 A 
ATOM      3  C3  IND d   1      -1.927   2.867  -2.246  0.00  0.00    -0.031 A 
ATOM      4  C4  IND d   1       0.477   3.656  -1.768  0.00  0.00     0.051 A 
ATOM      5  C5  IND d   1       1.392   3.771  -0.759  0.00  0.00    -0.031 A 
ATOM      6  C6  IND d   1       1.130   3.319   0.518  0.00  0.00     0.015 A 
ATOM      7  C7  IND d   1      -0.058   2.722   0.833  0.00  0.00    -0.016 A 
ATOM      8  C8  IND d   1      -0.992   2.609  -0.187  0.00  0.00    -0.047 A 
ATOM      9  C9  IND d   1      -0.748   3.104  -1.474  0.00  0.00    -0.096 A 
ATOM     10  HN1 IND d   1      -2.659   1.725   0.491  0.00  0.00     0.298 HD
ENDROOT
TORSDOF 0
ENDMDL
