MODEL 1
REMARK minimizedAffinity 18.6321335
REMARK minimizedRMSD -1
REMARK  0 active torsions:
REMARK  status: ('A' for Active; 'I' for Inactive)
ROOT
ATOM      1  N1  IND d   1       4.285  -2.465  -0.703  0.00  0.00    -0.196 N 
ATOM      2  C2  IND d   1       3.968  -1.422   0.122  0.00  0.00     0.054 A 
ATOM      3  C3  IND d   1       2.659  -1.468   0.458  0.00  0.00    -0.031 A 
ATOM      4  C4  IND d   1       0.876  -3.223  -0.150  0.00  0.00     0.051 A 
ATOM      5  C5  IND d   1       0.680  -4.341  -0.911  0.00  0.00    -0.031 A 
ATOM      6  C6  IND d   1       1.697  -4.904  -1.655  0.00  0.00     0.015 A 
ATOM      7  C7  IND d   1       2.956  -4.374  -1.656  0.00  0.00    -0.016 A 
ATOM      8  C8  IND d   1       3.157  -3.234  -0.889  0.00  0.00    -0.047 A 
ATOM      9  C9  IND d   1       2.118  -2.634  -0.166  0.00  0.00    -0.096 A 
ATOM     10  HN1 IND d   1       5.058  -2.616  -1.047  0.00  0.00     0.298 HD
ENDROOT
TORSDOF 0
ENDMDL
