MODEL 1
REMARK minimizedAffinity 10.5845995
REMARK minimizedRMSD -1
REMARK  0 active torsions:
REMARK  status: ('A' for Active; 'I' for Inactive)
ROOT
ATOM      1  N1  IND d   1       1.481   3.086  -0.473  0.00  0.00    -0.196 N 
ATOM      2  C2  IND d   1       0.662   3.502  -1.485  0.00  0.00     0.054 A 
ATOM      3  C3  IND d   1      -0.634   3.390  -1.117  0.00  0.00    -0.031 A 
ATOM      4  C4  IND d   1      -1.637   2.645   1.134  0.00  0.00     0.051 A 
ATOM      5  C5  IND d   1      -1.287   2.136   2.353  0.00  0.00    -0.031 A 
ATOM      6  C6  IND d   1       0.030   1.916   2.701  0.00  0.00     0.015 A 
ATOM      7  C7  IND d   1       1.052   2.209   1.842  0.00  0.00    -0.016 A 
ATOM      8  C8  IND d   1       0.700   2.719   0.601  0.00  0.00    -0.047 A 
ATOM      9  C9  IND d   1      -0.637   2.904   0.226  0.00  0.00    -0.096 A 
ATOM     10  HN1 IND d   1       2.340   3.058  -0.502  0.00  0.00     0.298 HD
ENDROOT
TORSDOF 0
ENDMDL
