MODEL 1
REMARK minimizedAffinity 11.9414377
REMARK minimizedRMSD -1
REMARK  0 active torsions:
REMARK  status: ('A' for Active; 'I' for Inactive)
ROOT
ATOM      1  N1  IND d   1      -5.193  -3.650  -5.947  0.00  0.00    -0.196 N 
ATOM      2  C2  IND d   1      -5.981  -4.766  -5.998  0.00  0.00     0.054 A 
ATOM      3  C3  IND d   1      -5.311  -5.837  -5.516  0.00  0.00    -0.031 A 
ATOM      4  C4  IND d   1      -2.951  -5.966  -4.496  0.00  0.00     0.051 A 
ATOM      5  C5  IND d   1      -1.833  -5.213  -4.267  0.00  0.00    -0.031 A 
ATOM      6  C6  IND d   1      -1.779  -3.873  -4.590  0.00  0.00     0.015 A 
ATOM      7  C7  IND d   1      -2.849  -3.230  -5.146  0.00  0.00    -0.016 A 
ATOM      8  C8  IND d   1      -3.982  -3.993  -5.387  0.00  0.00    -0.047 A 
ATOM      9  C9  IND d   1      -4.029  -5.364  -5.101  0.00  0.00    -0.096 A 
ATOM     10  HN1 IND d   1      -5.417  -2.865  -6.218  0.00  0.00     0.298 HD
ENDROOT
TORSDOF 0
ENDMDL
