MODEL 1
REMARK minimizedAffinity 10.5814199
REMARK minimizedRMSD -1
REMARK  0 active torsions:
REMARK  status: ('A' for Active; 'I' for Inactive)
ROOT
ATOM      1  N1  IND d   1      -2.677   4.529   2.382  0.00  0.00    -0.196 N 
ATOM      2  C2  IND d   1      -2.809   5.834   1.996  0.00  0.00     0.054 A 
ATOM      3  C3  IND d   1      -2.352   6.000   0.734  0.00  0.00    -0.031 A 
ATOM      4  C4  IND d   1      -1.441   4.249  -0.919  0.00  0.00     0.051 A 
ATOM      5  C5  IND d   1      -1.096   2.929  -1.009  0.00  0.00    -0.031 A 
ATOM      6  C6  IND d   1      -1.266   2.057   0.047  0.00  0.00     0.015 A 
ATOM      7  C7  IND d   1      -1.801   2.472   1.234  0.00  0.00    -0.016 A 
ATOM      8  C8  IND d   1      -2.146   3.813   1.332  0.00  0.00    -0.047 A 
ATOM      9  C9  IND d   1      -1.936   4.711   0.278  0.00  0.00    -0.096 A 
ATOM     10  HN1 IND d   1      -2.890   4.209   3.151  0.00  0.00     0.298 HD
ENDROOT
TORSDOF 0
ENDMDL
