MODEL 1
REMARK minimizedAffinity 12.2116261
REMARK minimizedRMSD -1
REMARK  0 active torsions:
REMARK  status: ('A' for Active; 'I' for Inactive)
ROOT
ATOM      1  N1  IND d   1       2.550   3.945   0.257  0.00  0.00    -0.196 N 
ATOM      2  C2  IND d   1       2.339   4.306  -1.045  0.00  0.00     0.054 A 
ATOM      3  C3  IND d   1       1.130   3.868  -1.464  0.00  0.00    -0.031 A 
ATOM      4  C4  IND d   1      -0.707   2.631  -0.151  0.00  0.00     0.051 A 
ATOM      5  C5  IND d   1      -0.960   2.052   1.061  0.00  0.00    -0.031 A 
ATOM      6  C6  IND d   1      -0.040   2.077   2.088  0.00  0.00     0.015 A 
ATOM      7  C7  IND d   1       1.170   2.695   1.945  0.00  0.00    -0.016 A 
ATOM      8  C8  IND d   1       1.434   3.278   0.714  0.00  0.00    -0.047 A 
ATOM      9  C9  IND d   1       0.521   3.219  -0.346  0.00  0.00    -0.096 A 
ATOM     10  HN1 IND d   1       3.260   4.108   0.714  0.00  0.00     0.298 HD
ENDROOT
TORSDOF 0
ENDMDL
