MODEL 1
REMARK minimizedAffinity 17.1980381
REMARK minimizedRMSD -1
REMARK  0 active torsions:
REMARK  status: ('A' for Active; 'I' for Inactive)
ROOT
ATOM      1  N1  IND d   1      -2.443   5.610   0.137  0.00  0.00    -0.196 N 
ATOM      2  C2  IND d   1      -2.707   5.572   1.478  0.00  0.00     0.054 A 
ATOM      3  C3  IND d   1      -2.045   4.546   2.058  0.00  0.00    -0.031 A 
ATOM      4  C4  IND d   1      -0.393   2.868   1.018  0.00  0.00     0.051 A 
ATOM      5  C5  IND d   1       0.139   2.482  -0.180  0.00  0.00    -0.031 A 
ATOM      6  C6  IND d   1      -0.166   3.134  -1.357  0.00  0.00     0.015 A 
ATOM      7  C7  IND d   1      -1.010   4.208  -1.379  0.00  0.00    -0.016 A 
ATOM      8  C8  IND d   1      -1.558   4.599  -0.165  0.00  0.00    -0.047 A 
ATOM      9  C9  IND d   1      -1.285   3.914   1.027  0.00  0.00    -0.096 A 
ATOM     10  HN1 IND d   1      -2.774   6.172  -0.424  0.00  0.00     0.298 HD
ENDROOT
TORSDOF 0
ENDMDL
