MODEL 1
REMARK minimizedAffinity 14.5946312
REMARK minimizedRMSD -1
REMARK  0 active torsions:
REMARK  status: ('A' for Active; 'I' for Inactive)
ROOT
ATOM      1  N1  IND d   1      -2.673   4.040   2.639  0.00  0.00    -0.196 N 
ATOM      2  C2  IND d   1      -2.968   5.263   2.106  0.00  0.00     0.054 A 
ATOM      3  C3  IND d   1      -2.357   5.415   0.910  0.00  0.00    -0.031 A 
ATOM      4  C4  IND d   1      -0.909   3.745  -0.411  0.00  0.00     0.051 A 
ATOM      5  C5  IND d   1      -0.330   2.511  -0.315  0.00  0.00    -0.031 A 
ATOM      6  C6  IND d   1      -0.508   1.706   0.792  0.00  0.00     0.015 A 
ATOM      7  C7  IND d   1      -1.285   2.102   1.843  0.00  0.00    -0.016 A 
ATOM      8  C8  IND d   1      -1.868   3.358   1.753  0.00  0.00    -0.047 A 
ATOM      9  C9  IND d   1      -1.657   4.197   0.651  0.00  0.00    -0.096 A 
ATOM     10  HN1 IND d   1      -2.943   3.745   3.400  0.00  0.00     0.298 HD
ENDROOT
TORSDOF 0
ENDMDL
