MODEL 1
REMARK minimizedAffinity 6.68628216
REMARK minimizedRMSD -1
REMARK  0 active torsions:
REMARK  status: ('A' for Active; 'I' for Inactive)
ROOT
ATOM      1  N1  IND d   1       1.326   1.952  -1.013  0.00  0.00    -0.196 N 
ATOM      2  C2  IND d   1       0.348   2.359  -1.878  0.00  0.00     0.054 A 
ATOM      3  C3  IND d   1      -0.803   2.596  -1.210  0.00  0.00    -0.031 A 
ATOM      4  C4  IND d   1      -1.280   2.481   1.317  0.00  0.00     0.051 A 
ATOM      5  C5  IND d   1      -0.709   2.123   2.506  0.00  0.00    -0.031 A 
ATOM      6  C6  IND d   1       0.597   1.683   2.584  0.00  0.00     0.015 A 
ATOM      7  C7  IND d   1       1.387   1.596   1.473  0.00  0.00    -0.016 A 
ATOM      8  C8  IND d   1       0.808   1.952   0.264  0.00  0.00    -0.047 A 
ATOM      9  C9  IND d   1      -0.529   2.358   0.172  0.00  0.00    -0.096 A 
ATOM     10  HN1 IND d   1       2.128   1.733  -1.230  0.00  0.00     0.298 HD
ENDROOT
TORSDOF 0
ENDMDL
