MODEL 1
REMARK minimizedAffinity 14.8609171
REMARK minimizedRMSD -1
REMARK  0 active torsions:
REMARK  status: ('A' for Active; 'I' for Inactive)
ROOT
ATOM      1  N1  IND d   1       1.093   3.606  -1.510  0.00  0.00    -0.196 N 
ATOM      2  C2  IND d   1       0.139   4.103  -2.354  0.00  0.00     0.054 A 
ATOM      3  C3  IND d   1      -1.082   4.027  -1.779  0.00  0.00    -0.031 A 
ATOM      4  C4  IND d   1      -1.734   3.217   0.576  0.00  0.00     0.051 A 
ATOM      5  C5  IND d   1      -1.213   2.637   1.698  0.00  0.00    -0.031 A 
ATOM      6  C6  IND d   1       0.132   2.346   1.812  0.00  0.00     0.015 A 
ATOM      7  C7  IND d   1       1.010   2.637   0.807  0.00  0.00    -0.016 A 
ATOM      8  C8  IND d   1       0.483   3.220  -0.337  0.00  0.00    -0.047 A 
ATOM      9  C9  IND d   1      -0.887   3.478  -0.474  0.00  0.00    -0.096 A 
ATOM     10  HN1 IND d   1       1.933   3.545  -1.683  0.00  0.00     0.298 HD
ENDROOT
TORSDOF 0
ENDMDL
