MODEL 1
REMARK minimizedAffinity 6.24661398
REMARK minimizedRMSD -1
REMARK  0 active torsions:
REMARK  status: ('A' for Active; 'I' for Inactive)
ROOT
ATOM      1  N1  IND d   1       1.253   2.279  -1.196  0.00  0.00    -0.196 N 
ATOM      2  C2  IND d   1       0.325   3.262  -0.992  0.00  0.00     0.054 A 
ATOM      3  C3  IND d   1      -0.908   2.725  -0.860  0.00  0.00    -0.031 A 
ATOM      4  C4  IND d   1      -1.621   0.251  -0.842  0.00  0.00     0.051 A 
ATOM      5  C5  IND d   1      -1.134  -1.012  -1.028  0.00  0.00    -0.031 A 
ATOM      6  C6  IND d   1       0.202  -1.248  -1.282  0.00  0.00     0.015 A 
ATOM      7  C7  IND d   1       1.106  -0.225  -1.349  0.00  0.00    -0.016 A 
ATOM      8  C8  IND d   1       0.613   1.059  -1.167  0.00  0.00    -0.047 A 
ATOM      9  C9  IND d   1      -0.749   1.308  -0.952  0.00  0.00    -0.096 A 
ATOM     10  HN1 IND d   1       2.095   2.402  -1.322  0.00  0.00     0.298 HD
ENDROOT
TORSDOF 0
ENDMDL
