MODEL 1
REMARK minimizedAffinity 15.1814718
REMARK minimizedRMSD -1
REMARK  0 active torsions:
REMARK  status: ('A' for Active; 'I' for Inactive)
ROOT
ATOM      1  N1  IND d   1      -2.094  -0.103  -0.780  0.00  0.00    -0.196 N 
ATOM      2  C2  IND d   1      -3.356   0.421  -0.782  0.00  0.00     0.054 A 
ATOM      3  C3  IND d   1      -3.329   1.717  -0.397  0.00  0.00    -0.031 A 
ATOM      4  C4  IND d   1      -1.311   3.207   0.183  0.00  0.00     0.051 A 
ATOM      5  C5  IND d   1       0.043   3.166   0.361  0.00  0.00    -0.031 A 
ATOM      6  C6  IND d   1       0.769   2.010   0.161  0.00  0.00     0.015 A 
ATOM      7  C7  IND d   1       0.167   0.850  -0.237  0.00  0.00    -0.016 A 
ATOM      8  C8  IND d   1      -1.209   0.887  -0.412  0.00  0.00    -0.047 A 
ATOM      9  C9  IND d   1      -1.957   2.046  -0.170  0.00  0.00    -0.096 A 
ATOM     10  HN1 IND d   1      -1.887  -0.914  -0.976  0.00  0.00     0.298 HD
ENDROOT
TORSDOF 0
ENDMDL
