MODEL 1
REMARK minimizedAffinity 12.6335964
REMARK minimizedRMSD -1
REMARK  0 active torsions:
REMARK  status: ('A' for Active; 'I' for Inactive)
ROOT
ATOM      1  N1  IND d   1       2.955   3.095   1.236  0.00  0.00    -0.196 N 
ATOM      2  C2  IND d   1       2.711   2.418   2.399  0.00  0.00     0.054 A 
ATOM      3  C3  IND d   1       1.415   2.038   2.459  0.00  0.00    -0.031 A 
ATOM      4  C4  IND d   1      -0.457   2.328   0.716  0.00  0.00     0.051 A 
ATOM      5  C5  IND d   1      -0.725   2.914  -0.489  0.00  0.00    -0.031 A 
ATOM      6  C6  IND d   1       0.240   3.602  -1.197  0.00  0.00     0.015 A 
ATOM      7  C7  IND d   1       1.518   3.720  -0.728  0.00  0.00    -0.016 A 
ATOM      8  C8  IND d   1       1.792   3.132   0.499  0.00  0.00    -0.047 A 
ATOM      9  C9  IND d   1       0.806   2.470   1.241  0.00  0.00    -0.096 A 
ATOM     10  HN1 IND d   1       3.708   3.438   1.004  0.00  0.00     0.298 HD
ENDROOT
TORSDOF 0
ENDMDL
