MODEL 1
REMARK minimizedAffinity 6.24475431
REMARK minimizedRMSD -1
REMARK  0 active torsions:
REMARK  status: ('A' for Active; 'I' for Inactive)
ROOT
ATOM      1  N1  IND d   1       1.116   3.146  -0.495  0.00  0.00    -0.196 N 
ATOM      2  C2  IND d   1       0.248   3.186  -1.551  0.00  0.00     0.054 A 
ATOM      3  C3  IND d   1      -1.014   2.946  -1.132  0.00  0.00    -0.031 A 
ATOM      4  C4  IND d   1      -1.901   2.563   1.254  0.00  0.00     0.051 A 
ATOM      5  C5  IND d   1      -1.483   2.401   2.545  0.00  0.00    -0.031 A 
ATOM      6  C6  IND d   1      -0.151   2.484   2.896  0.00  0.00     0.015 A 
ATOM      7  C7  IND d   1       0.816   2.744   1.967  0.00  0.00    -0.016 A 
ATOM      8  C8  IND d   1       0.396   2.902   0.654  0.00  0.00    -0.047 A 
ATOM      9  C9  IND d   1      -0.949   2.776   0.285  0.00  0.00    -0.096 A 
ATOM     10  HN1 IND d   1       1.967   3.255  -0.541  0.00  0.00     0.298 HD
ENDROOT
TORSDOF 0
ENDMDL
