MODEL 1
REMARK minimizedAffinity 12.0555439
REMARK minimizedRMSD -1
REMARK  0 active torsions:
REMARK  status: ('A' for Active; 'I' for Inactive)
ROOT
ATOM      1  N1  IND d   1       1.054  -5.856  -2.157  0.00  0.00    -0.196 N 
ATOM      2  C2  IND d   1       1.869  -5.655  -1.078  0.00  0.00     0.054 A 
ATOM      3  C3  IND d   1       1.804  -4.367  -0.673  0.00  0.00    -0.031 A 
ATOM      4  C4  IND d   1       0.349  -2.442  -1.570  0.00  0.00     0.051 A 
ATOM      5  C5  IND d   1      -0.529  -2.131  -2.570  0.00  0.00    -0.031 A 
ATOM      6  C6  IND d   1      -0.935  -3.066  -3.501  0.00  0.00     0.015 A 
ATOM      7  C7  IND d   1      -0.484  -4.355  -3.459  0.00  0.00    -0.016 A 
ATOM      8  C8  IND d   1       0.414  -4.672  -2.449  0.00  0.00    -0.047 A 
ATOM      9  C9  IND d   1       0.862  -3.717  -1.527  0.00  0.00    -0.096 A 
ATOM     10  HN1 IND d   1       0.958  -6.597  -2.582  0.00  0.00     0.298 HD
ENDROOT
TORSDOF 0
ENDMDL
