MODEL 1
REMARK minimizedAffinity 3.52477503
REMARK minimizedRMSD -1
REMARK  2 active torsions:
REMARK  status: ('A' for Active; 'I' for Inactive)
REMARK    1  A    between atoms: C2'_3  and  C1'_4 
REMARK    2  A    between atoms: C1'_4  and  C1_5 
ROOT
ATOM      1  C1  I4B d   1      -0.020  -0.458   2.059  0.00  0.00    -0.075 A 
ATOM      2  C2  I4B d   1       0.074  -0.233   0.709  0.00  0.00     0.003 A 
ATOM      3  C3  I4B d   1      -1.039   0.266  -0.010  0.00  0.00     0.002 A 
ATOM      4  C4  I4B d   1      -2.234   0.477   0.648  0.00  0.00    -0.004 A 
ATOM      5  C5  I4B d   1      -2.321   0.270   2.021  0.00  0.00     0.002 A 
ATOM      6  C6  I4B d   1      -1.203  -0.189   2.734  0.00  0.00     0.003 A 
ENDROOT
BRANCH   1   7
ATOM      7  C1' I4B d   1       1.165  -1.016   2.781  0.00  0.00     0.060 C 
BRANCH   7   8
ATOM      8  C2' I4B d   1       0.772  -1.229   4.229  0.00  0.00    -0.013 C 
ATOM      9  C4' I4B d   1      -0.373  -2.200   4.345  0.00  0.00     0.013 C 
ATOM     10  C3' I4B d   1       1.979  -1.725   4.968  0.00  0.00     0.013 C 
ENDBRANCH   7   8
ENDBRANCH   1   7
TORSDOF 2
ENDMDL
