MODEL 1
REMARK minimizedAffinity 9.89699459
REMARK minimizedRMSD -1
REMARK  2 active torsions:
REMARK  status: ('A' for Active; 'I' for Inactive)
REMARK    1  A    between atoms: C2'_3  and  C1'_4 
REMARK    2  A    between atoms: C1'_4  and  C1_5 
ROOT
ATOM      1  C1  I4B d   1      -1.606  -0.260   2.197  0.00  0.00    -0.075 A 
ATOM      2  C2  I4B d   1      -0.484   0.035   1.464  0.00  0.00     0.003 A 
ATOM      3  C3  I4B d   1       0.797  -0.331   1.943  0.00  0.00     0.002 A 
ATOM      4  C4  I4B d   1       0.913  -0.941   3.175  0.00  0.00    -0.004 A 
ATOM      5  C5  I4B d   1      -0.228  -1.261   3.907  0.00  0.00     0.002 A 
ATOM      6  C6  I4B d   1      -1.496  -0.929   3.409  0.00  0.00     0.003 A 
ENDROOT
BRANCH   1   7
ATOM      7  C1' I4B d   1      -2.941   0.171   1.677  0.00  0.00     0.060 C 
BRANCH   7   8
ATOM      8  C2' I4B d   1      -2.816   0.371   0.180  0.00  0.00    -0.013 C 
ATOM      9  C4' I4B d   1      -2.746  -0.949  -0.543  0.00  0.00     0.013 C 
ATOM     10  C3' I4B d   1      -3.993   1.178  -0.279  0.00  0.00     0.013 C 
ENDBRANCH   7   8
ENDBRANCH   1   7
TORSDOF 2
ENDMDL
