MODEL 1
REMARK minimizedAffinity -0.136590958
REMARK minimizedRMSD -1
REMARK  2 active torsions:
REMARK  status: ('A' for Active; 'I' for Inactive)
REMARK    1  A    between atoms: C2'_3  and  C1'_4 
REMARK    2  A    between atoms: C1'_4  and  C1_5 
ROOT
ATOM      1  C1  I4B d   1      -1.281  -0.455   2.933  0.00  0.00    -0.075 A 
ATOM      2  C2  I4B d   1      -2.630  -0.561   2.700  0.00  0.00     0.003 A 
ATOM      3  C3  I4B d   1      -3.419  -1.448   3.471  0.00  0.00     0.002 A 
ATOM      4  C4  I4B d   1      -2.814  -2.243   4.424  0.00  0.00    -0.004 A 
ATOM      5  C5  I4B d   1      -1.451  -2.118   4.674  0.00  0.00     0.002 A 
ATOM      6  C6  I4B d   1      -0.681  -1.209   3.933  0.00  0.00     0.003 A 
ENDROOT
BRANCH   1   7
ATOM      7  C1' I4B d   1      -0.472   0.468   2.078  0.00  0.00     0.060 C 
BRANCH   7   8
ATOM      8  C2' I4B d   1       0.020  -0.317   0.879  0.00  0.00    -0.013 C 
ATOM      9  C4' I4B d   1      -0.925  -0.183  -0.285  0.00  0.00     0.013 C 
ATOM     10  C3' I4B d   1       1.388   0.186   0.527  0.00  0.00     0.013 C 
ENDBRANCH   7   8
ENDBRANCH   1   7
TORSDOF 2
ENDMDL
