MODEL 1
REMARK minimizedAffinity 6.43324137
REMARK minimizedRMSD -1
REMARK  2 active torsions:
REMARK  status: ('A' for Active; 'I' for Inactive)
REMARK    1  A    between atoms: C2'_3  and  C1'_4 
REMARK    2  A    between atoms: C1'_4  and  C1_5 
ROOT
ATOM      1  C1  I4B d   1      -1.697  -0.188   1.711  0.00  0.00    -0.075 A 
ATOM      2  C2  I4B d   1      -0.365  -0.187   1.381  0.00  0.00     0.003 A 
ATOM      3  C3  I4B d   1       0.040  -0.444   0.049  0.00  0.00     0.002 A 
ATOM      4  C4  I4B d   1      -0.912  -0.744  -0.905  0.00  0.00    -0.004 A 
ATOM      5  C5  I4B d   1      -2.263  -0.721  -0.574  0.00  0.00     0.002 A 
ATOM      6  C6  I4B d   1      -2.660  -0.429   0.740  0.00  0.00     0.003 A 
ENDROOT
BRANCH   1   7
ATOM      7  C1' I4B d   1      -2.088   0.055   3.134  0.00  0.00     0.060 C 
BRANCH   7   8
ATOM      8  C2' I4B d   1      -2.349  -1.290   3.782  0.00  0.00    -0.013 C 
ATOM      9  C4' I4B d   1      -1.398  -1.541   4.922  0.00  0.00     0.013 C 
ATOM     10  C3' I4B d   1      -3.773  -1.308   4.251  0.00  0.00     0.013 C 
ENDBRANCH   7   8
ENDBRANCH   1   7
TORSDOF 2
ENDMDL
