MODEL 1
REMARK minimizedAffinity 7.60188007
REMARK minimizedRMSD -1
REMARK  0 active torsions:
REMARK  status: ('A' for Active; 'I' for Inactive)
ROOT
ATOM      1  C1  BNZ d   1       4.847   1.123  -1.089  0.00  0.00     0.000 A 
ATOM      2  C2  BNZ d   1       3.946   0.338  -1.758  0.00  0.00     0.000 A 
ATOM      3  C3  BNZ d   1       2.914  -0.264  -1.094  0.00  0.00     0.000 A 
ATOM      4  C4  BNZ d   1       2.807  -0.113   0.242  0.00  0.00     0.000 A 
ATOM      5  C5  BNZ d   1       3.713   0.668   0.932  0.00  0.00     0.000 A 
ATOM      6  C6  BNZ d   1       4.728   1.304   0.254  0.00  0.00     0.000 A 
ENDROOT
TORSDOF 0
ENDMDL
