MODEL 1
REMARK minimizedAffinity 8.41107845
REMARK minimizedRMSD -1
REMARK  0 active torsions:
REMARK  status: ('A' for Active; 'I' for Inactive)
ROOT
ATOM      1  C1  BNZ d   1       5.247   1.189  -1.316  0.00  0.00     0.000 A 
ATOM      2  C2  BNZ d   1       4.158   0.411  -1.605  0.00  0.00     0.000 A 
ATOM      3  C3  BNZ d   1       3.462  -0.216  -0.610  0.00  0.00     0.000 A 
ATOM      4  C4  BNZ d   1       3.879  -0.097   0.667  0.00  0.00     0.000 A 
ATOM      5  C5  BNZ d   1       4.980   0.676   0.974  0.00  0.00     0.000 A 
ATOM      6  C6  BNZ d   1       5.655   1.338  -0.026  0.00  0.00     0.000 A 
ENDROOT
TORSDOF 0
ENDMDL
