MODEL 1
REMARK minimizedAffinity 2.52204704
REMARK minimizedRMSD -1
REMARK  0 active torsions:
REMARK  status: ('A' for Active; 'I' for Inactive)
ROOT
ATOM      1  C1  BNZ d   1      -5.998   1.158  -4.127  0.00  0.00     0.000 A 
ATOM      2  C2  BNZ d   1      -5.194   0.348  -4.884  0.00  0.00     0.000 A 
ATOM      3  C3  BNZ d   1      -4.049   0.833  -5.453  0.00  0.00     0.000 A 
ATOM      4  C4  BNZ d   1      -3.731   2.134  -5.297  0.00  0.00     0.000 A 
ATOM      5  C5  BNZ d   1      -4.536   2.965  -4.544  0.00  0.00     0.000 A 
ATOM      6  C6  BNZ d   1      -5.667   2.465  -3.941  0.00  0.00     0.000 A 
ENDROOT
TORSDOF 0
ENDMDL
