MODEL 1
REMARK minimizedAffinity 7.97070456
REMARK minimizedRMSD -1
REMARK  0 active torsions:
REMARK  status: ('A' for Active; 'I' for Inactive)
ROOT
ATOM      1  C1  BNZ d   1      -5.875   4.811   3.537  0.00  0.00     0.000 A 
ATOM      2  C2  BNZ d   1      -5.887   5.556   4.686  0.00  0.00     0.000 A 
ATOM      3  C3  BNZ d   1      -5.929   4.952   5.911  0.00  0.00     0.000 A 
ATOM      4  C4  BNZ d   1      -6.000   3.607   5.985  0.00  0.00     0.000 A 
ATOM      5  C5  BNZ d   1      -5.998   2.843   4.836  0.00  0.00     0.000 A 
ATOM      6  C6  BNZ d   1      -5.916   3.453   3.605  0.00  0.00     0.000 A 
ENDROOT
TORSDOF 0
ENDMDL
