MODEL 1
REMARK minimizedAffinity 7.5546875
REMARK minimizedRMSD -1
REMARK  0 active torsions:
REMARK  status: ('A' for Active; 'I' for Inactive)
ROOT
ATOM      1  C1  BNZ d   1       4.153   0.730  -1.874  0.00  0.00     0.000 A 
ATOM      2  C2  BNZ d   1       5.360   1.371  -1.965  0.00  0.00     0.000 A 
ATOM      3  C3  BNZ d   1       5.999   1.822  -0.843  0.00  0.00     0.000 A 
ATOM      4  C4  BNZ d   1       5.413   1.666   0.361  0.00  0.00     0.000 A 
ATOM      5  C5  BNZ d   1       4.192   1.030   0.468  0.00  0.00     0.000 A 
ATOM      6  C6  BNZ d   1       3.570   0.543  -0.659  0.00  0.00     0.000 A 
ENDROOT
TORSDOF 0
ENDMDL
