MODEL 1
REMARK minimizedAffinity 1.21969414
REMARK minimizedRMSD -1
REMARK  0 active torsions:
REMARK  status: ('A' for Active; 'I' for Inactive)
ROOT
ATOM      1  C1  BNZ d   1       0.166  -4.358  -1.980  0.00  0.00     0.000 A 
ATOM      2  C2  BNZ d   1      -0.831  -5.194  -2.407  0.00  0.00     0.000 A 
ATOM      3  C3  BNZ d   1      -1.494  -6.000  -1.524  0.00  0.00     0.000 A 
ATOM      4  C4  BNZ d   1      -1.134  -5.998  -0.225  0.00  0.00     0.000 A 
ATOM      5  C5  BNZ d   1      -0.125  -5.167   0.220  0.00  0.00     0.000 A 
ATOM      6  C6  BNZ d   1       0.514  -4.329  -0.665  0.00  0.00     0.000 A 
ENDROOT
TORSDOF 0
ENDMDL
