MODEL 1
REMARK minimizedAffinity 9.51141548
REMARK minimizedRMSD -1
REMARK  0 active torsions:
REMARK  status: ('A' for Active; 'I' for Inactive)
ROOT
ATOM      1  C1  BNZ d   1       5.381   0.742  -1.322  0.00  0.00     0.000 A 
ATOM      2  C2  BNZ d   1       4.473   0.005  -2.034  0.00  0.00     0.000 A 
ATOM      3  C3  BNZ d   1       3.297  -0.396  -1.464  0.00  0.00     0.000 A 
ATOM      4  C4  BNZ d   1       3.049  -0.095  -0.173  0.00  0.00     0.000 A 
ATOM      5  C5  BNZ d   1       3.959   0.639   0.561  0.00  0.00     0.000 A 
ATOM      6  C6  BNZ d   1       5.124   1.075  -0.028  0.00  0.00     0.000 A 
ENDROOT
TORSDOF 0
ENDMDL
