MODEL 1
REMARK minimizedAffinity -1.78916264
REMARK minimizedRMSD -1
REMARK  1 active torsions:
REMARK  status: ('A' for Active; 'I' for Inactive)
REMARK    1  A    between atoms: C1_2  and  C2_3 
ROOT
ATOM      1  C2  UNL d   1       1.699  -3.411   2.626  0.00  0.00    -0.077 A 
ATOM      2  C3  UNL d   1       0.579  -4.155   3.022  0.00  0.00     0.002 A 
ATOM      3  C4  UNL d   1      -0.604  -3.509   3.388  0.00  0.00     0.002 A 
ATOM      4  C5  UNL d   1      -0.679  -2.118   3.357  0.00  0.00    -0.004 A 
ATOM      5  C6  UNL d   1       0.430  -1.370   2.966  0.00  0.00     0.002 A 
ATOM      6  C7  UNL d   1       1.614  -2.013   2.601  0.00  0.00     0.002 A 
ENDROOT
BRANCH   1   7
ATOM      7  C1  UNL d   1       2.960  -4.107   2.184  0.00  0.00     0.055 C 
ATOM      8  C   UNL d   1       3.798  -4.544   3.377  0.00  0.00     0.019 C 
ENDBRANCH   1   7
TORSDOF 1
ENDMDL
