MODEL 1
REMARK minimizedAffinity 1.27668643
REMARK minimizedRMSD -1
REMARK  1 active torsions:
REMARK  status: ('A' for Active; 'I' for Inactive)
REMARK    1  A    between atoms: C1_2  and  C2_3 
ROOT
ATOM      1  C2  UNL d   1       0.659  -2.173   2.433  0.00  0.00    -0.077 A 
ATOM      2  C3  UNL d   1      -0.099  -3.332   2.653  0.00  0.00     0.002 A 
ATOM      3  C4  UNL d   1       0.383  -4.579   2.247  0.00  0.00     0.002 A 
ATOM      4  C5  UNL d   1       1.625  -4.678   1.624  0.00  0.00    -0.004 A 
ATOM      5  C6  UNL d   1       2.385  -3.531   1.399  0.00  0.00     0.002 A 
ATOM      6  C7  UNL d   1       1.905  -2.285   1.802  0.00  0.00     0.002 A 
ENDROOT
BRANCH   1   7
ATOM      7  C1  UNL d   1       0.164  -0.835   2.914  0.00  0.00     0.055 C 
ATOM      8  C   UNL d   1      -1.342  -0.849   3.138  0.00  0.00     0.019 C 
ENDBRANCH   1   7
TORSDOF 1
ENDMDL
