MODEL 1
REMARK minimizedAffinity -1.85519469
REMARK minimizedRMSD -1
REMARK  1 active torsions:
REMARK  status: ('A' for Active; 'I' for Inactive)
REMARK    1  A    between atoms: C1_2  and  C2_3 
ROOT
ATOM      1  C2  UNL d   1       3.317   5.048  -5.875  0.00  0.00    -0.077 A 
ATOM      2  C3  UNL d   1       3.656   3.717  -5.595  0.00  0.00     0.002 A 
ATOM      3  C4  UNL d   1       4.992   3.347  -5.436  0.00  0.00     0.002 A 
ATOM      4  C5  UNL d   1       6.000   4.303  -5.550  0.00  0.00    -0.004 A 
ATOM      5  C6  UNL d   1       5.673   5.629  -5.830  0.00  0.00     0.002 A 
ATOM      6  C7  UNL d   1       4.337   6.000  -5.991  0.00  0.00     0.002 A 
ENDROOT
BRANCH   1   7
ATOM      7  C1  UNL d   1       1.872   5.458  -5.998  0.00  0.00     0.055 C 
ATOM      8  C   UNL d   1       0.961   4.516  -5.225  0.00  0.00     0.019 C 
ENDBRANCH   1   7
TORSDOF 1
ENDMDL
