MODEL 1
REMARK minimizedAffinity 2.88051224
REMARK minimizedRMSD -1
REMARK  1 active torsions:
REMARK  status: ('A' for Active; 'I' for Inactive)
REMARK    1  A    between atoms: C1_2  and  C2_3 
ROOT
ATOM      1  C2  UNL d   1       1.194  -0.768   2.590  0.00  0.00    -0.077 A 
ATOM      2  C3  UNL d   1       1.728  -1.639   1.630  0.00  0.00     0.002 A 
ATOM      3  C4  UNL d   1       1.060  -2.819   1.298  0.00  0.00     0.002 A 
ATOM      4  C5  UNL d   1      -0.146  -3.137   1.918  0.00  0.00    -0.004 A 
ATOM      5  C6  UNL d   1      -0.684  -2.278   2.875  0.00  0.00     0.002 A 
ATOM      6  C7  UNL d   1      -0.018  -1.098   3.209  0.00  0.00     0.002 A 
ENDROOT
BRANCH   1   7
ATOM      7  C1  UNL d   1       1.888   0.530   2.914  0.00  0.00     0.055 C 
ATOM      8  C   UNL d   1       1.599   1.590   1.861  0.00  0.00     0.019 C 
ENDBRANCH   1   7
TORSDOF 1
ENDMDL
