MODEL 1
REMARK minimizedAffinity 6.80901098
REMARK minimizedRMSD -1
REMARK  1 active torsions:
REMARK  status: ('A' for Active; 'I' for Inactive)
REMARK    1  A    between atoms: C1_2  and  C2_3 
ROOT
ATOM      1  C2  UNL d   1       0.743  -0.604  -1.974  0.00  0.00    -0.077 A 
ATOM      2  C3  UNL d   1      -0.510  -1.064  -1.543  0.00  0.00     0.002 A 
ATOM      3  C4  UNL d   1      -0.627  -1.780  -0.349  0.00  0.00     0.002 A 
ATOM      4  C5  UNL d   1       0.503  -2.037   0.424  0.00  0.00    -0.004 A 
ATOM      5  C6  UNL d   1       1.753  -1.586   0.003  0.00  0.00     0.002 A 
ATOM      6  C7  UNL d   1       1.872  -0.872  -1.190  0.00  0.00     0.002 A 
ENDROOT
BRANCH   1   7
ATOM      7  C1  UNL d   1       0.864   0.210  -3.235  0.00  0.00     0.055 C 
ATOM      8  C   UNL d   1       0.209   1.574  -3.079  0.00  0.00     0.019 C 
ENDBRANCH   1   7
TORSDOF 1
ENDMDL
