MODEL 1
REMARK minimizedAffinity 5.32903719
REMARK minimizedRMSD -1
REMARK  1 active torsions:
REMARK  status: ('A' for Active; 'I' for Inactive)
REMARK    1  A    between atoms: C1_2  and  C2_3 
ROOT
ATOM      1  C2  UNL d   1      -3.736   2.719  -3.284  0.00  0.00    -0.077 A 
ATOM      2  C3  UNL d   1      -4.552   1.912  -4.090  0.00  0.00     0.002 A 
ATOM      3  C4  UNL d   1      -5.477   2.491  -4.961  0.00  0.00     0.002 A 
ATOM      4  C5  UNL d   1      -5.592   3.877  -5.038  0.00  0.00    -0.004 A 
ATOM      5  C6  UNL d   1      -4.786   4.688  -4.239  0.00  0.00     0.002 A 
ATOM      6  C7  UNL d   1      -3.862   4.111  -3.367  0.00  0.00     0.002 A 
ENDROOT
BRANCH   1   7
ATOM      7  C1  UNL d   1      -2.703   2.098  -2.380  0.00  0.00     0.055 C 
ATOM      8  C   UNL d   1      -1.294   2.500  -2.790  0.00  0.00     0.019 C 
ENDBRANCH   1   7
TORSDOF 1
ENDMDL
