MODEL 1
REMARK minimizedAffinity 5.85627365
REMARK minimizedRMSD -1
REMARK  1 active torsions:
REMARK  status: ('A' for Active; 'I' for Inactive)
REMARK    1  A    between atoms: C1_2  and  C2_3 
ROOT
ATOM      1  C2  UNL d   1       1.228  -1.978   0.913  0.00  0.00    -0.077 A 
ATOM      2  C3  UNL d   1      -0.147  -1.932   1.184  0.00  0.00     0.002 A 
ATOM      3  C4  UNL d   1      -0.630  -1.180   2.257  0.00  0.00     0.002 A 
ATOM      4  C5  UNL d   1       0.253  -0.467   3.065  0.00  0.00    -0.004 A 
ATOM      5  C6  UNL d   1       1.622  -0.508   2.804  0.00  0.00     0.002 A 
ATOM      6  C7  UNL d   1       2.107  -1.260   1.733  0.00  0.00     0.002 A 
ENDROOT
BRANCH   1   7
ATOM      7  C1  UNL d   1       1.746  -2.748  -0.273  0.00  0.00     0.055 C 
ATOM      8  C   UNL d   1       1.611  -4.249  -0.061  0.00  0.00     0.019 C 
ENDBRANCH   1   7
TORSDOF 1
ENDMDL
