MODEL 1
REMARK minimizedAffinity 6.67959642
REMARK minimizedRMSD -1
REMARK  1 active torsions:
REMARK  status: ('A' for Active; 'I' for Inactive)
REMARK    1  A    between atoms: C1_2  and  C2_3 
ROOT
ATOM      1  C2  UNL d   1       2.749   4.845  -5.873  0.00  0.00    -0.077 A 
ATOM      2  C3  UNL d   1       3.383   3.606  -5.704  0.00  0.00     0.002 A 
ATOM      3  C4  UNL d   1       4.776   3.525  -5.658  0.00  0.00     0.002 A 
ATOM      4  C5  UNL d   1       5.546   4.680  -5.775  0.00  0.00    -0.004 A 
ATOM      5  C6  UNL d   1       4.926   5.917  -5.945  0.00  0.00     0.002 A 
ATOM      6  C7  UNL d   1       3.533   5.999  -5.993  0.00  0.00     0.002 A 
ENDROOT
BRANCH   1   7
ATOM      7  C1  UNL d   1       1.246   4.939  -5.874  0.00  0.00     0.055 C 
ATOM      8  C   UNL d   1       0.612   3.697  -5.265  0.00  0.00     0.019 C 
ENDBRANCH   1   7
TORSDOF 1
ENDMDL
