MODEL 1
REMARK minimizedAffinity 15.6884613
REMARK minimizedRMSD -1
REMARK  0 active torsions:
REMARK  status: ('A' for Active; 'I' for Inactive)
ROOT
ATOM      1  C   UNL d   1      -1.981   4.923  -2.808  0.00  0.00     0.020 A 
ATOM      2  C1  UNL d   1      -1.780   3.611  -3.233  0.00  0.00     0.020 A 
ATOM      3  C2  UNL d   1      -2.691   2.614  -2.876  0.00  0.00     0.034 A 
ATOM      4  C3  UNL d   1      -3.806   2.928  -2.092  0.00  0.00     0.017 A 
ATOM      5  C4  UNL d   1      -4.007   4.245  -1.665  0.00  0.00     0.017 A 
ATOM      6  C5  UNL d   1      -3.093   5.240  -2.025  0.00  0.00     0.034 A 
ATOM      7 Cl   UNL d   1      -5.361   4.709  -0.695  0.00  0.00    -0.070 Cl
ATOM      8 Cl1  UNL d   1      -4.891   1.645  -1.688  0.00  0.00    -0.070 Cl
ENDROOT
TORSDOF 0
ENDMDL
