MODEL 1
REMARK minimizedAffinity 15.0747061
REMARK minimizedRMSD -1
REMARK  0 active torsions:
REMARK  status: ('A' for Active; 'I' for Inactive)
ROOT
ATOM      1  C   UNL d   1      -2.078   4.577  -2.845  0.00  0.00     0.020 A 
ATOM      2  C1  UNL d   1      -2.131   3.430  -3.636  0.00  0.00     0.020 A 
ATOM      3  C2  UNL d   1      -3.111   2.463  -3.399  0.00  0.00     0.034 A 
ATOM      4  C3  UNL d   1      -4.042   2.643  -2.368  0.00  0.00     0.017 A 
ATOM      5  C4  UNL d   1      -3.987   3.795  -1.576  0.00  0.00     0.017 A 
ATOM      6  C5  UNL d   1      -3.004   4.759  -1.818  0.00  0.00     0.034 A 
ATOM      7 Cl   UNL d   1      -5.101   4.086  -0.287  0.00  0.00    -0.070 Cl
ATOM      8 Cl1  UNL d   1      -5.226   1.407  -2.132  0.00  0.00    -0.070 Cl
ENDROOT
TORSDOF 0
ENDMDL
