MODEL 1
REMARK minimizedAffinity 14.7353868
REMARK minimizedRMSD -1
REMARK  0 active torsions:
REMARK  status: ('A' for Active; 'I' for Inactive)
ROOT
ATOM      1  C   UNL d   1      -5.417  -5.537  -1.103  0.00  0.00     0.020 A 
ATOM      2  C1  UNL d   1      -4.105  -5.999  -1.017  0.00  0.00     0.020 A 
ATOM      3  C2  UNL d   1      -3.282  -5.574   0.029  0.00  0.00     0.034 A 
ATOM      4  C3  UNL d   1      -3.771  -4.684   0.992  0.00  0.00     0.017 A 
ATOM      5  C4  UNL d   1      -5.089  -4.221   0.904  0.00  0.00     0.017 A 
ATOM      6  C5  UNL d   1      -5.908  -4.650  -0.145  0.00  0.00     0.034 A 
ATOM      7 Cl   UNL d   1      -5.764  -3.122   2.055  0.00  0.00    -0.070 Cl
ATOM      8 Cl1  UNL d   1      -2.699  -4.201   2.258  0.00  0.00    -0.070 Cl
ENDROOT
TORSDOF 0
ENDMDL
