MODEL 1
REMARK minimizedAffinity 9.55989361
REMARK minimizedRMSD -1
REMARK  0 active torsions:
REMARK  status: ('A' for Active; 'I' for Inactive)
ROOT
ATOM      1  C   UNL d   1      -2.012   4.151  -3.649  0.00  0.00     0.020 A 
ATOM      2  C1  UNL d   1      -2.227   5.368  -3.004  0.00  0.00     0.020 A 
ATOM      3  C2  UNL d   1      -3.219   5.474  -2.027  0.00  0.00     0.034 A 
ATOM      4  C3  UNL d   1      -4.001   4.362  -1.693  0.00  0.00     0.017 A 
ATOM      5  C4  UNL d   1      -3.784   3.141  -2.342  0.00  0.00     0.017 A 
ATOM      6  C5  UNL d   1      -2.789   3.040  -3.319  0.00  0.00     0.034 A 
ATOM      7 Cl   UNL d   1      -4.708   1.725  -1.984  0.00  0.00    -0.070 Cl
ATOM      8 Cl1  UNL d   1      -5.210   4.566  -0.476  0.00  0.00    -0.070 Cl
ENDROOT
TORSDOF 0
ENDMDL
