MODEL 1
REMARK minimizedAffinity 20.506361
REMARK minimizedRMSD -1
REMARK  0 active torsions:
REMARK  status: ('A' for Active; 'I' for Inactive)
ROOT
ATOM      1  C   UNL d   1      -1.989   2.895  -3.275  0.00  0.00     0.020 A 
ATOM      2  C1  UNL d   1      -1.876   4.016  -2.453  0.00  0.00     0.020 A 
ATOM      3  C2  UNL d   1      -2.906   4.340  -1.568  0.00  0.00     0.034 A 
ATOM      4  C3  UNL d   1      -4.054   3.542  -1.502  0.00  0.00     0.017 A 
ATOM      5  C4  UNL d   1      -4.167   2.417  -2.327  0.00  0.00     0.017 A 
ATOM      6  C5  UNL d   1      -3.132   2.097  -3.211  0.00  0.00     0.034 A 
ATOM      7 Cl   UNL d   1      -5.553   1.384  -2.302  0.00  0.00    -0.070 Cl
ATOM      8 Cl1  UNL d   1      -5.289   4.001  -0.384  0.00  0.00    -0.070 Cl
ENDROOT
TORSDOF 0
ENDMDL
