MODEL 1
REMARK minimizedAffinity 13.4322891
REMARK minimizedRMSD -1
REMARK  0 active torsions:
REMARK  status: ('A' for Active; 'I' for Inactive)
ROOT
ATOM      1  C   UNL d   1      -1.100  -2.505   3.434  0.00  0.00     0.020 A 
ATOM      2  C1  UNL d   1      -0.947  -1.165   3.787  0.00  0.00     0.020 A 
ATOM      3  C2  UNL d   1       0.089  -0.411   3.233  0.00  0.00     0.034 A 
ATOM      4  C3  UNL d   1       0.977  -0.996   2.323  0.00  0.00     0.017 A 
ATOM      5  C4  UNL d   1       0.823  -2.341   1.969  0.00  0.00     0.017 A 
ATOM      6  C5  UNL d   1      -0.216  -3.092   2.527  0.00  0.00     0.034 A 
ATOM      7 Cl   UNL d   1       1.879  -3.133   0.853  0.00  0.00    -0.070 Cl
ATOM      8 Cl1  UNL d   1       2.236  -0.004   1.677  0.00  0.00    -0.070 Cl
ENDROOT
TORSDOF 0
ENDMDL
