MODEL 1
REMARK minimizedAffinity 10.0415545
REMARK minimizedRMSD -1
REMARK  0 active torsions:
REMARK  status: ('A' for Active; 'I' for Inactive)
ROOT
ATOM      1  C   UNL d   1      -4.506   3.413  -0.951  0.00  0.00     0.020 A 
ATOM      2  C1  UNL d   1      -4.623   4.802  -0.949  0.00  0.00     0.020 A 
ATOM      3  C2  UNL d   1      -3.695   5.582  -1.642  0.00  0.00     0.034 A 
ATOM      4  C3  UNL d   1      -2.646   4.973  -2.340  0.00  0.00     0.017 A 
ATOM      5  C4  UNL d   1      -2.529   3.579  -2.342  0.00  0.00     0.017 A 
ATOM      6  C5  UNL d   1      -3.461   2.803  -1.646  0.00  0.00     0.034 A 
ATOM      7 Cl   UNL d   1      -1.261   2.756  -3.180  0.00  0.00    -0.070 Cl
ATOM      8 Cl1  UNL d   1      -1.535   6.000  -3.176  0.00  0.00    -0.070 Cl
ENDROOT
TORSDOF 0
ENDMDL
