MODEL 1
REMARK minimizedAffinity 6.63252401
REMARK minimizedRMSD -1
REMARK  0 active torsions:
REMARK  status: ('A' for Active; 'I' for Inactive)
ROOT
ATOM      1  C   UNL d   1      -2.243   5.100  -5.941  0.00  0.00     0.020 A 
ATOM      2  C1  UNL d   1      -2.617   3.759  -6.000  0.00  0.00     0.020 A 
ATOM      3  C2  UNL d   1      -2.998   3.088  -4.836  0.00  0.00     0.034 A 
ATOM      4  C3  UNL d   1      -3.005   3.758  -3.607  0.00  0.00     0.017 A 
ATOM      5  C4  UNL d   1      -2.630   5.105  -3.549  0.00  0.00     0.017 A 
ATOM      6  C5  UNL d   1      -2.250   5.772  -4.718  0.00  0.00     0.034 A 
ATOM      7 Cl   UNL d   1      -2.614   6.000  -2.070  0.00  0.00    -0.070 Cl
ATOM      8 Cl1  UNL d   1      -3.488   2.867  -2.208  0.00  0.00    -0.070 Cl
ENDROOT
TORSDOF 0
ENDMDL
