MODEL 1
REMARK minimizedAffinity 6.42924833
REMARK minimizedRMSD -1
REMARK  0 active torsions:
REMARK  status: ('A' for Active; 'I' for Inactive)
ROOT
ATOM      1  C   UNL d   1       2.137  -0.515   2.043  0.00  0.00     0.020 A 
ATOM      2  C1  UNL d   1       2.024  -1.673   1.274  0.00  0.00     0.020 A 
ATOM      3  C2  UNL d   1       0.949  -2.541   1.474  0.00  0.00     0.034 A 
ATOM      4  C3  UNL d   1      -0.017  -2.254   2.446  0.00  0.00     0.017 A 
ATOM      5  C4  UNL d   1       0.098  -1.092   3.217  0.00  0.00     0.017 A 
ATOM      6  C5  UNL d   1       1.176  -0.225   3.012  0.00  0.00     0.034 A 
ATOM      7 Cl   UNL d   1      -1.054  -0.669   4.434  0.00  0.00    -0.070 Cl
ATOM      8 Cl1  UNL d   1      -1.320  -3.372   2.639  0.00  0.00    -0.070 Cl
ENDROOT
TORSDOF 0
ENDMDL
