MODEL 1
REMARK minimizedAffinity 3.84672999
REMARK minimizedRMSD -1
REMARK  0 active torsions:
REMARK  status: ('A' for Active; 'I' for Inactive)
ROOT
ATOM      1  C   UNL d   1       0.752  -1.262   2.727  0.00  0.00     0.020 A 
ATOM      2  C1  UNL d   1       0.122  -2.239   1.957  0.00  0.00     0.020 A 
ATOM      3  C2  UNL d   1      -1.153  -2.689   2.307  0.00  0.00     0.034 A 
ATOM      4  C3  UNL d   1      -1.803  -2.162   3.429  0.00  0.00     0.017 A 
ATOM      5  C4  UNL d   1      -1.170  -1.181   4.201  0.00  0.00     0.017 A 
ATOM      6  C5  UNL d   1       0.107  -0.734   3.847  0.00  0.00     0.034 A 
ATOM      7 Cl   UNL d   1      -1.908  -0.483   5.599  0.00  0.00    -0.070 Cl
ATOM      8 Cl1  UNL d   1      -3.379  -2.764   3.802  0.00  0.00    -0.070 Cl
ENDROOT
TORSDOF 0
ENDMDL
