MODEL 1
REMARK minimizedAffinity 19.0011272
REMARK minimizedRMSD -1
REMARK  0 active torsions:
REMARK  status: ('A' for Active; 'I' for Inactive)
ROOT
ATOM      1  C   UNL d   1      -2.250   2.996  -3.382  0.00  0.00     0.020 A 
ATOM      2  C1  UNL d   1      -2.199   4.267  -3.953  0.00  0.00     0.020 A 
ATOM      3  C2  UNL d   1      -1.225   5.179  -3.541  0.00  0.00     0.034 A 
ATOM      4  C3  UNL d   1      -0.298   4.822  -2.554  0.00  0.00     0.017 A 
ATOM      5  C4  UNL d   1      -0.351   3.546  -1.981  0.00  0.00     0.017 A 
ATOM      6  C5  UNL d   1      -1.328   2.637  -2.398  0.00  0.00     0.034 A 
ATOM      7 Cl   UNL d   1       0.758   3.032  -0.759  0.00  0.00    -0.070 Cl
ATOM      8 Cl1  UNL d   1       0.879   6.000  -2.093  0.00  0.00    -0.070 Cl
ENDROOT
TORSDOF 0
ENDMDL
