MODEL 1
REMARK minimizedAffinity 5.81086969
REMARK minimizedRMSD -1
REMARK  0 active torsions:
REMARK  status: ('A' for Active; 'I' for Inactive)
ROOT
ATOM      1  C   UNL d   1      -1.467  -1.231   5.277  0.00  0.00     0.020 A 
ATOM      2  C1  UNL d   1      -0.331  -0.513   4.905  0.00  0.00     0.020 A 
ATOM      3  C2  UNL d   1       0.440  -0.938   3.821  0.00  0.00     0.034 A 
ATOM      4  C3  UNL d   1       0.077  -2.084   3.105  0.00  0.00     0.017 A 
ATOM      5  C4  UNL d   1      -1.063  -2.805   3.479  0.00  0.00     0.017 A 
ATOM      6  C5  UNL d   1      -1.832  -2.375   4.566  0.00  0.00     0.034 A 
ATOM      7 Cl   UNL d   1      -1.575  -4.229   2.645  0.00  0.00    -0.070 Cl
ATOM      8 Cl1  UNL d   1       1.076  -2.552   1.776  0.00  0.00    -0.070 Cl
ENDROOT
TORSDOF 0
ENDMDL
