MODEL 1
REMARK minimizedAffinity 8.37970448
REMARK minimizedRMSD -1
REMARK  0 active torsions:
REMARK  status: ('A' for Active; 'I' for Inactive)
ROOT
ATOM      1  C   UNL d   1       1.672  -0.862   2.305  0.00  0.00     0.020 A 
ATOM      2  C1  UNL d   1       1.272  -1.925   1.496  0.00  0.00     0.020 A 
ATOM      3  C2  UNL d   1       0.092  -2.614   1.783  0.00  0.00     0.034 A 
ATOM      4  C3  UNL d   1      -0.691  -2.242   2.882  0.00  0.00     0.017 A 
ATOM      5  C4  UNL d   1      -0.288  -1.175   3.693  0.00  0.00     0.017 A 
ATOM      6  C5  UNL d   1       0.894  -0.488   3.401  0.00  0.00     0.034 A 
ATOM      7 Cl   UNL d   1      -1.202  -0.658   5.066  0.00  0.00    -0.070 Cl
ATOM      8 Cl1  UNL d   1      -2.138  -3.139   3.177  0.00  0.00    -0.070 Cl
ENDROOT
TORSDOF 0
ENDMDL
