MODEL 1
REMARK minimizedAffinity 9.86395931
REMARK minimizedRMSD -1
REMARK  0 active torsions:
REMARK  status: ('A' for Active; 'I' for Inactive)
ROOT
ATOM      1  C   UNL d   1       0.851  -1.827   2.382  0.00  0.00     0.020 A 
ATOM      2  C1  UNL d   1       1.403  -2.931   1.733  0.00  0.00     0.020 A 
ATOM      3  C2  UNL d   1       2.414  -2.752   0.786  0.00  0.00     0.034 A 
ATOM      4  C3  UNL d   1       2.876  -1.466   0.485  0.00  0.00     0.017 A 
ATOM      5  C4  UNL d   1       2.322  -0.358   1.137  0.00  0.00     0.017 A 
ATOM      6  C5  UNL d   1       1.310  -0.543   2.084  0.00  0.00     0.034 A 
ATOM      7 Cl   UNL d   1       2.841   1.260   0.819  0.00  0.00    -0.070 Cl
ATOM      8 Cl1  UNL d   1       4.129  -1.318  -0.695  0.00  0.00    -0.070 Cl
ENDROOT
TORSDOF 0
ENDMDL
