MODEL 1
REMARK minimizedAffinity 11.7049103
REMARK minimizedRMSD -1
REMARK  0 active torsions:
REMARK  status: ('A' for Active; 'I' for Inactive)
ROOT
ATOM      1  C   UNL d   1      -2.230  -2.164   4.019  0.00  0.00     0.020 A 
ATOM      2  C1  UNL d   1      -2.027  -2.934   2.875  0.00  0.00     0.020 A 
ATOM      3  C2  UNL d   1      -0.815  -2.856   2.186  0.00  0.00     0.034 A 
ATOM      4  C3  UNL d   1       0.200  -2.006   2.642  0.00  0.00     0.017 A 
ATOM      5  C4  UNL d   1      -0.005  -1.233   3.791  0.00  0.00     0.017 A 
ATOM      6  C5  UNL d   1      -1.221  -1.316   4.476  0.00  0.00     0.034 A 
ATOM      7 Cl   UNL d   1       1.200  -0.162   4.414  0.00  0.00    -0.070 Cl
ATOM      8 Cl1  UNL d   1       1.674  -1.959   1.741  0.00  0.00    -0.070 Cl
ENDROOT
TORSDOF 0
ENDMDL
