MODEL 1
REMARK minimizedAffinity 13.2649221
REMARK minimizedRMSD -1
REMARK  0 active torsions:
REMARK  status: ('A' for Active; 'I' for Inactive)
ROOT
ATOM      1  C   UNL d   1      -2.173   5.748  -3.298  0.00  0.00     0.020 A 
ATOM      2  C1  UNL d   1      -1.710   4.823  -4.234  0.00  0.00     0.020 A 
ATOM      3  C2  UNL d   1      -2.018   3.469  -4.088  0.00  0.00     0.034 A 
ATOM      4  C3  UNL d   1      -2.791   3.035  -3.004  0.00  0.00     0.017 A 
ATOM      5  C4  UNL d   1      -3.255   3.964  -2.066  0.00  0.00     0.017 A 
ATOM      6  C5  UNL d   1      -2.943   5.319  -2.217  0.00  0.00     0.034 A 
ATOM      7 Cl   UNL d   1      -4.213   3.505  -0.703  0.00  0.00    -0.070 Cl
ATOM      8 Cl1  UNL d   1      -3.134   1.346  -2.887  0.00  0.00    -0.070 Cl
ENDROOT
TORSDOF 0
ENDMDL
