MODEL 1
REMARK minimizedAffinity -3.34269929
REMARK minimizedRMSD -1
REMARK  0 active torsions:
REMARK  status: ('A' for Active; 'I' for Inactive)
ROOT
ATOM      1  C1  BNZ d   1       0.286   0.341   1.698  0.00  0.00     0.000 A 
ATOM      2  C2  BNZ d   1      -0.166  -0.140   0.498  0.00  0.00     0.000 A 
ATOM      3  C3  BNZ d   1      -1.013   0.601  -0.279  0.00  0.00     0.000 A 
ATOM      4  C4  BNZ d   1      -1.437   1.802   0.163  0.00  0.00     0.000 A 
ATOM      5  C5  BNZ d   1      -0.998   2.297   1.374  0.00  0.00     0.000 A 
ATOM      6  C6  BNZ d   1      -0.115   1.565   2.136  0.00  0.00     0.000 A 
ENDROOT
TORSDOF 0
ENDMDL
