MODEL 1
REMARK minimizedAffinity -3.08978367
REMARK minimizedRMSD -1
REMARK  0 active torsions:
REMARK  status: ('A' for Active; 'I' for Inactive)
ROOT
ATOM      1  C1  BNZ d   1      -0.447  -2.248   0.811  0.00  0.00     0.000 A 
ATOM      2  C2  BNZ d   1      -0.613  -1.444   1.907  0.00  0.00     0.000 A 
ATOM      3  C3  BNZ d   1      -0.304  -0.113   1.853  0.00  0.00     0.000 A 
ATOM      4  C4  BNZ d   1       0.208   0.402   0.717  0.00  0.00     0.000 A 
ATOM      5  C5  BNZ d   1       0.390  -0.397  -0.394  0.00  0.00     0.000 A 
ATOM      6  C6  BNZ d   1       0.041  -1.727  -0.347  0.00  0.00     0.000 A 
ENDROOT
TORSDOF 0
ENDMDL
