MODEL 1
REMARK minimizedAffinity 0.844070613
REMARK minimizedRMSD -1
REMARK  0 active torsions:
REMARK  status: ('A' for Active; 'I' for Inactive)
ROOT
ATOM      1  C1  BNZ d   1      -0.012  -0.160  -0.025  0.00  0.00     0.000 A 
ATOM      2  C2  BNZ d   1      -0.498   1.112  -0.171  0.00  0.00     0.000 A 
ATOM      3  C3  BNZ d   1      -0.421   2.013   0.854  0.00  0.00     0.000 A 
ATOM      4  C4  BNZ d   1       0.105   1.630   2.035  0.00  0.00     0.000 A 
ATOM      5  C5  BNZ d   1       0.591   0.348   2.202  0.00  0.00     0.000 A 
ATOM      6  C6  BNZ d   1       0.547  -0.544   1.155  0.00  0.00     0.000 A 
ENDROOT
TORSDOF 0
ENDMDL
