MODEL 1
REMARK minimizedAffinity -3.34387112
REMARK minimizedRMSD -1
REMARK  0 active torsions:
REMARK  status: ('A' for Active; 'I' for Inactive)
ROOT
ATOM      1  C1  BNZ d   1      -0.632  -0.741   1.985  0.00  0.00     0.000 A 
ATOM      2  C2  BNZ d   1      -0.401  -0.893   0.644  0.00  0.00     0.000 A 
ATOM      3  C3  BNZ d   1      -0.052   0.176  -0.133  0.00  0.00     0.000 A 
ATOM      4  C4  BNZ d   1       0.026   1.402   0.424  0.00  0.00     0.000 A 
ATOM      5  C5  BNZ d   1      -0.213   1.574   1.773  0.00  0.00     0.000 A 
ATOM      6  C6  BNZ d   1      -0.526   0.488   2.559  0.00  0.00     0.000 A 
ENDROOT
TORSDOF 0
ENDMDL
