MODEL 1
REMARK minimizedAffinity -0.582281768
REMARK minimizedRMSD -1
REMARK  0 active torsions:
REMARK  status: ('A' for Active; 'I' for Inactive)
ROOT
ATOM      1  C1  BNZ d   1       0.023   0.710  -1.032  0.00  0.00     0.000 A 
ATOM      2  C2  BNZ d   1       0.135  -0.207  -0.021  0.00  0.00     0.000 A 
ATOM      3  C3  BNZ d   1       0.133   0.190   1.287  0.00  0.00     0.000 A 
ATOM      4  C4  BNZ d   1       0.060   1.504   1.581  0.00  0.00     0.000 A 
ATOM      5  C5  BNZ d   1      -0.044   2.441   0.573  0.00  0.00     0.000 A 
ATOM      6  C6  BNZ d   1      -0.081   2.036  -0.741  0.00  0.00     0.000 A 
ENDROOT
TORSDOF 0
ENDMDL
