MODEL 1
REMARK minimizedAffinity 1.63008785
REMARK minimizedRMSD -1
REMARK  0 active torsions:
REMARK  status: ('A' for Active; 'I' for Inactive)
ROOT
ATOM      1  C1  BNZ d   1       1.127  -0.056   0.639  0.00  0.00     0.000 A 
ATOM      2  C2  BNZ d   1       0.946   1.295   0.509  0.00  0.00     0.000 A 
ATOM      3  C3  BNZ d   1       0.551   2.053   1.576  0.00  0.00     0.000 A 
ATOM      4  C4  BNZ d   1       0.299   1.455   2.758  0.00  0.00     0.000 A 
ATOM      5  C5  BNZ d   1       0.469   0.092   2.902  0.00  0.00     0.000 A 
ATOM      6  C6  BNZ d   1       0.904  -0.662   1.837  0.00  0.00     0.000 A 
ENDROOT
TORSDOF 0
ENDMDL
