MODEL 1
REMARK minimizedAffinity 0.795245588
REMARK minimizedRMSD -1
REMARK  0 active torsions:
REMARK  status: ('A' for Active; 'I' for Inactive)
ROOT
ATOM      1  C1  BNZ d   1      -0.144   1.214   1.986  0.00  0.00     0.000 A 
ATOM      2  C2  BNZ d   1      -0.119   0.743   0.700  0.00  0.00     0.000 A 
ATOM      3  C3  BNZ d   1       0.535  -0.417   0.393  0.00  0.00     0.000 A 
ATOM      4  C4  BNZ d   1       1.195  -1.083   1.362  0.00  0.00     0.000 A 
ATOM      5  C5  BNZ d   1       1.186  -0.617   2.662  0.00  0.00     0.000 A 
ATOM      6  C6  BNZ d   1       0.494   0.531   2.975  0.00  0.00     0.000 A 
ENDROOT
TORSDOF 0
ENDMDL
