MODEL 1
REMARK minimizedAffinity -4.95227337
REMARK minimizedRMSD -1
REMARK  0 active torsions:
REMARK  status: ('A' for Active; 'I' for Inactive)
ROOT
ATOM      1  C1  BNZ d   1      -0.501   0.891  -0.672  0.00  0.00     0.000 A 
ATOM      2  C2  BNZ d   1      -0.687   2.180  -0.249  0.00  0.00     0.000 A 
ATOM      3  C3  BNZ d   1      -1.197   2.443   0.992  0.00  0.00     0.000 A 
ATOM      4  C4  BNZ d   1      -1.557   1.418   1.791  0.00  0.00     0.000 A 
ATOM      5  C5  BNZ d   1      -1.384   0.113   1.375  0.00  0.00     0.000 A 
ATOM      6  C6  BNZ d   1      -0.835  -0.148   0.141  0.00  0.00     0.000 A 
ENDROOT
TORSDOF 0
ENDMDL
