MODEL 1
REMARK minimizedAffinity 1.70869029
REMARK minimizedRMSD -1
REMARK  0 active torsions:
REMARK  status: ('A' for Active; 'I' for Inactive)
ROOT
ATOM      1  C1  BNZ d   1      -5.930  -0.483   3.303  0.00  0.00     0.000 A 
ATOM      2  C2  BNZ d   1      -5.921  -1.754   3.814  0.00  0.00     0.000 A 
ATOM      3  C3  BNZ d   1      -5.976  -1.966   5.163  0.00  0.00     0.000 A 
ATOM      4  C4  BNZ d   1      -5.998  -0.908   6.000  0.00  0.00     0.000 A 
ATOM      5  C5  BNZ d   1      -5.998   0.379   5.500  0.00  0.00     0.000 A 
ATOM      6  C6  BNZ d   1      -5.983   0.588   4.140  0.00  0.00     0.000 A 
ENDROOT
TORSDOF 0
ENDMDL
