MODEL 1
REMARK minimizedAffinity 1.79344511
REMARK minimizedRMSD -1
REMARK  0 active torsions:
REMARK  status: ('A' for Active; 'I' for Inactive)
ROOT
ATOM      1  C1  BNZ d   1      -1.456   2.036   2.598  0.00  0.00     0.000 A 
ATOM      2  C2  BNZ d   1      -2.004   2.667   1.513  0.00  0.00     0.000 A 
ATOM      3  C3  BNZ d   1      -1.234   2.998   0.433  0.00  0.00     0.000 A 
ATOM      4  C4  BNZ d   1       0.088   2.735   0.456  0.00  0.00     0.000 A 
ATOM      5  C5  BNZ d   1       0.658   2.107   1.546  0.00  0.00     0.000 A 
ATOM      6  C6  BNZ d   1      -0.127   1.740   2.615  0.00  0.00     0.000 A 
ENDROOT
TORSDOF 0
ENDMDL
