MODEL 1
REMARK minimizedAffinity -6.02421474
REMARK minimizedRMSD -1
REMARK  3 active torsions:
REMARK  status: ('A' for Active; 'I' for Inactive)
REMARK    1  A    between atoms: C3'_2  and  C2'_3 
REMARK    2  A    between atoms: C2'_3  and  C1'_4 
REMARK    3  A    between atoms: C1'_4  and  C1_5 
ROOT
ATOM      1  C1  N4B d   1      -0.382   0.076   0.805  0.00  0.00    -0.075 A 
ATOM      2  C2  N4B d   1      -1.436   0.465   1.660  0.00  0.00     0.002 A 
ATOM      3  C3  N4B d   1      -1.170   0.826   2.958  0.00  0.00     0.002 A 
ATOM      4  C4  N4B d   1       0.135   0.787   3.427  0.00  0.00    -0.004 A 
ATOM      5  C5  N4B d   1       1.151   0.435   2.587  0.00  0.00     0.002 A 
ATOM      6  C6  N4B d   1       0.898   0.074   1.279  0.00  0.00     0.002 A 
ENDROOT
BRANCH   1   7
ATOM      7  C1' N4B d   1      -0.634  -0.408  -0.597  0.00  0.00     0.057 C 
BRANCH   7   8
ATOM      8  C2' N4B d   1       0.685  -0.867  -1.212  0.00  0.00     0.009 C 
BRANCH   8   9
ATOM      9  C3' N4B d   1       0.658  -0.799  -2.730  0.00  0.00     0.004 C 
ATOM     10  C4' N4B d   1       1.784   0.014  -3.295  0.00  0.00     0.003 C 
ENDBRANCH   8   9
ENDBRANCH   7   8
ENDBRANCH   1   7
TORSDOF 3
ENDMDL
