MODEL 1
REMARK minimizedAffinity -3.52434254
REMARK minimizedRMSD -1
REMARK  3 active torsions:
REMARK  status: ('A' for Active; 'I' for Inactive)
REMARK    1  A    between atoms: C3'_2  and  C2'_3 
REMARK    2  A    between atoms: C2'_3  and  C1'_4 
REMARK    3  A    between atoms: C1'_4  and  C1_5 
ROOT
ATOM      1  C1  N4B d   1       0.155  -0.085   0.888  0.00  0.00    -0.075 A 
ATOM      2  C2  N4B d   1       0.412  -0.232   2.269  0.00  0.00     0.002 A 
ATOM      3  C3  N4B d   1      -0.582   0.020   3.183  0.00  0.00     0.002 A 
ATOM      4  C4  N4B d   1      -1.830   0.437   2.742  0.00  0.00    -0.004 A 
ATOM      5  C5  N4B d   1      -2.077   0.552   1.405  0.00  0.00     0.002 A 
ATOM      6  C6  N4B d   1      -1.088   0.298   0.475  0.00  0.00     0.002 A 
ENDROOT
BRANCH   1   7
ATOM      7  C1' N4B d   1       1.235  -0.266  -0.144  0.00  0.00     0.057 C 
BRANCH   7   8
ATOM      8  C2' N4B d   1       0.744   0.278  -1.482  0.00  0.00     0.009 C 
BRANCH   8   9
ATOM      9  C3' N4B d   1       1.822   0.214  -2.551  0.00  0.00     0.004 C 
ATOM     10  C4' N4B d   1       1.271   0.344  -3.940  0.00  0.00     0.003 C 
ENDBRANCH   8   9
ENDBRANCH   7   8
ENDBRANCH   1   7
TORSDOF 3
ENDMDL
