MODEL 1
REMARK minimizedAffinity -5.12070799
REMARK minimizedRMSD -1
REMARK  3 active torsions:
REMARK  status: ('A' for Active; 'I' for Inactive)
REMARK    1  A    between atoms: C3'_2  and  C2'_3 
REMARK    2  A    between atoms: C2'_3  and  C1'_4 
REMARK    3  A    between atoms: C1'_4  and  C1_5 
ROOT
ATOM      1  C1  N4B d   1       0.081  -0.009   0.576  0.00  0.00    -0.075 A 
ATOM      2  C2  N4B d   1       1.248  -0.705   0.958  0.00  0.00     0.002 A 
ATOM      3  C3  N4B d   1       1.774  -0.527   2.214  0.00  0.00     0.002 A 
ATOM      4  C4  N4B d   1       1.164   0.352   3.095  0.00  0.00    -0.004 A 
ATOM      5  C5  N4B d   1       0.022   1.002   2.728  0.00  0.00     0.002 A 
ATOM      6  C6  N4B d   1      -0.520   0.830   1.470  0.00  0.00     0.002 A 
ENDROOT
BRANCH   1   7
ATOM      7  C1' N4B d   1      -0.483  -0.105  -0.815  0.00  0.00     0.057 C 
BRANCH   7   8
ATOM      8  C2' N4B d   1       0.621   0.196  -1.824  0.00  0.00     0.009 C 
BRANCH   8   9
ATOM      9  C3' N4B d   1       0.126   0.091  -3.256  0.00  0.00     0.004 C 
ATOM     10  C4' N4B d   1       0.503   1.279  -4.090  0.00  0.00     0.003 C 
ENDBRANCH   8   9
ENDBRANCH   7   8
ENDBRANCH   1   7
TORSDOF 3
ENDMDL
