MODEL 1
REMARK minimizedAffinity -4.42917585
REMARK minimizedRMSD -1
REMARK  3 active torsions:
REMARK  status: ('A' for Active; 'I' for Inactive)
REMARK    1  A    between atoms: C3'_2  and  C2'_3 
REMARK    2  A    between atoms: C2'_3  and  C1'_4 
REMARK    3  A    between atoms: C1'_4  and  C1_5 
ROOT
ATOM      1  C1  N4B d   1       0.909  -0.273  -1.379  0.00  0.00    -0.075 A 
ATOM      2  C2  N4B d   1       2.027   0.547  -1.648  0.00  0.00     0.002 A 
ATOM      3  C3  N4B d   1       2.311   0.917  -2.940  0.00  0.00     0.002 A 
ATOM      4  C4  N4B d   1       1.506   0.467  -3.975  0.00  0.00    -0.004 A 
ATOM      5  C5  N4B d   1       0.414  -0.304  -3.704  0.00  0.00     0.002 A 
ATOM      6  C6  N4B d   1       0.114  -0.680  -2.410  0.00  0.00     0.002 A 
ENDROOT
BRANCH   1   7
ATOM      7  C1' N4B d   1       0.608  -0.774   0.007  0.00  0.00     0.057 C 
BRANCH   7   8
ATOM      8  C2' N4B d   1       0.432   0.418   0.944  0.00  0.00     0.009 C 
BRANCH   8   9
ATOM      9  C3' N4B d   1      -0.988   0.518   1.474  0.00  0.00     0.004 C 
ATOM     10  C4' N4B d   1      -1.088   1.360   2.712  0.00  0.00     0.003 C 
ENDBRANCH   8   9
ENDBRANCH   7   8
ENDBRANCH   1   7
TORSDOF 3
ENDMDL
