MODEL 1
REMARK minimizedAffinity -4.83597231
REMARK minimizedRMSD -1
REMARK  3 active torsions:
REMARK  status: ('A' for Active; 'I' for Inactive)
REMARK    1  A    between atoms: C3'_2  and  C2'_3 
REMARK    2  A    between atoms: C2'_3  and  C1'_4 
REMARK    3  A    between atoms: C1'_4  and  C1_5 
ROOT
ATOM      1  C1  N4B d   1       1.653   0.390   2.218  0.00  0.00    -0.075 A 
ATOM      2  C2  N4B d   1       1.533   0.075   3.589  0.00  0.00     0.002 A 
ATOM      3  C3  N4B d   1       0.290  -0.100   4.147  0.00  0.00     0.002 A 
ATOM      4  C4  N4B d   1      -0.842   0.053   3.361  0.00  0.00    -0.004 A 
ATOM      5  C5  N4B d   1      -0.716   0.333   2.032  0.00  0.00     0.002 A 
ATOM      6  C6  N4B d   1       0.526   0.507   1.457  0.00  0.00     0.002 A 
ENDROOT
BRANCH   1   7
ATOM      7  C1' N4B d   1       2.987   0.675   1.583  0.00  0.00     0.057 C 
BRANCH   7   8
ATOM      8  C2' N4B d   1       3.451   2.069   1.996  0.00  0.00     0.009 C 
BRANCH   8   9
ATOM      9  C3' N4B d   1       4.602   2.014   2.986  0.00  0.00     0.004 C 
ATOM     10  C4' N4B d   1       5.257   3.348   3.189  0.00  0.00     0.003 C 
ENDBRANCH   8   9
ENDBRANCH   7   8
ENDBRANCH   1   7
TORSDOF 3
ENDMDL
