MODEL 1
REMARK minimizedAffinity 15.8605108
REMARK minimizedRMSD -1
REMARK  0 active torsions:
REMARK  status: ('A' for Active; 'I' for Inactive)
ROOT
ATOM      1  C1  DEN d   1       1.593   3.792   0.358  0.00  0.00     0.130 A 
ATOM      2  C2  DEN d   1       0.311   4.200  -0.210  0.00  0.00    -0.031 A 
ATOM      3  C3  DEN d   1      -0.761   3.691   0.669  0.00  0.00     0.027 A 
ATOM      4  C4  DEN d   1      -0.561   2.323   2.846  0.00  0.00     0.027 A 
ATOM      5  C5  DEN d   1       0.321   1.727   3.720  0.00  0.00    -0.003 A 
ATOM      6  C6  DEN d   1       1.676   1.748   3.519  0.00  0.00     0.001 A 
ATOM      7  C7  DEN d   1       2.191   2.417   2.440  0.00  0.00     0.017 A 
ATOM      8  C8  DEN d   1       1.308   3.015   1.551  0.00  0.00    -0.094 A 
ATOM      9  C9  DEN d   1      -0.058   2.993   1.778  0.00  0.00    -0.072 A 
ENDROOT
TORSDOF 0
ENDMDL
