MODEL 1
REMARK minimizedAffinity 8.08603668
REMARK minimizedRMSD -1
REMARK  0 active torsions:
REMARK  status: ('A' for Active; 'I' for Inactive)
ROOT
ATOM      1  C1  DEN d   1       1.442   3.280   0.748  0.00  0.00     0.130 A 
ATOM      2  C2  DEN d   1       0.433   3.879  -0.122  0.00  0.00    -0.031 A 
ATOM      3  C3  DEN d   1      -0.897   3.563   0.437  0.00  0.00     0.027 A 
ATOM      4  C4  DEN d   1      -1.488   2.216   2.555  0.00  0.00     0.027 A 
ATOM      5  C5  DEN d   1      -0.970   1.501   3.612  0.00  0.00    -0.003 A 
ATOM      6  C6  DEN d   1       0.377   1.301   3.768  0.00  0.00     0.001 A 
ATOM      7  C7  DEN d   1       1.254   1.861   2.877  0.00  0.00     0.017 A 
ATOM      8  C8  DEN d   1       0.738   2.578   1.805  0.00  0.00    -0.094 A 
ATOM      9  C9  DEN d   1      -0.626   2.779   1.672  0.00  0.00    -0.072 A 
ENDROOT
TORSDOF 0
ENDMDL
