MODEL 1
REMARK minimizedAffinity 11.1244259
REMARK minimizedRMSD -1
REMARK  0 active torsions:
REMARK  status: ('A' for Active; 'I' for Inactive)
ROOT
ATOM      1  C1  DEN d   1      -0.029   3.761   2.764  0.00  0.00     0.130 A 
ATOM      2  C2  DEN d   1       0.395   2.380   2.548  0.00  0.00    -0.031 A 
ATOM      3  C3  DEN d   1       0.495   2.156   1.092  0.00  0.00     0.027 A 
ATOM      4  C4  DEN d   1       0.043   3.805  -0.839  0.00  0.00     0.027 A 
ATOM      5  C5  DEN d   1      -0.351   5.087  -1.151  0.00  0.00    -0.003 A 
ATOM      6  C6  DEN d   1      -0.695   6.000  -0.189  0.00  0.00     0.001 A 
ATOM      7  C7  DEN d   1      -0.609   5.656   1.134  0.00  0.00     0.017 A 
ATOM      8  C8  DEN d   1      -0.219   4.363   1.456  0.00  0.00    -0.094 A 
ATOM      9  C9  DEN d   1       0.136   3.459   0.470  0.00  0.00    -0.072 A 
ENDROOT
TORSDOF 0
ENDMDL
