MODEL 1
REMARK minimizedAffinity 12.420989
REMARK minimizedRMSD -1
REMARK  0 active torsions:
REMARK  status: ('A' for Active; 'I' for Inactive)
ROOT
ATOM      1  C1  DEN d   1       2.595  -5.997  -5.063  0.00  0.00     0.130 A 
ATOM      2  C2  DEN d   1       4.049  -5.958  -4.930  0.00  0.00    -0.031 A 
ATOM      3  C3  DEN d   1       4.376  -5.940  -3.490  0.00  0.00     0.027 A 
ATOM      4  C4  DEN d   1       2.781  -5.974  -1.464  0.00  0.00     0.027 A 
ATOM      5  C5  DEN d   1       1.459  -5.994  -1.075  0.00  0.00    -0.003 A 
ATOM      6  C6  DEN d   1       0.432  -5.983  -1.981  0.00  0.00     0.001 A 
ATOM      7  C7  DEN d   1       0.709  -5.996  -3.322  0.00  0.00     0.017 A 
ATOM      8  C8  DEN d   1       2.039  -5.968  -3.722  0.00  0.00    -0.094 A 
ATOM      9  C9  DEN d   1       3.064  -5.991  -2.791  0.00  0.00    -0.072 A 
ENDROOT
TORSDOF 0
ENDMDL
