MODEL 1
REMARK minimizedAffinity 10.400773
REMARK minimizedRMSD -1
REMARK  0 active torsions:
REMARK  status: ('A' for Active; 'I' for Inactive)
ROOT
ATOM      1  C1  DEN d   1      -0.820   3.392   2.763  0.00  0.00     0.130 A 
ATOM      2  C2  DEN d   1      -0.044   2.162   2.632  0.00  0.00    -0.031 A 
ATOM      3  C3  DEN d   1       0.704   2.226   1.361  0.00  0.00     0.027 A 
ATOM      4  C4  DEN d   1       0.742   4.105  -0.406  0.00  0.00     0.027 A 
ATOM      5  C5  DEN d   1       0.236   5.341  -0.741  0.00  0.00    -0.003 A 
ATOM      6  C6  DEN d   1      -0.676   5.995   0.046  0.00  0.00     0.001 A 
ATOM      7  C7  DEN d   1      -1.076   5.434   1.230  0.00  0.00     0.017 A 
ATOM      8  C8  DEN d   1      -0.576   4.184   1.571  0.00  0.00    -0.094 A 
ATOM      9  C9  DEN d   1       0.354   3.545   0.768  0.00  0.00    -0.072 A 
ENDROOT
TORSDOF 0
ENDMDL
