MODEL 1
REMARK minimizedAffinity 6.34293652
REMARK minimizedRMSD -1
REMARK  0 active torsions:
REMARK  status: ('A' for Active; 'I' for Inactive)
ROOT
ATOM      1  C1  DEN d   1      -1.571   5.998  -3.602  0.00  0.00     0.130 A 
ATOM      2  C2  DEN d   1      -0.437   5.996  -4.523  0.00  0.00    -0.031 A 
ATOM      3  C3  DEN d   1       0.764   5.588  -3.767  0.00  0.00     0.027 A 
ATOM      4  C4  DEN d   1       0.977   4.958  -1.275  0.00  0.00     0.027 A 
ATOM      5  C5  DEN d   1       0.291   4.823  -0.089  0.00  0.00    -0.003 A 
ATOM      6  C6  DEN d   1      -1.046   5.101   0.017  0.00  0.00     0.001 A 
ATOM      7  C7  DEN d   1      -1.750   5.485  -1.094  0.00  0.00     0.017 A 
ATOM      8  C8  DEN d   1      -1.063   5.630  -2.292  0.00  0.00    -0.094 A 
ATOM      9  C9  DEN d   1       0.286   5.333  -2.381  0.00  0.00    -0.072 A 
ENDROOT
TORSDOF 0
ENDMDL
