MODEL 1
REMARK minimizedAffinity 10.751092
REMARK minimizedRMSD -1
REMARK  0 active torsions:
REMARK  status: ('A' for Active; 'I' for Inactive)
ROOT
ATOM      1  C1  DEN d   1       1.202   3.895   0.628  0.00  0.00     0.130 A 
ATOM      2  C2  DEN d   1       0.027   4.246  -0.164  0.00  0.00    -0.031 A 
ATOM      3  C3  DEN d   1      -1.149   3.600   0.453  0.00  0.00     0.027 A 
ATOM      4  C4  DEN d   1      -1.263   2.102   2.550  0.00  0.00     0.027 A 
ATOM      5  C5  DEN d   1      -0.522   1.513   3.551  0.00  0.00    -0.003 A 
ATOM      6  C6  DEN d   1       0.839   1.647   3.627  0.00  0.00     0.001 A 
ATOM      7  C7  DEN d   1       1.496   2.426   2.711  0.00  0.00     0.017 A 
ATOM      8  C8  DEN d   1       0.757   3.017   1.695  0.00  0.00    -0.094 A 
ATOM      9  C9  DEN d   1      -0.620   2.879   1.643  0.00  0.00    -0.072 A 
ENDROOT
TORSDOF 0
ENDMDL
