MODEL 1
REMARK minimizedAffinity 7.07794333
REMARK minimizedRMSD -1
REMARK  0 active torsions:
REMARK  status: ('A' for Active; 'I' for Inactive)
ROOT
ATOM      1  C   UNL d   1       2.094  -0.882   3.840  0.00  0.00     0.020 A 
ATOM      2  C1  UNL d   1       1.749  -1.261   2.543  0.00  0.00     0.020 A 
ATOM      3  C2  UNL d   1       1.931  -0.370   1.483  0.00  0.00     0.034 A 
ATOM      4  C3  UNL d   1       2.461   0.904   1.718  0.00  0.00     0.017 A 
ATOM      5  C4  UNL d   1       2.807   1.283   3.020  0.00  0.00     0.017 A 
ATOM      6  C5  UNL d   1       2.622   0.387   4.077  0.00  0.00     0.034 A 
ATOM      7 Cl   UNL d   1       3.465   2.838   3.388  0.00  0.00    -0.070 Cl
ATOM      8 Cl1  UNL d   1       2.659   1.954   0.360  0.00  0.00    -0.070 Cl
ENDROOT
TORSDOF 0
ENDMDL
