MODEL 1
REMARK minimizedAffinity 0.177060306
REMARK minimizedRMSD -1
REMARK  0 active torsions:
REMARK  status: ('A' for Active; 'I' for Inactive)
ROOT
ATOM      1  C   UNL d   1      -0.580  -2.126  -0.442  0.00  0.00     0.020 A 
ATOM      2  C1  UNL d   1      -0.022  -3.062  -1.312  0.00  0.00     0.020 A 
ATOM      3  C2  UNL d   1       0.896  -3.999  -0.833  0.00  0.00     0.034 A 
ATOM      4  C3  UNL d   1       1.260  -4.001   0.518  0.00  0.00     0.017 A 
ATOM      5  C4  UNL d   1       0.700  -3.060   1.390  0.00  0.00     0.017 A 
ATOM      6  C5  UNL d   1      -0.219  -2.125   0.906  0.00  0.00     0.034 A 
ATOM      7 Cl   UNL d   1       1.100  -3.001   3.071  0.00  0.00    -0.070 Cl
ATOM      8 Cl1  UNL d   1       2.402  -5.188   1.041  0.00  0.00    -0.070 Cl
ENDROOT
TORSDOF 0
ENDMDL
