MODEL 1
REMARK minimizedAffinity 13.2441158
REMARK minimizedRMSD -1
REMARK  0 active torsions:
REMARK  status: ('A' for Active; 'I' for Inactive)
ROOT
ATOM      1  C   UNL d   1       1.041  -2.948   3.262  0.00  0.00     0.020 A 
ATOM      2  C1  UNL d   1       1.871  -1.926   3.722  0.00  0.00     0.020 A 
ATOM      3  C2  UNL d   1       2.139  -0.824   2.907  0.00  0.00     0.034 A 
ATOM      4  C3  UNL d   1       1.577  -0.742   1.628  0.00  0.00     0.017 A 
ATOM      5  C4  UNL d   1       0.744  -1.768   1.168  0.00  0.00     0.017 A 
ATOM      6  C5  UNL d   1       0.479  -2.869   1.988  0.00  0.00     0.034 A 
ATOM      7 Cl   UNL d   1       0.014  -1.736  -0.399  0.00  0.00    -0.070 Cl
ATOM      8 Cl1  UNL d   1       1.951   0.650   0.674  0.00  0.00    -0.070 Cl
ENDROOT
TORSDOF 0
ENDMDL
