MODEL 1
REMARK minimizedAffinity 9.10642147
REMARK minimizedRMSD -1
REMARK  0 active torsions:
REMARK  status: ('A' for Active; 'I' for Inactive)
ROOT
ATOM      1  C   UNL d   1       2.096  -2.206   3.725  0.00  0.00     0.020 A 
ATOM      2  C1  UNL d   1       1.287  -3.265   3.315  0.00  0.00     0.020 A 
ATOM      3  C2  UNL d   1       0.579  -3.178   2.114  0.00  0.00     0.034 A 
ATOM      4  C3  UNL d   1       0.679  -2.030   1.320  0.00  0.00     0.017 A 
ATOM      5  C4  UNL d   1       1.492  -0.968   1.732  0.00  0.00     0.017 A 
ATOM      6  C5  UNL d   1       2.199  -1.060   2.935  0.00  0.00     0.034 A 
ATOM      7 Cl   UNL d   1       1.665   0.481   0.806  0.00  0.00    -0.070 Cl
ATOM      8 Cl1  UNL d   1      -0.225  -1.991  -0.153  0.00  0.00    -0.070 Cl
ENDROOT
TORSDOF 0
ENDMDL
