MODEL 1
REMARK minimizedAffinity 2.86195278
REMARK minimizedRMSD -1
REMARK  0 active torsions:
REMARK  status: ('A' for Active; 'I' for Inactive)
ROOT
ATOM      1  C   UNL d   1       1.925  -2.103   4.512  0.00  0.00     0.020 A 
ATOM      2  C1  UNL d   1       1.108  -3.151   4.089  0.00  0.00     0.020 A 
ATOM      3  C2  UNL d   1       0.544  -3.125   2.811  0.00  0.00     0.034 A 
ATOM      4  C3  UNL d   1       0.796  -2.049   1.952  0.00  0.00     0.017 A 
ATOM      5  C4  UNL d   1       1.616  -0.998   2.378  0.00  0.00     0.017 A 
ATOM      6  C5  UNL d   1       2.178  -1.029   3.658  0.00  0.00     0.034 A 
ATOM      7 Cl   UNL d   1       1.974   0.363   1.375  0.00  0.00    -0.070 Cl
ATOM      8 Cl1  UNL d   1       0.067  -2.083   0.387  0.00  0.00    -0.070 Cl
ENDROOT
TORSDOF 0
ENDMDL
