MODEL 1
REMARK minimizedAffinity 0.539425075
REMARK minimizedRMSD -1
REMARK  0 active torsions:
REMARK  status: ('A' for Active; 'I' for Inactive)
ROOT
ATOM      1  C   UNL d   1       0.529  -3.333   0.032  0.00  0.00     0.020 A 
ATOM      2  C1  UNL d   1       0.271  -3.926  -1.203  0.00  0.00     0.020 A 
ATOM      3  C2  UNL d   1      -0.489  -3.248  -2.159  0.00  0.00     0.034 A 
ATOM      4  C3  UNL d   1      -0.993  -1.972  -1.881  0.00  0.00     0.017 A 
ATOM      5  C4  UNL d   1      -0.733  -1.377  -0.641  0.00  0.00     0.017 A 
ATOM      6  C5  UNL d   1       0.028  -2.061   0.312  0.00  0.00     0.034 A 
ATOM      7 Cl   UNL d   1      -1.322   0.194  -0.226  0.00  0.00    -0.070 Cl
ATOM      8 Cl1  UNL d   1      -1.924  -1.191  -3.109  0.00  0.00    -0.070 Cl
ENDROOT
TORSDOF 0
ENDMDL
