MODEL 1
REMARK minimizedAffinity 1.17272639
REMARK minimizedRMSD -1
REMARK  0 active torsions:
REMARK  status: ('A' for Active; 'I' for Inactive)
ROOT
ATOM      1  C   UNL d   1       2.313   2.089   0.962  0.00  0.00     0.020 A 
ATOM      2  C1  UNL d   1       1.393   1.750  -0.029  0.00  0.00     0.020 A 
ATOM      3  C2  UNL d   1       0.694   0.543   0.050  0.00  0.00     0.034 A 
ATOM      4  C3  UNL d   1       0.915  -0.329   1.123  0.00  0.00     0.017 A 
ATOM      5  C4  UNL d   1       1.839   0.012   2.117  0.00  0.00     0.017 A 
ATOM      6  C5  UNL d   1       2.536   1.222   2.032  0.00  0.00     0.034 A 
ATOM      7 Cl   UNL d   1       2.165  -1.012   3.470  0.00  0.00    -0.070 Cl
ATOM      8 Cl1  UNL d   1       0.016  -1.804   1.157  0.00  0.00    -0.070 Cl
ENDROOT
TORSDOF 0
ENDMDL
