MODEL 1
REMARK minimizedAffinity 1.25121272
REMARK minimizedRMSD -1
REMARK  0 active torsions:
REMARK  status: ('A' for Active; 'I' for Inactive)
ROOT
ATOM      1  C   UNL d   1      -0.402  -1.424   0.602  0.00  0.00     0.020 A 
ATOM      2  C1  UNL d   1      -1.436  -0.651   0.075  0.00  0.00     0.020 A 
ATOM      3  C2  UNL d   1      -1.265   0.725  -0.091  0.00  0.00     0.034 A 
ATOM      4  C3  UNL d   1      -0.057   1.333   0.272  0.00  0.00     0.017 A 
ATOM      5  C4  UNL d   1       0.980   0.556   0.801  0.00  0.00     0.017 A 
ATOM      6  C5  UNL d   1       0.804  -0.821   0.964  0.00  0.00     0.034 A 
ATOM      7 Cl   UNL d   1       2.499   1.235   1.271  0.00  0.00    -0.070 Cl
ATOM      8 Cl1  UNL d   1       0.085   3.039   0.039  0.00  0.00    -0.070 Cl
ENDROOT
TORSDOF 0
ENDMDL
