MODEL 1
REMARK minimizedAffinity 2.19361043
REMARK minimizedRMSD -1
REMARK  0 active torsions:
REMARK  status: ('A' for Active; 'I' for Inactive)
ROOT
ATOM      1  C   UNL d   1       1.591   3.758  -2.473  0.00  0.00     0.078 C 
ATOM      2  C1  UNL d   1       0.788   4.314  -3.611  0.00  0.00    -0.077 A 
ATOM      3  C2  UNL d   1      -0.359   5.081  -3.377  0.00  0.00    -0.001 A 
ATOM      4  C3  UNL d   1      -1.103   5.584  -4.446  0.00  0.00     0.003 A 
ATOM      5  C4  UNL d   1      -0.708   5.323  -5.757  0.00  0.00    -0.005 A 
ATOM      6  C5  UNL d   1       0.431   4.558  -6.000  0.00  0.00     0.003 A 
ATOM      7  C6  UNL d   1       1.176   4.055  -4.932  0.00  0.00    -0.001 A 
ENDROOT
TORSDOF 0
ENDMDL
