MODEL 1
REMARK minimizedAffinity 2.62348962
REMARK minimizedRMSD -1
REMARK  0 active torsions:
REMARK  status: ('A' for Active; 'I' for Inactive)
ROOT
ATOM      1  C   UNL d   1       1.442   4.870  -5.953  0.00  0.00     0.078 C 
ATOM      2  C1  UNL d   1       0.097   5.071  -5.321  0.00  0.00    -0.077 A 
ATOM      3  C2  UNL d   1      -0.197   4.533  -4.063  0.00  0.00    -0.001 A 
ATOM      4  C3  UNL d   1      -1.456   4.720  -3.491  0.00  0.00     0.003 A 
ATOM      5  C4  UNL d   1      -2.433   5.444  -4.172  0.00  0.00    -0.005 A 
ATOM      6  C5  UNL d   1      -2.151   5.982  -5.426  0.00  0.00     0.003 A 
ATOM      7  C6  UNL d   1      -0.891   5.796  -5.999  0.00  0.00    -0.001 A 
ENDROOT
TORSDOF 0
ENDMDL
