MODEL 1
REMARK minimizedAffinity 1.81027126
REMARK minimizedRMSD -1
REMARK  0 active torsions:
REMARK  status: ('A' for Active; 'I' for Inactive)
ROOT
ATOM      1  C   UNL d   1       2.124   4.109  -4.043  0.00  0.00     0.078 C 
ATOM      2  C1  UNL d   1       0.811   4.753  -4.376  0.00  0.00    -0.077 A 
ATOM      3  C2  UNL d   1       0.393   4.894  -5.705  0.00  0.00    -0.001 A 
ATOM      4  C3  UNL d   1      -0.827   5.505  -6.000  0.00  0.00     0.003 A 
ATOM      5  C4  UNL d   1      -1.638   5.981  -4.972  0.00  0.00    -0.005 A 
ATOM      6  C5  UNL d   1      -1.229   5.848  -3.646  0.00  0.00     0.003 A 
ATOM      7  C6  UNL d   1      -0.010   5.237  -3.349  0.00  0.00    -0.001 A 
ENDROOT
TORSDOF 0
ENDMDL
