MODEL 1
REMARK minimizedAffinity 4.47028351
REMARK minimizedRMSD -1
REMARK  0 active torsions:
REMARK  status: ('A' for Active; 'I' for Inactive)
ROOT
ATOM      1  C   UNL d   1      -2.702   1.078   5.608  0.00  0.00     0.078 C 
ATOM      2  C1  UNL d   1      -3.449   0.314   4.556  0.00  0.00    -0.077 A 
ATOM      3  C2  UNL d   1      -3.123   0.446   3.201  0.00  0.00    -0.001 A 
ATOM      4  C3  UNL d   1      -3.833  -0.264   2.231  0.00  0.00     0.003 A 
ATOM      5  C4  UNL d   1      -4.876  -1.109   2.607  0.00  0.00    -0.005 A 
ATOM      6  C5  UNL d   1      -5.209  -1.245   3.953  0.00  0.00     0.003 A 
ATOM      7  C6  UNL d   1      -4.500  -0.536   4.923  0.00  0.00    -0.001 A 
ENDROOT
TORSDOF 0
ENDMDL
