MODEL 1
REMARK minimizedAffinity 7.27947855
REMARK minimizedRMSD -1
REMARK  0 active torsions:
REMARK  status: ('A' for Active; 'I' for Inactive)
ROOT
ATOM      1  C   UNL d   1      -5.600  -4.532   1.516  0.00  0.00     0.078 C 
ATOM      2  C1  UNL d   1      -4.420  -3.717   1.080  0.00  0.00    -0.077 A 
ATOM      3  C2  UNL d   1      -3.367  -4.298   0.362  0.00  0.00    -0.001 A 
ATOM      4  C3  UNL d   1      -2.270  -3.529  -0.029  0.00  0.00     0.003 A 
ATOM      5  C4  UNL d   1      -2.214  -2.175   0.293  0.00  0.00    -0.005 A 
ATOM      6  C5  UNL d   1      -3.256  -1.588   1.008  0.00  0.00     0.003 A 
ATOM      7  C6  UNL d   1      -4.354  -2.355   1.401  0.00  0.00    -0.001 A 
ENDROOT
TORSDOF 0
ENDMDL
