MODEL 1
REMARK minimizedAffinity 8.31292152
REMARK minimizedRMSD -1
REMARK  0 active torsions:
REMARK  status: ('A' for Active; 'I' for Inactive)
ROOT
ATOM      1  C   UNL d   1       1.388  -3.039   3.887  0.00  0.00     0.078 C 
ATOM      2  C1  UNL d   1       2.120  -2.005   3.086  0.00  0.00    -0.077 A 
ATOM      3  C2  UNL d   1       1.436  -0.944   2.480  0.00  0.00    -0.001 A 
ATOM      4  C3  UNL d   1       2.130   0.006   1.729  0.00  0.00     0.003 A 
ATOM      5  C4  UNL d   1       3.511  -0.095   1.577  0.00  0.00    -0.005 A 
ATOM      6  C5  UNL d   1       4.200  -1.148   2.174  0.00  0.00     0.003 A 
ATOM      7  C6  UNL d   1       3.509  -2.099   2.926  0.00  0.00    -0.001 A 
ENDROOT
TORSDOF 0
ENDMDL
