MODEL 1
REMARK minimizedAffinity 10.161171
REMARK minimizedRMSD -1
REMARK  0 active torsions:
REMARK  status: ('A' for Active; 'I' for Inactive)
ROOT
ATOM      1  C   UNL d   1       1.587   4.029  -2.357  0.00  0.00     0.078 C 
ATOM      2  C1  UNL d   1       1.130   4.701  -3.617  0.00  0.00    -0.077 A 
ATOM      3  C2  UNL d   1       1.927   4.691  -4.769  0.00  0.00    -0.001 A 
ATOM      4  C3  UNL d   1       1.493   5.329  -5.932  0.00  0.00     0.003 A 
ATOM      5  C4  UNL d   1       0.263   5.983  -5.955  0.00  0.00    -0.005 A 
ATOM      6  C5  UNL d   1      -0.536   6.000  -4.813  0.00  0.00     0.003 A 
ATOM      7  C6  UNL d   1      -0.104   5.362  -3.649  0.00  0.00    -0.001 A 
ENDROOT
TORSDOF 0
ENDMDL
