MODEL 1
REMARK minimizedAffinity 5.05912256
REMARK minimizedRMSD -1
REMARK  0 active torsions:
REMARK  status: ('A' for Active; 'I' for Inactive)
ROOT
ATOM      1  C   UNL d   1       2.481   0.440   1.123  0.00  0.00     0.078 C 
ATOM      2  C1  UNL d   1       3.700   1.008   1.785  0.00  0.00    -0.077 A 
ATOM      3  C2  UNL d   1       3.710   2.321   2.272  0.00  0.00    -0.001 A 
ATOM      4  C3  UNL d   1       4.855   2.841   2.877  0.00  0.00     0.003 A 
ATOM      5  C4  UNL d   1       5.999   2.055   3.001  0.00  0.00    -0.005 A 
ATOM      6  C5  UNL d   1       6.000   0.748   2.517  0.00  0.00     0.003 A 
ATOM      7  C6  UNL d   1       4.855   0.227   1.911  0.00  0.00    -0.001 A 
ENDROOT
TORSDOF 0
ENDMDL
