MODEL 1
REMARK minimizedAffinity 3.61776209
REMARK minimizedRMSD -1
REMARK  0 active torsions:
REMARK  status: ('A' for Active; 'I' for Inactive)
ROOT
ATOM      1  C   UNL d   1       2.321  -0.227   2.074  0.00  0.00     0.078 C 
ATOM      2  C1  UNL d   1       3.586   0.469   2.481  0.00  0.00    -0.077 A 
ATOM      3  C2  UNL d   1       4.832  -0.150   2.324  0.00  0.00    -0.001 A 
ATOM      4  C3  UNL d   1       6.000   0.506   2.717  0.00  0.00     0.003 A 
ATOM      5  C4  UNL d   1       5.933   1.783   3.271  0.00  0.00    -0.005 A 
ATOM      6  C5  UNL d   1       4.697   2.406   3.433  0.00  0.00     0.003 A 
ATOM      7  C6  UNL d   1       3.528   1.751   3.041  0.00  0.00    -0.001 A 
ENDROOT
TORSDOF 0
ENDMDL
