MODEL 1
REMARK minimizedAffinity 13.0155458
REMARK minimizedRMSD -1
REMARK  0 active torsions:
REMARK  status: ('A' for Active; 'I' for Inactive)
ROOT
ATOM      1  C   UNL d   1      -1.850   4.504   0.316  0.00  0.00     0.078 C 
ATOM      2  C1  UNL d   1      -3.016   4.907  -0.536  0.00  0.00    -0.077 A 
ATOM      3  C2  UNL d   1      -4.083   5.639   0.000  0.00  0.00    -0.001 A 
ATOM      4  C3  UNL d   1      -5.166   5.998  -0.803  0.00  0.00     0.003 A 
ATOM      5  C4  UNL d   1      -5.195   5.630  -2.146  0.00  0.00    -0.005 A 
ATOM      6  C5  UNL d   1      -4.139   4.899  -2.688  0.00  0.00     0.003 A 
ATOM      7  C6  UNL d   1      -3.054   4.539  -1.887  0.00  0.00    -0.001 A 
ENDROOT
TORSDOF 0
ENDMDL
