MODEL 1
REMARK minimizedAffinity 1.28469992
REMARK minimizedRMSD -1
REMARK  0 active torsions:
REMARK  status: ('A' for Active; 'I' for Inactive)
ROOT
ATOM      1  C   UNL d   1      -4.090  -0.276  -2.184  0.00  0.00     0.078 C 
ATOM      2  C1  UNL d   1      -3.732   0.014  -0.757  0.00  0.00    -0.077 A 
ATOM      3  C2  UNL d   1      -4.307   1.093  -0.075  0.00  0.00    -0.001 A 
ATOM      4  C3  UNL d   1      -3.957   1.357   1.250  0.00  0.00     0.003 A 
ATOM      5  C4  UNL d   1      -3.031   0.548   1.904  0.00  0.00    -0.005 A 
ATOM      6  C5  UNL d   1      -2.452  -0.527   1.233  0.00  0.00     0.003 A 
ATOM      7  C6  UNL d   1      -2.800  -0.793  -0.092  0.00  0.00    -0.001 A 
ENDROOT
TORSDOF 0
ENDMDL
