MODEL 1
REMARK minimizedAffinity -0.21747008
REMARK minimizedRMSD -1
REMARK  0 active torsions:
REMARK  status: ('A' for Active; 'I' for Inactive)
ROOT
ATOM      1  C   UNL d   1      -1.417   5.098  -5.985  0.00  0.00     0.078 C 
ATOM      2  C1  UNL d   1      -2.736   5.285  -5.297  0.00  0.00    -0.077 A 
ATOM      3  C2  UNL d   1      -2.911   4.912  -3.959  0.00  0.00    -0.001 A 
ATOM      4  C3  UNL d   1      -4.148   5.083  -3.335  0.00  0.00     0.003 A 
ATOM      5  C4  UNL d   1      -5.219   5.628  -4.041  0.00  0.00    -0.005 A 
ATOM      6  C5  UNL d   1      -5.054   6.000  -5.374  0.00  0.00     0.003 A 
ATOM      7  C6  UNL d   1      -3.819   5.829  -6.000  0.00  0.00    -0.001 A 
ENDROOT
TORSDOF 0
ENDMDL
