MODEL 1
REMARK minimizedAffinity 4.03352785
REMARK minimizedRMSD -1
REMARK  0 active torsions:
REMARK  status: ('A' for Active; 'I' for Inactive)
ROOT
ATOM      1  C   UNL d   1       0.600   5.992  -4.848  0.00  0.00     0.078 C 
ATOM      2  C1  UNL d   1      -0.899   5.987  -4.808  0.00  0.00    -0.077 A 
ATOM      3  C2  UNL d   1      -1.653   5.990  -5.988  0.00  0.00    -0.001 A 
ATOM      4  C3  UNL d   1      -3.047   5.995  -5.935  0.00  0.00     0.003 A 
ATOM      5  C4  UNL d   1      -3.701   5.999  -4.705  0.00  0.00    -0.005 A 
ATOM      6  C5  UNL d   1      -2.960   5.998  -3.525  0.00  0.00     0.003 A 
ATOM      7  C6  UNL d   1      -1.565   5.993  -3.576  0.00  0.00    -0.001 A 
ENDROOT
TORSDOF 0
ENDMDL
