MODEL 1
REMARK minimizedAffinity 3.30888987
REMARK minimizedRMSD -1
REMARK  0 active torsions:
REMARK  status: ('A' for Active; 'I' for Inactive)
ROOT
ATOM      1  C   UNL d   1       0.429   5.006  -4.918  0.00  0.00     0.078 C 
ATOM      2  C1  UNL d   1      -1.049   5.253  -4.876  0.00  0.00    -0.077 A 
ATOM      3  C2  UNL d   1      -1.798   4.957  -3.731  0.00  0.00    -0.001 A 
ATOM      4  C3  UNL d   1      -3.175   5.183  -3.709  0.00  0.00     0.003 A 
ATOM      5  C4  UNL d   1      -3.816   5.705  -4.831  0.00  0.00    -0.005 A 
ATOM      6  C5  UNL d   1      -3.079   6.000  -5.977  0.00  0.00     0.003 A 
ATOM      7  C6  UNL d   1      -1.702   5.775  -6.000  0.00  0.00    -0.001 A 
ENDROOT
TORSDOF 0
ENDMDL
