MODEL 1
REMARK minimizedAffinity 8.06051254
REMARK minimizedRMSD -1
REMARK  0 active torsions:
REMARK  status: ('A' for Active; 'I' for Inactive)
ROOT
ATOM      1  C   UNL d   1      -4.370   1.208  -0.285  0.00  0.00     0.078 C 
ATOM      2  C1  UNL d   1      -3.375   0.402   0.496  0.00  0.00    -0.077 A 
ATOM      3  C2  UNL d   1      -2.563   1.002   1.466  0.00  0.00    -0.001 A 
ATOM      4  C3  UNL d   1      -1.635   0.241   2.179  0.00  0.00     0.003 A 
ATOM      5  C4  UNL d   1      -1.509  -1.124   1.928  0.00  0.00    -0.005 A 
ATOM      6  C5  UNL d   1      -2.311  -1.730   0.963  0.00  0.00     0.003 A 
ATOM      7  C6  UNL d   1      -3.240  -0.970   0.249  0.00  0.00    -0.001 A 
ENDROOT
TORSDOF 0
ENDMDL
