MODEL 1
REMARK minimizedAffinity 2.78891587
REMARK minimizedRMSD -1
REMARK  0 active torsions:
REMARK  status: ('A' for Active; 'I' for Inactive)
ROOT
ATOM      1  C   UNL d   1      -1.996  -1.111   1.877  0.00  0.00     0.078 C 
ATOM      2  C1  UNL d   1      -2.727  -0.301   0.849  0.00  0.00    -0.077 A 
ATOM      3  C2  UNL d   1      -3.578   0.745   1.226  0.00  0.00    -0.001 A 
ATOM      4  C3  UNL d   1      -4.260   1.484   0.258  0.00  0.00     0.003 A 
ATOM      5  C4  UNL d   1      -4.098   1.186  -1.093  0.00  0.00    -0.005 A 
ATOM      6  C5  UNL d   1      -3.254   0.145  -1.478  0.00  0.00     0.003 A 
ATOM      7  C6  UNL d   1      -2.572  -0.595  -0.512  0.00  0.00    -0.001 A 
ENDROOT
TORSDOF 0
ENDMDL
