MODEL 1
REMARK minimizedAffinity -3.90346718
REMARK minimizedRMSD -1
REMARK  0 active torsions:
REMARK  status: ('A' for Active; 'I' for Inactive)
ROOT
ATOM      1  C   UNL d   1      -1.088  -0.343  -0.528  0.00  0.00     0.172 C 
ATOM      2  N   UNL d   1       0.225  -0.060  -0.000  0.00  0.00    -0.070 N 
ATOM      3  C1  UNL d   1       1.223  -0.978   0.193  0.00  0.00    -0.004 A 
ATOM      4  C2  UNL d   1       2.314  -0.314   0.710  0.00  0.00    -0.047 A 
ATOM      5  C3  UNL d   1       1.960   1.051   0.832  0.00  0.00    -0.047 A 
ATOM      6  C4  UNL d   1       0.662   1.180   0.385  0.00  0.00    -0.004 A 
ENDROOT
TORSDOF 0
ENDMDL
