MODEL 1
REMARK minimizedAffinity -3.30127335
REMARK minimizedRMSD -1
REMARK  0 active torsions:
REMARK  status: ('A' for Active; 'I' for Inactive)
ROOT
ATOM      1  C   UNL d   1      -0.946   0.423  -0.345  0.00  0.00     0.172 C 
ATOM      2  N   UNL d   1       0.452   0.664  -0.075  0.00  0.00    -0.070 N 
ATOM      3  C1  UNL d   1       1.172   1.749  -0.498  0.00  0.00    -0.004 A 
ATOM      4  C2  UNL d   1       2.462   1.606  -0.035  0.00  0.00    -0.047 A 
ATOM      5  C3  UNL d   1       2.520   0.393   0.691  0.00  0.00    -0.047 A 
ATOM      6  C4  UNL d   1       1.262  -0.171   0.650  0.00  0.00    -0.004 A 
ENDROOT
TORSDOF 0
ENDMDL
