MODEL 1
REMARK minimizedAffinity -3.26473236
REMARK minimizedRMSD -1
REMARK  0 active torsions:
REMARK  status: ('A' for Active; 'I' for Inactive)
ROOT
ATOM      1  C   UNL d   1       0.160   0.443   0.283  0.00  0.00     0.172 C 
ATOM      2  N   UNL d   1       0.947  -0.400   1.152  0.00  0.00    -0.070 N 
ATOM      3  C1  UNL d   1       2.222  -0.140   1.577  0.00  0.00    -0.004 A 
ATOM      4  C2  UNL d   1       2.618  -1.181   2.387  0.00  0.00    -0.047 A 
ATOM      5  C3  UNL d   1       1.543  -2.100   2.451  0.00  0.00    -0.047 A 
ATOM      6  C4  UNL d   1       0.522  -1.592   1.677  0.00  0.00    -0.004 A 
ENDROOT
TORSDOF 0
ENDMDL
