MODEL 1
REMARK minimizedAffinity -3.97005367
REMARK minimizedRMSD -1
REMARK  0 active torsions:
REMARK  status: ('A' for Active; 'I' for Inactive)
ROOT
ATOM      1  C   UNL d   1       0.125  -0.030  -0.697  0.00  0.00     0.172 C 
ATOM      2  N   UNL d   1       1.148  -0.585   0.157  0.00  0.00    -0.070 N 
ATOM      3  C1  UNL d   1       2.481  -0.272   0.114  0.00  0.00    -0.004 A 
ATOM      4  C2  UNL d   1       3.120  -1.012   1.085  0.00  0.00    -0.047 A 
ATOM      5  C3  UNL d   1       2.138  -1.798   1.734  0.00  0.00    -0.047 A 
ATOM      6  C4  UNL d   1       0.926  -1.514   1.139  0.00  0.00    -0.004 A 
ENDROOT
TORSDOF 0
ENDMDL
