MODEL 1
REMARK minimizedAffinity -0.628916621
REMARK minimizedRMSD -1
REMARK  0 active torsions:
REMARK  status: ('A' for Active; 'I' for Inactive)
ROOT
ATOM      1  C   UNL d   1       2.157   1.058   0.966  0.00  0.00     0.172 C 
ATOM      2  N   UNL d   1       1.010   0.894   0.104  0.00  0.00    -0.070 N 
ATOM      3  C1  UNL d   1      -0.269   0.635   0.517  0.00  0.00    -0.004 A 
ATOM      4  C2  UNL d   1      -1.066   0.550  -0.604  0.00  0.00    -0.047 A 
ATOM      5  C3  UNL d   1      -0.237   0.764  -1.731  0.00  0.00    -0.047 A 
ATOM      6  C4  UNL d   1       1.044   0.974  -1.264  0.00  0.00    -0.004 A 
ENDROOT
TORSDOF 0
ENDMDL
