MODEL 1
REMARK minimizedAffinity -2.33809996
REMARK minimizedRMSD -1
REMARK  0 active torsions:
REMARK  status: ('A' for Active; 'I' for Inactive)
ROOT
ATOM      1  C   UNL d   1      -1.980  -0.369   0.446  0.00  0.00     0.172 C 
ATOM      2  N   UNL d   1      -0.795   0.319  -0.009  0.00  0.00    -0.070 N 
ATOM      3  C1  UNL d   1      -0.179   1.359   0.635  0.00  0.00    -0.004 A 
ATOM      4  C2  UNL d   1       0.913   1.735  -0.117  0.00  0.00    -0.047 A 
ATOM      5  C3  UNL d   1       0.954   0.892  -1.253  0.00  0.00    -0.047 A 
ATOM      6  C4  UNL d   1      -0.114   0.025  -1.161  0.00  0.00    -0.004 A 
ENDROOT
TORSDOF 0
ENDMDL
