MODEL 1
REMARK minimizedAffinity -2.43528008
REMARK minimizedRMSD -1
REMARK  0 active torsions:
REMARK  status: ('A' for Active; 'I' for Inactive)
ROOT
ATOM      1  C   UNL d   1       2.354   0.820   1.068  0.00  0.00     0.172 C 
ATOM      2  N   UNL d   1       1.114   0.495   0.403  0.00  0.00    -0.070 N 
ATOM      3  C1  UNL d   1      -0.100   0.329   1.014  0.00  0.00    -0.004 A 
ATOM      4  C2  UNL d   1      -1.026   0.030   0.038  0.00  0.00    -0.047 A 
ATOM      5  C3  UNL d   1      -0.345   0.016  -1.202  0.00  0.00    -0.047 A 
ATOM      6  C4  UNL d   1       0.979   0.307  -0.947  0.00  0.00    -0.004 A 
ENDROOT
TORSDOF 0
ENDMDL
