MODEL 1
REMARK minimizedAffinity -3.26367021
REMARK minimizedRMSD -1
REMARK  0 active torsions:
REMARK  status: ('A' for Active; 'I' for Inactive)
ROOT
ATOM      1  C   UNL d   1       3.023  -0.194   1.007  0.00  0.00     0.172 C 
ATOM      2  N   UNL d   1       1.717   0.120   0.477  0.00  0.00    -0.070 N 
ATOM      3  C1  UNL d   1       1.408   1.211  -0.291  0.00  0.00    -0.004 A 
ATOM      4  C2  UNL d   1       0.064   1.147  -0.592  0.00  0.00    -0.047 A 
ATOM      5  C3  UNL d   1      -0.452  -0.021   0.016  0.00  0.00    -0.047 A 
ATOM      6  C4  UNL d   1       0.593  -0.638   0.672  0.00  0.00    -0.004 A 
ENDROOT
TORSDOF 0
ENDMDL
