MODEL 1
REMARK minimizedAffinity -3.52810669
REMARK minimizedRMSD -1
REMARK  0 active torsions:
REMARK  status: ('A' for Active; 'I' for Inactive)
ROOT
ATOM      1  C   UNL d   1      -1.346   0.395  -0.721  0.00  0.00     0.172 C 
ATOM      2  N   UNL d   1      -0.048   0.374  -0.090  0.00  0.00    -0.070 N 
ATOM      3  C1  UNL d   1       0.863   1.396  -0.106  0.00  0.00    -0.004 A 
ATOM      4  C2  UNL d   1       1.970   0.986   0.607  0.00  0.00    -0.047 A 
ATOM      5  C3  UNL d   1       1.715  -0.328   1.065  0.00  0.00    -0.047 A 
ATOM      6  C4  UNL d   1       0.459  -0.682   0.619  0.00  0.00    -0.004 A 
ENDROOT
TORSDOF 0
ENDMDL
