MODEL 1
REMARK minimizedAffinity -2.48763204
REMARK minimizedRMSD -1
REMARK  0 active torsions:
REMARK  status: ('A' for Active; 'I' for Inactive)
ROOT
ATOM      1  C   UNL d   1      -1.865  -1.383  -5.545  0.00  0.00     0.078 C 
ATOM      2  C1  UNL d   1      -3.184  -0.796  -5.140  0.00  0.00    -0.077 A 
ATOM      3  C2  UNL d   1      -3.830  -1.212  -3.969  0.00  0.00    -0.001 A 
ATOM      4  C3  UNL d   1      -5.062  -0.664  -3.610  0.00  0.00     0.003 A 
ATOM      5  C4  UNL d   1      -5.660   0.303  -4.416  0.00  0.00    -0.005 A 
ATOM      6  C5  UNL d   1      -5.026   0.721  -5.584  0.00  0.00     0.003 A 
ATOM      7  C6  UNL d   1      -3.794   0.174  -5.945  0.00  0.00    -0.001 A 
ENDROOT
TORSDOF 0
ENDMDL
