MODEL 1
REMARK minimizedAffinity 6.39794588
REMARK minimizedRMSD -1
REMARK  0 active torsions:
REMARK  status: ('A' for Active; 'I' for Inactive)
ROOT
ATOM      1  C   UNL d   1       6.000  -5.012   0.373  0.00  0.00     0.078 C 
ATOM      2  C1  UNL d   1       4.815  -4.452   1.101  0.00  0.00    -0.077 A 
ATOM      3  C2  UNL d   1       3.745  -3.878   0.404  0.00  0.00    -0.001 A 
ATOM      4  C3  UNL d   1       2.653  -3.352   1.096  0.00  0.00     0.003 A 
ATOM      5  C4  UNL d   1       2.620  -3.394   2.488  0.00  0.00    -0.005 A 
ATOM      6  C5  UNL d   1       3.681  -3.962   3.191  0.00  0.00     0.003 A 
ATOM      7  C6  UNL d   1       4.774  -4.488   2.501  0.00  0.00    -0.001 A 
ENDROOT
TORSDOF 0
ENDMDL
