MODEL 1
REMARK minimizedAffinity 1.9634769
REMARK minimizedRMSD -1
REMARK  0 active torsions:
REMARK  status: ('A' for Active; 'I' for Inactive)
ROOT
ATOM      1  C   UNL d   1      -2.442  -1.338  -3.985  0.00  0.00     0.078 C 
ATOM      2  C1  UNL d   1      -3.091   0.008  -4.118  0.00  0.00    -0.077 A 
ATOM      3  C2  UNL d   1      -3.529   0.478  -5.362  0.00  0.00    -0.001 A 
ATOM      4  C3  UNL d   1      -4.123   1.736  -5.472  0.00  0.00     0.003 A 
ATOM      5  C4  UNL d   1      -4.282   2.536  -4.342  0.00  0.00    -0.005 A 
ATOM      6  C5  UNL d   1      -3.847   2.078  -3.100  0.00  0.00     0.003 A 
ATOM      7  C6  UNL d   1      -3.253   0.819  -2.988  0.00  0.00    -0.001 A 
ENDROOT
TORSDOF 0
ENDMDL
