MODEL 1
REMARK minimizedAffinity 4.23437023
REMARK minimizedRMSD -1
REMARK  0 active torsions:
REMARK  status: ('A' for Active; 'I' for Inactive)
ROOT
ATOM      1  C   UNL d   1       3.326   1.606  -0.020  0.00  0.00     0.078 C 
ATOM      2  C1  UNL d   1       3.432   0.114   0.089  0.00  0.00    -0.077 A 
ATOM      3  C2  UNL d   1       2.290  -0.695   0.044  0.00  0.00    -0.001 A 
ATOM      4  C3  UNL d   1       2.403  -2.082   0.156  0.00  0.00     0.003 A 
ATOM      5  C4  UNL d   1       3.656  -2.671   0.315  0.00  0.00    -0.005 A 
ATOM      6  C5  UNL d   1       4.797  -1.874   0.362  0.00  0.00     0.003 A 
ATOM      7  C6  UNL d   1       4.686  -0.487   0.251  0.00  0.00    -0.001 A 
ENDROOT
TORSDOF 0
ENDMDL
