MODEL 1
REMARK minimizedAffinity -2.60018539
REMARK minimizedRMSD -1
REMARK  0 active torsions:
REMARK  status: ('A' for Active; 'I' for Inactive)
ROOT
ATOM      1  C   UNL d   1      -3.208   3.058  -2.974  0.00  0.00     0.078 C 
ATOM      2  C1  UNL d   1      -3.634   1.685  -3.404  0.00  0.00    -0.077 A 
ATOM      3  C2  UNL d   1      -3.675   0.624  -2.492  0.00  0.00    -0.001 A 
ATOM      4  C3  UNL d   1      -4.064  -0.650  -2.908  0.00  0.00     0.003 A 
ATOM      5  C4  UNL d   1      -4.413  -0.875  -4.238  0.00  0.00    -0.005 A 
ATOM      6  C5  UNL d   1      -4.372   0.174  -5.154  0.00  0.00     0.003 A 
ATOM      7  C6  UNL d   1      -3.984   1.449  -4.739  0.00  0.00    -0.001 A 
ENDROOT
TORSDOF 0
ENDMDL
