MODEL 1
REMARK minimizedAffinity -2.32672739
REMARK minimizedRMSD -1
REMARK  0 active torsions:
REMARK  status: ('A' for Active; 'I' for Inactive)
ROOT
ATOM      1  C   UNL d   1       2.880  -2.631   0.392  0.00  0.00     0.078 C 
ATOM      2  C1  UNL d   1       3.581  -1.313   0.255  0.00  0.00    -0.077 A 
ATOM      3  C2  UNL d   1       4.979  -1.233   0.283  0.00  0.00    -0.001 A 
ATOM      4  C3  UNL d   1       5.618   0.003   0.165  0.00  0.00     0.003 A 
ATOM      5  C4  UNL d   1       4.867   1.168   0.019  0.00  0.00    -0.005 A 
ATOM      6  C5  UNL d   1       3.475   1.098  -0.008  0.00  0.00     0.003 A 
ATOM      7  C6  UNL d   1       2.835  -0.136   0.110  0.00  0.00    -0.001 A 
ENDROOT
TORSDOF 0
ENDMDL
