MODEL 1
REMARK minimizedAffinity 4.67399263
REMARK minimizedRMSD -1
REMARK  0 active torsions:
REMARK  status: ('A' for Active; 'I' for Inactive)
ROOT
ATOM      1  C   UNL d   1      -3.360  -0.746  -2.983  0.00  0.00     0.078 C 
ATOM      2  C1  UNL d   1      -4.010   0.116  -4.023  0.00  0.00    -0.077 A 
ATOM      3  C2  UNL d   1      -5.395   0.323  -4.026  0.00  0.00    -0.001 A 
ATOM      4  C3  UNL d   1      -5.987   1.121  -5.007  0.00  0.00     0.003 A 
ATOM      5  C4  UNL d   1      -5.203   1.716  -5.992  0.00  0.00    -0.005 A 
ATOM      6  C5  UNL d   1      -3.824   1.514  -5.999  0.00  0.00     0.003 A 
ATOM      7  C6  UNL d   1      -3.230   0.717  -5.019  0.00  0.00    -0.001 A 
ENDROOT
TORSDOF 0
ENDMDL
