MODEL 1
REMARK minimizedAffinity -0.388547063
REMARK minimizedRMSD -1
REMARK  0 active torsions:
REMARK  status: ('A' for Active; 'I' for Inactive)
ROOT
ATOM      1  C   UNL d   1       2.676  -3.327   0.680  0.00  0.00     0.078 C 
ATOM      2  C1  UNL d   1       3.245  -1.992   0.305  0.00  0.00    -0.077 A 
ATOM      3  C2  UNL d   1       2.413  -0.945  -0.111  0.00  0.00    -0.001 A 
ATOM      4  C3  UNL d   1       2.957   0.290  -0.466  0.00  0.00     0.003 A 
ATOM      5  C4  UNL d   1       4.335   0.490  -0.410  0.00  0.00    -0.005 A 
ATOM      6  C5  UNL d   1       5.171  -0.546   0.000  0.00  0.00     0.003 A 
ATOM      7  C6  UNL d   1       4.629  -1.782   0.356  0.00  0.00    -0.001 A 
ENDROOT
TORSDOF 0
ENDMDL
