MODEL 1
REMARK minimizedAffinity -2.27654648
REMARK minimizedRMSD -1
REMARK  0 active torsions:
REMARK  status: ('A' for Active; 'I' for Inactive)
ROOT
ATOM      1  C   UNL d   1       4.995  -4.486   1.974  0.00  0.00     0.078 C 
ATOM      2  C1  UNL d   1       5.252  -3.956   3.353  0.00  0.00    -0.077 A 
ATOM      3  C2  UNL d   1       5.755  -2.663   3.546  0.00  0.00    -0.001 A 
ATOM      4  C3  UNL d   1       5.999  -2.186   4.835  0.00  0.00     0.003 A 
ATOM      5  C4  UNL d   1       5.744  -2.996   5.941  0.00  0.00    -0.005 A 
ATOM      6  C5  UNL d   1       5.246  -4.284   5.758  0.00  0.00     0.003 A 
ATOM      7  C6  UNL d   1       5.001  -4.762   4.470  0.00  0.00    -0.001 A 
ENDROOT
TORSDOF 0
ENDMDL
