MODEL 1
REMARK minimizedAffinity 0.0924993157
REMARK minimizedRMSD -1
REMARK  0 active torsions:
REMARK  status: ('A' for Active; 'I' for Inactive)
ROOT
ATOM      1  C   UNL d   1      -6.000   1.382  -5.579  0.00  0.00     0.078 C 
ATOM      2  C1  UNL d   1      -4.689   0.744  -5.228  0.00  0.00    -0.077 A 
ATOM      3  C2  UNL d   1      -3.544   0.976  -6.000  0.00  0.00    -0.001 A 
ATOM      4  C3  UNL d   1      -2.333   0.368  -5.666  0.00  0.00     0.003 A 
ATOM      5  C4  UNL d   1      -2.255  -0.477  -4.561  0.00  0.00    -0.005 A 
ATOM      6  C5  UNL d   1      -3.389  -0.715  -3.788  0.00  0.00     0.003 A 
ATOM      7  C6  UNL d   1      -4.601  -0.108  -4.120  0.00  0.00    -0.001 A 
ENDROOT
TORSDOF 0
ENDMDL
