MODEL 1
REMARK minimizedAffinity 1.12683344
REMARK minimizedRMSD -1
REMARK  0 active torsions:
REMARK  status: ('A' for Active; 'I' for Inactive)
ROOT
ATOM      1  C   UNL d   1      -1.984  -2.115  -5.389  0.00  0.00     0.078 C 
ATOM      2  C1  UNL d   1      -2.650  -0.860  -4.910  0.00  0.00    -0.077 A 
ATOM      3  C2  UNL d   1      -2.878   0.213  -5.780  0.00  0.00    -0.001 A 
ATOM      4  C3  UNL d   1      -3.490   1.379  -5.317  0.00  0.00     0.003 A 
ATOM      5  C4  UNL d   1      -3.877   1.484  -3.983  0.00  0.00    -0.005 A 
ATOM      6  C5  UNL d   1      -3.652   0.422  -3.109  0.00  0.00     0.003 A 
ATOM      7  C6  UNL d   1      -3.040  -0.745  -3.570  0.00  0.00    -0.001 A 
ENDROOT
TORSDOF 0
ENDMDL
