MODEL 1
REMARK minimizedAffinity -3.96900821
REMARK minimizedRMSD -1
REMARK  0 active torsions:
REMARK  status: ('A' for Active; 'I' for Inactive)
ROOT
ATOM      1  C   UNL d   1       1.478  -1.581  -1.056  0.00  0.00     0.172 C 
ATOM      2  N   UNL d   1       1.281  -0.150  -1.054  0.00  0.00    -0.070 N 
ATOM      3  C1  UNL d   1       0.726   0.578  -0.036  0.00  0.00    -0.004 A 
ATOM      4  C2  UNL d   1       0.716   1.902  -0.420  0.00  0.00    -0.047 A 
ATOM      5  C3  UNL d   1       1.284   1.971  -1.715  0.00  0.00    -0.047 A 
ATOM      6  C4  UNL d   1       1.625   0.686  -2.083  0.00  0.00    -0.004 A 
ENDROOT
TORSDOF 0
ENDMDL
