MODEL 1
REMARK minimizedAffinity 0.224964663
REMARK minimizedRMSD -1
REMARK  0 active torsions:
REMARK  status: ('A' for Active; 'I' for Inactive)
ROOT
ATOM      1  C   UNL d   1       0.911   3.110   0.885  0.00  0.00     0.172 C 
ATOM      2  N   UNL d   1       0.929   1.883   0.125  0.00  0.00    -0.070 N 
ATOM      3  C1  UNL d   1       1.307   0.655   0.599  0.00  0.00    -0.004 A 
ATOM      4  C2  UNL d   1       1.182  -0.252  -0.431  0.00  0.00    -0.047 A 
ATOM      5  C3  UNL d   1       0.714   0.455  -1.564  0.00  0.00    -0.047 A 
ATOM      6  C4  UNL d   1       0.566   1.775  -1.192  0.00  0.00    -0.004 A 
ENDROOT
TORSDOF 0
ENDMDL
