MODEL 1
REMARK minimizedAffinity -4.13107872
REMARK minimizedRMSD -1
REMARK  0 active torsions:
REMARK  status: ('A' for Active; 'I' for Inactive)
ROOT
ATOM      1  C   UNL d   1       1.448   4.095  -1.300  0.00  0.00     0.172 C 
ATOM      2  N   UNL d   1       1.273   2.709  -0.936  0.00  0.00    -0.070 N 
ATOM      3  C1  UNL d   1       1.487   1.634  -1.758  0.00  0.00    -0.004 A 
ATOM      4  C2  UNL d   1       1.211   0.491  -1.039  0.00  0.00    -0.047 A 
ATOM      5  C3  UNL d   1       0.817   0.893   0.260  0.00  0.00    -0.047 A 
ATOM      6  C4  UNL d   1       0.864   2.270   0.296  0.00  0.00    -0.004 A 
ENDROOT
TORSDOF 0
ENDMDL
