MODEL 1
REMARK minimizedAffinity 0.340680242
REMARK minimizedRMSD -1
REMARK  0 active torsions:
REMARK  status: ('A' for Active; 'I' for Inactive)
ROOT
ATOM      1  C   UNL d   1       1.617   3.212  -1.975  0.00  0.00     0.172 C 
ATOM      2  N   UNL d   1       1.537   1.868  -1.454  0.00  0.00    -0.070 N 
ATOM      3  C1  UNL d   1       2.289   0.803  -1.873  0.00  0.00    -0.004 A 
ATOM      4  C2  UNL d   1       1.915  -0.296  -1.131  0.00  0.00    -0.047 A 
ATOM      5  C3  UNL d   1       0.903   0.122  -0.234  0.00  0.00    -0.047 A 
ATOM      6  C4  UNL d   1       0.689   1.466  -0.456  0.00  0.00    -0.004 A 
ENDROOT
TORSDOF 0
ENDMDL
