MODEL 1
REMARK minimizedAffinity -3.68576217
REMARK minimizedRMSD -1
REMARK  0 active torsions:
REMARK  status: ('A' for Active; 'I' for Inactive)
ROOT
ATOM      1  C   UNL d   1       2.269   3.649  -1.387  0.00  0.00     0.172 C 
ATOM      2  N   UNL d   1       1.628   2.443  -0.918  0.00  0.00    -0.070 N 
ATOM      3  C1  UNL d   1       1.568   2.025   0.385  0.00  0.00    -0.004 A 
ATOM      4  C2  UNL d   1       0.873   0.835   0.415  0.00  0.00    -0.047 A 
ATOM      5  C3  UNL d   1       0.503   0.527  -0.916  0.00  0.00    -0.047 A 
ATOM      6  C4  UNL d   1       0.983   1.539  -1.720  0.00  0.00    -0.004 A 
ENDROOT
TORSDOF 0
ENDMDL
