MODEL 1
REMARK minimizedAffinity 0.454151034
REMARK minimizedRMSD -1
REMARK  0 active torsions:
REMARK  status: ('A' for Active; 'I' for Inactive)
ROOT
ATOM      1  C   UNL d   1       0.965   2.494  -2.222  0.00  0.00     0.172 C 
ATOM      2  N   UNL d   1       1.084   1.528  -1.155  0.00  0.00    -0.070 N 
ATOM      3  C1  UNL d   1       1.362   0.197  -1.311  0.00  0.00    -0.004 A 
ATOM      4  C2  UNL d   1       1.390  -0.378  -0.059  0.00  0.00    -0.047 A 
ATOM      5  C3  UNL d   1       1.118   0.643   0.882  0.00  0.00    -0.047 A 
ATOM      6  C4  UNL d   1       0.932   1.813   0.177  0.00  0.00    -0.004 A 
ENDROOT
TORSDOF 0
ENDMDL
