MODEL 1
REMARK minimizedAffinity -2.77913785
REMARK minimizedRMSD -1
REMARK  0 active torsions:
REMARK  status: ('A' for Active; 'I' for Inactive)
ROOT
ATOM      1  C   UNL d   1       1.523   3.563  -1.530  0.00  0.00     0.172 C 
ATOM      2  N   UNL d   1       1.327   2.395  -0.704  0.00  0.00    -0.070 N 
ATOM      3  C1  UNL d   1       1.405   1.095  -1.128  0.00  0.00    -0.004 A 
ATOM      4  C2  UNL d   1       1.157   0.282  -0.043  0.00  0.00    -0.047 A 
ATOM      5  C3  UNL d   1       0.921   1.122   1.071  0.00  0.00    -0.047 A 
ATOM      6  C4  UNL d   1       1.032   2.425   0.633  0.00  0.00    -0.004 A 
ENDROOT
TORSDOF 0
ENDMDL
