MODEL 1
REMARK minimizedAffinity 5.73423338
REMARK minimizedRMSD -1
REMARK  0 active torsions:
REMARK  status: ('A' for Active; 'I' for Inactive)
ROOT
ATOM      1  C   UNL d   1       1.751   3.215  -1.476  0.00  0.00     0.172 C 
ATOM      2  N   UNL d   1       1.553   1.823  -1.146  0.00  0.00    -0.070 N 
ATOM      3  C1  UNL d   1       0.766   0.942  -1.839  0.00  0.00    -0.004 A 
ATOM      4  C2  UNL d   1       0.843  -0.280  -1.207  0.00  0.00    -0.047 A 
ATOM      5  C3  UNL d   1       1.706  -0.129  -0.096  0.00  0.00    -0.047 A 
ATOM      6  C4  UNL d   1       2.131   1.183  -0.082  0.00  0.00    -0.004 A 
ENDROOT
TORSDOF 0
ENDMDL
