MODEL 1
REMARK minimizedAffinity 3.17217612
REMARK minimizedRMSD -1
REMARK  0 active torsions:
REMARK  status: ('A' for Active; 'I' for Inactive)
ROOT
ATOM      1  C   UNL d   1       1.809   0.486  -1.474  0.00  0.00     0.172 C 
ATOM      2  N   UNL d   1       1.616   1.815  -0.942  0.00  0.00    -0.070 N 
ATOM      3  C1  UNL d   1       1.620   2.974  -1.670  0.00  0.00    -0.004 A 
ATOM      4  C2  UNL d   1       1.403   4.020  -0.799  0.00  0.00    -0.047 A 
ATOM      5  C3  UNL d   1       1.266   3.470   0.498  0.00  0.00    -0.047 A 
ATOM      6  C4  UNL d   1       1.402   2.103   0.380  0.00  0.00    -0.004 A 
ENDROOT
TORSDOF 0
ENDMDL
