MODEL 1
REMARK minimizedAffinity -2.93621421
REMARK minimizedRMSD -1
REMARK  0 active torsions:
REMARK  status: ('A' for Active; 'I' for Inactive)
ROOT
ATOM      1  C   UNL d   1       1.818   4.777  -1.326  0.00  0.00     0.172 C 
ATOM      2  N   UNL d   1       1.531   3.366  -1.214  0.00  0.00    -0.070 N 
ATOM      3  C1  UNL d   1       1.728   2.431  -2.195  0.00  0.00    -0.004 A 
ATOM      4  C2  UNL d   1       1.333   1.208  -1.698  0.00  0.00    -0.047 A 
ATOM      5  C3  UNL d   1       0.880   1.416  -0.374  0.00  0.00    -0.047 A 
ATOM      6  C4  UNL d   1       1.014   2.760  -0.100  0.00  0.00    -0.004 A 
ENDROOT
TORSDOF 0
ENDMDL
