MODEL 1
REMARK minimizedAffinity -2.72086358
REMARK minimizedRMSD -1
REMARK  0 active torsions:
REMARK  status: ('A' for Active; 'I' for Inactive)
ROOT
ATOM      1  C   UNL d   1       1.860   2.095  -2.377  0.00  0.00     0.172 C 
ATOM      2  N   UNL d   1       1.437   1.550  -1.108  0.00  0.00    -0.070 N 
ATOM      3  C1  UNL d   1       0.908   2.267  -0.068  0.00  0.00    -0.004 A 
ATOM      4  C2  UNL d   1       0.636   1.386   0.956  0.00  0.00    -0.047 A 
ATOM      5  C3  UNL d   1       1.014   0.096   0.517  0.00  0.00    -0.047 A 
ATOM      6  C4  UNL d   1       1.507   0.226  -0.764  0.00  0.00    -0.004 A 
ENDROOT
TORSDOF 0
ENDMDL
