MODEL 1
REMARK minimizedAffinity 3.06460977
REMARK minimizedRMSD -1
REMARK  0 active torsions:
REMARK  status: ('A' for Active; 'I' for Inactive)
ROOT
ATOM      1  C   UNL d   1       1.764   0.541  -1.135  0.00  0.00     0.172 C 
ATOM      2  N   UNL d   1       1.397   1.862  -0.681  0.00  0.00    -0.070 N 
ATOM      3  C1  UNL d   1       0.957   2.886  -1.476  0.00  0.00    -0.004 A 
ATOM      4  C2  UNL d   1       0.713   3.974  -0.666  0.00  0.00    -0.047 A 
ATOM      5  C3  UNL d   1       1.019   3.591   0.662  0.00  0.00    -0.047 A 
ATOM      6  C4  UNL d   1       1.440   2.279   0.624  0.00  0.00    -0.004 A 
ENDROOT
TORSDOF 0
ENDMDL
