MODEL 1
REMARK minimizedAffinity -3.06201434
REMARK minimizedRMSD -1
REMARK  0 active torsions:
REMARK  status: ('A' for Active; 'I' for Inactive)
ROOT
ATOM      1  C   UNL d   1       0.850  -0.313  -1.321  0.00  0.00     0.172 C 
ATOM      2  N   UNL d   1       0.986   1.056  -0.881  0.00  0.00    -0.070 N 
ATOM      3  C1  UNL d   1       0.848   1.498   0.408  0.00  0.00    -0.004 A 
ATOM      4  C2  UNL d   1       1.053   2.861   0.411  0.00  0.00    -0.047 A 
ATOM      5  C3  UNL d   1       1.324   3.251  -0.922  0.00  0.00    -0.047 A 
ATOM      6  C4  UNL d   1       1.276   2.114  -1.700  0.00  0.00    -0.004 A 
ENDROOT
TORSDOF 0
ENDMDL
