MODEL 1
REMARK minimizedAffinity -0.72493422
REMARK minimizedRMSD -1
REMARK  0 active torsions:
REMARK  status: ('A' for Active; 'I' for Inactive)
ROOT
ATOM      1  C   UNL d   1       1.423   2.795  -2.187  0.00  0.00     0.172 C 
ATOM      2  N   UNL d   1       1.231   1.754  -1.205  0.00  0.00    -0.070 N 
ATOM      3  C1  UNL d   1       0.918   1.948   0.114  0.00  0.00    -0.004 A 
ATOM      4  C2  UNL d   1       0.822   0.710   0.712  0.00  0.00    -0.047 A 
ATOM      5  C3  UNL d   1       1.088  -0.262  -0.282  0.00  0.00    -0.047 A 
ATOM      6  C4  UNL d   1       1.338   0.412  -1.459  0.00  0.00    -0.004 A 
ENDROOT
TORSDOF 0
ENDMDL
