MODEL 1
REMARK minimizedAffinity -1.1806587
REMARK minimizedRMSD -1
REMARK  0 active torsions:
REMARK  status: ('A' for Active; 'I' for Inactive)
ROOT
ATOM      1  C   UNL d   1       1.227  -1.400  -0.736  0.00  0.00     0.172 C 
ATOM      2  N   UNL d   1       1.194   0.044  -0.710  0.00  0.00    -0.070 N 
ATOM      3  C1  UNL d   1       1.293   0.864  -1.802  0.00  0.00    -0.004 A 
ATOM      4  C2  UNL d   1       1.217   2.167  -1.359  0.00  0.00    -0.047 A 
ATOM      5  C3  UNL d   1       1.068   2.128   0.048  0.00  0.00    -0.047 A 
ATOM      6  C4  UNL d   1       1.057   0.801   0.423  0.00  0.00    -0.004 A 
ENDROOT
TORSDOF 0
ENDMDL
