MODEL 1
REMARK minimizedAffinity 2.46152997
REMARK minimizedRMSD -1
REMARK  0 active torsions:
REMARK  status: ('A' for Active; 'I' for Inactive)
ROOT
ATOM      1  C   UNL d   1       0.197   2.667  -1.746  0.00  0.00     0.020 A 
ATOM      2  C1  UNL d   1       0.570   4.003  -1.607  0.00  0.00     0.020 A 
ATOM      3  C2  UNL d   1       0.765   4.796  -2.740  0.00  0.00     0.034 A 
ATOM      4  C3  UNL d   1       0.586   4.253  -4.018  0.00  0.00     0.017 A 
ATOM      5  C4  UNL d   1       0.212   2.912  -4.157  0.00  0.00     0.017 A 
ATOM      6  C5  UNL d   1       0.018   2.123  -3.019  0.00  0.00     0.034 A 
ATOM      7 Cl   UNL d   1      -0.028   2.172  -5.700  0.00  0.00    -0.070 Cl
ATOM      8 Cl1  UNL d   1       0.844   5.291  -5.374  0.00  0.00    -0.070 Cl
ENDROOT
TORSDOF 0
ENDMDL
