MODEL 1
REMARK minimizedAffinity 5.90774727
REMARK minimizedRMSD -1
REMARK  0 active torsions:
REMARK  status: ('A' for Active; 'I' for Inactive)
ROOT
ATOM      1  C   UNL d   1       2.567  -0.279  -2.357  0.00  0.00     0.020 A 
ATOM      2  C1  UNL d   1       1.785  -0.161  -3.505  0.00  0.00     0.020 A 
ATOM      3  C2  UNL d   1       1.170   1.056  -3.810  0.00  0.00     0.034 A 
ATOM      4  C3  UNL d   1       1.337   2.159  -2.964  0.00  0.00     0.017 A 
ATOM      5  C4  UNL d   1       2.122   2.039  -1.812  0.00  0.00     0.017 A 
ATOM      6  C5  UNL d   1       2.735   0.818  -1.512  0.00  0.00     0.034 A 
ATOM      7 Cl   UNL d   1       2.373   3.356  -0.721  0.00  0.00    -0.070 Cl
ATOM      8 Cl1  UNL d   1       0.548   3.632  -3.402  0.00  0.00    -0.070 Cl
ENDROOT
TORSDOF 0
ENDMDL
