MODEL 1
REMARK minimizedAffinity 1.38721418
REMARK minimizedRMSD -1
REMARK  0 active torsions:
REMARK  status: ('A' for Active; 'I' for Inactive)
ROOT
ATOM      1  C   UNL d   1       2.843   1.834  -0.582  0.00  0.00     0.020 A 
ATOM      2  C1  UNL d   1       2.156   3.043  -0.687  0.00  0.00     0.020 A 
ATOM      3  C2  UNL d   1       1.461   3.352  -1.859  0.00  0.00     0.034 A 
ATOM      4  C3  UNL d   1       1.451   2.450  -2.929  0.00  0.00     0.017 A 
ATOM      5  C4  UNL d   1       2.141   1.237  -2.823  0.00  0.00     0.017 A 
ATOM      6  C5  UNL d   1       2.835   0.933  -1.647  0.00  0.00     0.034 A 
ATOM      7 Cl   UNL d   1       2.174   0.074  -4.101  0.00  0.00    -0.070 Cl
ATOM      8 Cl1  UNL d   1       0.571   2.897  -4.347  0.00  0.00    -0.070 Cl
ENDROOT
TORSDOF 0
ENDMDL
