MODEL 1
REMARK minimizedAffinity 7.50673294
REMARK minimizedRMSD -1
REMARK  0 active torsions:
REMARK  status: ('A' for Active; 'I' for Inactive)
ROOT
ATOM      1  C   UNL d   1       3.401   2.675  -0.769  0.00  0.00     0.020 A 
ATOM      2  C1  UNL d   1       3.167   1.607   0.097  0.00  0.00     0.020 A 
ATOM      3  C2  UNL d   1       2.152   0.690  -0.183  0.00  0.00     0.034 A 
ATOM      4  C3  UNL d   1       1.366   0.839  -1.332  0.00  0.00     0.017 A 
ATOM      5  C4  UNL d   1       1.602   1.911  -2.201  0.00  0.00     0.017 A 
ATOM      6  C5  UNL d   1       2.620   2.826  -1.915  0.00  0.00     0.034 A 
ATOM      7 Cl   UNL d   1       0.675   2.160  -3.638  0.00  0.00    -0.070 Cl
ATOM      8 Cl1  UNL d   1       0.128  -0.332  -1.616  0.00  0.00    -0.070 Cl
ENDROOT
TORSDOF 0
ENDMDL
