MODEL 1
REMARK minimizedAffinity 7.43187904
REMARK minimizedRMSD -1
REMARK  0 active torsions:
REMARK  status: ('A' for Active; 'I' for Inactive)
ROOT
ATOM      1  C   UNL d   1       1.899  -1.117  -2.326  0.00  0.00     0.020 A 
ATOM      2  C1  UNL d   1       2.230  -1.156  -0.972  0.00  0.00     0.020 A 
ATOM      3  C2  UNL d   1       2.378   0.033  -0.255  0.00  0.00     0.034 A 
ATOM      4  C3  UNL d   1       2.195   1.266  -0.891  0.00  0.00     0.017 A 
ATOM      5  C4  UNL d   1       1.863   1.305  -2.250  0.00  0.00     0.017 A 
ATOM      6  C5  UNL d   1       1.716   0.111  -2.963  0.00  0.00     0.034 A 
ATOM      7 Cl   UNL d   1       1.622   2.788  -3.104  0.00  0.00    -0.070 Cl
ATOM      8 Cl1  UNL d   1       2.393   2.697   0.058  0.00  0.00    -0.070 Cl
ENDROOT
TORSDOF 0
ENDMDL
