MODEL 1
REMARK minimizedAffinity 5.2338047
REMARK minimizedRMSD -1
REMARK  0 active torsions:
REMARK  status: ('A' for Active; 'I' for Inactive)
ROOT
ATOM      1  C   UNL d   1       1.858  -0.548   3.518  0.00  0.00     0.020 A 
ATOM      2  C1  UNL d   1       2.098  -1.385   2.429  0.00  0.00     0.020 A 
ATOM      3  C2  UNL d   1       1.085  -1.626   1.498  0.00  0.00     0.034 A 
ATOM      4  C3  UNL d   1      -0.171  -1.030   1.654  0.00  0.00     0.017 A 
ATOM      5  C4  UNL d   1      -0.411  -0.190   2.747  0.00  0.00     0.017 A 
ATOM      6  C5  UNL d   1       0.606   0.049   3.677  0.00  0.00     0.034 A 
ATOM      7 Cl   UNL d   1      -1.935   0.582   3.007  0.00  0.00    -0.070 Cl
ATOM      8 Cl1  UNL d   1      -1.376  -1.372   0.464  0.00  0.00    -0.070 Cl
ENDROOT
TORSDOF 0
ENDMDL
