MODEL 1
REMARK minimizedAffinity 5.9396162
REMARK minimizedRMSD -1
REMARK  0 active torsions:
REMARK  status: ('A' for Active; 'I' for Inactive)
ROOT
ATOM      1  C   UNL d   1       2.328  -1.006   3.090  0.00  0.00     0.020 A 
ATOM      2  C1  UNL d   1       1.825   0.283   2.920  0.00  0.00     0.020 A 
ATOM      3  C2  UNL d   1       0.451   0.483   2.774  0.00  0.00     0.034 A 
ATOM      4  C3  UNL d   1      -0.425  -0.608   2.799  0.00  0.00     0.017 A 
ATOM      5  C4  UNL d   1       0.080  -1.901   2.970  0.00  0.00     0.017 A 
ATOM      6  C5  UNL d   1       1.457  -2.096   3.116  0.00  0.00     0.034 A 
ATOM      7 Cl   UNL d   1      -0.939  -3.297   3.012  0.00  0.00    -0.070 Cl
ATOM      8 Cl1  UNL d   1      -2.113  -0.287   2.614  0.00  0.00    -0.070 Cl
ENDROOT
TORSDOF 0
ENDMDL
