MODEL 1
REMARK minimizedAffinity 7.0043788
REMARK minimizedRMSD -1
REMARK  0 active torsions:
REMARK  status: ('A' for Active; 'I' for Inactive)
ROOT
ATOM      1  C   UNL d   1       0.881  -1.706   2.630  0.00  0.00     0.020 A 
ATOM      2  C1  UNL d   1       0.298  -2.799   1.991  0.00  0.00     0.020 A 
ATOM      3  C2  UNL d   1      -1.022  -2.722   1.541  0.00  0.00     0.034 A 
ATOM      4  C3  UNL d   1      -1.763  -1.550   1.730  0.00  0.00     0.017 A 
ATOM      5  C4  UNL d   1      -1.176  -0.453   2.372  0.00  0.00     0.017 A 
ATOM      6  C5  UNL d   1       0.146  -0.536   2.821  0.00  0.00     0.034 A 
ATOM      7 Cl   UNL d   1      -2.027   1.027   2.642  0.00  0.00    -0.070 Cl
ATOM      8 Cl1  UNL d   1      -3.390  -1.524   1.148  0.00  0.00    -0.070 Cl
ENDROOT
TORSDOF 0
ENDMDL
