MODEL 1
REMARK minimizedAffinity 2.77452302
REMARK minimizedRMSD -1
REMARK  0 active torsions:
REMARK  status: ('A' for Active; 'I' for Inactive)
ROOT
ATOM      1  C   UNL d   1       3.238  -1.538   1.650  0.00  0.00     0.020 A 
ATOM      2  C1  UNL d   1       2.066  -2.123   1.173  0.00  0.00     0.020 A 
ATOM      3  C2  UNL d   1       1.601  -1.811  -0.107  0.00  0.00     0.034 A 
ATOM      4  C3  UNL d   1       2.308  -0.913  -0.913  0.00  0.00     0.017 A 
ATOM      5  C4  UNL d   1       3.485  -0.326  -0.433  0.00  0.00     0.017 A 
ATOM      6  C5  UNL d   1       3.946  -0.641   0.848  0.00  0.00     0.034 A 
ATOM      7 Cl   UNL d   1       4.412   0.792  -1.370  0.00  0.00    -0.070 Cl
ATOM      8 Cl1  UNL d   1       1.675  -0.574  -2.485  0.00  0.00    -0.070 Cl
ENDROOT
TORSDOF 0
ENDMDL
