MODEL 1
REMARK minimizedAffinity 3.69885921
REMARK minimizedRMSD -1
REMARK  0 active torsions:
REMARK  status: ('A' for Active; 'I' for Inactive)
ROOT
ATOM      1  C   UNL d   1       1.652  -1.004  -1.838  0.00  0.00     0.020 A 
ATOM      2  C1  UNL d   1       2.722  -1.312  -0.998  0.00  0.00     0.020 A 
ATOM      3  C2  UNL d   1       2.503  -1.514   0.366  0.00  0.00     0.034 A 
ATOM      4  C3  UNL d   1       1.212  -1.409   0.895  0.00  0.00     0.017 A 
ATOM      5  C4  UNL d   1       0.139  -1.099   0.051  0.00  0.00     0.017 A 
ATOM      6  C5  UNL d   1       0.363  -0.898  -1.314  0.00  0.00     0.034 A 
ATOM      7 Cl   UNL d   1      -1.483  -0.952   0.631  0.00  0.00    -0.070 Cl
ATOM      8 Cl1  UNL d   1       1.014  -1.672   2.591  0.00  0.00    -0.070 Cl
ENDROOT
TORSDOF 0
ENDMDL
