MODEL 1
REMARK minimizedAffinity 2.29952383
REMARK minimizedRMSD -1
REMARK  0 active torsions:
REMARK  status: ('A' for Active; 'I' for Inactive)
ROOT
ATOM      1  C2' OXE d   1      -5.555   5.950   2.347  0.00  0.00     0.078 C 
ATOM      2  C1' OXE d   1      -2.766   5.998   2.040  0.00  0.00     0.078 C 
ATOM      3  C1  OXE d   1      -3.319   5.976   3.443  0.00  0.00    -0.078 A 
ATOM      4  C2  OXE d   1      -4.685   6.000   3.584  0.00  0.00    -0.078 A 
ATOM      5  C3  OXE d   1      -5.249   5.926   4.855  0.00  0.00     0.003 A 
ATOM      6  C4  OXE d   1      -4.437   5.982   5.995  0.00  0.00    -0.002 A 
ATOM      7  C5  OXE d   1      -3.043   5.998   5.873  0.00  0.00    -0.002 A 
ATOM      8  C6  OXE d   1      -2.469   5.953   4.608  0.00  0.00     0.003 A 
ENDROOT
TORSDOF 0
ENDMDL
