MODEL 1
REMARK minimizedAffinity -0.908193767
REMARK minimizedRMSD -1
REMARK  0 active torsions:
REMARK  status: ('A' for Active; 'I' for Inactive)
ROOT
ATOM      1  C2' OXE d   1      -4.964   5.926   4.889  0.00  0.00     0.078 C 
ATOM      2  C1' OXE d   1      -3.700   5.988   2.383  0.00  0.00     0.078 C 
ATOM      3  C1  OXE d   1      -2.825   5.961   3.612  0.00  0.00    -0.078 A 
ATOM      4  C2  OXE d   1      -3.453   5.978   4.835  0.00  0.00    -0.078 A 
ATOM      5  C3  OXE d   1      -2.695   5.899   6.000  0.00  0.00     0.003 A 
ATOM      6  C4  OXE d   1      -1.297   5.958   5.941  0.00  0.00    -0.002 A 
ATOM      7  C5  OXE d   1      -0.639   5.981   4.707  0.00  0.00    -0.002 A 
ATOM      8  C6  OXE d   1      -1.386   5.940   3.535  0.00  0.00     0.003 A 
ENDROOT
TORSDOF 0
ENDMDL
