MODEL 1
REMARK minimizedAffinity -1.73395109
REMARK minimizedRMSD -1
REMARK  0 active torsions:
REMARK  status: ('A' for Active; 'I' for Inactive)
ROOT
ATOM      1  C2' OXE d   1       1.463  -3.729  -3.742  0.00  0.00     0.078 C 
ATOM      2  C1' OXE d   1       1.784  -2.894  -1.081  0.00  0.00     0.078 C 
ATOM      3  C1  OXE d   1       1.574  -1.832  -2.132  0.00  0.00    -0.078 A 
ATOM      4  C2  OXE d   1       1.465  -2.247  -3.437  0.00  0.00    -0.078 A 
ATOM      5  C3  OXE d   1       1.215  -1.313  -4.439  0.00  0.00     0.003 A 
ATOM      6  C4  OXE d   1       1.228   0.057  -4.150  0.00  0.00    -0.002 A 
ATOM      7  C5  OXE d   1       1.378   0.503  -2.832  0.00  0.00    -0.002 A 
ATOM      8  C6  OXE d   1       1.509  -0.428  -1.808  0.00  0.00     0.003 A 
ENDROOT
TORSDOF 0
ENDMDL
