MODEL 1
REMARK minimizedAffinity 1.95294988
REMARK minimizedRMSD -1
REMARK  0 active torsions:
REMARK  status: ('A' for Active; 'I' for Inactive)
ROOT
ATOM      1  C2' OXE d   1      -2.120   6.000   2.253  0.00  0.00     0.078 C 
ATOM      2  C1' OXE d   1      -1.366   6.000   4.957  0.00  0.00     0.078 C 
ATOM      3  C1  OXE d   1      -2.836   5.890   4.636  0.00  0.00    -0.078 A 
ATOM      4  C2  OXE d   1      -3.200   5.938   3.312  0.00  0.00    -0.078 A 
ATOM      5  C3  OXE d   1      -4.537   5.786   2.958  0.00  0.00     0.003 A 
ATOM      6  C4  OXE d   1      -5.530   5.739   3.944  0.00  0.00    -0.002 A 
ATOM      7  C5  OXE d   1      -5.185   5.729   5.300  0.00  0.00    -0.002 A 
ATOM      8  C6  OXE d   1      -3.842   5.761   5.661  0.00  0.00     0.003 A 
ENDROOT
TORSDOF 0
ENDMDL
