MODEL 1
REMARK minimizedAffinity 0.790702283
REMARK minimizedRMSD -1
REMARK  0 active torsions:
REMARK  status: ('A' for Active; 'I' for Inactive)
ROOT
ATOM      1  C2' OXE d   1       0.890   2.773  -3.017  0.00  0.00     0.078 C 
ATOM      2  C1' OXE d   1       2.229   0.391  -2.375  0.00  0.00     0.078 C 
ATOM      3  C1  OXE d   1       2.771   1.217  -3.515  0.00  0.00    -0.078 A 
ATOM      4  C2  OXE d   1       2.082   2.358  -3.852  0.00  0.00    -0.078 A 
ATOM      5  C3  OXE d   1       2.569   3.185  -4.860  0.00  0.00     0.003 A 
ATOM      6  C4  OXE d   1       3.666   2.788  -5.634  0.00  0.00    -0.002 A 
ATOM      7  C5  OXE d   1       4.359   1.610  -5.333  0.00  0.00    -0.002 A 
ATOM      8  C6  OXE d   1       3.951   0.837  -4.252  0.00  0.00     0.003 A 
ENDROOT
TORSDOF 0
ENDMDL
