MODEL 1
REMARK minimizedAffinity 5.43357611
REMARK minimizedRMSD -1
REMARK  0 active torsions:
REMARK  status: ('A' for Active; 'I' for Inactive)
ROOT
ATOM      1  C2' OXE d   1       1.259   4.179  -3.895  0.00  0.00     0.078 C 
ATOM      2  C1' OXE d   1       3.717   3.103  -4.721  0.00  0.00     0.078 C 
ATOM      3  C1  OXE d   1       2.847   2.261  -3.822  0.00  0.00    -0.078 A 
ATOM      4  C2  OXE d   1       1.667   2.814  -3.385  0.00  0.00    -0.078 A 
ATOM      5  C3  OXE d   1       0.802   2.059  -2.598  0.00  0.00     0.003 A 
ATOM      6  C4  OXE d   1       1.191   0.802  -2.122  0.00  0.00    -0.002 A 
ATOM      7  C5  OXE d   1       2.406   0.236  -2.522  0.00  0.00    -0.002 A 
ATOM      8  C6  OXE d   1       3.224   0.933  -3.404  0.00  0.00     0.003 A 
ENDROOT
TORSDOF 0
ENDMDL
