MODEL 1
REMARK minimizedAffinity 1.09730434
REMARK minimizedRMSD -1
REMARK  0 active torsions:
REMARK  status: ('A' for Active; 'I' for Inactive)
ROOT
ATOM      1  C2' OXE d   1      -1.874   5.980   5.999  0.00  0.00     0.078 C 
ATOM      2  C1' OXE d   1      -1.573   5.960   3.208  0.00  0.00     0.078 C 
ATOM      3  C1  OXE d   1      -2.975   5.972   3.764  0.00  0.00    -0.078 A 
ATOM      4  C2  OXE d   1      -3.113   5.935   5.131  0.00  0.00    -0.078 A 
ATOM      5  C3  OXE d   1      -4.383   6.000   5.697  0.00  0.00     0.003 A 
ATOM      6  C4  OXE d   1      -5.524   5.948   4.887  0.00  0.00    -0.002 A 
ATOM      7  C5  OXE d   1      -5.405   5.945   3.493  0.00  0.00    -0.002 A 
ATOM      8  C6  OXE d   1      -4.141   6.000   2.917  0.00  0.00     0.003 A 
ENDROOT
TORSDOF 0
ENDMDL
