MODEL 1
REMARK minimizedAffinity 1.60119092
REMARK minimizedRMSD -1
REMARK  0 active torsions:
REMARK  status: ('A' for Active; 'I' for Inactive)
ROOT
ATOM      1  C2' OXE d   1      -2.323   5.987   2.232  0.00  0.00     0.078 C 
ATOM      2  C1' OXE d   1      -4.926   4.937   2.214  0.00  0.00     0.078 C 
ATOM      3  C1  OXE d   1      -4.287   5.209   3.553  0.00  0.00    -0.078 A 
ATOM      4  C2  OXE d   1      -2.995   5.679   3.553  0.00  0.00    -0.078 A 
ATOM      5  C3  OXE d   1      -2.378   5.999   4.758  0.00  0.00     0.003 A 
ATOM      6  C4  OXE d   1      -3.003   5.702   5.976  0.00  0.00    -0.002 A 
ATOM      7  C5  OXE d   1      -4.303   5.185   5.999  0.00  0.00    -0.002 A 
ATOM      8  C6  OXE d   1      -4.973   4.974   4.799  0.00  0.00     0.003 A 
ENDROOT
TORSDOF 0
ENDMDL
