MODEL 1
REMARK minimizedAffinity 2.72931051
REMARK minimizedRMSD -1
REMARK  0 active torsions:
REMARK  status: ('A' for Active; 'I' for Inactive)
ROOT
ATOM      1  C2' OXE d   1       1.788   3.608  -5.059  0.00  0.00     0.078 C 
ATOM      2  C1' OXE d   1       2.069   3.941  -2.285  0.00  0.00     0.078 C 
ATOM      3  C1  OXE d   1       1.811   2.548  -2.804  0.00  0.00    -0.078 A 
ATOM      4  C2  OXE d   1       1.628   2.402  -4.158  0.00  0.00    -0.078 A 
ATOM      5  C3  OXE d   1       1.440   1.132  -4.696  0.00  0.00     0.003 A 
ATOM      6  C4  OXE d   1       1.283   0.023  -3.855  0.00  0.00    -0.002 A 
ATOM      7  C5  OXE d   1       1.426   0.156  -2.470  0.00  0.00    -0.002 A 
ATOM      8  C6  OXE d   1       1.732   1.402  -1.933  0.00  0.00     0.003 A 
ENDROOT
TORSDOF 0
ENDMDL
