MODEL 1
REMARK minimizedAffinity 1.15022767
REMARK minimizedRMSD -1
REMARK  0 active torsions:
REMARK  status: ('A' for Active; 'I' for Inactive)
ROOT
ATOM      1  C2' OXE d   1       5.992  -0.453   5.215  0.00  0.00     0.078 C 
ATOM      2  C1' OXE d   1       3.495  -0.646   3.947  0.00  0.00     0.078 C 
ATOM      3  C1  OXE d   1       4.020  -1.869   4.656  0.00  0.00    -0.078 A 
ATOM      4  C2  OXE d   1       5.264  -1.780   5.234  0.00  0.00    -0.078 A 
ATOM      5  C3  OXE d   1       5.772  -2.861   5.947  0.00  0.00     0.003 A 
ATOM      6  C4  OXE d   1       5.097  -4.088   5.951  0.00  0.00    -0.002 A 
ATOM      7  C5  OXE d   1       3.847  -4.212   5.335  0.00  0.00    -0.002 A 
ATOM      8  C6  OXE d   1       3.276  -3.103   4.721  0.00  0.00     0.003 A 
ENDROOT
TORSDOF 0
ENDMDL
