MODEL 1
REMARK minimizedAffinity 4.32728052
REMARK minimizedRMSD -1
REMARK  0 active torsions:
REMARK  status: ('A' for Active; 'I' for Inactive)
ROOT
ATOM      1  C2' OXE d   1      -3.020   6.000   2.136  0.00  0.00     0.078 C 
ATOM      2  C1' OXE d   1      -5.614   4.931   2.223  0.00  0.00     0.078 C 
ATOM      3  C1  OXE d   1      -4.920   5.202   3.534  0.00  0.00    -0.078 A 
ATOM      4  C2  OXE d   1      -3.634   5.681   3.482  0.00  0.00    -0.078 A 
ATOM      5  C3  OXE d   1      -2.968   6.000   4.662  0.00  0.00     0.003 A 
ATOM      6  C4  OXE d   1      -3.539   5.693   5.903  0.00  0.00    -0.002 A 
ATOM      7  C5  OXE d   1      -4.833   5.168   5.978  0.00  0.00    -0.002 A 
ATOM      8  C6  OXE d   1      -5.553   4.957   4.807  0.00  0.00     0.003 A 
ENDROOT
TORSDOF 0
ENDMDL
