MODEL 1
REMARK minimizedAffinity 0.83098489
REMARK minimizedRMSD -1
REMARK  0 active torsions:
REMARK  status: ('A' for Active; 'I' for Inactive)
ROOT
ATOM      1  C2' OXE d   1       1.826   1.340  -3.877  0.00  0.00     0.078 C 
ATOM      2  C1' OXE d   1       1.671  -0.218  -1.548  0.00  0.00     0.078 C 
ATOM      3  C1  OXE d   1       1.734   1.280  -1.389  0.00  0.00    -0.078 A 
ATOM      4  C2  OXE d   1       1.857   2.032  -2.532  0.00  0.00    -0.078 A 
ATOM      5  C3  OXE d   1       1.864   3.422  -2.446  0.00  0.00     0.003 A 
ATOM      6  C4  OXE d   1       1.903   4.054  -1.197  0.00  0.00    -0.002 A 
ATOM      7  C5  OXE d   1       1.818   3.304  -0.019  0.00  0.00    -0.002 A 
ATOM      8  C6  OXE d   1       1.691   1.922  -0.098  0.00  0.00     0.003 A 
ENDROOT
TORSDOF 0
ENDMDL
