MODEL 1
REMARK minimizedAffinity 2.36574578
REMARK minimizedRMSD -1
REMARK  0 active torsions:
REMARK  status: ('A' for Active; 'I' for Inactive)
ROOT
ATOM      1  C2' OXE d   1       3.192  -5.050   5.975  0.00  0.00     0.078 C 
ATOM      2  C1' OXE d   1       5.999  -5.028   6.000  0.00  0.00     0.078 C 
ATOM      3  C1  OXE d   1       5.289  -3.760   5.596  0.00  0.00    -0.078 A 
ATOM      4  C2  OXE d   1       3.916  -3.794   5.541  0.00  0.00    -0.078 A 
ATOM      5  C3  OXE d   1       3.210  -2.636   5.228  0.00  0.00     0.003 A 
ATOM      6  C4  OXE d   1       3.888  -1.481   4.818  0.00  0.00    -0.002 A 
ATOM      7  C5  OXE d   1       5.286  -1.438   4.828  0.00  0.00    -0.002 A 
ATOM      8  C6  OXE d   1       6.000  -2.553   5.255  0.00  0.00     0.003 A 
ENDROOT
TORSDOF 0
ENDMDL
