MODEL 1
REMARK minimizedAffinity -2.37269068
REMARK minimizedRMSD -1
REMARK  0 active torsions:
REMARK  status: ('A' for Active; 'I' for Inactive)
ROOT
ATOM      1  C2' OXE d   1      -2.867   5.980   1.928  0.00  0.00     0.078 C 
ATOM      2  C1' OXE d   1      -5.637   5.960   2.380  0.00  0.00     0.078 C 
ATOM      3  C1  OXE d   1      -4.728   5.972   3.583  0.00  0.00    -0.078 A 
ATOM      4  C2  OXE d   1      -3.374   5.934   3.353  0.00  0.00    -0.078 A 
ATOM      5  C3  OXE d   1      -2.491   5.999   4.427  0.00  0.00     0.003 A 
ATOM      6  C4  OXE d   1      -2.968   5.946   5.742  0.00  0.00    -0.002 A 
ATOM      7  C5  OXE d   1      -4.343   5.943   5.999  0.00  0.00    -0.002 A 
ATOM      8  C6  OXE d   1      -5.235   5.999   4.933  0.00  0.00     0.003 A 
ENDROOT
TORSDOF 0
ENDMDL
