MODEL 1
REMARK minimizedAffinity 2.63752365
REMARK minimizedRMSD -1
REMARK  0 active torsions:
REMARK  status: ('A' for Active; 'I' for Inactive)
ROOT
ATOM      1  C2' OXE d   1       4.704  -5.998   5.652  0.00  0.00     0.078 C 
ATOM      2  C1' OXE d   1       2.443  -4.560   4.816  0.00  0.00     0.078 C 
ATOM      3  C1  OXE d   1       3.681  -3.777   5.177  0.00  0.00    -0.078 A 
ATOM      4  C2  OXE d   1       4.767  -4.486   5.629  0.00  0.00    -0.078 A 
ATOM      5  C3  OXE d   1       5.953  -3.818   5.923  0.00  0.00     0.003 A 
ATOM      6  C4  OXE d   1       6.000  -2.418   5.910  0.00  0.00    -0.002 A 
ATOM      7  C5  OXE d   1       4.891  -1.675   5.490  0.00  0.00    -0.002 A 
ATOM      8  C6  OXE d   1       3.741  -2.339   5.081  0.00  0.00     0.003 A 
ENDROOT
TORSDOF 0
ENDMDL
