MODEL 1
REMARK minimizedAffinity 0.872104406
REMARK minimizedRMSD -1
REMARK  0 active torsions:
REMARK  status: ('A' for Active; 'I' for Inactive)
ROOT
ATOM      1  C2' OXE d   1       2.598   4.662  -3.548  0.00  0.00     0.078 C 
ATOM      2  C1' OXE d   1       1.528   3.811  -6.000  0.00  0.00     0.078 C 
ATOM      3  C1  OXE d   1       1.461   2.857  -4.834  0.00  0.00    -0.078 A 
ATOM      4  C2  OXE d   1       2.029   3.264  -3.650  0.00  0.00    -0.078 A 
ATOM      5  C3  OXE d   1       1.945   2.445  -2.528  0.00  0.00     0.003 A 
ATOM      6  C4  OXE d   1       1.426   1.149  -2.633  0.00  0.00    -0.002 A 
ATOM      7  C5  OXE d   1       0.879   0.699  -3.840  0.00  0.00    -0.002 A 
ATOM      8  C6  OXE d   1       0.850   1.555  -4.936  0.00  0.00     0.003 A 
ENDROOT
TORSDOF 0
ENDMDL
