MODEL 1
REMARK minimizedAffinity 3.45050621
REMARK minimizedRMSD -1
REMARK  0 active torsions:
REMARK  status: ('A' for Active; 'I' for Inactive)
ROOT
ATOM      1  C2' OXE d   1      -2.808   5.869   1.854  0.00  0.00     0.078 C 
ATOM      2  C1' OXE d   1      -5.591   5.846   2.224  0.00  0.00     0.078 C 
ATOM      3  C1  OXE d   1      -4.719   5.918   3.452  0.00  0.00    -0.078 A 
ATOM      4  C2  OXE d   1      -3.358   5.881   3.264  0.00  0.00    -0.078 A 
ATOM      5  C3  OXE d   1      -2.507   5.999   4.360  0.00  0.00     0.003 A 
ATOM      6  C4  OXE d   1      -3.023   6.000   5.661  0.00  0.00    -0.002 A 
ATOM      7  C5  OXE d   1      -4.406   5.997   5.877  0.00  0.00    -0.002 A 
ATOM      8  C6  OXE d   1      -5.266   6.000   4.784  0.00  0.00     0.003 A 
ENDROOT
TORSDOF 0
ENDMDL
