MODEL 1
REMARK minimizedAffinity 16.2897282
REMARK minimizedRMSD -1
REMARK  0 active torsions:
REMARK  status: ('A' for Active; 'I' for Inactive)
ROOT
ATOM      1  C   UNL d   1      -0.072  -0.918  -2.597  0.00  0.00     0.124 A 
ATOM      2  C1  UNL d   1      -0.658  -1.963  -1.896  0.00  0.00     0.062 A 
ATOM      3  C2  UNL d   1      -1.147  -3.075  -2.576  0.00  0.00     0.162 A 
ATOM      4  C3  UNL d   1      -1.051  -3.148  -3.966  0.00  0.00    -0.034 A 
ATOM      5  C4  UNL d   1      -0.461  -2.093  -4.664  0.00  0.00     0.162 A 
ATOM      6  C5  UNL d   1       0.027  -0.984  -3.979  0.00  0.00     0.062 A 
ATOM      7  F   UNL d   1       0.593   0.024  -4.658  0.00  0.00    -0.097 F 
ATOM      8  F1  UNL d   1      -0.352  -2.131  -6.000  0.00  0.00    -0.096 F 
ATOM      9  I   UNL d   1      -1.781  -4.808  -4.986  0.00  0.00    -0.060 I 
ATOM     10  F2  UNL d   1      -1.709  -4.070  -1.873  0.00  0.00    -0.096 F 
ATOM     11  F3  UNL d   1      -0.755  -1.902  -0.560  0.00  0.00    -0.097 F 
ATOM     12  F4  UNL d   1       0.397   0.150  -1.940  0.00  0.00    -0.092 F 
ENDROOT
TORSDOF 0
ENDMDL
