MODEL 1
REMARK minimizedAffinity 17.0813217
REMARK minimizedRMSD -1
REMARK  0 active torsions:
REMARK  status: ('A' for Active; 'I' for Inactive)
ROOT
ATOM      1  C   UNL d   1      -0.569  -0.992  -2.972  0.00  0.00     0.124 A 
ATOM      2  C1  UNL d   1      -0.341  -1.347  -4.294  0.00  0.00     0.062 A 
ATOM      3  C2  UNL d   1      -0.545  -2.660  -4.712  0.00  0.00     0.162 A 
ATOM      4  C3  UNL d   1      -0.979  -3.627  -3.805  0.00  0.00    -0.034 A 
ATOM      5  C4  UNL d   1      -1.205  -3.262  -2.477  0.00  0.00     0.162 A 
ATOM      6  C5  UNL d   1      -1.000  -1.949  -2.065  0.00  0.00     0.062 A 
ATOM      7  F   UNL d   1      -1.221  -1.608  -0.787  0.00  0.00    -0.097 F 
ATOM      8  F1  UNL d   1      -1.623  -4.167  -1.579  0.00  0.00    -0.096 F 
ATOM      9  I   UNL d   1      -1.284  -5.590  -4.425  0.00  0.00    -0.060 I 
ATOM     10  F2  UNL d   1      -0.317  -2.975  -5.995  0.00  0.00    -0.096 F 
ATOM     11  F3  UNL d   1       0.077  -0.424  -5.173  0.00  0.00    -0.097 F 
ATOM     12  F4  UNL d   1      -0.371   0.271  -2.573  0.00  0.00    -0.092 F 
ENDROOT
TORSDOF 0
ENDMDL
