MODEL 1
REMARK minimizedAffinity 15.5957737
REMARK minimizedRMSD -1
REMARK  0 active torsions:
REMARK  status: ('A' for Active; 'I' for Inactive)
ROOT
ATOM      1  C   UNL d   1      -1.825  -1.266   1.156  0.00  0.00     0.124 A 
ATOM      2  C1  UNL d   1      -1.914  -0.378   2.219  0.00  0.00     0.062 A 
ATOM      3  C2  UNL d   1      -0.763   0.032   2.886  0.00  0.00     0.162 A 
ATOM      4  C3  UNL d   1       0.487  -0.446   2.492  0.00  0.00    -0.034 A 
ATOM      5  C4  UNL d   1       0.568  -1.340   1.423  0.00  0.00     0.162 A 
ATOM      6  C5  UNL d   1      -0.585  -1.747   0.760  0.00  0.00     0.062 A 
ATOM      7  F   UNL d   1      -0.498  -2.606  -0.267  0.00  0.00    -0.097 F 
ATOM      8  F1  UNL d   1       1.753  -1.820   1.019  0.00  0.00    -0.096 F 
ATOM      9  I   UNL d   1       2.210   0.164   3.487  0.00  0.00    -0.060 I 
ATOM     10  F2  UNL d   1      -0.878   0.892   3.909  0.00  0.00    -0.096 F 
ATOM     11  F3  UNL d   1      -3.111   0.087   2.605  0.00  0.00    -0.097 F 
ATOM     12  F4  UNL d   1      -2.934  -1.660   0.517  0.00  0.00    -0.092 F 
ENDROOT
TORSDOF 0
ENDMDL
