MODEL 1
REMARK minimizedAffinity 23.8346825
REMARK minimizedRMSD -1
REMARK  0 active torsions:
REMARK  status: ('A' for Active; 'I' for Inactive)
ROOT
ATOM      1  C   UNL d   1       2.416  -1.149  -4.287  0.00  0.00     0.124 A 
ATOM      2  C1  UNL d   1       3.583  -1.685  -4.811  0.00  0.00     0.062 A 
ATOM      3  C2  UNL d   1       4.584  -0.846  -5.292  0.00  0.00     0.162 A 
ATOM      4  C3  UNL d   1       4.423   0.539  -5.250  0.00  0.00    -0.034 A 
ATOM      5  C4  UNL d   1       3.245   1.071  -4.722  0.00  0.00     0.162 A 
ATOM      6  C5  UNL d   1       2.248   0.228  -4.242  0.00  0.00     0.062 A 
ATOM      7  F   UNL d   1       1.120   0.748  -3.736  0.00  0.00    -0.097 F 
ATOM      8  F1  UNL d   1       3.057   2.398  -4.666  0.00  0.00    -0.096 F 
ATOM      9  I   UNL d   1       5.917   1.796  -5.969  0.00  0.00    -0.060 I 
ATOM     10  F2  UNL d   1       5.702  -1.392  -5.794  0.00  0.00    -0.096 F 
ATOM     11  F3  UNL d   1       3.748  -3.015  -4.856  0.00  0.00    -0.097 F 
ATOM     12  F4  UNL d   1       1.454  -1.958  -3.825  0.00  0.00    -0.092 F 
ENDROOT
TORSDOF 0
ENDMDL
