MODEL 1
REMARK minimizedAffinity 26.6803646
REMARK minimizedRMSD -1
REMARK  0 active torsions:
REMARK  status: ('A' for Active; 'I' for Inactive)
ROOT
ATOM      1  C   UNL d   1       2.155  -1.415  -4.667  0.00  0.00     0.124 A 
ATOM      2  C1  UNL d   1       0.919  -0.821  -4.456  0.00  0.00     0.062 A 
ATOM      3  C2  UNL d   1      -0.251  -1.525  -4.724  0.00  0.00     0.162 A 
ATOM      4  C3  UNL d   1      -0.191  -2.833  -5.205  0.00  0.00    -0.034 A 
ATOM      5  C4  UNL d   1       1.056  -3.424  -5.417  0.00  0.00     0.162 A 
ATOM      6  C5  UNL d   1       2.223  -2.716  -5.148  0.00  0.00     0.062 A 
ATOM      7  F   UNL d   1       3.416  -3.291  -5.353  0.00  0.00    -0.097 F 
ATOM      8  F1  UNL d   1       1.150  -4.679  -5.879  0.00  0.00    -0.096 F 
ATOM      9  I   UNL d   1      -1.939  -3.890  -5.607  0.00  0.00    -0.060 I 
ATOM     10  F2  UNL d   1      -1.432  -0.926  -4.510  0.00  0.00    -0.096 F 
ATOM     11  F3  UNL d   1       0.851   0.436  -3.993  0.00  0.00    -0.097 F 
ATOM     12  F4  UNL d   1       3.280  -0.735  -4.410  0.00  0.00    -0.092 F 
ENDROOT
TORSDOF 0
ENDMDL
