MODEL 1
REMARK minimizedAffinity 14.9691305
REMARK minimizedRMSD -1
REMARK  0 active torsions:
REMARK  status: ('A' for Active; 'I' for Inactive)
ROOT
ATOM      1  C   UNL d   1       2.490  -0.924   4.172  0.00  0.00     0.124 A 
ATOM      2  C1  UNL d   1       1.662  -2.027   4.325  0.00  0.00     0.062 A 
ATOM      3  C2  UNL d   1       0.412  -2.055   3.715  0.00  0.00     0.162 A 
ATOM      4  C3  UNL d   1      -0.019  -0.975   2.943  0.00  0.00    -0.034 A 
ATOM      5  C4  UNL d   1       0.819   0.132   2.794  0.00  0.00     0.162 A 
ATOM      6  C5  UNL d   1       2.068   0.154   3.407  0.00  0.00     0.062 A 
ATOM      7  F   UNL d   1       2.866   1.221   3.257  0.00  0.00    -0.097 F 
ATOM      8  F1  UNL d   1       0.436   1.187   2.059  0.00  0.00    -0.096 F 
ATOM      9  I   UNL d   1      -1.888  -1.013   2.028  0.00  0.00    -0.060 I 
ATOM     10  F2  UNL d   1      -0.367  -3.134   3.880  0.00  0.00    -0.096 F 
ATOM     11  F3  UNL d   1       2.067  -3.070   5.065  0.00  0.00    -0.097 F 
ATOM     12  F4  UNL d   1       3.692  -0.899   4.761  0.00  0.00    -0.092 F 
ENDROOT
TORSDOF 0
ENDMDL
