MODEL 1
REMARK minimizedAffinity 22.9175205
REMARK minimizedRMSD -1
REMARK  0 active torsions:
REMARK  status: ('A' for Active; 'I' for Inactive)
ROOT
ATOM      1  C   UNL d   1       2.455  -1.528  -4.740  0.00  0.00     0.124 A 
ATOM      2  C1  UNL d   1       1.223  -0.923  -4.533  0.00  0.00     0.062 A 
ATOM      3  C2  UNL d   1       0.048  -1.613  -4.816  0.00  0.00     0.162 A 
ATOM      4  C3  UNL d   1       0.099  -2.917  -5.308  0.00  0.00    -0.034 A 
ATOM      5  C4  UNL d   1       1.342  -3.519  -5.515  0.00  0.00     0.162 A 
ATOM      6  C5  UNL d   1       2.513  -2.825  -5.230  0.00  0.00     0.062 A 
ATOM      7  F   UNL d   1       3.702  -3.411  -5.431  0.00  0.00    -0.097 F 
ATOM      8  F1  UNL d   1       1.427  -4.772  -5.987  0.00  0.00    -0.096 F 
ATOM      9  I   UNL d   1      -1.656  -3.953  -5.732  0.00  0.00    -0.060 I 
ATOM     10  F2  UNL d   1      -1.129  -1.004  -4.607  0.00  0.00    -0.096 F 
ATOM     11  F3  UNL d   1       1.164   0.330  -4.060  0.00  0.00    -0.097 F 
ATOM     12  F4  UNL d   1       3.584  -0.861  -4.468  0.00  0.00    -0.092 F 
ENDROOT
TORSDOF 0
ENDMDL
