MODEL 1
REMARK minimizedAffinity 1.58212614
REMARK minimizedRMSD -1
REMARK  0 active torsions:
REMARK  status: ('A' for Active; 'I' for Inactive)
ROOT
ATOM      1  C1  DEN d   1       3.168  -0.072   1.976  0.00  0.00     0.130 A 
ATOM      2  C2  DEN d   1       4.192  -0.727   1.166  0.00  0.00    -0.031 A 
ATOM      3  C3  DEN d   1       3.512  -1.599   0.187  0.00  0.00     0.027 A 
ATOM      4  C4  DEN d   1       0.986  -1.992  -0.156  0.00  0.00     0.027 A 
ATOM      5  C5  DEN d   1      -0.272  -1.666   0.299  0.00  0.00    -0.003 A 
ATOM      6  C6  DEN d   1      -0.470  -0.820   1.357  0.00  0.00     0.001 A 
ATOM      7  C7  DEN d   1       0.607  -0.235   1.969  0.00  0.00     0.017 A 
ATOM      8  C8  DEN d   1       1.880  -0.564   1.520  0.00  0.00    -0.094 A 
ATOM      9  C9  DEN d   1       2.058  -1.412   0.440  0.00  0.00    -0.072 A 
ENDROOT
TORSDOF 0
ENDMDL
