MODEL 1
REMARK minimizedAffinity 1.27731979
REMARK minimizedRMSD -1
REMARK  0 active torsions:
REMARK  status: ('A' for Active; 'I' for Inactive)
ROOT
ATOM      1  C1  DEN d   1       2.507  -2.656  -0.247  0.00  0.00     0.130 A 
ATOM      2  C2  DEN d   1       1.758  -3.750  -0.860  0.00  0.00    -0.031 A 
ATOM      3  C3  DEN d   1       0.319  -3.487  -0.658  0.00  0.00     0.027 A 
ATOM      4  C4  DEN d   1      -0.816  -1.502   0.534  0.00  0.00     0.027 A 
ATOM      5  C5  DEN d   1      -0.594  -0.330   1.223  0.00  0.00    -0.003 A 
ATOM      6  C6  DEN d   1       0.668   0.128   1.497  0.00  0.00     0.001 A 
ATOM      7  C7  DEN d   1       1.756  -0.568   1.041  0.00  0.00     0.017 A 
ATOM      8  C8  DEN d   1       1.540  -1.754   0.352  0.00  0.00    -0.094 A 
ATOM      9  C9  DEN d   1       0.257  -2.194   0.074  0.00  0.00    -0.072 A 
ENDROOT
TORSDOF 0
ENDMDL
