MODEL 1
REMARK minimizedAffinity 3.59271669
REMARK minimizedRMSD -1
REMARK  0 active torsions:
REMARK  status: ('A' for Active; 'I' for Inactive)
ROOT
ATOM      1  C1  DEN d   1       5.237   3.333  -1.126  0.00  0.00     0.130 A 
ATOM      2  C2  DEN d   1       4.065   2.472  -1.260  0.00  0.00    -0.031 A 
ATOM      3  C3  DEN d   1       3.074   2.888  -0.248  0.00  0.00     0.027 A 
ATOM      4  C4  DEN d   1       3.237   4.776   1.502  0.00  0.00     0.027 A 
ATOM      5  C5  DEN d   1       4.044   5.771   2.008  0.00  0.00    -0.003 A 
ATOM      6  C6  DEN d   1       5.307   6.000   1.531  0.00  0.00     0.001 A 
ATOM      7  C7  DEN d   1       5.784   5.252   0.488  0.00  0.00     0.017 A 
ATOM      8  C8  DEN d   1       4.980   4.241  -0.023  0.00  0.00    -0.094 A 
ATOM      9  C9  DEN d   1       3.701   4.034   0.465  0.00  0.00    -0.072 A 
ENDROOT
TORSDOF 0
ENDMDL
