MODEL 1
REMARK minimizedAffinity 6.35724545
REMARK minimizedRMSD -1
REMARK  0 active torsions:
REMARK  status: ('A' for Active; 'I' for Inactive)
ROOT
ATOM      1  C1  DEN d   1       0.719  -4.439   0.559  0.00  0.00     0.130 A 
ATOM      2  C2  DEN d   1       2.060  -4.807   0.113  0.00  0.00    -0.031 A 
ATOM      3  C3  DEN d   1       2.832  -3.564  -0.083  0.00  0.00     0.027 A 
ATOM      4  C4  DEN d   1       2.088  -1.119   0.265  0.00  0.00     0.027 A 
ATOM      5  C5  DEN d   1       1.036  -0.306   0.626  0.00  0.00    -0.003 A 
ATOM      6  C6  DEN d   1      -0.195  -0.809   0.955  0.00  0.00     0.001 A 
ATOM      7  C7  DEN d   1      -0.392  -2.164   0.973  0.00  0.00     0.017 A 
ATOM      8  C8  DEN d   1       0.661  -2.989   0.603  0.00  0.00    -0.094 A 
ATOM      9  C9  DEN d   1       1.902  -2.463   0.285  0.00  0.00    -0.072 A 
ENDROOT
TORSDOF 0
ENDMDL
