MODEL 1
REMARK minimizedAffinity 0.554660797
REMARK minimizedRMSD -1
REMARK  0 active torsions:
REMARK  status: ('A' for Active; 'I' for Inactive)
ROOT
ATOM      1  C1  DEN d   1       1.343  -0.506   1.331  0.00  0.00     0.130 A 
ATOM      2  C2  DEN d   1      -0.068  -0.221   1.086  0.00  0.00    -0.031 A 
ATOM      3  C3  DEN d   1      -0.646  -1.368   0.357  0.00  0.00     0.027 A 
ATOM      4  C4  DEN d   1       0.500  -3.547  -0.409  0.00  0.00     0.027 A 
ATOM      5  C5  DEN d   1       1.691  -4.238  -0.440  0.00  0.00    -0.003 A 
ATOM      6  C6  DEN d   1       2.848  -3.724   0.083  0.00  0.00     0.001 A 
ATOM      7  C7  DEN d   1       2.829  -2.501   0.700  0.00  0.00     0.017 A 
ATOM      8  C8  DEN d   1       1.633  -1.795   0.728  0.00  0.00    -0.094 A 
ATOM      9  C9  DEN d   1       0.472  -2.337   0.205  0.00  0.00    -0.072 A 
ENDROOT
TORSDOF 0
ENDMDL
