MODEL 1
REMARK minimizedAffinity -5.70674896
REMARK minimizedRMSD -1
REMARK  0 active torsions:
REMARK  status: ('A' for Active; 'I' for Inactive)
ROOT
ATOM      1  C1  DEN d   1      -3.046  -0.110   0.351  0.00  0.00     0.130 A 
ATOM      2  C2  DEN d   1      -2.851   1.126   1.104  0.00  0.00    -0.031 A 
ATOM      3  C3  DEN d   1      -1.514   1.073   1.730  0.00  0.00     0.027 A 
ATOM      4  C4  DEN d   1       0.264  -0.791   1.602  0.00  0.00     0.027 A 
ATOM      5  C5  DEN d   1       0.548  -2.038   1.091  0.00  0.00    -0.003 A 
ATOM      6  C6  DEN d   1      -0.352  -2.739   0.332  0.00  0.00     0.001 A 
ATOM      7  C7  DEN d   1      -1.563  -2.177   0.024  0.00  0.00     0.017 A 
ATOM      8  C8  DEN d   1      -1.859  -0.923   0.542  0.00  0.00    -0.094 A 
ATOM      9  C9  DEN d   1      -0.932  -0.226   1.297  0.00  0.00    -0.072 A 
ENDROOT
TORSDOF 0
ENDMDL
