MODEL 1
REMARK minimizedAffinity -3.51641321
REMARK minimizedRMSD -1
REMARK  0 active torsions:
REMARK  status: ('A' for Active; 'I' for Inactive)
ROOT
ATOM      1  C1  DEN d   1       0.127  -3.551   0.412  0.00  0.00     0.130 A 
ATOM      2  C2  DEN d   1      -0.729  -2.488   0.933  0.00  0.00    -0.031 A 
ATOM      3  C3  DEN d   1       0.076  -1.253   1.014  0.00  0.00     0.027 A 
ATOM      4  C4  DEN d   1       2.549  -0.883   0.381  0.00  0.00     0.027 A 
ATOM      5  C5  DEN d   1       3.689  -1.492  -0.096  0.00  0.00    -0.003 A 
ATOM      6  C6  DEN d   1       3.731  -2.826  -0.402  0.00  0.00     0.001 A 
ATOM      7  C7  DEN d   1       2.598  -3.587  -0.278  0.00  0.00     0.017 A 
ATOM      8  C8  DEN d   1       1.447  -2.981   0.209  0.00  0.00    -0.094 A 
ATOM      9  C9  DEN d   1       1.422  -1.628   0.502  0.00  0.00    -0.072 A 
ENDROOT
TORSDOF 0
ENDMDL
