MODEL 1
REMARK minimizedAffinity -2.63547611
REMARK minimizedRMSD -1
REMARK  0 active torsions:
REMARK  status: ('A' for Active; 'I' for Inactive)
ROOT
ATOM      1  C1  DEN d   1       1.053  -0.065   1.176  0.00  0.00     0.130 A 
ATOM      2  C2  DEN d   1      -0.376  -0.186   1.450  0.00  0.00    -0.031 A 
ATOM      3  C3  DEN d   1      -0.800  -1.549   1.072  0.00  0.00     0.027 A 
ATOM      4  C4  DEN d   1       0.612  -3.475   0.099  0.00  0.00     0.027 A 
ATOM      5  C5  DEN d   1       1.872  -3.844  -0.319  0.00  0.00    -0.003 A 
ATOM      6  C6  DEN d   1       2.931  -2.976  -0.300  0.00  0.00     0.001 A 
ATOM      7  C7  DEN d   1       2.760  -1.707   0.189  0.00  0.00     0.017 A 
ATOM      8  C8  DEN d   1       1.491  -1.326   0.605  0.00  0.00    -0.094 A 
ATOM      9  C9  DEN d   1       0.436  -2.222   0.589  0.00  0.00    -0.072 A 
ENDROOT
TORSDOF 0
ENDMDL
