MODEL 1
REMARK minimizedAffinity -1.04042363
REMARK minimizedRMSD -1
REMARK  0 active torsions:
REMARK  status: ('A' for Active; 'I' for Inactive)
ROOT
ATOM      1  C1  DEN d   1       2.040  -3.093  -0.246  0.00  0.00     0.130 A 
ATOM      2  C2  DEN d   1       3.452  -2.834   0.022  0.00  0.00    -0.031 A 
ATOM      3  C3  DEN d   1       3.546  -1.589   0.810  0.00  0.00     0.027 A 
ATOM      4  C4  DEN d   1       1.653  -0.047   1.642  0.00  0.00     0.027 A 
ATOM      5  C5  DEN d   1       0.290   0.152   1.651  0.00  0.00    -0.003 A 
ATOM      6  C6  DEN d   1      -0.575  -0.691   1.006  0.00  0.00     0.001 A 
ATOM      7  C7  DEN d   1      -0.091  -1.798   0.361  0.00  0.00     0.017 A 
ATOM      8  C8  DEN d   1       1.283  -2.001   0.341  0.00  0.00    -0.094 A 
ATOM      9  C9  DEN d   1       2.141  -1.144   1.009  0.00  0.00    -0.072 A 
ENDROOT
TORSDOF 0
ENDMDL
