MODEL 1
REMARK minimizedAffinity 2.85896945
REMARK minimizedRMSD -1
REMARK  0 active torsions:
REMARK  status: ('A' for Active; 'I' for Inactive)
ROOT
ATOM      1  C1  DEN d   1       2.209  -3.015   1.139  0.00  0.00     0.130 A 
ATOM      2  C2  DEN d   1       1.549  -4.066   0.370  0.00  0.00    -0.031 A 
ATOM      3  C3  DEN d   1       0.189  -3.599   0.034  0.00  0.00     0.027 A 
ATOM      4  C4  DEN d   1      -0.951  -1.361   0.624  0.00  0.00     0.027 A 
ATOM      5  C5  DEN d   1      -0.791  -0.158   1.274  0.00  0.00    -0.003 A 
ATOM      6  C6  DEN d   1       0.358   0.162   1.948  0.00  0.00     0.001 A 
ATOM      7  C7  DEN d   1       1.410  -0.715   1.949  0.00  0.00     0.017 A 
ATOM      8  C8  DEN d   1       1.254  -1.934   1.302  0.00  0.00    -0.094 A 
ATOM      9  C9  DEN d   1       0.089  -2.233   0.616  0.00  0.00    -0.072 A 
ENDROOT
TORSDOF 0
ENDMDL
