MODEL 1
REMARK minimizedAffinity 7.68367672
REMARK minimizedRMSD -1
REMARK  0 active torsions:
REMARK  status: ('A' for Active; 'I' for Inactive)
ROOT
ATOM      1  C1  DEN d   1       3.060   4.475   1.240  0.00  0.00     0.130 A 
ATOM      2  C2  DEN d   1       3.662   5.542   2.035  0.00  0.00    -0.031 A 
ATOM      3  C3  DEN d   1       4.925   5.940   1.383  0.00  0.00     0.027 A 
ATOM      4  C4  DEN d   1       6.000   5.017  -0.772  0.00  0.00     0.027 A 
ATOM      5  C5  DEN d   1       5.865   4.098  -1.789  0.00  0.00    -0.003 A 
ATOM      6  C6  DEN d   1       4.812   3.224  -1.849  0.00  0.00     0.001 A 
ATOM      7  C7  DEN d   1       3.828   3.282  -0.898  0.00  0.00     0.017 A 
ATOM      8  C8  DEN d   1       3.961   4.201   0.135  0.00  0.00    -0.094 A 
ATOM      9  C9  DEN d   1       5.026   5.084   0.171  0.00  0.00    -0.072 A 
ENDROOT
TORSDOF 0
ENDMDL
