MODEL 1
REMARK minimizedAffinity 3.47929001
REMARK minimizedRMSD -1
REMARK  0 active torsions:
REMARK  status: ('A' for Active; 'I' for Inactive)
ROOT
ATOM      1  C1  DEN d   1       0.003   0.023   1.246  0.00  0.00     0.130 A 
ATOM      2  C2  DEN d   1      -1.390  -0.408   1.327  0.00  0.00    -0.031 A 
ATOM      3  C3  DEN d   1      -1.480  -1.770   0.765  0.00  0.00     0.027 A 
ATOM      4  C4  DEN d   1       0.393  -3.249  -0.213  0.00  0.00     0.027 A 
ATOM      5  C5  DEN d   1       1.737  -3.311  -0.506  0.00  0.00    -0.003 A 
ATOM      6  C6  DEN d   1       2.585  -2.261  -0.268  0.00  0.00     0.001 A 
ATOM      7  C7  DEN d   1       2.105  -1.121   0.320  0.00  0.00     0.017 A 
ATOM      8  C8  DEN d   1       0.749  -1.049   0.611  0.00  0.00    -0.094 A 
ATOM      9  C9  DEN d   1      -0.089  -2.125   0.375  0.00  0.00    -0.072 A 
ENDROOT
TORSDOF 0
ENDMDL
