MODEL 1
REMARK minimizedAffinity 3.60778642
REMARK minimizedRMSD -1
REMARK  0 active torsions:
REMARK  status: ('A' for Active; 'I' for Inactive)
ROOT
ATOM      1  C1  DEN d   1       3.942  -2.558  -0.134  0.00  0.00     0.130 A 
ATOM      2  C2  DEN d   1       3.784  -3.989  -0.378  0.00  0.00    -0.031 A 
ATOM      3  C3  DEN d   1       2.353  -4.322  -0.232  0.00  0.00     0.027 A 
ATOM      4  C4  DEN d   1       0.376  -2.768   0.342  0.00  0.00     0.027 A 
ATOM      5  C5  DEN d   1       0.018  -1.473   0.647  0.00  0.00    -0.003 A 
ATOM      6  C6  DEN d   1       0.940  -0.464   0.746  0.00  0.00     0.001 A 
ATOM      7  C7  DEN d   1       2.261  -0.725   0.493  0.00  0.00     0.017 A 
ATOM      8  C8  DEN d   1       2.630  -2.029   0.192  0.00  0.00    -0.094 A 
ATOM      9  C9  DEN d   1       1.682  -3.032   0.085  0.00  0.00    -0.072 A 
ENDROOT
TORSDOF 0
ENDMDL
