MODEL 1
REMARK minimizedAffinity -4.75549126
REMARK minimizedRMSD -1
REMARK  0 active torsions:
REMARK  status: ('A' for Active; 'I' for Inactive)
ROOT
ATOM      1  C   UNL d   1       2.502   0.130  -2.393  0.00  0.00     0.124 A 
ATOM      2  C1  UNL d   1       1.931  -0.872  -1.620  0.00  0.00     0.062 A 
ATOM      3  C2  UNL d   1       0.748  -0.633  -0.928  0.00  0.00     0.162 A 
ATOM      4  C3  UNL d   1       0.126   0.613  -1.006  0.00  0.00    -0.034 A 
ATOM      5  C4  UNL d   1       0.707   1.616  -1.785  0.00  0.00     0.162 A 
ATOM      6  C5  UNL d   1       1.890   1.372  -2.475  0.00  0.00     0.062 A 
ATOM      7  F   UNL d   1       2.440   2.341  -3.221  0.00  0.00    -0.097 F 
ATOM      8  F1  UNL d   1       0.135   2.826  -1.882  0.00  0.00    -0.096 F 
ATOM      9  I   UNL d   1      -1.644   0.975   0.027  0.00  0.00    -0.060 I 
ATOM     10  F2  UNL d   1       0.218  -1.619  -0.189  0.00  0.00    -0.096 F 
ATOM     11  F3  UNL d   1       2.521  -2.073  -1.539  0.00  0.00    -0.097 F 
ATOM     12  F4  UNL d   1       3.642  -0.103  -3.058  0.00  0.00    -0.092 F 
ENDROOT
TORSDOF 0
ENDMDL
