MODEL 1
REMARK minimizedAffinity -2.60203004
REMARK minimizedRMSD -1
REMARK  0 active torsions:
REMARK  status: ('A' for Active; 'I' for Inactive)
ROOT
ATOM      1  C   UNL d   1       2.378  -0.407  -2.209  0.00  0.00     0.124 A 
ATOM      2  C1  UNL d   1       1.793  -1.394  -1.427  0.00  0.00     0.062 A 
ATOM      3  C2  UNL d   1       0.907  -1.048  -0.411  0.00  0.00     0.162 A 
ATOM      4  C3  UNL d   1       0.599   0.291  -0.171  0.00  0.00    -0.034 A 
ATOM      5  C4  UNL d   1       1.191   1.278  -0.961  0.00  0.00     0.162 A 
ATOM      6  C5  UNL d   1       2.076   0.927  -1.976  0.00  0.00     0.062 A 
ATOM      7  F   UNL d   1       2.639   1.882  -2.730  0.00  0.00    -0.097 F 
ATOM      8  F1  UNL d   1       0.917   2.575  -0.758  0.00  0.00    -0.096 F 
ATOM      9  I   UNL d   1      -0.726   0.811   1.347  0.00  0.00    -0.060 I 
ATOM     10  F2  UNL d   1       0.358  -2.023   0.329  0.00  0.00    -0.096 F 
ATOM     11  F3  UNL d   1       2.084  -2.684  -1.650  0.00  0.00    -0.097 F 
ATOM     12  F4  UNL d   1       3.231  -0.742  -3.186  0.00  0.00    -0.092 F 
ENDROOT
TORSDOF 0
ENDMDL
