MODEL 1
REMARK minimizedAffinity -1.22930658
REMARK minimizedRMSD -1
REMARK  0 active torsions:
REMARK  status: ('A' for Active; 'I' for Inactive)
ROOT
ATOM      1  C   UNL d   1       2.023   0.319  -2.418  0.00  0.00     0.124 A 
ATOM      2  C1  UNL d   1       1.206   1.441  -2.430  0.00  0.00     0.062 A 
ATOM      3  C2  UNL d   1       0.200   1.586  -1.479  0.00  0.00     0.162 A 
ATOM      4  C3  UNL d   1       0.006   0.605  -0.506  0.00  0.00    -0.034 A 
ATOM      5  C4  UNL d   1       0.830  -0.521  -0.501  0.00  0.00     0.162 A 
ATOM      6  C5  UNL d   1       1.834  -0.661  -1.453  0.00  0.00     0.062 A 
ATOM      7  F   UNL d   1       2.622  -1.746  -1.440  0.00  0.00    -0.097 F 
ATOM      8  F1  UNL d   1       0.671  -1.483   0.421  0.00  0.00    -0.096 F 
ATOM      9  I   UNL d   1      -1.497   0.817   0.918  0.00  0.00    -0.060 I 
ATOM     10  F2  UNL d   1      -0.573   2.681  -1.515  0.00  0.00    -0.096 F 
ATOM     11  F3  UNL d   1       1.386   2.389  -3.361  0.00  0.00    -0.097 F 
ATOM     12  F4  UNL d   1       2.989   0.182  -3.335  0.00  0.00    -0.092 F 
ENDROOT
TORSDOF 0
ENDMDL
