MODEL 1
REMARK minimizedAffinity -2.95749998
REMARK minimizedRMSD -1
REMARK  0 active torsions:
REMARK  status: ('A' for Active; 'I' for Inactive)
ROOT
ATOM      1  C   UNL d   1       2.307   0.005  -1.923  0.00  0.00     0.124 A 
ATOM      2  C1  UNL d   1       1.869  -1.106  -1.215  0.00  0.00     0.062 A 
ATOM      3  C2  UNL d   1       0.712  -1.034  -0.445  0.00  0.00     0.162 A 
ATOM      4  C3  UNL d   1      -0.017   0.154  -0.379  0.00  0.00    -0.034 A 
ATOM      5  C4  UNL d   1       0.430   1.267  -1.093  0.00  0.00     0.162 A 
ATOM      6  C5  UNL d   1       1.587   1.190  -1.861  0.00  0.00     0.062 A 
ATOM      7  F   UNL d   1       2.008   2.265  -2.544  0.00  0.00    -0.097 F 
ATOM      8  F1  UNL d   1      -0.247   2.424  -1.052  0.00  0.00    -0.096 F 
ATOM      9  I   UNL d   1      -1.748   0.265   0.771  0.00  0.00    -0.060 I 
ATOM     10  F2  UNL d   1       0.312  -2.123   0.228  0.00  0.00    -0.096 F 
ATOM     11  F3  UNL d   1       2.563  -2.252  -1.273  0.00  0.00    -0.097 F 
ATOM     12  F4  UNL d   1       3.421  -0.066  -2.662  0.00  0.00    -0.092 F 
ENDROOT
TORSDOF 0
ENDMDL
