MODEL 1
REMARK minimizedAffinity -2.28315115
REMARK minimizedRMSD -1
REMARK  0 active torsions:
REMARK  status: ('A' for Active; 'I' for Inactive)
ROOT
ATOM      1  C   UNL d   1      -2.038   1.007   1.060  0.00  0.00     0.124 A 
ATOM      2  C1  UNL d   1      -1.647   1.398  -0.213  0.00  0.00     0.062 A 
ATOM      3  C2  UNL d   1      -0.425   0.978  -0.730  0.00  0.00     0.162 A 
ATOM      4  C3  UNL d   1       0.415   0.160   0.026  0.00  0.00    -0.034 A 
ATOM      5  C4  UNL d   1       0.015  -0.229   1.306  0.00  0.00     0.162 A 
ATOM      6  C5  UNL d   1      -1.207   0.194   1.818  0.00  0.00     0.062 A 
ATOM      7  F   UNL d   1      -1.583  -0.185   3.048  0.00  0.00    -0.097 F 
ATOM      8  F1  UNL d   1       0.799  -1.014   2.059  0.00  0.00    -0.096 F 
ATOM      9  I   UNL d   1       2.243  -0.471  -0.744  0.00  0.00    -0.060 I 
ATOM     10  F2  UNL d   1      -0.072   1.371  -1.963  0.00  0.00    -0.096 F 
ATOM     11  F3  UNL d   1      -2.448   2.184  -0.947  0.00  0.00    -0.097 F 
ATOM     12  F4  UNL d   1      -3.214   1.414   1.555  0.00  0.00    -0.092 F 
ENDROOT
TORSDOF 0
ENDMDL
