MODEL 1
REMARK minimizedAffinity -5.97048664
REMARK minimizedRMSD -1
REMARK  0 active torsions:
REMARK  status: ('A' for Active; 'I' for Inactive)
ROOT
ATOM      1  C   UNL d   1       2.197   0.241  -2.067  0.00  0.00     0.124 A 
ATOM      2  C1  UNL d   1       1.338   1.328  -2.153  0.00  0.00     0.062 A 
ATOM      3  C2  UNL d   1       0.282   1.459  -1.256  0.00  0.00     0.162 A 
ATOM      4  C3  UNL d   1       0.079   0.499  -0.264  0.00  0.00    -0.034 A 
ATOM      5  C4  UNL d   1       0.946  -0.592  -0.185  0.00  0.00     0.162 A 
ATOM      6  C5  UNL d   1       2.000  -0.718  -1.084  0.00  0.00     0.062 A 
ATOM      7  F   UNL d   1       2.829  -1.769  -0.999  0.00  0.00    -0.097 F 
ATOM      8  F1  UNL d   1       0.779  -1.533   0.756  0.00  0.00    -0.096 F 
ATOM      9  I   UNL d   1      -1.499   0.690   1.079  0.00  0.00    -0.060 I 
ATOM     10  F2  UNL d   1      -0.532   2.520  -1.362  0.00  0.00    -0.096 F 
ATOM     11  F3  UNL d   1       1.526   2.256  -3.103  0.00  0.00    -0.097 F 
ATOM     12  F4  UNL d   1       3.212   0.118  -2.932  0.00  0.00    -0.092 F 
ENDROOT
TORSDOF 0
ENDMDL
