MODEL 1
REMARK minimizedAffinity -3.4027524
REMARK minimizedRMSD -1
REMARK  0 active torsions:
REMARK  status: ('A' for Active; 'I' for Inactive)
ROOT
ATOM      1  C   UNL d   1       2.170   0.717  -1.934  0.00  0.00     0.124 A 
ATOM      2  C1  UNL d   1       2.368   0.023  -0.749  0.00  0.00     0.062 A 
ATOM      3  C2  UNL d   1       1.348  -0.055   0.196  0.00  0.00     0.162 A 
ATOM      4  C3  UNL d   1       0.120   0.563  -0.042  0.00  0.00    -0.034 A 
ATOM      5  C4  UNL d   1      -0.071   1.260  -1.236  0.00  0.00     0.162 A 
ATOM      6  C5  UNL d   1       0.951   1.334  -2.177  0.00  0.00     0.062 A 
ATOM      7  F   UNL d   1       0.758   2.005  -3.322  0.00  0.00    -0.097 F 
ATOM      8  F1  UNL d   1      -1.239   1.865  -1.497  0.00  0.00    -0.096 F 
ATOM      9  I   UNL d   1      -1.406   0.449   1.368  0.00  0.00    -0.060 I 
ATOM     10  F2  UNL d   1       1.568  -0.732   1.333  0.00  0.00    -0.096 F 
ATOM     11  F3  UNL d   1       3.545  -0.574  -0.512  0.00  0.00    -0.097 F 
ATOM     12  F4  UNL d   1       3.153   0.791  -2.841  0.00  0.00    -0.092 F 
ENDROOT
TORSDOF 0
ENDMDL
