MODEL 1
REMARK minimizedAffinity -0.157234848
REMARK minimizedRMSD -1
REMARK  0 active torsions:
REMARK  status: ('A' for Active; 'I' for Inactive)
ROOT
ATOM      1  C   UNL d   1       0.423  -1.676   0.214  0.00  0.00     0.124 A 
ATOM      2  C1  UNL d   1      -0.513  -0.653   0.152  0.00  0.00     0.062 A 
ATOM      3  C2  UNL d   1      -0.306   0.437  -0.689  0.00  0.00     0.162 A 
ATOM      4  C3  UNL d   1       0.843   0.509  -1.477  0.00  0.00    -0.034 A 
ATOM      5  C4  UNL d   1       1.781  -0.523  -1.409  0.00  0.00     0.162 A 
ATOM      6  C5  UNL d   1       1.569  -1.610  -0.566  0.00  0.00     0.062 A 
ATOM      7  F   UNL d   1       2.475  -2.597  -0.508  0.00  0.00    -0.097 F 
ATOM      8  F1  UNL d   1       2.896  -0.486  -2.153  0.00  0.00    -0.096 F 
ATOM      9  I   UNL d   1       1.157   2.136  -2.736  0.00  0.00    -0.060 I 
ATOM     10  F2  UNL d   1      -1.227   1.410  -0.728  0.00  0.00    -0.096 F 
ATOM     11  F3  UNL d   1      -1.620  -0.713   0.906  0.00  0.00    -0.097 F 
ATOM     12  F4  UNL d   1       0.222  -2.722   1.025  0.00  0.00    -0.092 F 
ENDROOT
TORSDOF 0
ENDMDL
