MODEL 1
REMARK minimizedAffinity -3.24204969
REMARK minimizedRMSD -1
REMARK  0 active torsions:
REMARK  status: ('A' for Active; 'I' for Inactive)
ROOT
ATOM      1  C   UNL d   1       1.829   0.093  -1.807  0.00  0.00     0.124 A 
ATOM      2  C1  UNL d   1       1.730  -0.712  -0.680  0.00  0.00     0.062 A 
ATOM      3  C2  UNL d   1       0.684  -0.532   0.219  0.00  0.00     0.162 A 
ATOM      4  C3  UNL d   1      -0.274   0.457  -0.004  0.00  0.00    -0.034 A 
ATOM      5  C4  UNL d   1      -0.168   1.264  -1.138  0.00  0.00     0.162 A 
ATOM      6  C5  UNL d   1       0.880   1.080  -2.034  0.00  0.00     0.062 A 
ATOM      7  F   UNL d   1       0.973   1.859  -3.122  0.00  0.00    -0.097 F 
ATOM      8  F1  UNL d   1      -1.072   2.224  -1.383  0.00  0.00    -0.096 F 
ATOM      9  I   UNL d   1      -1.841   0.729   1.339  0.00  0.00    -0.060 I 
ATOM     10  F2  UNL d   1       0.613  -1.325   1.299  0.00  0.00    -0.096 F 
ATOM     11  F3  UNL d   1       2.646  -1.665  -0.457  0.00  0.00    -0.097 F 
ATOM     12  F4  UNL d   1       2.837  -0.081  -2.670  0.00  0.00    -0.092 F 
ENDROOT
TORSDOF 0
ENDMDL
