MODEL 1
REMARK minimizedAffinity -4.87183714
REMARK minimizedRMSD -1
REMARK  0 active torsions:
REMARK  status: ('A' for Active; 'I' for Inactive)
ROOT
ATOM      1  C   UNL d   1       2.434   0.505  -2.008  0.00  0.00     0.124 A 
ATOM      2  C1  UNL d   1       2.412  -0.350  -0.915  0.00  0.00     0.062 A 
ATOM      3  C2  UNL d   1       1.370  -0.283   0.005  0.00  0.00     0.162 A 
ATOM      4  C3  UNL d   1       0.340   0.643  -0.164  0.00  0.00    -0.034 A 
ATOM      5  C4  UNL d   1       0.369   1.500  -1.265  0.00  0.00     0.162 A 
ATOM      6  C5  UNL d   1       1.413   1.429  -2.182  0.00  0.00     0.062 A 
ATOM      7  F   UNL d   1       1.432   2.256  -3.238  0.00  0.00    -0.097 F 
ATOM      8  F1  UNL d   1      -0.605   2.402  -1.458  0.00  0.00    -0.096 F 
ATOM      9  I   UNL d   1      -1.220   0.746   1.210  0.00  0.00    -0.060 I 
ATOM     10  F2  UNL d   1       1.375  -1.121   1.052  0.00  0.00    -0.096 F 
ATOM     11  F3  UNL d   1       3.398  -1.243  -0.745  0.00  0.00    -0.097 F 
ATOM     12  F4  UNL d   1       3.438   0.439  -2.892  0.00  0.00    -0.092 F 
ENDROOT
TORSDOF 0
ENDMDL
