MODEL 1
REMARK minimizedAffinity -1.7539537
REMARK minimizedRMSD -1
REMARK  0 active torsions:
REMARK  status: ('A' for Active; 'I' for Inactive)
ROOT
ATOM      1  C   UNL d   1       2.113   0.200  -1.923  0.00  0.00     0.124 A 
ATOM      2  C1  UNL d   1       2.045  -0.764  -0.927  0.00  0.00     0.062 A 
ATOM      3  C2  UNL d   1       0.983  -0.768  -0.027  0.00  0.00     0.162 A 
ATOM      4  C3  UNL d   1      -0.021   0.196  -0.120  0.00  0.00    -0.034 A 
ATOM      5  C4  UNL d   1       0.055   1.163  -1.123  0.00  0.00     0.162 A 
ATOM      6  C5  UNL d   1       1.118   1.163  -2.020  0.00  0.00     0.062 A 
ATOM      7  F   UNL d   1       1.182   2.095  -2.982  0.00  0.00    -0.097 F 
ATOM      8  F1  UNL d   1      -0.893   2.105  -1.241  0.00  0.00    -0.096 F 
ATOM      9  I   UNL d   1      -1.610   0.194   1.224  0.00  0.00    -0.060 I 
ATOM     10  F2  UNL d   1       0.943  -1.712   0.925  0.00  0.00    -0.096 F 
ATOM     11  F3  UNL d   1       3.006  -1.695  -0.830  0.00  0.00    -0.097 F 
ATOM     12  F4  UNL d   1       3.137   0.202  -2.786  0.00  0.00    -0.092 F 
ENDROOT
TORSDOF 0
ENDMDL
