MODEL 1
REMARK minimizedAffinity -1.68772435
REMARK minimizedRMSD -1
REMARK  0 active torsions:
REMARK  status: ('A' for Active; 'I' for Inactive)
ROOT
ATOM      1  C   UNL d   1       1.736   0.906  -1.675  0.00  0.00     0.124 A 
ATOM      2  C1  UNL d   1       0.602   1.701  -1.764  0.00  0.00     0.062 A 
ATOM      3  C2  UNL d   1      -0.466   1.497  -0.895  0.00  0.00     0.162 A 
ATOM      4  C3  UNL d   1      -0.405   0.493   0.071  0.00  0.00    -0.034 A 
ATOM      5  C4  UNL d   1       0.738  -0.304   0.154  0.00  0.00     0.162 A 
ATOM      6  C5  UNL d   1       1.803  -0.096  -0.717  0.00  0.00     0.062 A 
ATOM      7  F   UNL d   1       2.897  -0.866  -0.630  0.00  0.00    -0.097 F 
ATOM      8  F1  UNL d   1       0.830  -1.278   1.071  0.00  0.00    -0.096 F 
ATOM      9  I   UNL d   1      -2.000   0.185   1.372  0.00  0.00    -0.060 I 
ATOM     10  F2  UNL d   1      -1.549   2.281  -1.004  0.00  0.00    -0.096 F 
ATOM     11  F3  UNL d   1       0.534   2.669  -2.690  0.00  0.00    -0.097 F 
ATOM     12  F4  UNL d   1       2.762   1.103  -2.513  0.00  0.00    -0.092 F 
ENDROOT
TORSDOF 0
ENDMDL
