MODEL 1
REMARK minimizedAffinity -4.68085241
REMARK minimizedRMSD -1
REMARK  0 active torsions:
REMARK  status: ('A' for Active; 'I' for Inactive)
ROOT
ATOM      1  C   UNL d   1       2.412   0.125  -1.863  0.00  0.00     0.124 A 
ATOM      2  C1  UNL d   1       2.102  -0.831  -0.905  0.00  0.00     0.062 A 
ATOM      3  C2  UNL d   1       0.957  -0.696  -0.126  0.00  0.00     0.162 A 
ATOM      4  C3  UNL d   1       0.112   0.400  -0.302  0.00  0.00    -0.034 A 
ATOM      5  C4  UNL d   1       0.431   1.358  -1.266  0.00  0.00     0.162 A 
ATOM      6  C5  UNL d   1       1.576   1.218  -2.042  0.00  0.00     0.062 A 
ATOM      7  F   UNL d   1       1.874   2.143  -2.967  0.00  0.00    -0.097 F 
ATOM      8  F1  UNL d   1      -0.360   2.424  -1.461  0.00  0.00    -0.096 F 
ATOM      9  I   UNL d   1      -1.602   0.606   0.861  0.00  0.00    -0.060 I 
ATOM     10  F2  UNL d   1       0.682  -1.635   0.791  0.00  0.00    -0.096 F 
ATOM     11  F3  UNL d   1       2.909  -1.888  -0.729  0.00  0.00    -0.097 F 
ATOM     12  F4  UNL d   1       3.516  -0.007  -2.610  0.00  0.00    -0.092 F 
ENDROOT
TORSDOF 0
ENDMDL
