MODEL 1
REMARK minimizedAffinity -4.99430943
REMARK minimizedRMSD -1
REMARK  0 active torsions:
REMARK  status: ('A' for Active; 'I' for Inactive)
ROOT
ATOM      1  C   UNL d   1       0.612  -1.073  -0.549  0.00  0.00     0.124 A 
ATOM      2  C1  UNL d   1      -0.334  -0.081  -0.333  0.00  0.00     0.062 A 
ATOM      3  C2  UNL d   1      -0.118   1.208  -0.813  0.00  0.00     0.162 A 
ATOM      4  C3  UNL d   1       1.049   1.511  -1.515  0.00  0.00    -0.034 A 
ATOM      5  C4  UNL d   1       1.996   0.508  -1.727  0.00  0.00     0.162 A 
ATOM      6  C5  UNL d   1       1.775  -0.778  -1.246  0.00  0.00     0.062 A 
ATOM      7  F   UNL d   1       2.690  -1.736  -1.455  0.00  0.00    -0.097 F 
ATOM      8  F1  UNL d   1       3.128   0.765  -2.398  0.00  0.00    -0.096 F 
ATOM      9  I   UNL d   1       1.375   3.437  -2.234  0.00  0.00    -0.060 I 
ATOM     10  F2  UNL d   1      -1.049   2.147  -0.590  0.00  0.00    -0.096 F 
ATOM     11  F3  UNL d   1      -1.458  -0.363   0.340  0.00  0.00    -0.097 F 
ATOM     12  F4  UNL d   1       0.402  -2.312  -0.086  0.00  0.00    -0.092 F 
ENDROOT
TORSDOF 0
ENDMDL
