MODEL 1
REMARK minimizedAffinity -5.76671839
REMARK minimizedRMSD -1
REMARK  3 active torsions:
REMARK  status: ('A' for Active; 'I' for Inactive)
REMARK    1  A    between atoms: C3'_2  and  C2'_3 
REMARK    2  A    between atoms: C2'_3  and  C1'_4 
REMARK    3  A    between atoms: C1'_4  and  C1_5 
ROOT
ATOM      1  C1  N4B d   1       0.521  -0.365  -0.288  0.00  0.00    -0.075 A 
ATOM      2  C2  N4B d   1       0.866   0.592  -1.269  0.00  0.00     0.002 A 
ATOM      3  C3  N4B d   1       1.552   0.205  -2.393  0.00  0.00     0.002 A 
ATOM      4  C4  N4B d   1       1.920  -1.124  -2.550  0.00  0.00    -0.004 A 
ATOM      5  C5  N4B d   1       1.560  -2.045  -1.610  0.00  0.00     0.002 A 
ATOM      6  C6  N4B d   1       0.867  -1.671  -0.477  0.00  0.00     0.002 A 
ENDROOT
BRANCH   1   7
ATOM      7  C1' N4B d   1      -0.155   0.025   0.998  0.00  0.00     0.057 C 
BRANCH   7   8
ATOM      8  C2' N4B d   1      -1.665   0.050   0.784  0.00  0.00     0.009 C 
BRANCH   8   9
ATOM      9  C3' N4B d   1      -2.391   0.727   1.933  0.00  0.00     0.004 C 
ATOM     10  C4' N4B d   1      -3.827   1.026   1.618  0.00  0.00     0.003 C 
ENDBRANCH   8   9
ENDBRANCH   7   8
ENDBRANCH   1   7
TORSDOF 3
ENDMDL
