MODEL 1
REMARK minimizedAffinity -2.56606889
REMARK minimizedRMSD -1
REMARK  3 active torsions:
REMARK  status: ('A' for Active; 'I' for Inactive)
REMARK    1  A    between atoms: C3'_2  and  C2'_3 
REMARK    2  A    between atoms: C2'_3  and  C1'_4 
REMARK    3  A    between atoms: C1'_4  and  C1_5 
ROOT
ATOM      1  C1  N4B d   1       0.466   0.366   0.096  0.00  0.00    -0.075 A 
ATOM      2  C2  N4B d   1       1.602   1.070  -0.362  0.00  0.00     0.002 A 
ATOM      3  C3  N4B d   1       2.191   0.723  -1.552  0.00  0.00     0.002 A 
ATOM      4  C4  N4B d   1       1.677  -0.333  -2.290  0.00  0.00    -0.004 A 
ATOM      5  C5  N4B d   1       0.565  -0.992  -1.854  0.00  0.00     0.002 A 
ATOM      6  C6  N4B d   1      -0.041  -0.650  -0.661  0.00  0.00     0.002 A 
ENDROOT
BRANCH   1   7
ATOM      7  C1' N4B d   1      -0.162   0.654   1.432  0.00  0.00     0.057 C 
BRANCH   7   8
ATOM      8  C2' N4B d   1      -1.670   0.446   1.332  0.00  0.00     0.009 C 
BRANCH   8   9
ATOM      9  C3' N4B d   1      -2.422   1.215   2.405  0.00  0.00     0.004 C 
ATOM     10  C4' N4B d   1      -3.841   1.509   2.022  0.00  0.00     0.003 C 
ENDBRANCH   8   9
ENDBRANCH   7   8
ENDBRANCH   1   7
TORSDOF 3
ENDMDL
