MODEL 1
REMARK minimizedAffinity -5.92805767
REMARK minimizedRMSD -1
REMARK  3 active torsions:
REMARK  status: ('A' for Active; 'I' for Inactive)
REMARK    1  A    between atoms: C3'_2  and  C2'_3 
REMARK    2  A    between atoms: C2'_3  and  C1'_4 
REMARK    3  A    between atoms: C1'_4  and  C1_5 
ROOT
ATOM      1  C1  N4B d   1       0.898  -0.208  -0.864  0.00  0.00    -0.075 A 
ATOM      2  C2  N4B d   1       0.764  -1.597  -1.081  0.00  0.00     0.002 A 
ATOM      3  C3  N4B d   1       1.428  -2.195  -2.123  0.00  0.00     0.002 A 
ATOM      4  C4  N4B d   1       2.214  -1.426  -2.969  0.00  0.00    -0.004 A 
ATOM      5  C5  N4B d   1       2.358  -0.089  -2.737  0.00  0.00     0.002 A 
ATOM      6  C6  N4B d   1       1.699   0.525  -1.691  0.00  0.00     0.002 A 
ENDROOT
BRANCH   1   7
ATOM      7  C1' N4B d   1       0.123   0.506   0.210  0.00  0.00     0.057 C 
BRANCH   7   8
ATOM      8  C2' N4B d   1      -0.505  -0.525   1.144  0.00  0.00     0.009 C 
BRANCH   8   9
ATOM      9  C3' N4B d   1      -1.517   0.104   2.086  0.00  0.00     0.004 C 
ATOM     10  C4' N4B d   1      -2.920   0.035   1.562  0.00  0.00     0.003 C 
ENDBRANCH   8   9
ENDBRANCH   7   8
ENDBRANCH   1   7
TORSDOF 3
ENDMDL
