MODEL 1
REMARK minimizedAffinity -3.26800227
REMARK minimizedRMSD -1
REMARK  3 active torsions:
REMARK  status: ('A' for Active; 'I' for Inactive)
REMARK    1  A    between atoms: C3'_2  and  C2'_3 
REMARK    2  A    between atoms: C2'_3  and  C1'_4 
REMARK    3  A    between atoms: C1'_4  and  C1_5 
ROOT
ATOM      1  C1  N4B d   1       0.531  -0.054   0.076  0.00  0.00    -0.075 A 
ATOM      2  C2  N4B d   1       0.096  -0.893  -0.974  0.00  0.00     0.002 A 
ATOM      3  C3  N4B d   1       0.700  -0.822  -2.205  0.00  0.00     0.002 A 
ATOM      4  C4  N4B d   1       1.723   0.090  -2.415  0.00  0.00    -0.004 A 
ATOM      5  C5  N4B d   1       2.154   0.879  -1.389  0.00  0.00     0.002 A 
ATOM      6  C6  N4B d   1       1.559   0.815  -0.145  0.00  0.00     0.002 A 
ENDROOT
BRANCH   1   7
ATOM      7  C1' N4B d   1      -0.156  -0.036   1.414  0.00  0.00     0.057 C 
BRANCH   7   8
ATOM      8  C2' N4B d   1      -1.659  -0.198   1.208  0.00  0.00     0.009 C 
BRANCH   8   9
ATOM      9  C3' N4B d   1      -2.453   0.846   1.975  0.00  0.00     0.004 C 
ATOM     10  C4' N4B d   1      -3.885   0.923   1.538  0.00  0.00     0.003 C 
ENDBRANCH   8   9
ENDBRANCH   7   8
ENDBRANCH   1   7
TORSDOF 3
ENDMDL
