MODEL 1
REMARK minimizedAffinity -2.88079309
REMARK minimizedRMSD -1
REMARK  3 active torsions:
REMARK  status: ('A' for Active; 'I' for Inactive)
REMARK    1  A    between atoms: C3'_2  and  C2'_3 
REMARK    2  A    between atoms: C2'_3  and  C1'_4 
REMARK    3  A    between atoms: C1'_4  and  C1_5 
ROOT
ATOM      1  C1  N4B d   1       0.131  -0.718  -0.736  0.00  0.00    -0.075 A 
ATOM      2  C2  N4B d   1       0.075  -1.424  -1.957  0.00  0.00     0.002 A 
ATOM      3  C3  N4B d   1       0.793  -0.981  -3.041  0.00  0.00     0.002 A 
ATOM      4  C4  N4B d   1       1.556   0.173  -2.933  0.00  0.00    -0.004 A 
ATOM      5  C5  N4B d   1       1.624   0.836  -1.742  0.00  0.00     0.002 A 
ATOM      6  C6  N4B d   1       0.911   0.399  -0.644  0.00  0.00     0.002 A 
ENDROOT
BRANCH   1   7
ATOM      7  C1' N4B d   1      -0.704  -1.116   0.450  0.00  0.00     0.057 C 
BRANCH   7   8
ATOM      8  C2' N4B d   1      -1.412   0.119   1.001  0.00  0.00     0.009 C 
BRANCH   8   9
ATOM      9  C3' N4B d   1      -2.916  -0.080   1.086  0.00  0.00     0.004 C 
ATOM     10  C4' N4B d   1      -3.631   1.126   1.619  0.00  0.00     0.003 C 
ENDBRANCH   8   9
ENDBRANCH   7   8
ENDBRANCH   1   7
TORSDOF 3
ENDMDL
