MODEL 1
REMARK minimizedAffinity -5.66873646
REMARK minimizedRMSD -1
REMARK  3 active torsions:
REMARK  status: ('A' for Active; 'I' for Inactive)
REMARK    1  A    between atoms: C3'_2  and  C2'_3 
REMARK    2  A    between atoms: C2'_3  and  C1'_4 
REMARK    3  A    between atoms: C1'_4  and  C1_5 
ROOT
ATOM      1  C1  N4B d   1       0.160   0.536  -0.645  0.00  0.00    -0.075 A 
ATOM      2  C2  N4B d   1       0.077  -0.780  -1.152  0.00  0.00     0.002 A 
ATOM      3  C3  N4B d   1       1.063  -1.261  -1.978  0.00  0.00     0.002 A 
ATOM      4  C4  N4B d   1       2.128  -0.442  -2.324  0.00  0.00    -0.004 A 
ATOM      5  C5  N4B d   1       2.214   0.818  -1.809  0.00  0.00     0.002 A 
ATOM      6  C6  N4B d   1       1.232   1.314  -0.975  0.00  0.00     0.002 A 
ENDROOT
BRANCH   1   7
ATOM      7  C1' N4B d   1      -0.937   1.135   0.191  0.00  0.00     0.057 C 
BRANCH   7   8
ATOM      8  C2' N4B d   1      -1.493   0.067   1.128  0.00  0.00     0.009 C 
BRANCH   8   9
ATOM      9  C3' N4B d   1      -2.681   0.574   1.928  0.00  0.00     0.004 C 
ATOM     10  C4' N4B d   1      -3.973  -0.067   1.519  0.00  0.00     0.003 C 
ENDBRANCH   8   9
ENDBRANCH   7   8
ENDBRANCH   1   7
TORSDOF 3
ENDMDL
