MODEL 1
REMARK minimizedAffinity -3.01115561
REMARK minimizedRMSD -1
REMARK  3 active torsions:
REMARK  status: ('A' for Active; 'I' for Inactive)
REMARK    1  A    between atoms: C3'_2  and  C2'_3 
REMARK    2  A    between atoms: C2'_3  and  C1'_4 
REMARK    3  A    between atoms: C1'_4  and  C1_5 
ROOT
ATOM      1  C1  N4B d   1       0.182   0.026  -0.035  0.00  0.00    -0.075 A 
ATOM      2  C2  N4B d   1       0.054  -1.164  -0.785  0.00  0.00     0.002 A 
ATOM      3  C3  N4B d   1       0.792  -1.337  -1.930  0.00  0.00     0.002 A 
ATOM      4  C4  N4B d   1       1.646  -0.330  -2.354  0.00  0.00    -0.004 A 
ATOM      5  C5  N4B d   1       1.783   0.806  -1.611  0.00  0.00     0.002 A 
ATOM      6  C6  N4B d   1       1.050   0.991  -0.455  0.00  0.00     0.002 A 
ENDROOT
BRANCH   1   7
ATOM      7  C1' N4B d   1      -0.668   0.296   1.176  0.00  0.00     0.057 C 
BRANCH   7   8
ATOM      8  C2' N4B d   1      -2.135   0.342   0.760  0.00  0.00     0.009 C 
BRANCH   8   9
ATOM      9  C3' N4B d   1      -2.972   1.172   1.717  0.00  0.00     0.004 C 
ATOM     10  C4' N4B d   1      -4.409   1.267   1.300  0.00  0.00     0.003 C 
ENDBRANCH   8   9
ENDBRANCH   7   8
ENDBRANCH   1   7
TORSDOF 3
ENDMDL
