MODEL 1
REMARK minimizedAffinity -3.67121887
REMARK minimizedRMSD -1
REMARK  3 active torsions:
REMARK  status: ('A' for Active; 'I' for Inactive)
REMARK    1  A    between atoms: C3'_2  and  C2'_3 
REMARK    2  A    between atoms: C2'_3  and  C1'_4 
REMARK    3  A    between atoms: C1'_4  and  C1_5 
ROOT
ATOM      1  C1  N4B d   1      -0.371  -0.051   0.207  0.00  0.00    -0.075 A 
ATOM      2  C2  N4B d   1       0.446   1.039  -0.167  0.00  0.00     0.002 A 
ATOM      3  C3  N4B d   1       1.263   0.939  -1.266  0.00  0.00     0.002 A 
ATOM      4  C4  N4B d   1       1.293  -0.241  -1.993  0.00  0.00    -0.004 A 
ATOM      5  C5  N4B d   1       0.482  -1.280  -1.641  0.00  0.00     0.002 A 
ATOM      6  C6  N4B d   1      -0.347  -1.193  -0.540  0.00  0.00     0.002 A 
ENDROOT
BRANCH   1   7
ATOM      7  C1' N4B d   1      -1.216  -0.020   1.451  0.00  0.00     0.057 C 
BRANCH   7   8
ATOM      8  C2' N4B d   1      -2.688  -0.114   1.059  0.00  0.00     0.009 C 
BRANCH   8   9
ATOM      9  C3' N4B d   1      -3.562   0.791   1.911  0.00  0.00     0.004 C 
ATOM     10  C4' N4B d   1      -2.858   1.293   3.136  0.00  0.00     0.003 C 
ENDBRANCH   8   9
ENDBRANCH   7   8
ENDBRANCH   1   7
TORSDOF 3
ENDMDL
