MODEL 1
REMARK minimizedAffinity -5.19763899
REMARK minimizedRMSD -1
REMARK  3 active torsions:
REMARK  status: ('A' for Active; 'I' for Inactive)
REMARK    1  A    between atoms: C3'_2  and  C2'_3 
REMARK    2  A    between atoms: C2'_3  and  C1'_4 
REMARK    3  A    between atoms: C1'_4  and  C1_5 
ROOT
ATOM      1  C1  N4B d   1      -0.571   0.003   0.375  0.00  0.00    -0.075 A 
ATOM      2  C2  N4B d   1      -0.128  -1.320   0.157  0.00  0.00     0.002 A 
ATOM      3  C3  N4B d   1       0.673  -1.606  -0.921  0.00  0.00     0.002 A 
ATOM      4  C4  N4B d   1       1.026  -0.595  -1.802  0.00  0.00    -0.004 A 
ATOM      5  C5  N4B d   1       0.614   0.685  -1.570  0.00  0.00     0.002 A 
ATOM      6  C6  N4B d   1      -0.188   0.988  -0.488  0.00  0.00     0.002 A 
ENDROOT
BRANCH   1   7
ATOM      7  C1' N4B d   1      -1.518   0.349   1.492  0.00  0.00     0.057 C 
BRANCH   7   8
ATOM      8  C2' N4B d   1      -2.845  -0.367   1.263  0.00  0.00     0.009 C 
BRANCH   8   9
ATOM      9  C3' N4B d   1      -4.033   0.505   1.631  0.00  0.00     0.004 C 
ATOM     10  C4' N4B d   1      -3.639   1.913   1.963  0.00  0.00     0.003 C 
ENDBRANCH   8   9
ENDBRANCH   7   8
ENDBRANCH   1   7
TORSDOF 3
ENDMDL
