MODEL 1
REMARK minimizedAffinity -2.61348629
REMARK minimizedRMSD -1
REMARK  3 active torsions:
REMARK  status: ('A' for Active; 'I' for Inactive)
REMARK    1  A    between atoms: C3'_2  and  C2'_3 
REMARK    2  A    between atoms: C2'_3  and  C1'_4 
REMARK    3  A    between atoms: C1'_4  and  C1_5 
ROOT
ATOM      1  C1  N4B d   1      -0.192  -0.225   0.216  0.00  0.00    -0.075 A 
ATOM      2  C2  N4B d   1       0.066  -1.565   0.583  0.00  0.00     0.002 A 
ATOM      3  C3  N4B d   1       0.687  -2.411  -0.302  0.00  0.00     0.002 A 
ATOM      4  C4  N4B d   1       1.041  -1.949  -1.560  0.00  0.00    -0.004 A 
ATOM      5  C5  N4B d   1       0.812  -0.647  -1.897  0.00  0.00     0.002 A 
ATOM      6  C6  N4B d   1       0.192   0.216  -1.017  0.00  0.00     0.002 A 
ENDROOT
BRANCH   1   7
ATOM      7  C1' N4B d   1      -0.945   0.714   1.118  0.00  0.00     0.057 C 
BRANCH   7   8
ATOM      8  C2' N4B d   1      -2.375   0.209   1.284  0.00  0.00     0.009 C 
BRANCH   8   9
ATOM      9  C3' N4B d   1      -3.201   1.123   2.174  0.00  0.00     0.004 C 
ATOM     10  C4' N4B d   1      -4.530   1.472   1.573  0.00  0.00     0.003 C 
ENDBRANCH   8   9
ENDBRANCH   7   8
ENDBRANCH   1   7
TORSDOF 3
ENDMDL
