MODEL 1
REMARK minimizedAffinity -6.06031322
REMARK minimizedRMSD -1
REMARK  3 active torsions:
REMARK  status: ('A' for Active; 'I' for Inactive)
REMARK    1  A    between atoms: C3'_2  and  C2'_3 
REMARK    2  A    between atoms: C2'_3  and  C1'_4 
REMARK    3  A    between atoms: C1'_4  and  C1_5 
ROOT
ATOM      1  C1  N4B d   1       0.124  -0.110   0.162  0.00  0.00    -0.075 A 
ATOM      2  C2  N4B d   1       0.328  -0.559  -1.161  0.00  0.00     0.002 A 
ATOM      3  C3  N4B d   1       1.100   0.179  -2.025  0.00  0.00     0.002 A 
ATOM      4  C4  N4B d   1       1.659   1.373  -1.595  0.00  0.00    -0.004 A 
ATOM      5  C5  N4B d   1       1.477   1.787  -0.308  0.00  0.00     0.002 A 
ATOM      6  C6  N4B d   1       0.708   1.053   0.572  0.00  0.00     0.002 A 
ENDROOT
BRANCH   1   7
ATOM      7  C1' N4B d   1      -0.782  -0.839   1.117  0.00  0.00     0.057 C 
BRANCH   7   8
ATOM      8  C2' N4B d   1      -1.468   0.174   2.029  0.00  0.00     0.009 C 
BRANCH   8   9
ATOM      9  C3' N4B d   1      -2.884   0.481   1.574  0.00  0.00     0.004 C 
ATOM     10  C4' N4B d   1      -3.618  -0.737   1.097  0.00  0.00     0.003 C 
ENDBRANCH   8   9
ENDBRANCH   7   8
ENDBRANCH   1   7
TORSDOF 3
ENDMDL
