MODEL 1
REMARK minimizedAffinity -0.835764587
REMARK minimizedRMSD -1
REMARK  0 active torsions:
REMARK  status: ('A' for Active; 'I' for Inactive)
ROOT
ATOM      1  O1  BZF d   1      -1.903   4.480  -5.405  0.00  0.00    -0.204 OA
ATOM      2  C2  BZF d   1      -1.507   3.157  -5.451  0.00  0.00     0.174 A 
ATOM      3  C3  BZF d   1      -2.571   2.345  -5.612  0.00  0.00    -0.012 A 
ATOM      4  C3A BZF d   1      -3.693   3.220  -5.763  0.00  0.00    -0.107 A 
ATOM      5  C4  BZF d   1      -5.026   3.010  -5.971  0.00  0.00     0.055 A 
ATOM      6  C5  BZF d   1      -5.867   4.077  -6.000  0.00  0.00    -0.016 A 
ATOM      7  C6  BZF d   1      -5.409   5.366  -5.819  0.00  0.00     0.022 A 
ATOM      8  C7  BZF d   1      -4.095   5.625  -5.614  0.00  0.00     0.029 A 
ATOM      9  C7A BZF d   1      -3.238   4.551  -5.618  0.00  0.00     0.058 A 
ENDROOT
TORSDOF 0
ENDMDL
