MODEL 1
REMARK minimizedAffinity -3.50412083
REMARK minimizedRMSD -1
REMARK  0 active torsions:
REMARK  status: ('A' for Active; 'I' for Inactive)
ROOT
ATOM      1  O1  BZF d   1      -1.888   2.755  -5.291  0.00  0.00    -0.204 OA
ATOM      2  C2  BZF d   1      -1.803   4.133  -5.227  0.00  0.00     0.174 A 
ATOM      3  C3  BZF d   1      -3.002   4.698  -5.472  0.00  0.00    -0.012 A 
ATOM      4  C3A BZF d   1      -3.913   3.603  -5.611  0.00  0.00    -0.107 A 
ATOM      5  C4  BZF d   1      -5.255   3.523  -5.848  0.00  0.00     0.055 A 
ATOM      6  C5  BZF d   1      -5.827   2.300  -6.000  0.00  0.00    -0.016 A 
ATOM      7  C6  BZF d   1      -5.087   1.138  -5.927  0.00  0.00     0.022 A 
ATOM      8  C7  BZF d   1      -3.753   1.167  -5.689  0.00  0.00     0.029 A 
ATOM      9  C7A BZF d   1      -3.178   2.400  -5.502  0.00  0.00     0.058 A 
ENDROOT
TORSDOF 0
ENDMDL
