MODEL 1
REMARK minimizedAffinity -1.13059378
REMARK minimizedRMSD -1
REMARK  0 active torsions:
REMARK  status: ('A' for Active; 'I' for Inactive)
ROOT
ATOM      1  O1  BZF d   1      -2.410   3.000  -5.705  0.00  0.00    -0.204 OA
ATOM      2  C2  BZF d   1      -1.548   4.077  -5.619  0.00  0.00     0.174 A 
ATOM      3  C3  BZF d   1      -2.225   5.240  -5.707  0.00  0.00    -0.012 A 
ATOM      4  C3A BZF d   1      -3.606   4.868  -5.764  0.00  0.00    -0.107 A 
ATOM      5  C4  BZF d   1      -4.767   5.582  -5.843  0.00  0.00     0.055 A 
ATOM      6  C5  BZF d   1      -5.946   4.914  -5.956  0.00  0.00    -0.016 A 
ATOM      7  C6  BZF d   1      -5.999   3.536  -5.999  0.00  0.00     0.022 A 
ATOM      8  C7  BZF d   1      -4.873   2.786  -5.919  0.00  0.00     0.029 A 
ATOM      9  C7A BZF d   1      -3.684   3.456  -5.771  0.00  0.00     0.058 A 
ENDROOT
TORSDOF 0
ENDMDL
