MODEL 1
REMARK minimizedAffinity 3.08902645
REMARK minimizedRMSD -1
REMARK  0 active torsions:
REMARK  status: ('A' for Active; 'I' for Inactive)
ROOT
ATOM      1  O1  BZF d   1       0.413  -0.367   0.887  0.00  0.00    -0.204 OA
ATOM      2  C2  BZF d   1      -0.405  -1.418   1.253  0.00  0.00     0.174 A 
ATOM      3  C3  BZF d   1      -1.061  -1.909   0.182  0.00  0.00    -0.012 A 
ATOM      4  C3A BZF d   1      -0.556  -1.175  -0.938  0.00  0.00    -0.107 A 
ATOM      5  C4  BZF d   1      -0.809  -1.217  -2.279  0.00  0.00     0.055 A 
ATOM      6  C5  BZF d   1      -0.201  -0.315  -3.094  0.00  0.00    -0.016 A 
ATOM      7  C6  BZF d   1       0.660   0.644  -2.602  0.00  0.00     0.022 A 
ATOM      8  C7  BZF d   1       0.946   0.721  -1.280  0.00  0.00     0.029 A 
ATOM      9  C7A BZF d   1       0.359  -0.210  -0.458  0.00  0.00     0.058 A 
ENDROOT
TORSDOF 0
ENDMDL
