MODEL 1
REMARK minimizedAffinity -0.7289868
REMARK minimizedRMSD -1
REMARK  0 active torsions:
REMARK  status: ('A' for Active; 'I' for Inactive)
ROOT
ATOM      1  O1  BZF d   1      -5.302   3.135  -5.889  0.00  0.00    -0.204 OA
ATOM      2  C2  BZF d   1      -5.960   4.345  -5.993  0.00  0.00     0.174 A 
ATOM      3  C3  BZF d   1      -5.082   5.368  -5.999  0.00  0.00    -0.012 A 
ATOM      4  C3A BZF d   1      -3.790   4.755  -5.984  0.00  0.00    -0.107 A 
ATOM      5  C4  BZF d   1      -2.516   5.248  -5.996  0.00  0.00     0.055 A 
ATOM      6  C5  BZF d   1      -1.472   4.384  -5.901  0.00  0.00    -0.016 A 
ATOM      7  C6  BZF d   1      -1.665   3.022  -5.787  0.00  0.00     0.022 A 
ATOM      8  C7  BZF d   1      -2.909   2.486  -5.776  0.00  0.00     0.029 A 
ATOM      9  C7A BZF d   1      -3.965   3.354  -5.905  0.00  0.00     0.058 A 
ENDROOT
TORSDOF 0
ENDMDL
