MODEL 1
REMARK minimizedAffinity -3.30791855
REMARK minimizedRMSD -1
REMARK  0 active torsions:
REMARK  status: ('A' for Active; 'I' for Inactive)
ROOT
ATOM      1  O1  BZF d   1      -3.895   1.023  -5.914  0.00  0.00    -0.204 OA
ATOM      2  C2  BZF d   1      -5.234   0.695  -5.999  0.00  0.00     0.174 A 
ATOM      3  C3  BZF d   1      -6.000   1.805  -5.990  0.00  0.00    -0.012 A 
ATOM      4  C3A BZF d   1      -5.077   2.899  -5.986  0.00  0.00    -0.107 A 
ATOM      5  C4  BZF d   1      -5.230   4.256  -5.991  0.00  0.00     0.055 A 
ATOM      6  C5  BZF d   1      -4.126   5.045  -5.910  0.00  0.00    -0.016 A 
ATOM      7  C6  BZF d   1      -2.858   4.511  -5.816  0.00  0.00     0.022 A 
ATOM      8  C7  BZF d   1      -2.656   3.171  -5.812  0.00  0.00     0.029 A 
ATOM      9  C7A BZF d   1      -3.767   2.371  -5.927  0.00  0.00     0.058 A 
ENDROOT
TORSDOF 0
ENDMDL
