MODEL 1
REMARK minimizedAffinity -0.794492722
REMARK minimizedRMSD -1
REMARK  0 active torsions:
REMARK  status: ('A' for Active; 'I' for Inactive)
ROOT
ATOM      1  O1  BZF d   1      -1.918   5.211  -5.953  0.00  0.00    -0.204 OA
ATOM      2  C2  BZF d   1      -1.166   4.053  -5.918  0.00  0.00     0.174 A 
ATOM      3  C3  BZF d   1      -1.964   2.966  -5.861  0.00  0.00    -0.012 A 
ATOM      4  C3A BZF d   1      -3.298   3.474  -5.953  0.00  0.00    -0.107 A 
ATOM      5  C4  BZF d   1      -4.529   2.883  -5.967  0.00  0.00     0.055 A 
ATOM      6  C5  BZF d   1      -5.639   3.667  -5.993  0.00  0.00    -0.016 A 
ATOM      7  C6  BZF d   1      -5.555   5.044  -6.000  0.00  0.00     0.022 A 
ATOM      8  C7  BZF d   1      -4.356   5.676  -5.992  0.00  0.00     0.029 A 
ATOM      9  C7A BZF d   1      -3.232   4.886  -5.999  0.00  0.00     0.058 A 
ENDROOT
TORSDOF 0
ENDMDL
