MODEL 1
REMARK minimizedAffinity 4.12271643
REMARK minimizedRMSD -1
REMARK  0 active torsions:
REMARK  status: ('A' for Active; 'I' for Inactive)
ROOT
ATOM      1  O1  BZF d   1      -1.486   4.029  -5.600  0.00  0.00    -0.204 OA
ATOM      2  C2  BZF d   1      -1.338   5.392  -5.765  0.00  0.00     0.174 A 
ATOM      3  C3  BZF d   1      -2.530   5.978  -5.999  0.00  0.00    -0.012 A 
ATOM      4  C3A BZF d   1      -3.494   4.927  -5.888  0.00  0.00    -0.107 A 
ATOM      5  C4  BZF d   1      -4.855   4.884  -6.000  0.00  0.00     0.055 A 
ATOM      6  C5  BZF d   1      -5.488   3.686  -5.908  0.00  0.00    -0.016 A 
ATOM      7  C6  BZF d   1      -4.793   2.511  -5.710  0.00  0.00     0.022 A 
ATOM      8  C7  BZF d   1      -3.443   2.503  -5.588  0.00  0.00     0.029 A 
ATOM      9  C7A BZF d   1      -2.803   3.716  -5.647  0.00  0.00     0.058 A 
ENDROOT
TORSDOF 0
ENDMDL
