MODEL 1
REMARK minimizedAffinity -3.26950407
REMARK minimizedRMSD -1
REMARK  0 active torsions:
REMARK  status: ('A' for Active; 'I' for Inactive)
ROOT
ATOM      1  O1  BZF d   1      -5.281  -2.393  -5.913  0.00  0.00    -0.204 OA
ATOM      2  C2  BZF d   1      -4.233  -3.293  -5.915  0.00  0.00     0.174 A 
ATOM      3  C3  BZF d   1      -3.051  -2.649  -5.996  0.00  0.00    -0.012 A 
ATOM      4  C3A BZF d   1      -3.377  -1.257  -5.955  0.00  0.00    -0.107 A 
ATOM      5  C4  BZF d   1      -2.627  -0.116  -5.982  0.00  0.00     0.055 A 
ATOM      6  C5  BZF d   1      -3.257   1.088  -6.000  0.00  0.00    -0.016 A 
ATOM      7  C6  BZF d   1      -4.633   1.188  -5.996  0.00  0.00     0.022 A 
ATOM      8  C7  BZF d   1      -5.419   0.084  -5.965  0.00  0.00     0.029 A 
ATOM      9  C7A BZF d   1      -4.785  -1.133  -5.913  0.00  0.00     0.058 A 
ENDROOT
TORSDOF 0
ENDMDL
