MODEL 1
REMARK minimizedAffinity -2.48464608
REMARK minimizedRMSD -1
REMARK  0 active torsions:
REMARK  status: ('A' for Active; 'I' for Inactive)
ROOT
ATOM      1  O1  BZF d   1      -1.589  -5.467  -4.903  0.00  0.00    -0.204 OA
ATOM      2  C2  BZF d   1      -2.615  -6.000  -5.658  0.00  0.00     0.174 A 
ATOM      3  C3  BZF d   1      -3.503  -5.044  -6.000  0.00  0.00    -0.012 A 
ATOM      4  C3A BZF d   1      -2.952  -3.822  -5.499  0.00  0.00    -0.107 A 
ATOM      5  C4  BZF d   1      -3.365  -2.521  -5.538  0.00  0.00     0.055 A 
ATOM      6  C5  BZF d   1      -2.633  -1.577  -4.890  0.00  0.00    -0.016 A 
ATOM      7  C6  BZF d   1      -1.489  -1.899  -4.190  0.00  0.00     0.022 A 
ATOM      8  C7  BZF d   1      -1.038  -3.175  -4.127  0.00  0.00     0.029 A 
ATOM      9  C7A BZF d   1      -1.757  -4.127  -4.808  0.00  0.00     0.058 A 
ENDROOT
TORSDOF 0
ENDMDL
