MODEL 1
REMARK minimizedAffinity -0.671847582
REMARK minimizedRMSD -1
REMARK  0 active torsions:
REMARK  status: ('A' for Active; 'I' for Inactive)
ROOT
ATOM      1  O1  BZF d   1      -1.652  -1.670  -5.395  0.00  0.00    -0.204 OA
ATOM      2  C2  BZF d   1      -1.500  -3.035  -5.240  0.00  0.00     0.174 A 
ATOM      3  C3  BZF d   1      -2.694  -3.659  -5.301  0.00  0.00    -0.012 A 
ATOM      4  C3A BZF d   1      -3.642  -2.630  -5.600  0.00  0.00    -0.107 A 
ATOM      5  C4  BZF d   1      -4.993  -2.628  -5.800  0.00  0.00     0.055 A 
ATOM      6  C5  BZF d   1      -5.628  -1.443  -6.000  0.00  0.00    -0.016 A 
ATOM      7  C6  BZF d   1      -4.947  -0.244  -6.000  0.00  0.00     0.022 A 
ATOM      8  C7  BZF d   1      -3.605  -0.197  -5.810  0.00  0.00     0.029 A 
ATOM      9  C7A BZF d   1      -2.955  -1.395  -5.641  0.00  0.00     0.058 A 
ENDROOT
TORSDOF 0
ENDMDL
