MODEL 1
REMARK minimizedAffinity 4.40935087
REMARK minimizedRMSD -1
REMARK  0 active torsions:
REMARK  status: ('A' for Active; 'I' for Inactive)
ROOT
ATOM      1  O1  BZF d   1      -4.727   1.804  -5.299  0.00  0.00    -0.204 OA
ATOM      2  C2  BZF d   1      -5.988   2.231  -5.667  0.00  0.00     0.174 A 
ATOM      3  C3  BZF d   1      -5.984   3.551  -5.945  0.00  0.00    -0.012 A 
ATOM      4  C3A BZF d   1      -4.617   3.956  -5.826  0.00  0.00    -0.107 A 
ATOM      5  C4  BZF d   1      -3.973   5.148  -5.996  0.00  0.00     0.055 A 
ATOM      6  C5  BZF d   1      -2.642   5.224  -5.731  0.00  0.00    -0.016 A 
ATOM      7  C6  BZF d   1      -1.926   4.130  -5.291  0.00  0.00     0.022 A 
ATOM      8  C7  BZF d   1      -2.521   2.925  -5.112  0.00  0.00     0.029 A 
ATOM      9  C7A BZF d   1      -3.858   2.838  -5.410  0.00  0.00     0.058 A 
ENDROOT
TORSDOF 0
ENDMDL
