MODEL 1
REMARK minimizedAffinity 7.1953454
REMARK minimizedRMSD -1
REMARK  0 active torsions:
REMARK  status: ('A' for Active; 'I' for Inactive)
ROOT
ATOM      1  O1  BZF d   1       3.459   1.082  -2.659  0.00  0.00    -0.204 OA
ATOM      2  C2  BZF d   1       4.340   1.451  -1.661  0.00  0.00     0.174 A 
ATOM      3  C3  BZF d   1       3.720   1.486  -0.464  0.00  0.00    -0.012 A 
ATOM      4  C3A BZF d   1       2.389   1.024  -0.716  0.00  0.00    -0.107 A 
ATOM      5  C4  BZF d   1       1.299   0.821   0.081  0.00  0.00     0.055 A 
ATOM      6  C5  BZF d   1       0.128   0.434  -0.488  0.00  0.00    -0.016 A 
ATOM      7  C6  BZF d   1       0.009   0.246  -1.850  0.00  0.00     0.022 A 
ATOM      8  C7  BZF d   1       1.064   0.431  -2.680  0.00  0.00     0.029 A 
ATOM      9  C7A BZF d   1       2.258   0.790  -2.104  0.00  0.00     0.058 A 
ENDROOT
TORSDOF 0
ENDMDL
