MODEL 1
REMARK minimizedAffinity -5.35292006
REMARK minimizedRMSD -1
REMARK  0 active torsions:
REMARK  status: ('A' for Active; 'I' for Inactive)
ROOT
ATOM      1  O1  BZF d   1       2.740  -0.372  -3.747  0.00  0.00    -0.204 OA
ATOM      2  C2  BZF d   1       2.600  -0.803  -2.442  0.00  0.00     0.174 A 
ATOM      3  C3  BZF d   1       3.377  -1.880  -2.208  0.00  0.00    -0.012 A 
ATOM      4  C3A BZF d   1       4.113  -2.083  -3.418  0.00  0.00    -0.107 A 
ATOM      5  C4  BZF d   1       5.060  -2.990  -3.799  0.00  0.00     0.055 A 
ATOM      6  C5  BZF d   1       5.527  -2.960  -5.075  0.00  0.00    -0.016 A 
ATOM      7  C6  BZF d   1       5.066  -2.042  -5.996  0.00  0.00     0.022 A 
ATOM      8  C7  BZF d   1       4.131  -1.119  -5.662  0.00  0.00     0.029 A 
ATOM      9  C7A BZF d   1       3.681  -1.126  -4.365  0.00  0.00     0.058 A 
ENDROOT
TORSDOF 0
ENDMDL
