MODEL 1
REMARK minimizedAffinity -0.808087647
REMARK minimizedRMSD -1
REMARK  0 active torsions:
REMARK  status: ('A' for Active; 'I' for Inactive)
ROOT
ATOM      1  O1  BZF d   1      -3.090   2.205  -4.193  0.00  0.00    -0.204 OA
ATOM      2  C2  BZF d   1      -4.321   2.017  -4.791  0.00  0.00     0.174 A 
ATOM      3  C3  BZF d   1      -4.626   0.705  -4.856  0.00  0.00    -0.012 A 
ATOM      4  C3A BZF d   1      -3.558   0.036  -4.177  0.00  0.00    -0.107 A 
ATOM      5  C4  BZF d   1      -3.299  -1.275  -3.897  0.00  0.00     0.055 A 
ATOM      6  C5  BZF d   1      -2.132  -1.600  -3.282  0.00  0.00    -0.016 A 
ATOM      7  C6  BZF d   1      -1.200  -0.643  -2.939  0.00  0.00     0.022 A 
ATOM      8  C7  BZF d   1      -1.415   0.671  -3.192  0.00  0.00     0.029 A 
ATOM      9  C7A BZF d   1      -2.608   1.007  -3.784  0.00  0.00     0.058 A 
ENDROOT
TORSDOF 0
ENDMDL
