MODEL 1
REMARK minimizedAffinity -2.85123014
REMARK minimizedRMSD -1
REMARK  2 active torsions:
REMARK  status: ('A' for Active; 'I' for Inactive)
REMARK    1  A    between atoms: C2'_3  and  C1'_4 
REMARK    2  A    between atoms: C1'_4  and  C1_5 
ROOT
ATOM      1  C1  I4B d   1       1.061   0.646  -1.088  0.00  0.00    -0.075 A 
ATOM      2  C2  I4B d   1       0.960   1.279   0.126  0.00  0.00     0.003 A 
ATOM      3  C3  I4B d   1       1.413   0.637   1.304  0.00  0.00     0.002 A 
ATOM      4  C4  I4B d   1       1.910  -0.649   1.229  0.00  0.00    -0.004 A 
ATOM      5  C5  I4B d   1       2.032  -1.280  -0.006  0.00  0.00     0.002 A 
ATOM      6  C6  I4B d   1       1.617  -0.624  -1.173  0.00  0.00     0.003 A 
ENDROOT
BRANCH   1   7
ATOM      7  C1' I4B d   1       0.542   1.340  -2.308  0.00  0.00     0.060 C 
BRANCH   7   8
ATOM      8  C2' I4B d   1       1.315   0.822  -3.504  0.00  0.00    -0.013 C 
ATOM      9  C4' I4B d   1       0.387   0.275  -4.557  0.00  0.00     0.013 C 
ATOM     10  C3' I4B d   1       2.142   1.950  -4.044  0.00  0.00     0.013 C 
ENDBRANCH   7   8
ENDBRANCH   1   7
TORSDOF 2
ENDMDL
