MODEL 1
REMARK minimizedAffinity -5.9589057
REMARK minimizedRMSD -1
REMARK  2 active torsions:
REMARK  status: ('A' for Active; 'I' for Inactive)
REMARK    1  A    between atoms: C2'_3  and  C1'_4 
REMARK    2  A    between atoms: C1'_4  and  C1_5 
ROOT
ATOM      1  C1  I4B d   1      -1.404  -0.416  -0.146  0.00  0.00    -0.075 A 
ATOM      2  C2  I4B d   1      -0.581  -1.356  -0.716  0.00  0.00     0.003 A 
ATOM      3  C3  I4B d   1      -1.120  -2.565  -1.217  0.00  0.00     0.002 A 
ATOM      4  C4  I4B d   1      -2.471  -2.814  -1.083  0.00  0.00    -0.004 A 
ATOM      5  C5  I4B d   1      -3.307  -1.851  -0.526  0.00  0.00     0.002 A 
ATOM      6  C6  I4B d   1      -2.773  -0.639  -0.066  0.00  0.00     0.003 A 
ENDROOT
BRANCH   1   7
ATOM      7  C1' I4B d   1      -0.797   0.836   0.402  0.00  0.00     0.060 C 
BRANCH   7   8
ATOM      8  C2' I4B d   1      -0.265   0.529   1.787  0.00  0.00    -0.013 C 
ATOM      9  C4' I4B d   1       1.177   0.940   1.921  0.00  0.00     0.013 C 
ATOM     10  C3' I4B d   1      -1.127   1.246   2.784  0.00  0.00     0.013 C 
ENDBRANCH   7   8
ENDBRANCH   1   7
TORSDOF 2
ENDMDL
