MODEL 1
REMARK minimizedAffinity -1.19406033
REMARK minimizedRMSD -1
REMARK  2 active torsions:
REMARK  status: ('A' for Active; 'I' for Inactive)
REMARK    1  A    between atoms: C2'_3  and  C1'_4 
REMARK    2  A    between atoms: C1'_4  and  C1_5 
ROOT
ATOM      1  C1  I4B d   1       2.054   0.827  -0.865  0.00  0.00    -0.075 A 
ATOM      2  C2  I4B d   1       2.647   0.698   0.367  0.00  0.00     0.003 A 
ATOM      3  C3  I4B d   1       1.928   0.131   1.447  0.00  0.00     0.002 A 
ATOM      4  C4  I4B d   1       0.613  -0.245   1.267  0.00  0.00    -0.004 A 
ATOM      5  C5  I4B d   1       0.021  -0.134   0.012  0.00  0.00     0.002 A 
ATOM      6  C6  I4B d   1       0.750   0.393  -1.064  0.00  0.00     0.003 A 
ENDROOT
BRANCH   1   7
ATOM      7  C1' I4B d   1       2.830   1.460  -1.975  0.00  0.00     0.060 C 
BRANCH   7   8
ATOM      8  C2' I4B d   1       2.438   0.776  -3.269  0.00  0.00    -0.013 C 
ATOM      9  C4' I4B d   1       1.310   1.505  -3.951  0.00  0.00     0.013 C 
ATOM     10  C3' I4B d   1       3.652   0.713  -4.147  0.00  0.00     0.013 C 
ENDBRANCH   7   8
ENDBRANCH   1   7
TORSDOF 2
ENDMDL
