MODEL 1
REMARK minimizedAffinity -4.12519073
REMARK minimizedRMSD -1
REMARK  2 active torsions:
REMARK  status: ('A' for Active; 'I' for Inactive)
REMARK    1  A    between atoms: C2'_3  and  C1'_4 
REMARK    2  A    between atoms: C1'_4  and  C1_5 
ROOT
ATOM      1  C1  I4B d   1      -1.376  -0.262   0.484  0.00  0.00    -0.075 A 
ATOM      2  C2  I4B d   1      -0.060  -0.106   0.124  0.00  0.00     0.003 A 
ATOM      3  C3  I4B d   1       0.878   0.401   1.055  0.00  0.00     0.002 A 
ATOM      4  C4  I4B d   1       0.452   0.784   2.310  0.00  0.00    -0.004 A 
ATOM      5  C5  I4B d   1      -0.877   0.604   2.681  0.00  0.00     0.002 A 
ATOM      6  C6  I4B d   1      -1.795   0.066   1.767  0.00  0.00     0.003 A 
ENDROOT
BRANCH   1   7
ATOM      7  C1' I4B d   1      -2.346  -0.769  -0.534  0.00  0.00     0.060 C 
BRANCH   7   8
ATOM      8  C2' I4B d   1      -1.865  -2.127  -1.003  0.00  0.00    -0.013 C 
ATOM      9  C4' I4B d   1      -2.925  -3.179  -0.808  0.00  0.00     0.013 C 
ATOM     10  C3' I4B d   1      -1.478  -2.008  -2.447  0.00  0.00     0.013 C 
ENDBRANCH   7   8
ENDBRANCH   1   7
TORSDOF 2
ENDMDL
