MODEL 1
REMARK minimizedAffinity -2.7458117
REMARK minimizedRMSD -1
REMARK  2 active torsions:
REMARK  status: ('A' for Active; 'I' for Inactive)
REMARK    1  A    between atoms: C2'_3  and  C1'_4 
REMARK    2  A    between atoms: C1'_4  and  C1_5 
ROOT
ATOM      1  C1  I4B d   1       0.913  -0.455  -1.993  0.00  0.00    -0.075 A 
ATOM      2  C2  I4B d   1       0.178   0.474  -2.687  0.00  0.00     0.003 A 
ATOM      3  C3  I4B d   1       0.711   1.079  -3.851  0.00  0.00     0.002 A 
ATOM      4  C4  I4B d   1       1.993   0.766  -4.254  0.00  0.00    -0.004 A 
ATOM      5  C5  I4B d   1       2.728  -0.193  -3.562  0.00  0.00     0.002 A 
ATOM      6  C6  I4B d   1       2.181  -0.816  -2.432  0.00  0.00     0.003 A 
ENDROOT
BRANCH   1   7
ATOM      7  C1' I4B d   1       0.333  -1.050  -0.749  0.00  0.00     0.060 C 
BRANCH   7   8
ATOM      8  C2' I4B d   1      -0.137   0.086   0.136  0.00  0.00    -0.013 C 
ATOM      9  C4' I4B d   1      -1.626   0.026   0.357  0.00  0.00     0.013 C 
ATOM     10  C3' I4B d   1       0.607  -0.001   1.436  0.00  0.00     0.013 C 
ENDBRANCH   7   8
ENDBRANCH   1   7
TORSDOF 2
ENDMDL
