MODEL 1
REMARK minimizedAffinity -5.1862011
REMARK minimizedRMSD -1
REMARK  2 active torsions:
REMARK  status: ('A' for Active; 'I' for Inactive)
REMARK    1  A    between atoms: C2'_3  and  C1'_4 
REMARK    2  A    between atoms: C1'_4  and  C1_5 
ROOT
ATOM      1  C1  I4B d   1      -1.662  -0.447   0.471  0.00  0.00    -0.075 A 
ATOM      2  C2  I4B d   1      -0.382  -0.279   0.004  0.00  0.00     0.003 A 
ATOM      3  C3  I4B d   1       0.610   0.298   0.833  0.00  0.00     0.002 A 
ATOM      4  C4  I4B d   1       0.269   0.736   2.097  0.00  0.00    -0.004 A 
ATOM      5  C5  I4B d   1      -1.023   0.544   2.577  0.00  0.00     0.002 A 
ATOM      6  C6  I4B d   1      -1.992  -0.062   1.764  0.00  0.00     0.003 A 
ENDROOT
BRANCH   1   7
ATOM      7  C1' I4B d   1      -2.692  -1.029  -0.443  0.00  0.00     0.060 C 
BRANCH   7   8
ATOM      8  C2' I4B d   1      -2.759  -2.521  -0.182  0.00  0.00    -0.013 C 
ATOM      9  C4' I4B d   1      -4.112  -3.077  -0.537  0.00  0.00     0.013 C 
ATOM     10  C3' I4B d   1      -1.675  -3.179  -0.982  0.00  0.00     0.013 C 
ENDBRANCH   7   8
ENDBRANCH   1   7
TORSDOF 2
ENDMDL
