MODEL 1
REMARK minimizedAffinity -0.505471468
REMARK minimizedRMSD -1
REMARK  2 active torsions:
REMARK  status: ('A' for Active; 'I' for Inactive)
REMARK    1  A    between atoms: C2'_3  and  C1'_4 
REMARK    2  A    between atoms: C1'_4  and  C1_5 
ROOT
ATOM      1  C1  I4B d   1       0.218   0.819  -0.925  0.00  0.00    -0.075 A 
ATOM      2  C2  I4B d   1       0.721  -0.457  -0.879  0.00  0.00     0.003 A 
ATOM      3  C3  I4B d   1       1.146  -1.011   0.353  0.00  0.00     0.002 A 
ATOM      4  C4  I4B d   1       1.097  -0.242   1.498  0.00  0.00    -0.004 A 
ATOM      5  C5  I4B d   1       0.565   1.043   1.453  0.00  0.00     0.002 A 
ATOM      6  C6  I4B d   1       0.111   1.573   0.236  0.00  0.00     0.003 A 
ENDROOT
BRANCH   1   7
ATOM      7  C1' I4B d   1      -0.190   1.385  -2.248  0.00  0.00     0.060 C 
BRANCH   7   8
ATOM      8  C2' I4B d   1       0.678   0.751  -3.315  0.00  0.00    -0.013 C 
ATOM      9  C4' I4B d   1      -0.156   0.221  -4.452  0.00  0.00     0.013 C 
ATOM     10  C3' I4B d   1       1.652   1.785  -3.795  0.00  0.00     0.013 C 
ENDBRANCH   7   8
ENDBRANCH   1   7
TORSDOF 2
ENDMDL
