MODEL 1
REMARK minimizedAffinity 0.884012222
REMARK minimizedRMSD -1
REMARK  0 active torsions:
REMARK  status: ('A' for Active; 'I' for Inactive)
ROOT
ATOM      1  C   UNL d   1      -5.704  -4.223  -2.002  0.00  0.00     0.020 A 
ATOM      2  C1  UNL d   1      -5.063  -5.459  -2.080  0.00  0.00     0.020 A 
ATOM      3  C2  UNL d   1      -4.697  -5.979  -3.323  0.00  0.00     0.034 A 
ATOM      4  C3  UNL d   1      -4.973  -5.264  -4.494  0.00  0.00     0.017 A 
ATOM      5  C4  UNL d   1      -5.617  -4.024  -4.415  0.00  0.00     0.017 A 
ATOM      6  C5  UNL d   1      -5.981  -3.507  -3.168  0.00  0.00     0.034 A 
ATOM      7 Cl   UNL d   1      -5.990  -3.083  -5.816  0.00  0.00    -0.070 Cl
ATOM      8 Cl1  UNL d   1      -4.492  -5.967  -5.997  0.00  0.00    -0.070 Cl
ENDROOT
TORSDOF 0
ENDMDL
