MODEL 1
REMARK minimizedAffinity 4.37647438
REMARK minimizedRMSD -1
REMARK  0 active torsions:
REMARK  status: ('A' for Active; 'I' for Inactive)
ROOT
ATOM      1  C   UNL d   1      -6.000  -1.838   3.131  0.00  0.00     0.020 A 
ATOM      2  C1  UNL d   1      -5.340  -2.119   1.935  0.00  0.00     0.020 A 
ATOM      3  C2  UNL d   1      -4.217  -1.375   1.567  0.00  0.00     0.034 A 
ATOM      4  C3  UNL d   1      -3.751  -0.347   2.394  0.00  0.00     0.017 A 
ATOM      5  C4  UNL d   1      -4.414  -0.066   3.594  0.00  0.00     0.017 A 
ATOM      6  C5  UNL d   1      -5.538  -0.814   3.958  0.00  0.00     0.034 A 
ATOM      7 Cl   UNL d   1      -3.898   1.187   4.667  0.00  0.00    -0.070 Cl
ATOM      8 Cl1  UNL d   1      -2.356   0.532   1.876  0.00  0.00    -0.070 Cl
ENDROOT
TORSDOF 0
ENDMDL
