MODEL 1
REMARK minimizedAffinity 3.91466808
REMARK minimizedRMSD -1
REMARK  0 active torsions:
REMARK  status: ('A' for Active; 'I' for Inactive)
ROOT
ATOM      1  C   UNL d   1      -5.766  -5.999  -3.061  0.00  0.00     0.020 A 
ATOM      2  C1  UNL d   1      -4.826  -5.527  -2.145  0.00  0.00     0.020 A 
ATOM      3  C2  UNL d   1      -4.121  -4.352  -2.411  0.00  0.00     0.034 A 
ATOM      4  C3  UNL d   1      -4.353  -3.645  -3.596  0.00  0.00     0.017 A 
ATOM      5  C4  UNL d   1      -5.296  -4.119  -4.515  0.00  0.00     0.017 A 
ATOM      6  C5  UNL d   1      -6.000  -5.296  -4.243  0.00  0.00     0.034 A 
ATOM      7 Cl   UNL d   1      -5.637  -3.301  -5.999  0.00  0.00    -0.070 Cl
ATOM      8 Cl1  UNL d   1      -3.444  -2.199  -3.860  0.00  0.00    -0.070 Cl
ENDROOT
TORSDOF 0
ENDMDL
