MODEL 1
REMARK minimizedAffinity 8.30803776
REMARK minimizedRMSD -1
REMARK  0 active torsions:
REMARK  status: ('A' for Active; 'I' for Inactive)
ROOT
ATOM      1  C   UNL d   1      -5.998  -1.875   3.215  0.00  0.00     0.020 A 
ATOM      2  C1  UNL d   1      -5.985  -1.485   1.876  0.00  0.00     0.020 A 
ATOM      3  C2  UNL d   1      -4.907  -0.753   1.373  0.00  0.00     0.034 A 
ATOM      4  C3  UNL d   1      -3.839  -0.409   2.208  0.00  0.00     0.017 A 
ATOM      5  C4  UNL d   1      -3.853  -0.800   3.552  0.00  0.00     0.017 A 
ATOM      6  C5  UNL d   1      -4.934  -1.533   4.051  0.00  0.00     0.034 A 
ATOM      7 Cl   UNL d   1      -2.571  -0.413   4.644  0.00  0.00    -0.070 Cl
ATOM      8 Cl1  UNL d   1      -2.539   0.497   1.519  0.00  0.00    -0.070 Cl
ENDROOT
TORSDOF 0
ENDMDL
