MODEL 1
REMARK minimizedAffinity 8.58141136
REMARK minimizedRMSD -1
REMARK  0 active torsions:
REMARK  status: ('A' for Active; 'I' for Inactive)
ROOT
ATOM      1  C   UNL d   1       2.232  -0.812  -1.445  0.00  0.00     0.020 A 
ATOM      2  C1  UNL d   1       2.501  -2.177  -1.350  0.00  0.00     0.020 A 
ATOM      3  C2  UNL d   1       1.863  -2.948  -0.377  0.00  0.00     0.034 A 
ATOM      4  C3  UNL d   1       0.952  -2.355   0.506  0.00  0.00     0.017 A 
ATOM      5  C4  UNL d   1       0.683  -0.985   0.410  0.00  0.00     0.017 A 
ATOM      6  C5  UNL d   1       1.325  -0.218  -0.566  0.00  0.00     0.034 A 
ATOM      7 Cl   UNL d   1      -0.428  -0.183   1.463  0.00  0.00    -0.070 Cl
ATOM      8 Cl1  UNL d   1       0.199  -3.370   1.685  0.00  0.00    -0.070 Cl
ENDROOT
TORSDOF 0
ENDMDL
