MODEL 1
REMARK minimizedAffinity 2.43284822
REMARK minimizedRMSD -1
REMARK  0 active torsions:
REMARK  status: ('A' for Active; 'I' for Inactive)
ROOT
ATOM      1  C   UNL d   1      -6.000  -5.998  -5.200  0.00  0.00     0.020 A 
ATOM      2  C1  UNL d   1      -5.994  -4.856  -5.999  0.00  0.00     0.020 A 
ATOM      3  C2  UNL d   1      -5.310  -3.713  -5.578  0.00  0.00     0.034 A 
ATOM      4  C3  UNL d   1      -4.630  -3.710  -4.355  0.00  0.00     0.017 A 
ATOM      5  C4  UNL d   1      -4.637  -4.857  -3.554  0.00  0.00     0.017 A 
ATOM      6  C5  UNL d   1      -5.323  -5.999  -3.980  0.00  0.00     0.034 A 
ATOM      7 Cl   UNL d   1      -3.821  -4.930  -2.032  0.00  0.00    -0.070 Cl
ATOM      8 Cl1  UNL d   1      -3.805  -2.262  -3.898  0.00  0.00    -0.070 Cl
ENDROOT
TORSDOF 0
ENDMDL
