MODEL 1
REMARK minimizedAffinity 1.60901368
REMARK minimizedRMSD -1
REMARK  0 active torsions:
REMARK  status: ('A' for Active; 'I' for Inactive)
ROOT
ATOM      1  C   UNL d   1       1.984  -2.870  -1.146  0.00  0.00     0.020 A 
ATOM      2  C1  UNL d   1       1.325  -2.816  -2.373  0.00  0.00     0.020 A 
ATOM      3  C2  UNL d   1       1.317  -1.630  -3.111  0.00  0.00     0.034 A 
ATOM      4  C3  UNL d   1       1.971  -0.493  -2.622  0.00  0.00     0.017 A 
ATOM      5  C4  UNL d   1       2.633  -0.548  -1.390  0.00  0.00     0.017 A 
ATOM      6  C5  UNL d   1       2.637  -1.738  -0.656  0.00  0.00     0.034 A 
ATOM      7 Cl   UNL d   1       3.462   0.814  -0.722  0.00  0.00    -0.070 Cl
ATOM      8 Cl1  UNL d   1       1.922   0.939  -3.587  0.00  0.00    -0.070 Cl
ENDROOT
TORSDOF 0
ENDMDL
