MODEL 1
REMARK minimizedAffinity 0.90536952
REMARK minimizedRMSD -1
REMARK  0 active torsions:
REMARK  status: ('A' for Active; 'I' for Inactive)
ROOT
ATOM      1  C   UNL d   1      -5.936  -4.357  -3.624  0.00  0.00     0.020 A 
ATOM      2  C1  UNL d   1      -5.831  -5.557  -2.922  0.00  0.00     0.020 A 
ATOM      3  C2  UNL d   1      -4.585  -5.993  -2.466  0.00  0.00     0.034 A 
ATOM      4  C3  UNL d   1      -3.439  -5.228  -2.712  0.00  0.00     0.017 A 
ATOM      5  C4  UNL d   1      -3.545  -4.023  -3.416  0.00  0.00     0.017 A 
ATOM      6  C5  UNL d   1      -4.796  -3.592  -3.871  0.00  0.00     0.034 A 
ATOM      7 Cl   UNL d   1      -2.176  -3.025  -3.757  0.00  0.00    -0.070 Cl
ATOM      8 Cl1  UNL d   1      -1.931  -5.827  -2.118  0.00  0.00    -0.070 Cl
ENDROOT
TORSDOF 0
ENDMDL
