MODEL 1
REMARK minimizedAffinity 7.790277
REMARK minimizedRMSD -1
REMARK  0 active torsions:
REMARK  status: ('A' for Active; 'I' for Inactive)
ROOT
ATOM      1  C   UNL d   1      -6.000  -4.352  -5.991  0.00  0.00     0.020 A 
ATOM      2  C1  UNL d   1      -5.625  -5.662  -5.697  0.00  0.00     0.020 A 
ATOM      3  C2  UNL d   1      -5.211  -5.998  -4.407  0.00  0.00     0.034 A 
ATOM      4  C3  UNL d   1      -5.171  -5.022  -3.404  0.00  0.00     0.017 A 
ATOM      5  C4  UNL d   1      -5.547  -3.706  -3.700  0.00  0.00     0.017 A 
ATOM      6  C5  UNL d   1      -5.961  -3.376  -4.994  0.00  0.00     0.034 A 
ATOM      7 Cl   UNL d   1      -5.523  -2.447  -2.516  0.00  0.00    -0.070 Cl
ATOM      8 Cl1  UNL d   1      -4.649  -5.507  -1.830  0.00  0.00    -0.070 Cl
ENDROOT
TORSDOF 0
ENDMDL
