MODEL 1
REMARK minimizedAffinity 3.75543714
REMARK minimizedRMSD -1
REMARK  0 active torsions:
REMARK  status: ('A' for Active; 'I' for Inactive)
ROOT
ATOM      1  C   UNL d   1      -4.511  -5.817  -2.888  0.00  0.00     0.020 A 
ATOM      2  C1  UNL d   1      -5.648  -5.999  -3.674  0.00  0.00     0.020 A 
ATOM      3  C2  UNL d   1      -5.998  -5.042  -4.629  0.00  0.00     0.034 A 
ATOM      4  C3  UNL d   1      -5.210  -3.898  -4.800  0.00  0.00     0.017 A 
ATOM      5  C4  UNL d   1      -4.069  -3.716  -4.010  0.00  0.00     0.017 A 
ATOM      6  C5  UNL d   1      -3.723  -4.677  -3.056  0.00  0.00     0.034 A 
ATOM      7 Cl   UNL d   1      -3.047  -2.330  -4.164  0.00  0.00    -0.070 Cl
ATOM      8 Cl1  UNL d   1      -5.702  -2.756  -6.000  0.00  0.00    -0.070 Cl
ENDROOT
TORSDOF 0
ENDMDL
