MODEL 1
REMARK minimizedAffinity 3.25046921
REMARK minimizedRMSD -1
REMARK  0 active torsions:
REMARK  status: ('A' for Active; 'I' for Inactive)
ROOT
ATOM      1  C   UNL d   1      -5.333  -4.043  -1.895  0.00  0.00     0.020 A 
ATOM      2  C1  UNL d   1      -5.128  -5.414  -2.040  0.00  0.00     0.020 A 
ATOM      3  C2  UNL d   1      -5.180  -5.998  -3.308  0.00  0.00     0.034 A 
ATOM      4  C3  UNL d   1      -5.438  -5.209  -4.436  0.00  0.00     0.017 A 
ATOM      5  C4  UNL d   1      -5.644  -3.833  -4.289  0.00  0.00     0.017 A 
ATOM      6  C5  UNL d   1      -5.590  -3.254  -3.017  0.00  0.00     0.034 A 
ATOM      7 Cl   UNL d   1      -5.967  -2.795  -5.633  0.00  0.00    -0.070 Cl
ATOM      8 Cl1  UNL d   1      -5.488  -5.997  -5.972  0.00  0.00    -0.070 Cl
ENDROOT
TORSDOF 0
ENDMDL
