MODEL 1
REMARK minimizedAffinity 6.87456322
REMARK minimizedRMSD -1
REMARK  0 active torsions:
REMARK  status: ('A' for Active; 'I' for Inactive)
ROOT
ATOM      1  C   UNL d   1       2.336  -1.350  -2.098  0.00  0.00     0.020 A 
ATOM      2  C1  UNL d   1       2.681  -2.310  -1.148  0.00  0.00     0.020 A 
ATOM      3  C2  UNL d   1       2.161  -3.603  -1.240  0.00  0.00     0.034 A 
ATOM      4  C3  UNL d   1       1.293  -3.939  -2.285  0.00  0.00     0.017 A 
ATOM      5  C4  UNL d   1       0.947  -2.975  -3.239  0.00  0.00     0.017 A 
ATOM      6  C5  UNL d   1       1.471  -1.682  -3.141  0.00  0.00     0.034 A 
ATOM      7 Cl   UNL d   1      -0.118  -3.315  -4.557  0.00  0.00    -0.070 Cl
ATOM      8 Cl1  UNL d   1       0.688  -5.557  -2.338  0.00  0.00    -0.070 Cl
ENDROOT
TORSDOF 0
ENDMDL
