MODEL 1
REMARK minimizedAffinity 6.9126749
REMARK minimizedRMSD -1
REMARK  0 active torsions:
REMARK  status: ('A' for Active; 'I' for Inactive)
ROOT
ATOM      1  C   UNL d   1      -6.000  -5.762  -5.275  0.00  0.00     0.020 A 
ATOM      2  C1  UNL d   1      -6.000  -4.561  -5.983  0.00  0.00     0.020 A 
ATOM      3  C2  UNL d   1      -5.189  -3.504  -5.564  0.00  0.00     0.034 A 
ATOM      4  C3  UNL d   1      -4.375  -3.646  -4.434  0.00  0.00     0.017 A 
ATOM      5  C4  UNL d   1      -4.375  -4.853  -3.725  0.00  0.00     0.017 A 
ATOM      6  C5  UNL d   1      -5.189  -5.908  -4.148  0.00  0.00     0.034 A 
ATOM      7 Cl   UNL d   1      -3.398  -5.103  -2.321  0.00  0.00    -0.070 Cl
ATOM      8 Cl1  UNL d   1      -3.397  -2.298  -3.974  0.00  0.00    -0.070 Cl
ENDROOT
TORSDOF 0
ENDMDL
