MODEL 1
REMARK minimizedAffinity 7.37740183
REMARK minimizedRMSD -1
REMARK  0 active torsions:
REMARK  status: ('A' for Active; 'I' for Inactive)
ROOT
ATOM      1  C   UNL d   1      -6.000  -5.754  -5.409  0.00  0.00     0.020 A 
ATOM      2  C1  UNL d   1      -5.970  -4.491  -6.000  0.00  0.00     0.020 A 
ATOM      3  C2  UNL d   1      -5.201  -3.473  -5.432  0.00  0.00     0.034 A 
ATOM      4  C3  UNL d   1      -4.459  -3.716  -4.270  0.00  0.00     0.017 A 
ATOM      5  C4  UNL d   1      -4.490  -4.983  -3.678  0.00  0.00     0.017 A 
ATOM      6  C5  UNL d   1      -5.262  -5.999  -4.251  0.00  0.00     0.034 A 
ATOM      7 Cl   UNL d   1      -3.602  -5.358  -2.244  0.00  0.00    -0.070 Cl
ATOM      8 Cl1  UNL d   1      -3.531  -2.410  -3.622  0.00  0.00    -0.070 Cl
ENDROOT
TORSDOF 0
ENDMDL
