MODEL 1
REMARK minimizedAffinity 8.41931057
REMARK minimizedRMSD -1
REMARK  0 active torsions:
REMARK  status: ('A' for Active; 'I' for Inactive)
ROOT
ATOM      1  C   UNL d   1      -6.000  -0.800   2.113  0.00  0.00     0.020 A 
ATOM      2  C1  UNL d   1      -5.798  -1.729   3.133  0.00  0.00     0.020 A 
ATOM      3  C2  UNL d   1      -4.561  -1.803   3.775  0.00  0.00     0.034 A 
ATOM      4  C3  UNL d   1      -3.520  -0.947   3.399  0.00  0.00     0.017 A 
ATOM      5  C4  UNL d   1      -3.723  -0.014   2.375  0.00  0.00     0.017 A 
ATOM      6  C5  UNL d   1      -4.964   0.055   1.735  0.00  0.00     0.034 A 
ATOM      7 Cl   UNL d   1      -2.487   1.076   1.855  0.00  0.00    -0.070 Cl
ATOM      8 Cl1  UNL d   1      -2.016  -1.093   4.236  0.00  0.00    -0.070 Cl
ENDROOT
TORSDOF 0
ENDMDL
