MODEL 1
REMARK minimizedAffinity 2.76525879
REMARK minimizedRMSD -1
REMARK  0 active torsions:
REMARK  status: ('A' for Active; 'I' for Inactive)
ROOT
ATOM      1  C   UNL d   1      -5.642  -5.999  -3.559  0.00  0.00     0.020 A 
ATOM      2  C1  UNL d   1      -4.546  -5.741  -2.738  0.00  0.00     0.020 A 
ATOM      3  C2  UNL d   1      -3.805  -4.569  -2.909  0.00  0.00     0.034 A 
ATOM      4  C3  UNL d   1      -4.160  -3.651  -3.904  0.00  0.00     0.017 A 
ATOM      5  C4  UNL d   1      -5.261  -3.911  -4.729  0.00  0.00     0.017 A 
ATOM      6  C5  UNL d   1      -5.999  -5.086  -4.553  0.00  0.00     0.034 A 
ATOM      7 Cl   UNL d   1      -5.759  -2.826  -5.978  0.00  0.00    -0.070 Cl
ATOM      8 Cl1  UNL d   1      -3.200  -2.223  -4.059  0.00  0.00    -0.070 Cl
ENDROOT
TORSDOF 0
ENDMDL
