MODEL 1
REMARK minimizedAffinity -1.56118786
REMARK minimizedRMSD -1
REMARK  0 active torsions:
REMARK  status: ('A' for Active; 'I' for Inactive)
ROOT
ATOM      1  O1  BZF d   1       1.453   0.002  -1.601  0.00  0.00    -0.204 OA
ATOM      2  C2  BZF d   1       0.657   0.226  -2.707  0.00  0.00     0.174 A 
ATOM      3  C3  BZF d   1      -0.646   0.256  -2.362  0.00  0.00    -0.012 A 
ATOM      4  C3A BZF d   1      -0.660   0.129  -0.937  0.00  0.00    -0.107 A 
ATOM      5  C4  BZF d   1      -1.659   0.107  -0.006  0.00  0.00     0.055 A 
ATOM      6  C5  BZF d   1      -1.342  -0.106   1.299  0.00  0.00    -0.016 A 
ATOM      7  C6  BZF d   1      -0.039  -0.305   1.706  0.00  0.00     0.022 A 
ATOM      8  C7  BZF d   1       0.986  -0.286   0.820  0.00  0.00     0.029 A 
ATOM      9  C7A BZF d   1       0.672  -0.039  -0.494  0.00  0.00     0.058 A 
ENDROOT
TORSDOF 0
ENDMDL
