MODEL 1
REMARK minimizedAffinity -3.32249594
REMARK minimizedRMSD -1
REMARK  0 active torsions:
REMARK  status: ('A' for Active; 'I' for Inactive)
ROOT
ATOM      1  O1  BZF d   1       0.362   0.114   2.982  0.00  0.00    -0.204 OA
ATOM      2  C2  BZF d   1      -0.798  -0.604   3.198  0.00  0.00     0.174 A 
ATOM      3  C3  BZF d   1      -1.422  -0.867   2.032  0.00  0.00    -0.012 A 
ATOM      4  C3A BZF d   1      -0.554  -0.356   1.017  0.00  0.00    -0.107 A 
ATOM      5  C4  BZF d   1      -0.617  -0.330  -0.347  0.00  0.00     0.055 A 
ATOM      6  C5  BZF d   1       0.360   0.310  -1.042  0.00  0.00    -0.016 A 
ATOM      7  C6  BZF d   1       1.410   0.939  -0.406  0.00  0.00     0.022 A 
ATOM      8  C7  BZF d   1       1.519   0.936   0.945  0.00  0.00     0.029 A 
ATOM      9  C7A BZF d   1       0.551   0.261   1.649  0.00  0.00     0.058 A 
ENDROOT
TORSDOF 0
ENDMDL
