MODEL 1
REMARK minimizedAffinity -4.34195662
REMARK minimizedRMSD -1
REMARK  0 active torsions:
REMARK  status: ('A' for Active; 'I' for Inactive)
ROOT
ATOM      1  O1  BZF d   1      -0.998   0.641  -1.446  0.00  0.00    -0.204 OA
ATOM      2  C2  BZF d   1       0.381   0.576  -1.398  0.00  0.00     0.174 A 
ATOM      3  C3  BZF d   1       0.806   0.360  -0.136  0.00  0.00    -0.012 A 
ATOM      4  C3A BZF d   1      -0.386   0.192   0.638  0.00  0.00    -0.107 A 
ATOM      5  C4  BZF d   1      -0.618  -0.065   1.959  0.00  0.00     0.055 A 
ATOM      6  C5  BZF d   1      -1.900  -0.096   2.410  0.00  0.00    -0.016 A 
ATOM      7  C6  BZF d   1      -2.971   0.131   1.571  0.00  0.00     0.022 A 
ATOM      8  C7  BZF d   1      -2.790   0.386   0.252  0.00  0.00     0.029 A 
ATOM      9  C7A BZF d   1      -1.498   0.385  -0.213  0.00  0.00     0.058 A 
ENDROOT
TORSDOF 0
ENDMDL
