MODEL 1
REMARK minimizedAffinity -5.97502565
REMARK minimizedRMSD -1
REMARK  0 active torsions:
REMARK  status: ('A' for Active; 'I' for Inactive)
ROOT
ATOM      1  O1  BZF d   1      -0.778   0.374  -0.272  0.00  0.00    -0.204 OA
ATOM      2  C2  BZF d   1       0.599   0.368  -0.155  0.00  0.00     0.174 A 
ATOM      3  C3  BZF d   1       0.969   0.316   1.140  0.00  0.00    -0.012 A 
ATOM      4  C3A BZF d   1      -0.252   0.194   1.876  0.00  0.00    -0.107 A 
ATOM      5  C4  BZF d   1      -0.539   0.083   3.207  0.00  0.00     0.055 A 
ATOM      6  C5  BZF d   1      -1.839   0.056   3.602  0.00  0.00    -0.016 A 
ATOM      7  C6  BZF d   1      -2.875   0.144   2.695  0.00  0.00     0.022 A 
ATOM      8  C7  BZF d   1      -2.640   0.251   1.365  0.00  0.00     0.029 A 
ATOM      9  C7A BZF d   1      -1.328   0.245   0.960  0.00  0.00     0.058 A 
ENDROOT
TORSDOF 0
ENDMDL
