MODEL 1
REMARK minimizedAffinity -3.46203375
REMARK minimizedRMSD -1
REMARK  0 active torsions:
REMARK  status: ('A' for Active; 'I' for Inactive)
ROOT
ATOM      1  O1  BZF d   1      -1.197   0.032   1.692  0.00  0.00    -0.204 OA
ATOM      2  C2  BZF d   1      -0.833   0.371   2.982  0.00  0.00     0.174 A 
ATOM      3  C3  BZF d   1       0.451   0.782   3.024  0.00  0.00    -0.012 A 
ATOM      4  C3A BZF d   1       0.891   0.783   1.663  0.00  0.00    -0.107 A 
ATOM      5  C4  BZF d   1       2.071   1.110   1.057  0.00  0.00     0.055 A 
ATOM      6  C5  BZF d   1       2.197   0.930  -0.284  0.00  0.00    -0.016 A 
ATOM      7  C6  BZF d   1       1.168   0.421  -1.048  0.00  0.00     0.022 A 
ATOM      8  C7  BZF d   1      -0.022   0.086  -0.493  0.00  0.00     0.029 A 
ATOM      9  C7A BZF d   1      -0.165   0.298   0.856  0.00  0.00     0.058 A 
ENDROOT
TORSDOF 0
ENDMDL
