MODEL 1
REMARK minimizedAffinity 3.8617897
REMARK minimizedRMSD -1
REMARK  0 active torsions:
REMARK  status: ('A' for Active; 'I' for Inactive)
ROOT
ATOM      1  O1  BZF d   1       0.104   1.618  -0.619  0.00  0.00    -0.204 OA
ATOM      2  C2  BZF d   1       1.246   2.387  -0.504  0.00  0.00     0.174 A 
ATOM      3  C3  BZF d   1       1.778   2.271   0.730  0.00  0.00    -0.012 A 
ATOM      4  C3A BZF d   1       0.966   1.302   1.400  0.00  0.00    -0.107 A 
ATOM      5  C4  BZF d   1       1.001   0.751   2.649  0.00  0.00     0.055 A 
ATOM      6  C5  BZF d   1       0.019  -0.114   3.017  0.00  0.00    -0.016 A 
ATOM      7  C6  BZF d   1      -1.014  -0.444   2.165  0.00  0.00     0.022 A 
ATOM      8  C7  BZF d   1      -1.089   0.074   0.914  0.00  0.00     0.029 A 
ATOM      9  C7A BZF d   1      -0.080   0.922   0.528  0.00  0.00     0.058 A 
ENDROOT
TORSDOF 0
ENDMDL
