MODEL 1
REMARK minimizedAffinity 3.61567926
REMARK minimizedRMSD -1
REMARK  0 active torsions:
REMARK  status: ('A' for Active; 'I' for Inactive)
ROOT
ATOM      1  O1  BZF d   1      -1.138   0.670  -0.333  0.00  0.00    -0.204 OA
ATOM      2  C2  BZF d   1      -2.480   0.575  -0.647  0.00  0.00     0.174 A 
ATOM      3  C3  BZF d   1      -3.183   0.094   0.398  0.00  0.00    -0.012 A 
ATOM      4  C3A BZF d   1      -2.235  -0.040   1.461  0.00  0.00    -0.107 A 
ATOM      5  C4  BZF d   1      -2.331  -0.455   2.758  0.00  0.00     0.055 A 
ATOM      6  C5  BZF d   1      -1.202  -0.537   3.510  0.00  0.00    -0.016 A 
ATOM      7  C6  BZF d   1       0.038  -0.217   2.997  0.00  0.00     0.022 A 
ATOM      8  C7  BZF d   1       0.182   0.205   1.717  0.00  0.00     0.029 A 
ATOM      9  C7A BZF d   1      -0.961   0.321   0.964  0.00  0.00     0.058 A 
ENDROOT
TORSDOF 0
ENDMDL
