MODEL 1
REMARK minimizedAffinity -2.98038006
REMARK minimizedRMSD -1
REMARK  0 active torsions:
REMARK  status: ('A' for Active; 'I' for Inactive)
ROOT
ATOM      1  O1  BZF d   1      -1.121  -0.905  -0.831  0.00  0.00    -0.204 OA
ATOM      2  C2  BZF d   1      -0.464  -0.063  -1.708  0.00  0.00     0.174 A 
ATOM      3  C3  BZF d   1       0.331   0.797  -1.040  0.00  0.00    -0.012 A 
ATOM      4  C3A BZF d   1       0.232   0.411   0.334  0.00  0.00    -0.107 A 
ATOM      5  C4  BZF d   1       0.803   0.878   1.484  0.00  0.00     0.055 A 
ATOM      6  C5  BZF d   1       0.440   0.327   2.672  0.00  0.00    -0.016 A 
ATOM      7  C6  BZF d   1      -0.494  -0.685   2.748  0.00  0.00     0.022 A 
ATOM      8  C7  BZF d   1      -1.084  -1.184   1.635  0.00  0.00     0.029 A 
ATOM      9  C7A BZF d   1      -0.695  -0.653   0.429  0.00  0.00     0.058 A 
ENDROOT
TORSDOF 0
ENDMDL
