MODEL 1
REMARK minimizedAffinity -3.60970807
REMARK minimizedRMSD -1
REMARK  0 active torsions:
REMARK  status: ('A' for Active; 'I' for Inactive)
ROOT
ATOM      1  O1  BZF d   1       1.052  -0.297   1.848  0.00  0.00    -0.204 OA
ATOM      2  C2  BZF d   1       0.424  -0.248   3.077  0.00  0.00     0.174 A 
ATOM      3  C3  BZF d   1      -0.888   0.033   2.934  0.00  0.00    -0.012 A 
ATOM      4  C3A BZF d   1      -1.111   0.076   1.521  0.00  0.00    -0.107 A 
ATOM      5  C4  BZF d   1      -2.217   0.296   0.751  0.00  0.00     0.055 A 
ATOM      6  C5  BZF d   1      -2.083   0.344  -0.600  0.00  0.00    -0.016 A 
ATOM      7  C6  BZF d   1      -0.859   0.183  -1.214  0.00  0.00     0.022 A 
ATOM      8  C7  BZF d   1       0.267  -0.043  -0.493  0.00  0.00     0.029 A 
ATOM      9  C7A BZF d   1       0.129  -0.125   0.871  0.00  0.00     0.058 A 
ENDROOT
TORSDOF 0
ENDMDL
