MODEL 1
REMARK minimizedAffinity -5.55241537
REMARK minimizedRMSD -1
REMARK  0 active torsions:
REMARK  status: ('A' for Active; 'I' for Inactive)
ROOT
ATOM      1  O1  BZF d   1      -1.048   0.183  -0.378  0.00  0.00    -0.204 OA
ATOM      2  C2  BZF d   1       0.333   0.230  -0.418  0.00  0.00     0.174 A 
ATOM      3  C3  BZF d   1       0.852   0.074   0.817  0.00  0.00    -0.012 A 
ATOM      4  C3A BZF d   1      -0.271  -0.172   1.669  0.00  0.00    -0.107 A 
ATOM      5  C4  BZF d   1      -0.398  -0.421   3.006  0.00  0.00     0.055 A 
ATOM      6  C5  BZF d   1      -1.642  -0.544   3.539  0.00  0.00    -0.016 A 
ATOM      7  C6  BZF d   1      -2.779  -0.421   2.767  0.00  0.00     0.022 A 
ATOM      8  C7  BZF d   1      -2.703  -0.179   1.436  0.00  0.00     0.029 A 
ATOM      9  C7A BZF d   1      -1.446  -0.087   0.888  0.00  0.00     0.058 A 
ENDROOT
TORSDOF 0
ENDMDL
