MODEL 1
REMARK minimizedAffinity -5.47627497
REMARK minimizedRMSD -1
REMARK  0 active torsions:
REMARK  status: ('A' for Active; 'I' for Inactive)
ROOT
ATOM      1  O1  BZF d   1      -0.611   0.723  -0.458  0.00  0.00    -0.204 OA
ATOM      2  C2  BZF d   1       0.769   0.716  -0.526  0.00  0.00     0.174 A 
ATOM      3  C3  BZF d   1       1.306   0.437   0.679  0.00  0.00    -0.012 A 
ATOM      4  C3A BZF d   1       0.191   0.168   1.535  0.00  0.00    -0.107 A 
ATOM      5  C4  BZF d   1       0.080  -0.185   2.849  0.00  0.00     0.055 A 
ATOM      6  C5  BZF d   1      -1.157  -0.302   3.400  0.00  0.00    -0.016 A 
ATOM      7  C6  BZF d   1      -2.302  -0.068   2.668  0.00  0.00     0.022 A 
ATOM      8  C7  BZF d   1      -2.243   0.280   1.359  0.00  0.00     0.029 A 
ATOM      9  C7A BZF d   1      -0.995   0.366   0.791  0.00  0.00     0.058 A 
ENDROOT
TORSDOF 0
ENDMDL
