MODEL 1
REMARK minimizedAffinity -3.04247069
REMARK minimizedRMSD -1
REMARK  0 active torsions:
REMARK  status: ('A' for Active; 'I' for Inactive)
ROOT
ATOM      1  O1  BZF d   1      -0.943   0.535  -1.302  0.00  0.00    -0.204 OA
ATOM      2  C2  BZF d   1       0.413   0.324  -1.142  0.00  0.00     0.174 A 
ATOM      3  C3  BZF d   1       0.712   0.092   0.152  0.00  0.00    -0.012 A 
ATOM      4  C3A BZF d   1      -0.547   0.070   0.831  0.00  0.00    -0.107 A 
ATOM      5  C4  BZF d   1      -0.909  -0.132   2.132  0.00  0.00     0.055 A 
ATOM      6  C5  BZF d   1      -2.218  -0.016   2.480  0.00  0.00    -0.016 A 
ATOM      7  C6  BZF d   1      -3.189   0.306   1.555  0.00  0.00     0.022 A 
ATOM      8  C7  BZF d   1      -2.879   0.511   0.251  0.00  0.00     0.029 A 
ATOM      9  C7A BZF d   1      -1.562   0.361  -0.110  0.00  0.00     0.058 A 
ENDROOT
TORSDOF 0
ENDMDL
