MODEL 1
REMARK minimizedAffinity -2.93601465
REMARK minimizedRMSD -1
REMARK  0 active torsions:
REMARK  status: ('A' for Active; 'I' for Inactive)
ROOT
ATOM      1  O1  BZF d   1      -1.397   0.844  -0.973  0.00  0.00    -0.204 OA
ATOM      2  C2  BZF d   1      -0.371   0.570  -1.858  0.00  0.00     0.174 A 
ATOM      3  C3  BZF d   1       0.747   0.209  -1.196  0.00  0.00    -0.012 A 
ATOM      4  C3A BZF d   1       0.372   0.170   0.184  0.00  0.00    -0.107 A 
ATOM      5  C4  BZF d   1       1.045  -0.137   1.331  0.00  0.00     0.055 A 
ATOM      6  C5  BZF d   1       0.410  -0.006   2.525  0.00  0.00    -0.016 A 
ATOM      7  C6  BZF d   1      -0.895   0.435   2.609  0.00  0.00     0.022 A 
ATOM      8  C7  BZF d   1      -1.605   0.747   1.498  0.00  0.00     0.029 A 
ATOM      9  C7A BZF d   1      -0.976   0.584   0.288  0.00  0.00     0.058 A 
ENDROOT
TORSDOF 0
ENDMDL
