MODEL 1
REMARK minimizedAffinity 2.98031521
REMARK minimizedRMSD -1
REMARK  0 active torsions:
REMARK  status: ('A' for Active; 'I' for Inactive)
ROOT
ATOM      1  O1  BZF d   1      -0.802   0.511   0.534  0.00  0.00    -0.204 OA
ATOM      2  C2  BZF d   1      -0.504   0.423  -0.812  0.00  0.00     0.174 A 
ATOM      3  C3  BZF d   1      -0.907  -0.762  -1.314  0.00  0.00    -0.012 A 
ATOM      4  C3A BZF d   1      -1.575  -1.422  -0.234  0.00  0.00    -0.107 A 
ATOM      5  C4  BZF d   1      -2.206  -2.627  -0.117  0.00  0.00     0.055 A 
ATOM      6  C5  BZF d   1      -2.690  -3.003   1.096  0.00  0.00    -0.016 A 
ATOM      7  C6  BZF d   1      -2.556  -2.203   2.212  0.00  0.00     0.022 A 
ATOM      8  C7  BZF d   1      -1.942  -0.996   2.143  0.00  0.00     0.029 A 
ATOM      9  C7A BZF d   1      -1.481  -0.599   0.912  0.00  0.00     0.058 A 
ENDROOT
TORSDOF 0
ENDMDL
