MODEL 1
REMARK minimizedAffinity -2.75273395
REMARK minimizedRMSD -1
REMARK  0 active torsions:
REMARK  status: ('A' for Active; 'I' for Inactive)
ROOT
ATOM      1  O1  BZF d   1      -0.103   0.507   3.591  0.00  0.00    -0.204 OA
ATOM      2  C2  BZF d   1      -1.004  -0.523   3.779  0.00  0.00     0.174 A 
ATOM      3  C3  BZF d   1      -1.318  -1.105   2.603  0.00  0.00    -0.012 A 
ATOM      4  C3A BZF d   1      -0.496  -0.453   1.630  0.00  0.00    -0.107 A 
ATOM      5  C4  BZF d   1      -0.341  -0.602   0.281  0.00  0.00     0.055 A 
ATOM      6  C5  BZF d   1       0.491   0.242  -0.385  0.00  0.00    -0.016 A 
ATOM      7  C6  BZF d   1       1.177   1.247   0.264  0.00  0.00     0.022 A 
ATOM      8  C7  BZF d   1       1.059   1.430   1.601  0.00  0.00     0.029 A 
ATOM      9  C7A BZF d   1       0.245   0.558   2.282  0.00  0.00     0.058 A 
ENDROOT
TORSDOF 0
ENDMDL
