MODEL 1
REMARK minimizedAffinity -3.29881597
REMARK minimizedRMSD -1
REMARK  0 active torsions:
REMARK  status: ('A' for Active; 'I' for Inactive)
ROOT
ATOM      1  O1  BZF d   1      -0.900  -0.008  -0.704  0.00  0.00    -0.204 OA
ATOM      2  C2  BZF d   1       0.432   0.265  -0.951  0.00  0.00     0.174 A 
ATOM      3  C3  BZF d   1       1.145   0.240   0.193  0.00  0.00    -0.012 A 
ATOM      4  C3A BZF d   1       0.218  -0.158   1.207  0.00  0.00    -0.107 A 
ATOM      5  C4  BZF d   1       0.331  -0.377   2.550  0.00  0.00     0.055 A 
ATOM      6  C5  BZF d   1      -0.782  -0.686   3.266  0.00  0.00    -0.016 A 
ATOM      7  C6  BZF d   1      -2.024  -0.779   2.672  0.00  0.00     0.022 A 
ATOM      8  C7  BZF d   1      -2.186  -0.575   1.342  0.00  0.00     0.029 A 
ATOM      9  C7A BZF d   1      -1.057  -0.295   0.611  0.00  0.00     0.058 A 
ENDROOT
TORSDOF 0
ENDMDL
