MODEL 1
REMARK minimizedAffinity 7.40160465
REMARK minimizedRMSD -1
REMARK  1 active torsions:
REMARK  status: ('A' for Active; 'I' for Inactive)
REMARK    1  A    between atoms: C1_2  and  C2_3 
ROOT
ATOM      1  C2  UNL d   1      -4.265   0.669   3.967  0.00  0.00    -0.081 A 
ATOM      2  C3  UNL d   1      -4.816  -0.262   3.079  0.00  0.00     0.006 A 
ATOM      3  C4  UNL d   1      -4.731  -1.631   3.344  0.00  0.00     0.002 A 
ATOM      4  C5  UNL d   1      -4.100  -2.091   4.505  0.00  0.00    -0.080 A 
ATOM      5  C6  UNL d   1      -4.028  -3.556   4.818  0.00  0.00     0.076 C 
ATOM      6  C7  UNL d   1      -3.535  -1.161   5.385  0.00  0.00     0.002 A 
ATOM      7  C8  UNL d   1      -3.619   0.207   5.119  0.00  0.00     0.006 A 
ENDROOT
BRANCH   1   8
ATOM      8  C1  UNL d   1      -4.413   2.148   3.716  0.00  0.00     0.054 C 
ATOM      9  C   UNL d   1      -5.794   2.643   4.121  0.00  0.00     0.018 C 
ENDBRANCH   1   8
TORSDOF 1
ENDMDL
