MODEL 1
REMARK minimizedAffinity 8.07083035
REMARK minimizedRMSD -1
REMARK  1 active torsions:
REMARK  status: ('A' for Active; 'I' for Inactive)
REMARK    1  A    between atoms: C1_2  and  C2_3 
ROOT
ATOM      1  C2  UNL d   1      -2.063   1.091  -3.950  0.00  0.00    -0.081 A 
ATOM      2  C3  UNL d   1      -2.276   1.080  -5.334  0.00  0.00     0.006 A 
ATOM      3  C4  UNL d   1      -2.669   2.244  -5.999  0.00  0.00     0.002 A 
ATOM      4  C5  UNL d   1      -2.848   3.438  -5.293  0.00  0.00    -0.080 A 
ATOM      5  C6  UNL d   1      -3.241   4.702  -6.000  0.00  0.00     0.076 C 
ATOM      6  C7  UNL d   1      -2.652   3.445  -3.908  0.00  0.00     0.002 A 
ATOM      7  C8  UNL d   1      -2.260   2.282  -3.242  0.00  0.00     0.006 A 
ENDROOT
BRANCH   1   8
ATOM      8  C1  UNL d   1      -1.576  -0.146  -3.239  0.00  0.00     0.054 C 
ATOM      9  C   UNL d   1      -0.146   0.025  -2.748  0.00  0.00     0.018 C 
ENDBRANCH   1   8
TORSDOF 1
ENDMDL
