MODEL 1
REMARK minimizedAffinity 8.44323254
REMARK minimizedRMSD -1
REMARK  1 active torsions:
REMARK  status: ('A' for Active; 'I' for Inactive)
REMARK    1  A    between atoms: C1_2  and  C2_3 
ROOT
ATOM      1  C2  UNL d   1      -3.563   3.937  -5.577  0.00  0.00    -0.081 A 
ATOM      2  C3  UNL d   1      -2.384   4.563  -6.000  0.00  0.00     0.006 A 
ATOM      3  C4  UNL d   1      -1.138   4.032  -5.657  0.00  0.00     0.002 A 
ATOM      4  C5  UNL d   1      -1.050   2.864  -4.893  0.00  0.00    -0.080 A 
ATOM      5  C6  UNL d   1       0.280   2.266  -4.543  0.00  0.00     0.076 C 
ATOM      6  C7  UNL d   1      -2.228   2.248  -4.455  0.00  0.00     0.002 A 
ATOM      7  C8  UNL d   1      -3.474   2.779  -4.797  0.00  0.00     0.006 A 
ENDROOT
BRANCH   1   8
ATOM      8  C1  UNL d   1      -4.908   4.471  -5.999  0.00  0.00     0.054 C 
ATOM      9  C   UNL d   1      -5.901   4.442  -4.846  0.00  0.00     0.018 C 
ENDBRANCH   1   8
TORSDOF 1
ENDMDL
