MODEL 1
REMARK minimizedAffinity 11.160738
REMARK minimizedRMSD -1
REMARK  1 active torsions:
REMARK  status: ('A' for Active; 'I' for Inactive)
REMARK    1  A    between atoms: C1_2  and  C2_3 
ROOT
ATOM      1  C2  UNL d   1      -1.049   1.272   2.894  0.00  0.00    -0.081 A 
ATOM      2  C3  UNL d   1      -2.372   1.641   3.166  0.00  0.00     0.006 A 
ATOM      3  C4  UNL d   1      -3.413   0.726   2.989  0.00  0.00     0.002 A 
ATOM      4  C5  UNL d   1      -3.147  -0.574   2.545  0.00  0.00    -0.080 A 
ATOM      5  C6  UNL d   1      -4.252  -1.575   2.381  0.00  0.00     0.076 C 
ATOM      6  C7  UNL d   1      -1.827  -0.937   2.257  0.00  0.00     0.002 A 
ATOM      7  C8  UNL d   1      -0.786  -0.023   2.433  0.00  0.00     0.006 A 
ENDROOT
BRANCH   1   8
ATOM      8  C1  UNL d   1       0.083   2.236   3.145  0.00  0.00     0.054 C 
ATOM      9  C   UNL d   1       1.317   1.516   3.669  0.00  0.00     0.018 C 
ENDBRANCH   1   8
TORSDOF 1
ENDMDL
