MODEL 1
REMARK minimizedAffinity 15.2200403
REMARK minimizedRMSD -1
REMARK  1 active torsions:
REMARK  status: ('A' for Active; 'I' for Inactive)
REMARK    1  A    between atoms: C1_2  and  C2_3 
ROOT
ATOM      1  C2  UNL d   1      -3.699   0.367   3.842  0.00  0.00    -0.081 A 
ATOM      2  C3  UNL d   1      -3.873  -0.727   2.987  0.00  0.00     0.006 A 
ATOM      3  C4  UNL d   1      -3.897  -2.028   3.497  0.00  0.00     0.002 A 
ATOM      4  C5  UNL d   1      -3.756  -2.254   4.870  0.00  0.00    -0.080 A 
ATOM      5  C6  UNL d   1      -3.810  -3.643   5.433  0.00  0.00     0.076 C 
ATOM      6  C7  UNL d   1      -3.564  -1.162   5.722  0.00  0.00     0.002 A 
ATOM      7  C8  UNL d   1      -3.539   0.138   5.213  0.00  0.00     0.006 A 
ENDROOT
BRANCH   1   8
ATOM      8  C1  UNL d   1      -3.737   1.775   3.304  0.00  0.00     0.054 C 
ATOM      9  C   UNL d   1      -4.797   2.609   4.009  0.00  0.00     0.018 C 
ENDBRANCH   1   8
TORSDOF 1
ENDMDL
