MODEL 1
REMARK minimizedAffinity 13.2809448
REMARK minimizedRMSD -1
REMARK  1 active torsions:
REMARK  status: ('A' for Active; 'I' for Inactive)
REMARK    1  A    between atoms: C1_2  and  C2_3 
ROOT
ATOM      1  C2  UNL d   1      -1.749  -3.762  -4.872  0.00  0.00    -0.081 A 
ATOM      2  C3  UNL d   1      -2.614  -2.853  -4.249  0.00  0.00     0.006 A 
ATOM      3  C4  UNL d   1      -3.988  -2.900  -4.494  0.00  0.00     0.002 A 
ATOM      4  C5  UNL d   1      -4.522  -3.861  -5.360  0.00  0.00    -0.080 A 
ATOM      5  C6  UNL d   1      -5.998  -3.942  -5.608  0.00  0.00     0.076 C 
ATOM      6  C7  UNL d   1      -3.656  -4.758  -5.995  0.00  0.00     0.002 A 
ATOM      7  C8  UNL d   1      -2.282  -4.711  -5.751  0.00  0.00     0.006 A 
ENDROOT
BRANCH   1   8
ATOM      8  C1  UNL d   1      -0.275  -3.754  -4.559  0.00  0.00     0.054 C 
ATOM      9  C   UNL d   1      -0.023  -3.474  -3.085  0.00  0.00     0.018 C 
ENDBRANCH   1   8
TORSDOF 1
ENDMDL
