MODEL 1
REMARK minimizedAffinity 9.40352058
REMARK minimizedRMSD -1
REMARK  1 active torsions:
REMARK  status: ('A' for Active; 'I' for Inactive)
REMARK    1  A    between atoms: C1_2  and  C2_3 
ROOT
ATOM      1  C2  UNL d   1       0.388   1.265   3.772  0.00  0.00    -0.081 A 
ATOM      2  C3  UNL d   1      -0.731   2.106   3.727  0.00  0.00     0.006 A 
ATOM      3  C4  UNL d   1      -1.910   1.683   3.109  0.00  0.00     0.002 A 
ATOM      4  C5  UNL d   1      -1.993   0.411   2.532  0.00  0.00    -0.080 A 
ATOM      5  C6  UNL d   1      -3.263  -0.066   1.892  0.00  0.00     0.076 C 
ATOM      6  C7  UNL d   1      -0.870  -0.422   2.561  0.00  0.00     0.002 A 
ATOM      7  C8  UNL d   1       0.310  -0.000   3.179  0.00  0.00     0.006 A 
ENDROOT
BRANCH   1   8
ATOM      8  C1  UNL d   1       1.640   1.692   4.494  0.00  0.00     0.054 C 
ATOM      9  C   UNL d   1       1.496   1.520   6.000  0.00  0.00     0.018 C 
ENDBRANCH   1   8
TORSDOF 1
ENDMDL
