MODEL 1
REMARK minimizedAffinity 12.7312374
REMARK minimizedRMSD -1
REMARK  1 active torsions:
REMARK  status: ('A' for Active; 'I' for Inactive)
REMARK    1  A    between atoms: C1_2  and  C2_3 
ROOT
ATOM      1  C2  UNL d   1       2.307  -2.466  -1.027  0.00  0.00    -0.081 A 
ATOM      2  C3  UNL d   1       1.908  -2.886  -2.301  0.00  0.00     0.006 A 
ATOM      3  C4  UNL d   1       1.550  -1.951  -3.276  0.00  0.00     0.002 A 
ATOM      4  C5  UNL d   1       1.593  -0.581  -2.994  0.00  0.00    -0.080 A 
ATOM      5  C6  UNL d   1       1.240   0.434  -4.040  0.00  0.00     0.076 C 
ATOM      6  C7  UNL d   1       1.975  -0.162  -1.715  0.00  0.00     0.002 A 
ATOM      7  C8  UNL d   1       2.332  -1.096  -0.741  0.00  0.00     0.006 A 
ENDROOT
BRANCH   1   8
ATOM      8  C1  UNL d   1       2.755  -3.469   0.005  0.00  0.00     0.054 C 
ATOM      9  C   UNL d   1       4.225  -3.282   0.356  0.00  0.00     0.018 C 
ENDBRANCH   1   8
TORSDOF 1
ENDMDL
