MODEL 1
REMARK minimizedAffinity 11.3563967
REMARK minimizedRMSD -1
REMARK  1 active torsions:
REMARK  status: ('A' for Active; 'I' for Inactive)
REMARK    1  A    between atoms: C1_2  and  C2_3 
ROOT
ATOM      1  C2  UNL d   1      -2.351  -0.229   4.219  0.00  0.00    -0.081 A 
ATOM      2  C3  UNL d   1      -3.132  -0.033   3.073  0.00  0.00     0.006 A 
ATOM      3  C4  UNL d   1      -2.985   1.124   2.305  0.00  0.00     0.002 A 
ATOM      4  C5  UNL d   1      -2.050   2.101   2.665  0.00  0.00    -0.080 A 
ATOM      5  C6  UNL d   1      -1.861   3.334   1.833  0.00  0.00     0.076 C 
ATOM      6  C7  UNL d   1      -1.283   1.914   3.820  0.00  0.00     0.002 A 
ATOM      7  C8  UNL d   1      -1.430   0.757   4.588  0.00  0.00     0.006 A 
ENDROOT
BRANCH   1   8
ATOM      8  C1  UNL d   1      -2.462  -1.506   5.013  0.00  0.00     0.054 C 
ATOM      9  C   UNL d   1      -1.847  -2.679   4.263  0.00  0.00     0.018 C 
ENDBRANCH   1   8
TORSDOF 1
ENDMDL
