MODEL 1
REMARK minimizedAffinity 11.0470972
REMARK minimizedRMSD -1
REMARK  0 active torsions:
REMARK  status: ('A' for Active; 'I' for Inactive)
ROOT
ATOM      1  C   UNL d   1       2.281  -2.578   2.637  0.00  0.00     0.124 A 
ATOM      2  C1  UNL d   1       1.315  -1.612   2.391  0.00  0.00     0.062 A 
ATOM      3  C2  UNL d   1       0.207  -1.914   1.604  0.00  0.00     0.162 A 
ATOM      4  C3  UNL d   1       0.059  -3.189   1.058  0.00  0.00    -0.034 A 
ATOM      5  C4  UNL d   1       1.035  -4.155   1.308  0.00  0.00     0.162 A 
ATOM      6  C5  UNL d   1       2.140  -3.848   2.095  0.00  0.00     0.062 A 
ATOM      7  F   UNL d   1       3.073  -4.782   2.331  0.00  0.00    -0.097 F 
ATOM      8  F1  UNL d   1       0.924  -5.390   0.798  0.00  0.00    -0.096 F 
ATOM      9  I   UNL d   1      -1.596  -3.645  -0.120  0.00  0.00    -0.060 I 
ATOM     10  F2  UNL d   1      -0.711  -0.961   1.383  0.00  0.00    -0.096 F 
ATOM     11  F3  UNL d   1       1.449  -0.384   2.912  0.00  0.00    -0.097 F 
ATOM     12  F4  UNL d   1       3.346  -2.284   3.393  0.00  0.00    -0.092 F 
ENDROOT
TORSDOF 0
ENDMDL
