MODEL 1
REMARK minimizedAffinity 26.5838718
REMARK minimizedRMSD -1
REMARK  0 active torsions:
REMARK  status: ('A' for Active; 'I' for Inactive)
ROOT
ATOM      1  C   UNL d   1      -0.624  -2.126  -0.652  0.00  0.00     0.124 A 
ATOM      2  C1  UNL d   1       0.718  -2.471  -0.573  0.00  0.00     0.062 A 
ATOM      3  C2  UNL d   1       1.539  -1.874   0.379  0.00  0.00     0.162 A 
ATOM      4  C3  UNL d   1       1.020  -0.928   1.263  0.00  0.00    -0.034 A 
ATOM      5  C4  UNL d   1      -0.331  -0.586   1.177  0.00  0.00     0.162 A 
ATOM      6  C5  UNL d   1      -1.147  -1.185   0.223  0.00  0.00     0.062 A 
ATOM      7  F   UNL d   1      -2.444  -0.851   0.149  0.00  0.00    -0.097 F 
ATOM      8  F1  UNL d   1      -0.863   0.320   2.011  0.00  0.00    -0.096 F 
ATOM      9  I   UNL d   1       2.245  -0.034   2.688  0.00  0.00    -0.060 I 
ATOM     10  F2  UNL d   1       2.833  -2.226   0.432  0.00  0.00    -0.096 F 
ATOM     11  F3  UNL d   1       1.226  -3.379  -1.418  0.00  0.00    -0.097 F 
ATOM     12  F4  UNL d   1      -1.412  -2.701  -1.570  0.00  0.00    -0.092 F 
ENDROOT
TORSDOF 0
ENDMDL
