MODEL 1
REMARK minimizedAffinity 11.9535532
REMARK minimizedRMSD -1
REMARK  0 active torsions:
REMARK  status: ('A' for Active; 'I' for Inactive)
ROOT
ATOM      1  C   UNL d   1       2.234  -1.492   3.212  0.00  0.00     0.124 A 
ATOM      2  C1  UNL d   1       3.486  -0.930   3.008  0.00  0.00     0.062 A 
ATOM      3  C2  UNL d   1       4.563  -1.313   3.803  0.00  0.00     0.162 A 
ATOM      4  C3  UNL d   1       4.392  -2.263   4.809  0.00  0.00    -0.034 A 
ATOM      5  C4  UNL d   1       3.129  -2.823   5.009  0.00  0.00     0.162 A 
ATOM      6  C5  UNL d   1       2.056  -2.437   4.212  0.00  0.00     0.062 A 
ATOM      7  F   UNL d   1       0.847  -2.981   4.411  0.00  0.00    -0.097 F 
ATOM      8  F1  UNL d   1       2.930  -3.740   5.968  0.00  0.00    -0.096 F 
ATOM      9  I   UNL d   1       6.000  -2.838   6.000  0.00  0.00    -0.060 I 
ATOM     10  F2  UNL d   1       5.762  -0.753   3.583  0.00  0.00    -0.096 F 
ATOM     11  F3  UNL d   1       3.660  -0.016   2.043  0.00  0.00    -0.097 F 
ATOM     12  F4  UNL d   1       1.199  -1.121   2.447  0.00  0.00    -0.092 F 
ENDROOT
TORSDOF 0
ENDMDL
