MODEL 1
REMARK minimizedAffinity 16.0161285
REMARK minimizedRMSD -1
REMARK  0 active torsions:
REMARK  status: ('A' for Active; 'I' for Inactive)
ROOT
ATOM      1  C   UNL d   1       1.688  -1.954   1.413  0.00  0.00     0.124 A 
ATOM      2  C1  UNL d   1       1.588  -0.946   2.363  0.00  0.00     0.062 A 
ATOM      3  C2  UNL d   1       1.997  -1.176   3.673  0.00  0.00     0.162 A 
ATOM      4  C3  UNL d   1       2.512  -2.419   4.042  0.00  0.00    -0.034 A 
ATOM      5  C4  UNL d   1       2.608  -3.428   3.082  0.00  0.00     0.162 A 
ATOM      6  C5  UNL d   1       2.198  -3.193   1.773  0.00  0.00     0.062 A 
ATOM      7  F   UNL d   1       2.295  -4.168   0.858  0.00  0.00    -0.097 F 
ATOM      8  F1  UNL d   1       3.098  -4.634   3.402  0.00  0.00    -0.096 F 
ATOM      9  I   UNL d   1       3.125  -2.766   6.000  0.00  0.00    -0.060 I 
ATOM     10  F2  UNL d   1       1.889  -0.184   4.569  0.00  0.00    -0.096 F 
ATOM     11  F3  UNL d   1       1.095   0.252   2.017  0.00  0.00    -0.097 F 
ATOM     12  F4  UNL d   1       1.292  -1.730   0.153  0.00  0.00    -0.092 F 
ENDROOT
TORSDOF 0
ENDMDL
