MODEL 1
REMARK minimizedAffinity 7.424541
REMARK minimizedRMSD -1
REMARK  0 active torsions:
REMARK  status: ('A' for Active; 'I' for Inactive)
ROOT
ATOM      1  C   UNL d   1       2.246  -1.372   2.654  0.00  0.00     0.124 A 
ATOM      2  C1  UNL d   1       2.101  -2.293   3.682  0.00  0.00     0.062 A 
ATOM      3  C2  UNL d   1       3.171  -2.575   4.525  0.00  0.00     0.162 A 
ATOM      4  C3  UNL d   1       4.397  -1.935   4.345  0.00  0.00    -0.034 A 
ATOM      5  C4  UNL d   1       4.536  -1.010   3.309  0.00  0.00     0.162 A 
ATOM      6  C5  UNL d   1       3.463  -0.732   2.468  0.00  0.00     0.062 A 
ATOM      7  F   UNL d   1       3.606   0.158   1.475  0.00  0.00    -0.097 F 
ATOM      8  F1  UNL d   1       5.701  -0.376   3.107  0.00  0.00    -0.096 F 
ATOM      9  I   UNL d   1       6.000  -2.354   5.605  0.00  0.00    -0.060 I 
ATOM     10  F2  UNL d   1       3.002  -3.469   5.511  0.00  0.00    -0.096 F 
ATOM     11  F3  UNL d   1       0.926  -2.913   3.863  0.00  0.00    -0.097 F 
ATOM     12  F4  UNL d   1       1.215  -1.103   1.843  0.00  0.00    -0.092 F 
ENDROOT
TORSDOF 0
ENDMDL
