MODEL 1
REMARK minimizedAffinity 17.8666306
REMARK minimizedRMSD -1
REMARK  0 active torsions:
REMARK  status: ('A' for Active; 'I' for Inactive)
ROOT
ATOM      1  C   UNL d   1       2.852  -4.111   5.104  0.00  0.00     0.124 A 
ATOM      2  C1  UNL d   1       3.890  -3.212   4.903  0.00  0.00     0.062 A 
ATOM      3  C2  UNL d   1       3.662  -2.021   4.220  0.00  0.00     0.162 A 
ATOM      4  C3  UNL d   1       2.389  -1.721   3.735  0.00  0.00    -0.034 A 
ATOM      5  C4  UNL d   1       1.350  -2.630   3.941  0.00  0.00     0.162 A 
ATOM      6  C5  UNL d   1       1.583  -3.820   4.623  0.00  0.00     0.062 A 
ATOM      7  F   UNL d   1       0.579  -4.687   4.817  0.00  0.00    -0.097 F 
ATOM      8  F1  UNL d   1       0.114  -2.373   3.487  0.00  0.00    -0.096 F 
ATOM      9  I   UNL d   1       2.043   0.060   2.714  0.00  0.00    -0.060 I 
ATOM     10  F2  UNL d   1       4.683  -1.171   4.040  0.00  0.00    -0.096 F 
ATOM     11  F3  UNL d   1       5.117  -3.492   5.366  0.00  0.00    -0.097 F 
ATOM     12  F4  UNL d   1       3.075  -5.258   5.760  0.00  0.00    -0.092 F 
ENDROOT
TORSDOF 0
ENDMDL
