MODEL 1
REMARK minimizedAffinity -5.86477613
REMARK minimizedRMSD -1
REMARK  2 active torsions:
REMARK  status: ('A' for Active; 'I' for Inactive)
REMARK    1  A    between atoms: C1_2  and  C2_3 
REMARK    2  A    between atoms: C2_3  and  C3_4 
ROOT
ATOM      1  C3  UNL d   1       0.207  -0.154  -0.134  0.00  0.00    -0.075 A 
ATOM      2  C4  UNL d   1       1.329  -0.150   0.707  0.00  0.00     0.002 A 
ATOM      3  C5  UNL d   1       1.235   0.337   2.011  0.00  0.00     0.002 A 
ATOM      4  C6  UNL d   1       0.024   0.835   2.487  0.00  0.00    -0.004 A 
ATOM      5  C7  UNL d   1      -1.093   0.852   1.655  0.00  0.00     0.002 A 
ATOM      6  C8  UNL d   1      -1.003   0.361   0.351  0.00  0.00     0.002 A 
ENDROOT
BRANCH   1   7
ATOM      7  C2  UNL d   1       0.294  -0.707  -1.536  0.00  0.00     0.056 C 
BRANCH   7   8
ATOM      8  C1  UNL d   1       1.071   0.184  -2.511  0.00  0.00     0.007 C 
ATOM      9  C   UNL d   1       0.490   0.184  -3.918  0.00  0.00     0.009 C 
ENDBRANCH   7   8
ENDBRANCH   1   7
TORSDOF 2
ENDMDL
