MODEL 1
REMARK minimizedAffinity -6.10532713
REMARK minimizedRMSD -1
REMARK  2 active torsions:
REMARK  status: ('A' for Active; 'I' for Inactive)
REMARK    1  A    between atoms: C1_2  and  C2_3 
REMARK    2  A    between atoms: C2_3  and  C3_4 
ROOT
ATOM      1  C3  UNL d   1       0.045  -0.039  -1.228  0.00  0.00    -0.075 A 
ATOM      2  C4  UNL d   1       1.195   0.590  -1.726  0.00  0.00     0.002 A 
ATOM      3  C5  UNL d   1       1.458   0.605  -3.096  0.00  0.00     0.002 A 
ATOM      4  C6  UNL d   1       0.582  -0.017  -3.983  0.00  0.00    -0.004 A 
ATOM      5  C7  UNL d   1      -0.555  -0.659  -3.498  0.00  0.00     0.002 A 
ATOM      6  C8  UNL d   1      -0.823  -0.672  -2.128  0.00  0.00     0.002 A 
ENDROOT
BRANCH   1   7
ATOM      7  C2  UNL d   1      -0.260  -0.033   0.251  0.00  0.00     0.056 C 
BRANCH   7   8
ATOM      8  C1  UNL d   1      -1.709   0.336   0.587  0.00  0.00     0.007 C 
ATOM      9  C   UNL d   1      -1.840   1.153   1.866  0.00  0.00     0.009 C 
ENDBRANCH   7   8
ENDBRANCH   1   7
TORSDOF 2
ENDMDL
