MODEL 1
REMARK minimizedAffinity -3.06160283
REMARK minimizedRMSD -1
REMARK  2 active torsions:
REMARK  status: ('A' for Active; 'I' for Inactive)
REMARK    1  A    between atoms: C1_2  and  C2_3 
REMARK    2  A    between atoms: C2_3  and  C3_4 
ROOT
ATOM      1  C3  UNL d   1       0.321  -0.523  -1.944  0.00  0.00    -0.075 A 
ATOM      2  C4  UNL d   1      -0.715   0.205  -1.340  0.00  0.00     0.002 A 
ATOM      3  C5  UNL d   1      -0.698   0.454   0.033  0.00  0.00     0.002 A 
ATOM      4  C6  UNL d   1       0.345  -0.029   0.819  0.00  0.00    -0.004 A 
ATOM      5  C7  UNL d   1       1.370  -0.768   0.232  0.00  0.00     0.002 A 
ATOM      6  C8  UNL d   1       1.359  -1.015  -1.141  0.00  0.00     0.002 A 
ENDROOT
BRANCH   1   7
ATOM      7  C2  UNL d   1       0.324  -0.771  -3.433  0.00  0.00     0.056 C 
BRANCH   7   8
ATOM      8  C1  UNL d   1      -1.064  -0.705  -4.080  0.00  0.00     0.007 C 
ATOM      9  C   UNL d   1      -1.270   0.541  -4.931  0.00  0.00     0.009 C 
ENDBRANCH   7   8
ENDBRANCH   1   7
TORSDOF 2
ENDMDL
