MODEL 1
REMARK minimizedAffinity -2.16660929
REMARK minimizedRMSD -1
REMARK  2 active torsions:
REMARK  status: ('A' for Active; 'I' for Inactive)
REMARK    1  A    between atoms: C1_2  and  C2_3 
REMARK    2  A    between atoms: C2_3  and  C3_4 
ROOT
ATOM      1  C3  UNL d   1       0.064   0.436  -0.059  0.00  0.00    -0.075 A 
ATOM      2  C4  UNL d   1       0.593   1.675   0.331  0.00  0.00     0.002 A 
ATOM      3  C5  UNL d   1       0.343   2.182   1.607  0.00  0.00     0.002 A 
ATOM      4  C6  UNL d   1      -0.446   1.463   2.503  0.00  0.00    -0.004 A 
ATOM      5  C7  UNL d   1      -0.990   0.240   2.120  0.00  0.00     0.002 A 
ATOM      6  C8  UNL d   1      -0.738  -0.272   0.846  0.00  0.00     0.002 A 
ENDROOT
BRANCH   1   7
ATOM      7  C2  UNL d   1       0.355  -0.131  -1.428  0.00  0.00     0.056 C 
BRANCH   7   8
ATOM      8  C1  UNL d   1       1.200   0.787  -2.317  0.00  0.00     0.007 C 
ATOM      9  C   UNL d   1       0.935   0.592  -3.804  0.00  0.00     0.009 C 
ENDBRANCH   7   8
ENDBRANCH   1   7
TORSDOF 2
ENDMDL
