MODEL 1
REMARK minimizedAffinity -4.67755795
REMARK minimizedRMSD -1
REMARK  2 active torsions:
REMARK  status: ('A' for Active; 'I' for Inactive)
REMARK    1  A    between atoms: C1_2  and  C2_3 
REMARK    2  A    between atoms: C2_3  and  C3_4 
ROOT
ATOM      1  C3  UNL d   1       0.239  -0.113   0.232  0.00  0.00    -0.075 A 
ATOM      2  C4  UNL d   1       0.960   0.494   1.270  0.00  0.00     0.002 A 
ATOM      3  C5  UNL d   1       0.293   1.099   2.336  0.00  0.00     0.002 A 
ATOM      4  C6  UNL d   1      -1.100   1.114   2.371  0.00  0.00    -0.004 A 
ATOM      5  C7  UNL d   1      -1.826   0.528   1.336  0.00  0.00     0.002 A 
ATOM      6  C8  UNL d   1      -1.161  -0.082   0.271  0.00  0.00     0.002 A 
ENDROOT
BRANCH   1   7
ATOM      7  C2  UNL d   1       0.955  -0.796  -0.909  0.00  0.00     0.056 C 
BRANCH   7   8
ATOM      8  C1  UNL d   1       0.101  -0.965  -2.170  0.00  0.00     0.007 C 
ATOM      9  C   UNL d   1       0.790  -0.469  -3.434  0.00  0.00     0.009 C 
ENDBRANCH   7   8
ENDBRANCH   1   7
TORSDOF 2
ENDMDL
