MODEL 1
REMARK minimizedAffinity -5.48542356
REMARK minimizedRMSD -1
REMARK  2 active torsions:
REMARK  status: ('A' for Active; 'I' for Inactive)
REMARK    1  A    between atoms: C1_2  and  C2_3 
REMARK    2  A    between atoms: C2_3  and  C3_4 
ROOT
ATOM      1  C3  UNL d   1      -0.241  -0.091   0.183  0.00  0.00    -0.075 A 
ATOM      2  C4  UNL d   1       0.779   0.187   1.105  0.00  0.00     0.002 A 
ATOM      3  C5  UNL d   1       0.488   0.817   2.315  0.00  0.00     0.002 A 
ATOM      4  C6  UNL d   1      -0.822   1.186   2.614  0.00  0.00    -0.004 A 
ATOM      5  C7  UNL d   1      -1.840   0.930   1.698  0.00  0.00     0.002 A 
ATOM      6  C8  UNL d   1      -1.552   0.296   0.489  0.00  0.00     0.002 A 
ENDROOT
BRANCH   1   7
ATOM      7  C2  UNL d   1       0.063  -0.799  -1.116  0.00  0.00     0.056 C 
BRANCH   7   8
ATOM      8  C1  UNL d   1       1.080  -0.070  -2.000  0.00  0.00     0.007 C 
ATOM      9  C   UNL d   1       0.610   0.102  -3.439  0.00  0.00     0.009 C 
ENDBRANCH   7   8
ENDBRANCH   1   7
TORSDOF 2
ENDMDL
