MODEL 1
REMARK minimizedAffinity -1.84644103
REMARK minimizedRMSD -1
REMARK  0 active torsions:
REMARK  status: ('A' for Active; 'I' for Inactive)
ROOT
ATOM      1  C   UNL d   1      -2.411   2.104   0.946  0.00  0.00    -0.002 A 
ATOM      2  C1  UNL d   1      -1.909   2.073   2.239  0.00  0.00     0.010 A 
ATOM      3  C2  UNL d   1      -0.805   1.277   2.553  0.00  0.00     0.041 A 
ATOM      4  C3  UNL d   1      -0.208   0.508   1.535  0.00  0.00    -0.075 A 
ATOM      5  S   UNL d   1       1.153  -0.540   1.687  0.00  0.00     0.015 SA
ATOM      6  C4  UNL d   1       1.100  -0.970   0.039  0.00  0.00     0.022 A 
ATOM      7  C5  UNL d   1       0.075  -0.339  -0.626  0.00  0.00     0.026 A 
ATOM      8  C6  UNL d   1      -0.696   0.523   0.226  0.00  0.00    -0.082 A 
ATOM      9  C7  UNL d   1      -1.817   1.339  -0.061  0.00  0.00     0.045 A 
ENDROOT
TORSDOF 0
ENDMDL
