MODEL 1
REMARK minimizedAffinity -1.16516995
REMARK minimizedRMSD -1
REMARK  0 active torsions:
REMARK  status: ('A' for Active; 'I' for Inactive)
ROOT
ATOM      1  C   UNL d   1      -1.591   0.471   2.562  0.00  0.00    -0.002 A 
ATOM      2  C1  UNL d   1      -1.593   1.738   1.998  0.00  0.00     0.010 A 
ATOM      3  C2  UNL d   1      -0.820   2.015   0.868  0.00  0.00     0.041 A 
ATOM      4  C3  UNL d   1      -0.038   0.985   0.309  0.00  0.00    -0.075 A 
ATOM      5  S   UNL d   1       0.987   1.091  -1.073  0.00  0.00     0.015 SA
ATOM      6  C4  UNL d   1       1.451  -0.544  -0.948  0.00  0.00     0.022 A 
ATOM      7  C5  UNL d   1       0.849  -1.171   0.117  0.00  0.00     0.026 A 
ATOM      8  C6  UNL d   1      -0.020  -0.300   0.859  0.00  0.00    -0.082 A 
ATOM      9  C7  UNL d   1      -0.814  -0.548   2.005  0.00  0.00     0.045 A 
ENDROOT
TORSDOF 0
ENDMDL
