MODEL 1
REMARK minimizedAffinity 0.769637048
REMARK minimizedRMSD -1
REMARK  0 active torsions:
REMARK  status: ('A' for Active; 'I' for Inactive)
ROOT
ATOM      1  C   UNL d   1      -0.739   1.764   2.326  0.00  0.00    -0.002 A 
ATOM      2  C1  UNL d   1      -1.809   1.885   1.451  0.00  0.00     0.010 A 
ATOM      3  C2  UNL d   1      -1.879   1.096   0.301  0.00  0.00     0.041 A 
ATOM      4  C3  UNL d   1      -0.847   0.173   0.044  0.00  0.00    -0.075 A 
ATOM      5  S   UNL d   1      -0.722  -0.898  -1.301  0.00  0.00     0.015 SA
ATOM      6  C4  UNL d   1       0.755  -1.543  -0.745  0.00  0.00     0.022 A 
ATOM      7  C5  UNL d   1       1.157  -0.966   0.436  0.00  0.00     0.026 A 
ATOM      8  C6  UNL d   1       0.241   0.032   0.911  0.00  0.00    -0.082 A 
ATOM      9  C7  UNL d   1       0.284   0.847   2.068  0.00  0.00     0.045 A 
ENDROOT
TORSDOF 0
ENDMDL
