MODEL 1
REMARK minimizedAffinity 1.61055088
REMARK minimizedRMSD -1
REMARK  0 active torsions:
REMARK  status: ('A' for Active; 'I' for Inactive)
ROOT
ATOM      1  C   UNL d   1       1.217   0.820  -1.447  0.00  0.00    -0.002 A 
ATOM      2  C1  UNL d   1       0.722   2.086  -1.726  0.00  0.00     0.010 A 
ATOM      3  C2  UNL d   1      -0.099   2.746  -0.809  0.00  0.00     0.041 A 
ATOM      4  C3  UNL d   1      -0.415   2.107   0.406  0.00  0.00    -0.075 A 
ATOM      5  S   UNL d   1      -1.401   2.723   1.679  0.00  0.00     0.015 SA
ATOM      6  C4  UNL d   1      -1.187   1.321   2.624  0.00  0.00     0.022 A 
ATOM      7  C5  UNL d   1      -0.386   0.395   1.999  0.00  0.00     0.026 A 
ATOM      8  C6  UNL d   1       0.072   0.833   0.710  0.00  0.00    -0.082 A 
ATOM      9  C7  UNL d   1       0.901   0.189  -0.240  0.00  0.00     0.045 A 
ENDROOT
TORSDOF 0
ENDMDL
