MODEL 1
REMARK minimizedAffinity -1.86910605
REMARK minimizedRMSD -1
REMARK  0 active torsions:
REMARK  status: ('A' for Active; 'I' for Inactive)
ROOT
ATOM      1  C   UNL d   1       1.492  -0.584  -1.100  0.00  0.00    -0.002 A 
ATOM      2  C1  UNL d   1       1.085   0.657  -1.569  0.00  0.00     0.010 A 
ATOM      3  C2  UNL d   1       0.209   1.447  -0.821  0.00  0.00     0.041 A 
ATOM      4  C3  UNL d   1      -0.254   0.964   0.419  0.00  0.00    -0.075 A 
ATOM      5  S   UNL d   1      -1.331   1.757   1.506  0.00  0.00     0.015 SA
ATOM      6  C4  UNL d   1      -1.276   0.468   2.619  0.00  0.00     0.022 A 
ATOM      7  C5  UNL d   1      -0.461  -0.552   2.188  0.00  0.00     0.026 A 
ATOM      8  C6  UNL d   1       0.142  -0.282   0.912  0.00  0.00    -0.082 A 
ATOM      9  C7  UNL d   1       1.030  -1.059   0.130  0.00  0.00     0.045 A 
ENDROOT
TORSDOF 0
ENDMDL
