MODEL 1
REMARK minimizedAffinity -2.8493259
REMARK minimizedRMSD -1
REMARK  0 active torsions:
REMARK  status: ('A' for Active; 'I' for Inactive)
ROOT
ATOM      1  C   UNL d   1      -1.855   1.650   1.886  0.00  0.00    -0.002 A 
ATOM      2  C1  UNL d   1      -0.686   1.312   2.553  0.00  0.00     0.010 A 
ATOM      3  C2  UNL d   1       0.194   0.373   2.012  0.00  0.00     0.041 A 
ATOM      4  C3  UNL d   1      -0.122  -0.225   0.776  0.00  0.00    -0.075 A 
ATOM      5  S   UNL d   1       0.807  -1.399  -0.079  0.00  0.00     0.015 SA
ATOM      6  C4  UNL d   1      -0.326  -1.479  -1.350  0.00  0.00     0.022 A 
ATOM      7  C5  UNL d   1      -1.393  -0.637  -1.143  0.00  0.00     0.026 A 
ATOM      8  C6  UNL d   1      -1.293   0.100   0.085  0.00  0.00    -0.082 A 
ATOM      9  C7  UNL d   1      -2.165   1.055   0.660  0.00  0.00     0.045 A 
ENDROOT
TORSDOF 0
ENDMDL
