MODEL 1
REMARK minimizedAffinity -2.27090287
REMARK minimizedRMSD -1
REMARK  0 active torsions:
REMARK  status: ('A' for Active; 'I' for Inactive)
ROOT
ATOM      1  C   UNL d   1       0.423  -0.927  -0.749  0.00  0.00    -0.002 A 
ATOM      2  C1  UNL d   1       1.159  -1.006   0.425  0.00  0.00     0.010 A 
ATOM      3  C2  UNL d   1       0.815  -0.229   1.533  0.00  0.00     0.041 A 
ATOM      4  C3  UNL d   1      -0.293   0.636   1.441  0.00  0.00    -0.075 A 
ATOM      5  S   UNL d   1      -0.900   1.682   2.670  0.00  0.00     0.015 SA
ATOM      6  C4  UNL d   1      -2.151   2.258   1.666  0.00  0.00     0.022 A 
ATOM      7  C5  UNL d   1      -2.121   1.678   0.420  0.00  0.00     0.026 A 
ATOM      8  C6  UNL d   1      -1.050   0.733   0.270  0.00  0.00    -0.082 A 
ATOM      9  C7  UNL d   1      -0.675  -0.067  -0.837  0.00  0.00     0.045 A 
ENDROOT
TORSDOF 0
ENDMDL
