MODEL 1
REMARK minimizedAffinity -2.17372918
REMARK minimizedRMSD -1
REMARK  0 active torsions:
REMARK  status: ('A' for Active; 'I' for Inactive)
ROOT
ATOM      1  C   UNL d   1       0.461  -0.494  -1.172  0.00  0.00    -0.002 A 
ATOM      2  C1  UNL d   1       0.889  -1.108  -0.003  0.00  0.00     0.010 A 
ATOM      3  C2  UNL d   1       0.450  -0.651   1.241  0.00  0.00     0.041 A 
ATOM      4  C3  UNL d   1      -0.435   0.444   1.291  0.00  0.00    -0.075 A 
ATOM      5  S   UNL d   1      -1.105   1.175   2.702  0.00  0.00     0.015 SA
ATOM      6  C4  UNL d   1      -1.975   2.320   1.786  0.00  0.00     0.022 A 
ATOM      7  C5  UNL d   1      -1.771   2.162   0.436  0.00  0.00     0.026 A 
ATOM      8  C6  UNL d   1      -0.881   1.078   0.128  0.00  0.00    -0.082 A 
ATOM      9  C7  UNL d   1      -0.417   0.592  -1.118  0.00  0.00     0.045 A 
ENDROOT
TORSDOF 0
ENDMDL
