MODEL 1
REMARK minimizedAffinity -0.280608892
REMARK minimizedRMSD -1
REMARK  0 active torsions:
REMARK  status: ('A' for Active; 'I' for Inactive)
ROOT
ATOM      1  C   UNL d   1      -1.300   1.454   2.640  0.00  0.00    -0.002 A 
ATOM      2  C1  UNL d   1      -0.895   0.143   2.849  0.00  0.00     0.010 A 
ATOM      3  C2  UNL d   1      -0.213  -0.557   1.852  0.00  0.00     0.041 A 
ATOM      4  C3  UNL d   1       0.059   0.088   0.630  0.00  0.00    -0.075 A 
ATOM      5  S   UNL d   1       0.881  -0.572  -0.734  0.00  0.00     0.015 SA
ATOM      6  C4  UNL d   1       0.716   0.871  -1.626  0.00  0.00     0.022 A 
ATOM      7  C5  UNL d   1       0.051   1.843  -0.916  0.00  0.00     0.026 A 
ATOM      8  C6  UNL d   1      -0.337   1.408   0.396  0.00  0.00    -0.082 A 
ATOM      9  C7  UNL d   1      -1.027   2.091   1.426  0.00  0.00     0.045 A 
ENDROOT
TORSDOF 0
ENDMDL
