MODEL 1
REMARK minimizedAffinity -4.45677233
REMARK minimizedRMSD -1
REMARK  0 active torsions:
REMARK  status: ('A' for Active; 'I' for Inactive)
ROOT
ATOM      1  C   UNL d   1      -2.240   2.027   1.466  0.00  0.00    -0.002 A 
ATOM      2  C1  UNL d   1      -2.066   2.403   0.141  0.00  0.00     0.010 A 
ATOM      3  C2  UNL d   1      -1.038   1.851  -0.625  0.00  0.00     0.041 A 
ATOM      4  C3  UNL d   1      -0.180   0.904  -0.032  0.00  0.00    -0.075 A 
ATOM      5  S   UNL d   1       1.147   0.094  -0.777  0.00  0.00     0.015 SA
ATOM      6  C4  UNL d   1       1.514  -0.771   0.644  0.00  0.00     0.022 A 
ATOM      7  C5  UNL d   1       0.656  -0.462   1.672  0.00  0.00     0.026 A 
ATOM      8  C6  UNL d   1      -0.335   0.508   1.299  0.00  0.00    -0.082 A 
ATOM      9  C7  UNL d   1      -1.387   1.087   2.050  0.00  0.00     0.045 A 
ENDROOT
TORSDOF 0
ENDMDL
