MODEL 1
REMARK minimizedAffinity -1.32915843
REMARK minimizedRMSD -1
REMARK  0 active torsions:
REMARK  status: ('A' for Active; 'I' for Inactive)
ROOT
ATOM      1  C   UNL d   1      -0.989   1.358   3.295  0.00  0.00    -0.002 A 
ATOM      2  C1  UNL d   1      -0.633   0.021   3.403  0.00  0.00     0.010 A 
ATOM      3  C2  UNL d   1      -0.087  -0.659   2.313  0.00  0.00     0.041 A 
ATOM      4  C3  UNL d   1       0.099   0.034   1.101  0.00  0.00    -0.075 A 
ATOM      5  S   UNL d   1       0.752  -0.593  -0.367  0.00  0.00     0.015 SA
ATOM      6  C4  UNL d   1       0.574   0.898  -1.171  0.00  0.00     0.022 A 
ATOM      7  C5  UNL d   1       0.032   1.863  -0.355  0.00  0.00     0.026 A 
ATOM      8  C6  UNL d   1      -0.251   1.381   0.968  0.00  0.00    -0.082 A 
ATOM      9  C7  UNL d   1      -0.803   2.042   2.091  0.00  0.00     0.045 A 
ENDROOT
TORSDOF 0
ENDMDL
