MODEL 1
REMARK minimizedAffinity -2.04446578
REMARK minimizedRMSD -1
REMARK  0 active torsions:
REMARK  status: ('A' for Active; 'I' for Inactive)
ROOT
ATOM      1  C   UNL d   1      -1.859   0.599   2.792  0.00  0.00    -0.002 A 
ATOM      2  C1  UNL d   1      -1.827   1.865   2.226  0.00  0.00     0.010 A 
ATOM      3  C2  UNL d   1      -1.064   2.113   1.083  0.00  0.00     0.041 A 
ATOM      4  C3  UNL d   1      -0.328   1.056   0.513  0.00  0.00    -0.075 A 
ATOM      5  S   UNL d   1       0.676   1.126  -0.887  0.00  0.00     0.015 SA
ATOM      6  C4  UNL d   1       1.086  -0.524  -0.767  0.00  0.00     0.022 A 
ATOM      7  C5  UNL d   1       0.481  -1.129   0.310  0.00  0.00     0.026 A 
ATOM      8  C6  UNL d   1      -0.344  -0.228   1.064  0.00  0.00    -0.082 A 
ATOM      9  C7  UNL d   1      -1.127  -0.447   2.224  0.00  0.00     0.045 A 
ENDROOT
TORSDOF 0
ENDMDL
