MODEL 1
REMARK minimizedAffinity -1.48983181
REMARK minimizedRMSD -1
REMARK  0 active torsions:
REMARK  status: ('A' for Active; 'I' for Inactive)
ROOT
ATOM      1  C   UNL d   1      -1.072   0.964   2.865  0.00  0.00    -0.002 A 
ATOM      2  C1  UNL d   1      -1.428   1.930   1.934  0.00  0.00     0.010 A 
ATOM      3  C2  UNL d   1      -1.015   1.822   0.605  0.00  0.00     0.041 A 
ATOM      4  C3  UNL d   1      -0.231   0.716   0.223  0.00  0.00    -0.075 A 
ATOM      5  S   UNL d   1       0.389   0.375  -1.349  0.00  0.00     0.015 SA
ATOM      6  C4  UNL d   1       1.141  -1.061  -0.823  0.00  0.00     0.022 A 
ATOM      7  C5  UNL d   1       0.934  -1.290   0.517  0.00  0.00     0.026 A 
ATOM      8  C6  UNL d   1       0.140  -0.270   1.142  0.00  0.00    -0.082 A 
ATOM      9  C7  UNL d   1      -0.295  -0.132   2.482  0.00  0.00     0.045 A 
ENDROOT
TORSDOF 0
ENDMDL
