MODEL 1
REMARK minimizedAffinity 10.8611889
REMARK minimizedRMSD -1
REMARK  1 active torsions:
REMARK  status: ('A' for Active; 'I' for Inactive)
REMARK    1  A    between atoms: C1_2  and  C2_3 
ROOT
ATOM      1  C2  UNL d   1       0.642   2.623   1.372  0.00  0.00    -0.073 A 
ATOM      2  C3  UNL d   1       0.640   3.879   0.754  0.00  0.00    -0.002 A 
ATOM      3  C4  UNL d   1       1.359   4.939   1.309  0.00  0.00     0.004 A 
ATOM      4  C5  UNL d   1       2.090   4.752   2.482  0.00  0.00    -0.004 A 
ATOM      5  C6  UNL d   1       2.114   3.502   3.108  0.00  0.00    -0.075 A 
ATOM      6  C7  UNL d   1       2.894   3.286   4.371  0.00  0.00     0.076 C 
ATOM      7  C8  UNL d   1       1.388   2.443   2.545  0.00  0.00     0.001 A 
ENDROOT
BRANCH   1   8
ATOM      8  C1  UNL d   1      -0.127   1.474   0.772  0.00  0.00     0.053 C 
ATOM      9  C   UNL d   1       0.754   0.258   0.540  0.00  0.00     0.018 C 
ENDBRANCH   1   8
TORSDOF 1
ENDMDL
