MODEL 1
REMARK minimizedAffinity 18.0750713
REMARK minimizedRMSD -1
REMARK  1 active torsions:
REMARK  status: ('A' for Active; 'I' for Inactive)
REMARK    1  A    between atoms: C1_2  and  C2_3 
ROOT
ATOM      1  C2  UNL d   1      -5.254   3.866  -3.692  0.00  0.00    -0.073 A 
ATOM      2  C3  UNL d   1      -4.809   4.900  -2.860  0.00  0.00    -0.002 A 
ATOM      3  C4  UNL d   1      -4.512   4.649  -1.520  0.00  0.00     0.004 A 
ATOM      4  C5  UNL d   1      -4.649   3.362  -1.000  0.00  0.00    -0.004 A 
ATOM      5  C6  UNL d   1      -5.081   2.313  -1.818  0.00  0.00    -0.075 A 
ATOM      6  C7  UNL d   1      -5.237   0.923  -1.274  0.00  0.00     0.076 C 
ATOM      7  C8  UNL d   1      -5.380   2.574  -3.162  0.00  0.00     0.001 A 
ENDROOT
BRANCH   1   8
ATOM      8  C1  UNL d   1      -5.570   4.132  -5.141  0.00  0.00     0.053 C 
ATOM      9  C   UNL d   1      -5.996   5.572  -5.377  0.00  0.00     0.018 C 
ENDBRANCH   1   8
TORSDOF 1
ENDMDL
