MODEL 1
REMARK minimizedAffinity -2.66838503
REMARK minimizedRMSD -1
REMARK  1 active torsions:
REMARK  status: ('A' for Active; 'I' for Inactive)
REMARK    1  A    between atoms: C1_2  and  C2_3 
ROOT
ATOM      1  C2  UNL d   1      -0.673   0.781  -0.774  0.00  0.00    -0.073 A 
ATOM      2  C3  UNL d   1      -0.494   1.296  -2.063  0.00  0.00    -0.002 A 
ATOM      3  C4  UNL d   1      -0.670   2.659  -2.308  0.00  0.00     0.004 A 
ATOM      4  C5  UNL d   1      -1.020   3.520  -1.268  0.00  0.00    -0.004 A 
ATOM      5  C6  UNL d   1      -1.191   3.026   0.029  0.00  0.00    -0.075 A 
ATOM      6  C7  UNL d   1      -1.569   3.938   1.159  0.00  0.00     0.076 C 
ATOM      7  C8  UNL d   1      -1.015   1.656   0.267  0.00  0.00     0.001 A 
ENDROOT
BRANCH   1   8
ATOM      8  C1  UNL d   1      -0.477  -0.689  -0.503  0.00  0.00     0.053 C 
ATOM      9  C   UNL d   1       0.420  -1.345  -1.541  0.00  0.00     0.018 C 
ENDBRANCH   1   8
TORSDOF 1
ENDMDL
