MODEL 1
REMARK minimizedAffinity -3.04524517
REMARK minimizedRMSD -1
REMARK  1 active torsions:
REMARK  status: ('A' for Active; 'I' for Inactive)
REMARK    1  A    between atoms: C1_2  and  C2_3 
ROOT
ATOM      1  C2  UNL d   1      -0.635   1.123   0.334  0.00  0.00    -0.073 A 
ATOM      2  C3  UNL d   1      -1.534   2.140  -0.008  0.00  0.00    -0.002 A 
ATOM      3  C4  UNL d   1      -1.373   3.427   0.506  0.00  0.00     0.004 A 
ATOM      4  C5  UNL d   1      -0.309   3.713   1.362  0.00  0.00    -0.004 A 
ATOM      5  C6  UNL d   1       0.607   2.713   1.706  0.00  0.00    -0.075 A 
ATOM      6  C7  UNL d   1       1.755   3.004   2.627  0.00  0.00     0.076 C 
ATOM      7  C8  UNL d   1       0.437   1.423   1.188  0.00  0.00     0.001 A 
ENDROOT
BRANCH   1   8
ATOM      8  C1  UNL d   1      -0.801  -0.266  -0.224  0.00  0.00     0.053 C 
ATOM      9  C   UNL d   1       0.478  -1.081  -0.117  0.00  0.00     0.018 C 
ENDBRANCH   1   8
TORSDOF 1
ENDMDL
