MODEL 1
REMARK minimizedAffinity 6.40025187
REMARK minimizedRMSD -1
REMARK  1 active torsions:
REMARK  status: ('A' for Active; 'I' for Inactive)
REMARK    1  A    between atoms: C1_2  and  C2_3 
ROOT
ATOM      1  C2  UNL d   1       3.780  -2.187   2.795  0.00  0.00    -0.081 A 
ATOM      2  C3  UNL d   1       4.041  -3.022   1.701  0.00  0.00     0.006 A 
ATOM      3  C4  UNL d   1       3.264  -2.936   0.544  0.00  0.00     0.002 A 
ATOM      4  C5  UNL d   1       2.219  -2.009   0.457  0.00  0.00    -0.080 A 
ATOM      5  C6  UNL d   1       1.397  -1.886  -0.792  0.00  0.00     0.076 C 
ATOM      6  C7  UNL d   1       1.947  -1.187   1.556  0.00  0.00     0.002 A 
ATOM      7  C8  UNL d   1       2.723  -1.273   2.714  0.00  0.00     0.006 A 
ENDROOT
BRANCH   1   8
ATOM      8  C1  UNL d   1       4.656  -2.233   4.020  0.00  0.00     0.054 C 
ATOM      9  C   UNL d   1       4.836  -3.660   4.519  0.00  0.00     0.018 C 
ENDBRANCH   1   8
TORSDOF 1
ENDMDL
