MODEL 1
REMARK minimizedAffinity 3.64551067
REMARK minimizedRMSD -1
REMARK  1 active torsions:
REMARK  status: ('A' for Active; 'I' for Inactive)
REMARK    1  A    between atoms: C1_2  and  C2_3 
ROOT
ATOM      1  C2  UNL d   1       1.303  -1.177   0.340  0.00  0.00    -0.081 A 
ATOM      2  C3  UNL d   1       0.627  -1.212   1.566  0.00  0.00     0.006 A 
ATOM      3  C4  UNL d   1       1.320  -1.479   2.749  0.00  0.00     0.002 A 
ATOM      4  C5  UNL d   1       2.700  -1.707   2.728  0.00  0.00    -0.080 A 
ATOM      5  C6  UNL d   1       3.461  -1.964   3.994  0.00  0.00     0.076 C 
ATOM      6  C7  UNL d   1       3.372  -1.689   1.501  0.00  0.00     0.002 A 
ATOM      7  C8  UNL d   1       2.680  -1.423   0.317  0.00  0.00     0.006 A 
ENDROOT
BRANCH   1   8
ATOM      8  C1  UNL d   1       0.570  -0.826  -0.929  0.00  0.00     0.054 C 
ATOM      9  C   UNL d   1       0.972   0.551  -1.438  0.00  0.00     0.018 C 
ENDBRANCH   1   8
TORSDOF 1
ENDMDL
