MODEL 1
REMARK minimizedAffinity 0.642504692
REMARK minimizedRMSD -1
REMARK  1 active torsions:
REMARK  status: ('A' for Active; 'I' for Inactive)
REMARK    1  A    between atoms: C1_2  and  C2_3 
ROOT
ATOM      1  C2  UNL d   1       0.934  -1.474   0.953  0.00  0.00    -0.081 A 
ATOM      2  C3  UNL d   1       0.797  -1.540   2.345  0.00  0.00     0.006 A 
ATOM      3  C4  UNL d   1      -0.248  -0.869   2.986  0.00  0.00     0.002 A 
ATOM      4  C5  UNL d   1      -1.175  -0.128   2.246  0.00  0.00    -0.080 A 
ATOM      5  C6  UNL d   1      -2.318   0.572   2.918  0.00  0.00     0.076 C 
ATOM      6  C7  UNL d   1      -1.028  -0.048   0.857  0.00  0.00     0.002 A 
ATOM      7  C8  UNL d   1       0.017  -0.718   0.216  0.00  0.00     0.006 A 
ENDROOT
BRANCH   1   8
ATOM      8  C1  UNL d   1       2.021  -2.249   0.253  0.00  0.00     0.054 C 
ATOM      9  C   UNL d   1       2.149  -3.657   0.819  0.00  0.00     0.018 C 
ENDBRANCH   1   8
TORSDOF 1
ENDMDL
