MODEL 1
REMARK minimizedAffinity 8.60394478
REMARK minimizedRMSD -1
REMARK  1 active torsions:
REMARK  status: ('A' for Active; 'I' for Inactive)
REMARK    1  A    between atoms: C1_2  and  C2_3 
ROOT
ATOM      1  C2  UNL d   1       4.980   3.769   1.216  0.00  0.00    -0.081 A 
ATOM      2  C3  UNL d   1       5.591   2.536   1.475  0.00  0.00     0.006 A 
ATOM      3  C4  UNL d   1       5.112   1.368   0.877  0.00  0.00     0.002 A 
ATOM      4  C5  UNL d   1       4.020   1.415   0.004  0.00  0.00    -0.080 A 
ATOM      5  C6  UNL d   1       3.514   0.173  -0.669  0.00  0.00     0.076 C 
ATOM      6  C7  UNL d   1       3.398   2.644  -0.242  0.00  0.00     0.002 A 
ATOM      7  C8  UNL d   1       3.877   3.812   0.356  0.00  0.00     0.006 A 
ENDROOT
BRANCH   1   8
ATOM      8  C1  UNL d   1       5.535   5.039   1.809  0.00  0.00     0.054 C 
ATOM      9  C   UNL d   1       5.998   6.000   0.723  0.00  0.00     0.018 C 
ENDBRANCH   1   8
TORSDOF 1
ENDMDL
