MODEL 1
REMARK minimizedAffinity 12.6936359
REMARK minimizedRMSD -1
REMARK  1 active torsions:
REMARK  status: ('A' for Active; 'I' for Inactive)
REMARK    1  A    between atoms: C1_2  and  C2_3 
ROOT
ATOM      1  C2  UNL d   1       1.465  -2.660   0.635  0.00  0.00    -0.081 A 
ATOM      2  C3  UNL d   1       2.060  -3.897   0.911  0.00  0.00     0.006 A 
ATOM      3  C4  UNL d   1       3.419  -4.100   0.665  0.00  0.00     0.002 A 
ATOM      4  C5  UNL d   1       4.208  -3.068   0.146  0.00  0.00    -0.080 A 
ATOM      5  C6  UNL d   1       5.676  -3.263  -0.095  0.00  0.00     0.076 C 
ATOM      6  C7  UNL d   1       3.611  -1.837  -0.146  0.00  0.00     0.002 A 
ATOM      7  C8  UNL d   1       2.251  -1.634   0.100  0.00  0.00     0.006 A 
ENDROOT
BRANCH   1   8
ATOM      8  C1  UNL d   1       0.013  -2.418   0.961  0.00  0.00     0.054 C 
ATOM      9  C   UNL d   1      -0.139  -1.576   2.219  0.00  0.00     0.018 C 
ENDBRANCH   1   8
TORSDOF 1
ENDMDL
