MODEL 1
REMARK minimizedAffinity 1.85792005
REMARK minimizedRMSD -1
REMARK  1 active torsions:
REMARK  status: ('A' for Active; 'I' for Inactive)
REMARK    1  A    between atoms: C1_2  and  C2_3 
ROOT
ATOM      1  C2  UNL d   1       4.247  -3.044   1.884  0.00  0.00    -0.081 A 
ATOM      2  C3  UNL d   1       3.922  -3.963   2.890  0.00  0.00     0.006 A 
ATOM      3  C4  UNL d   1       4.258  -3.705   4.221  0.00  0.00     0.002 A 
ATOM      4  C5  UNL d   1       4.917  -2.521   4.570  0.00  0.00    -0.080 A 
ATOM      5  C6  UNL d   1       5.257  -2.218   5.999  0.00  0.00     0.076 C 
ATOM      6  C7  UNL d   1       5.258  -1.611   3.563  0.00  0.00     0.002 A 
ATOM      7  C8  UNL d   1       4.922  -1.869   2.232  0.00  0.00     0.006 A 
ENDROOT
BRANCH   1   8
ATOM      8  C1  UNL d   1       3.829  -3.290   0.457  0.00  0.00     0.054 C 
ATOM      9  C   UNL d   1       2.583  -2.492   0.101  0.00  0.00     0.018 C 
ENDBRANCH   1   8
TORSDOF 1
ENDMDL
