MODEL 1
REMARK minimizedAffinity 14.4584732
REMARK minimizedRMSD -1
REMARK  1 active torsions:
REMARK  status: ('A' for Active; 'I' for Inactive)
REMARK    1  A    between atoms: C1_2  and  C2_3 
ROOT
ATOM      1  C2  UNL d   1      -3.534  -0.166   1.013  0.00  0.00    -0.081 A 
ATOM      2  C3  UNL d   1      -2.727  -1.285   0.774  0.00  0.00     0.006 A 
ATOM      3  C4  UNL d   1      -1.488  -1.413   1.407  0.00  0.00     0.002 A 
ATOM      4  C5  UNL d   1      -1.040  -0.429   2.295  0.00  0.00    -0.080 A 
ATOM      5  C6  UNL d   1       0.275  -0.568   3.004  0.00  0.00     0.076 C 
ATOM      6  C7  UNL d   1      -1.838   0.697   2.520  0.00  0.00     0.002 A 
ATOM      7  C8  UNL d   1      -3.077   0.826   1.888  0.00  0.00     0.006 A 
ENDROOT
BRANCH   1   8
ATOM      8  C1  UNL d   1      -4.899  -0.057   0.382  0.00  0.00     0.054 C 
ATOM      9  C   UNL d   1      -5.998  -0.081   1.435  0.00  0.00     0.018 C 
ENDBRANCH   1   8
TORSDOF 1
ENDMDL
