MODEL 1
REMARK minimizedAffinity 1.78446269
REMARK minimizedRMSD -1
REMARK  1 active torsions:
REMARK  status: ('A' for Active; 'I' for Inactive)
REMARK    1  A    between atoms: C1_2  and  C2_3 
ROOT
ATOM      1  C2  UNL d   1      -4.753   0.659  -4.884  0.00  0.00    -0.081 A 
ATOM      2  C3  UNL d   1      -3.796   0.787  -5.898  0.00  0.00     0.006 A 
ATOM      3  C4  UNL d   1      -2.671  -0.040  -5.919  0.00  0.00     0.002 A 
ATOM      4  C5  UNL d   1      -2.488  -1.014  -4.931  0.00  0.00    -0.080 A 
ATOM      5  C6  UNL d   1      -1.300  -1.929  -4.959  0.00  0.00     0.076 C 
ATOM      6  C7  UNL d   1      -3.435  -1.130  -3.908  0.00  0.00     0.002 A 
ATOM      7  C8  UNL d   1      -4.560  -0.303  -3.886  0.00  0.00     0.006 A 
ENDROOT
BRANCH   1   8
ATOM      8  C1  UNL d   1      -6.000   1.507  -4.895  0.00  0.00     0.054 C 
ATOM      9  C   UNL d   1      -5.688   2.944  -5.287  0.00  0.00     0.018 C 
ENDBRANCH   1   8
TORSDOF 1
ENDMDL
