MODEL 1
REMARK minimizedAffinity 5.39348316
REMARK minimizedRMSD -1
REMARK  1 active torsions:
REMARK  status: ('A' for Active; 'I' for Inactive)
REMARK    1  A    between atoms: C1_2  and  C2_3 
ROOT
ATOM      1  C2  UNL d   1       4.445   3.227  -5.460  0.00  0.00    -0.081 A 
ATOM      2  C3  UNL d   1       5.454   3.096  -4.498  0.00  0.00     0.006 A 
ATOM      3  C4  UNL d   1       5.874   1.831  -4.080  0.00  0.00     0.002 A 
ATOM      4  C5  UNL d   1       5.298   0.677  -4.622  0.00  0.00    -0.080 A 
ATOM      5  C6  UNL d   1       5.760  -0.687  -4.204  0.00  0.00     0.076 C 
ATOM      6  C7  UNL d   1       4.277   0.808  -5.570  0.00  0.00     0.002 A 
ATOM      7  C8  UNL d   1       3.857   2.072  -5.988  0.00  0.00     0.006 A 
ENDROOT
BRANCH   1   8
ATOM      8  C1  UNL d   1       4.035   4.589  -5.960  0.00  0.00     0.054 C 
ATOM      9  C   UNL d   1       2.520   4.733  -5.995  0.00  0.00     0.018 C 
ENDBRANCH   1   8
TORSDOF 1
ENDMDL
