MODEL 1
REMARK minimizedAffinity 9.4941082
REMARK minimizedRMSD -1
REMARK  1 active torsions:
REMARK  status: ('A' for Active; 'I' for Inactive)
REMARK    1  A    between atoms: C1_2  and  C2_3 
ROOT
ATOM      1  C2  UNL d   1       2.027  -2.527   1.508  0.00  0.00    -0.081 A 
ATOM      2  C3  UNL d   1       2.019  -3.426   0.434  0.00  0.00     0.006 A 
ATOM      3  C4  UNL d   1       2.901  -4.509   0.411  0.00  0.00     0.002 A 
ATOM      4  C5  UNL d   1       3.798  -4.717   1.463  0.00  0.00    -0.080 A 
ATOM      5  C6  UNL d   1       4.729  -5.894   1.465  0.00  0.00     0.076 C 
ATOM      6  C7  UNL d   1       3.818  -3.810   2.528  0.00  0.00     0.002 A 
ATOM      7  C8  UNL d   1       2.938  -2.726   2.551  0.00  0.00     0.006 A 
ENDROOT
BRANCH   1   8
ATOM      8  C1  UNL d   1       1.034  -1.395   1.567  0.00  0.00     0.054 C 
ATOM      9  C   UNL d   1       0.093  -1.546   2.754  0.00  0.00     0.018 C 
ENDBRANCH   1   8
TORSDOF 1
ENDMDL
