MODEL 1
REMARK minimizedAffinity 5.94068384
REMARK minimizedRMSD -1
REMARK  0 active torsions:
REMARK  status: ('A' for Active; 'I' for Inactive)
ROOT
ATOM      1  N1  IND d   1       5.675  -1.893   4.138  0.00  0.00    -0.196 N 
ATOM      2  C2  IND d   1       4.961  -2.429   5.173  0.00  0.00     0.054 A 
ATOM      3  C3  IND d   1       4.198  -3.456   4.737  0.00  0.00    -0.031 A 
ATOM      4  C4  IND d   1       4.041  -4.493   2.385  0.00  0.00     0.051 A 
ATOM      5  C5  IND d   1       4.477  -4.322   1.101  0.00  0.00    -0.031 A 
ATOM      6  C6  IND d   1       5.354  -3.314   0.757  0.00  0.00     0.015 A 
ATOM      7  C7  IND d   1       5.840  -2.443   1.691  0.00  0.00    -0.016 A 
ATOM      8  C8  IND d   1       5.394  -2.609   2.995  0.00  0.00    -0.047 A 
ATOM      9  C9  IND d   1       4.470  -3.603   3.342  0.00  0.00    -0.096 A 
ATOM     10  HN1 IND d   1       6.210  -1.222   4.191  0.00  0.00     0.298 HD
ENDROOT
TORSDOF 0
ENDMDL
