MODEL 1
REMARK minimizedAffinity -4.83379745
REMARK minimizedRMSD -1
REMARK  0 active torsions:
REMARK  status: ('A' for Active; 'I' for Inactive)
ROOT
ATOM      1  N1  IND d   1      -4.075  -1.643  -3.232  0.00  0.00    -0.196 N 
ATOM      2  C2  IND d   1      -5.347  -1.725  -3.726  0.00  0.00     0.054 A 
ATOM      3  C3  IND d   1      -5.552  -0.767  -4.658  0.00  0.00    -0.031 A 
ATOM      4  C4  IND d   1      -3.910   0.976  -5.602  0.00  0.00     0.051 A 
ATOM      5  C5  IND d   1      -2.644   1.464  -5.435  0.00  0.00    -0.031 A 
ATOM      6  C6  IND d   1      -1.772   0.929  -4.510  0.00  0.00     0.015 A 
ATOM      7  C7  IND d   1      -2.131  -0.126  -3.720  0.00  0.00    -0.016 A 
ATOM      8  C8  IND d   1      -3.418  -0.620  -3.881  0.00  0.00    -0.047 A 
ATOM      9  C9  IND d   1      -4.322  -0.054  -4.789  0.00  0.00    -0.096 A 
ATOM     10  HN1 IND d   1      -3.741  -2.145  -2.619  0.00  0.00     0.298 HD
ENDROOT
TORSDOF 0
ENDMDL
