MODEL 1
REMARK minimizedAffinity 9.00757217
REMARK minimizedRMSD -1
REMARK  0 active torsions:
REMARK  status: ('A' for Active; 'I' for Inactive)
ROOT
ATOM      1  N1  IND d   1      -3.497  -1.789  -4.653  0.00  0.00    -0.196 N 
ATOM      2  C2  IND d   1      -2.193  -1.750  -5.062  0.00  0.00     0.054 A 
ATOM      3  C3  IND d   1      -1.865  -0.503  -5.468  0.00  0.00    -0.031 A 
ATOM      4  C4  IND d   1      -3.280   1.647  -5.453  0.00  0.00     0.051 A 
ATOM      5  C5  IND d   1      -4.544   2.104  -5.202  0.00  0.00    -0.031 A 
ATOM      6  C6  IND d   1      -5.542   1.270  -4.743  0.00  0.00     0.015 A 
ATOM      7  C7  IND d   1      -5.311  -0.056  -4.506  0.00  0.00    -0.016 A 
ATOM      8  C8  IND d   1      -4.031  -0.524  -4.767  0.00  0.00    -0.047 A 
ATOM      9  C9  IND d   1      -3.024   0.309  -5.273  0.00  0.00    -0.096 A 
ATOM     10  HN1 IND d   1      -3.914  -2.487  -4.372  0.00  0.00     0.298 HD
ENDROOT
TORSDOF 0
ENDMDL
