MODEL 1
REMARK minimizedAffinity 14.8440742
REMARK minimizedRMSD -1
REMARK  0 active torsions:
REMARK  status: ('A' for Active; 'I' for Inactive)
ROOT
ATOM      1  N1  IND d   1       5.990  -3.697   2.039  0.00  0.00    -0.196 N 
ATOM      2  C2  IND d   1       5.630  -4.934   1.582  0.00  0.00     0.054 A 
ATOM      3  C3  IND d   1       5.208  -5.709   2.607  0.00  0.00    -0.031 A 
ATOM      4  C4  IND d   1       4.929  -5.118   5.097  0.00  0.00     0.051 A 
ATOM      5  C5  IND d   1       5.163  -4.119   6.000  0.00  0.00    -0.031 A 
ATOM      6  C6  IND d   1       5.693  -2.903   5.621  0.00  0.00     0.015 A 
ATOM      7  C7  IND d   1       6.000  -2.635   4.316  0.00  0.00    -0.016 A 
ATOM      8  C8  IND d   1       5.770  -3.649   3.398  0.00  0.00    -0.047 A 
ATOM      9  C9  IND d   1       5.272  -4.901   3.783  0.00  0.00    -0.096 A 
ATOM     10  HN1 IND d   1       6.302  -3.056   1.558  0.00  0.00     0.298 HD
ENDROOT
TORSDOF 0
ENDMDL
