MODEL 1
REMARK minimizedAffinity 5.435184
REMARK minimizedRMSD -1
REMARK  0 active torsions:
REMARK  status: ('A' for Active; 'I' for Inactive)
ROOT
ATOM      1  N1  IND d   1       1.086   3.762  -5.926  0.00  0.00    -0.196 N 
ATOM      2  C2  IND d   1       0.395   4.941  -5.897  0.00  0.00     0.054 A 
ATOM      3  C3  IND d   1       1.251   5.987  -5.880  0.00  0.00    -0.031 A 
ATOM      4  C4  IND d   1       3.823   5.998  -5.996  0.00  0.00     0.051 A 
ATOM      5  C5  IND d   1       4.905   5.163  -5.998  0.00  0.00    -0.031 A 
ATOM      6  C6  IND d   1       4.766   3.790  -5.978  0.00  0.00     0.015 A 
ATOM      7  C7  IND d   1       3.534   3.199  -5.967  0.00  0.00    -0.016 A 
ATOM      8  C8  IND d   1       2.434   4.044  -5.958  0.00  0.00    -0.047 A 
ATOM      9  C9  IND d   1       2.569   5.438  -5.936  0.00  0.00    -0.096 A 
ATOM     10  HN1 IND d   1       0.737   2.976  -5.924  0.00  0.00     0.298 HD
ENDROOT
TORSDOF 0
ENDMDL
