MODEL 1
REMARK minimizedAffinity -1.84072614
REMARK minimizedRMSD -1
REMARK  0 active torsions:
REMARK  status: ('A' for Active; 'I' for Inactive)
ROOT
ATOM      1  N1  IND d   1      -2.663  -1.594  -3.629  0.00  0.00    -0.196 N 
ATOM      2  C2  IND d   1      -1.901  -1.608  -4.764  0.00  0.00     0.054 A 
ATOM      3  C3  IND d   1      -2.520  -0.928  -5.755  0.00  0.00    -0.031 A 
ATOM      4  C4  IND d   1      -4.741   0.374  -5.705  0.00  0.00     0.051 A 
ATOM      5  C5  IND d   1      -5.813   0.645  -4.902  0.00  0.00    -0.031 A 
ATOM      6  C6  IND d   1      -5.890   0.176  -3.606  0.00  0.00     0.015 A 
ATOM      7  C7  IND d   1      -4.888  -0.575  -3.059  0.00  0.00    -0.016 A 
ATOM      8  C8  IND d   1      -3.801  -0.858  -3.874  0.00  0.00    -0.047 A 
ATOM      9  C9  IND d   1      -3.737  -0.421  -5.204  0.00  0.00    -0.096 A 
ATOM     10  HN1 IND d   1      -2.464  -1.979  -2.887  0.00  0.00     0.298 HD
ENDROOT
TORSDOF 0
ENDMDL
