MODEL 1
REMARK minimizedAffinity 1.12704992
REMARK minimizedRMSD -1
REMARK  0 active torsions:
REMARK  status: ('A' for Active; 'I' for Inactive)
ROOT
ATOM      1  N1  IND d   1      -3.149  -1.878  -4.016  0.00  0.00    -0.196 N 
ATOM      2  C2  IND d   1      -2.258  -1.896  -5.052  0.00  0.00     0.054 A 
ATOM      3  C3  IND d   1      -2.615  -0.997  -5.996  0.00  0.00    -0.031 A 
ATOM      4  C4  IND d   1      -4.567   0.682  -6.000  0.00  0.00     0.051 A 
ATOM      5  C5  IND d   1      -5.674   1.049  -5.286  0.00  0.00    -0.031 A 
ATOM      6  C6  IND d   1      -6.000   0.449  -4.087  0.00  0.00     0.015 A 
ATOM      7  C7  IND d   1      -5.222  -0.537  -3.549  0.00  0.00    -0.016 A 
ATOM      8  C8  IND d   1      -4.102  -0.917  -4.274  0.00  0.00    -0.047 A 
ATOM      9  C9  IND d   1      -3.789  -0.342  -5.512  0.00  0.00    -0.096 A 
ATOM     10  HN1 IND d   1      -3.119  -2.381  -3.320  0.00  0.00     0.298 HD
ENDROOT
TORSDOF 0
ENDMDL
