MODEL 1
REMARK minimizedAffinity 2.17744946
REMARK minimizedRMSD -1
REMARK  0 active torsions:
REMARK  status: ('A' for Active; 'I' for Inactive)
ROOT
ATOM      1  N1  IND d   1      -2.695  -1.624  -4.171  0.00  0.00    -0.196 N 
ATOM      2  C2  IND d   1      -1.646  -1.132  -4.896  0.00  0.00     0.054 A 
ATOM      3  C3  IND d   1      -2.040  -0.069  -5.633  0.00  0.00    -0.031 A 
ATOM      4  C4  IND d   1      -4.334   1.096  -5.724  0.00  0.00     0.051 A 
ATOM      5  C5  IND d   1      -5.617   0.987  -5.266  0.00  0.00    -0.031 A 
ATOM      6  C6  IND d   1      -5.998  -0.016  -4.399  0.00  0.00     0.015 A 
ATOM      7  C7  IND d   1      -5.104  -0.946  -3.948  0.00  0.00    -0.016 A 
ATOM      8  C8  IND d   1      -3.803  -0.843  -4.417  0.00  0.00    -0.047 A 
ATOM      9  C9  IND d   1      -3.419   0.148  -5.330  0.00  0.00    -0.096 A 
ATOM     10  HN1 IND d   1      -2.668  -2.307  -3.649  0.00  0.00     0.298 HD
ENDROOT
TORSDOF 0
ENDMDL
