MODEL 1
REMARK minimizedAffinity 1.33255136
REMARK minimizedRMSD -1
REMARK  3 active torsions:
REMARK  status: ('A' for Active; 'I' for Inactive)
REMARK    1  A    between atoms: C3'_2  and  C2'_3 
REMARK    2  A    between atoms: C2'_3  and  C1'_4 
REMARK    3  A    between atoms: C1'_4  and  C1_5 
ROOT
ATOM      1  C1  N4B d   1       0.377  -2.136  -2.441  0.00  0.00    -0.075 A 
ATOM      2  C2  N4B d   1      -0.721  -2.825  -3.001  0.00  0.00     0.002 A 
ATOM      3  C3  N4B d   1      -1.944  -2.789  -2.377  0.00  0.00     0.002 A 
ATOM      4  C4  N4B d   1      -2.087  -2.089  -1.189  0.00  0.00    -0.004 A 
ATOM      5  C5  N4B d   1      -1.028  -1.405  -0.668  0.00  0.00     0.002 A 
ATOM      6  C6  N4B d   1       0.206  -1.430  -1.286  0.00  0.00     0.002 A 
ENDROOT
BRANCH   1   7
ATOM      7  C1' N4B d   1       1.754  -2.218  -3.041  0.00  0.00     0.057 C 
BRANCH   7   8
ATOM      8  C2' N4B d   1       2.724  -1.416  -2.178  0.00  0.00     0.009 C 
BRANCH   8   9
ATOM      9  C3' N4B d   1       3.258  -2.233  -1.014  0.00  0.00     0.004 C 
ATOM     10  C4' N4B d   1       3.357  -1.440   0.255  0.00  0.00     0.003 C 
ENDBRANCH   8   9
ENDBRANCH   7   8
ENDBRANCH   1   7
TORSDOF 3
ENDMDL
