MODEL 1
REMARK minimizedAffinity 4.91197157
REMARK minimizedRMSD -1
REMARK  3 active torsions:
REMARK  status: ('A' for Active; 'I' for Inactive)
REMARK    1  A    between atoms: C3'_2  and  C2'_3 
REMARK    2  A    between atoms: C2'_3  and  C1'_4 
REMARK    3  A    between atoms: C1'_4  and  C1_5 
ROOT
ATOM      1  C1  N4B d   1       5.704   4.709  -2.992  0.00  0.00    -0.075 A 
ATOM      2  C2  N4B d   1       5.158   3.590  -3.659  0.00  0.00     0.002 A 
ATOM      3  C3  N4B d   1       4.828   3.677  -4.989  0.00  0.00     0.002 A 
ATOM      4  C4  N4B d   1       5.016   4.872  -5.666  0.00  0.00    -0.004 A 
ATOM      5  C5  N4B d   1       5.568   5.941  -5.021  0.00  0.00     0.002 A 
ATOM      6  C6  N4B d   1       5.908   5.867  -3.686  0.00  0.00     0.002 A 
ENDROOT
BRANCH   1   7
ATOM      7  C1' N4B d   1       6.000   4.688  -1.518  0.00  0.00     0.057 C 
BRANCH   7   8
ATOM      8  C2' N4B d   1       5.529   5.998  -0.894  0.00  0.00     0.009 C 
BRANCH   8   9
ATOM      9  C3' N4B d   1       4.680   5.765   0.344  0.00  0.00     0.004 C 
ATOM     10  C4' N4B d   1       3.214   5.955   0.088  0.00  0.00     0.003 C 
ENDBRANCH   8   9
ENDBRANCH   7   8
ENDBRANCH   1   7
TORSDOF 3
ENDMDL
