MODEL 1
REMARK minimizedAffinity 4.59292603
REMARK minimizedRMSD -1
REMARK  3 active torsions:
REMARK  status: ('A' for Active; 'I' for Inactive)
REMARK    1  A    between atoms: C3'_2  and  C2'_3 
REMARK    2  A    between atoms: C2'_3  and  C1'_4 
REMARK    3  A    between atoms: C1'_4  and  C1_5 
ROOT
ATOM      1  C1  N4B d   1       4.306   4.047  -3.627  0.00  0.00    -0.075 A 
ATOM      2  C2  N4B d   1       3.042   4.628  -3.385  0.00  0.00     0.002 A 
ATOM      3  C3  N4B d   1       2.549   5.582  -4.241  0.00  0.00     0.002 A 
ATOM      4  C4  N4B d   1       3.308   5.983  -5.331  0.00  0.00    -0.004 A 
ATOM      5  C5  N4B d   1       4.517   5.398  -5.572  0.00  0.00     0.002 A 
ATOM      6  C6  N4B d   1       5.023   4.436  -4.721  0.00  0.00     0.002 A 
ENDROOT
BRANCH   1   7
ATOM      7  C1' N4B d   1       4.924   3.064  -2.671  0.00  0.00     0.057 C 
BRANCH   7   8
ATOM      8  C2' N4B d   1       5.971   3.779  -1.823  0.00  0.00     0.009 C 
BRANCH   8   9
ATOM      9  C3' N4B d   1       5.866   5.290  -1.945  0.00  0.00     0.004 C 
ATOM     10  C4' N4B d   1       5.999   5.990  -0.626  0.00  0.00     0.003 C 
ENDBRANCH   8   9
ENDBRANCH   7   8
ENDBRANCH   1   7
TORSDOF 3
ENDMDL
