MODEL 1
REMARK minimizedAffinity 4.63603878
REMARK minimizedRMSD -1
REMARK  3 active torsions:
REMARK  status: ('A' for Active; 'I' for Inactive)
REMARK    1  A    between atoms: C3'_2  and  C2'_3 
REMARK    2  A    between atoms: C2'_3  and  C1'_4 
REMARK    3  A    between atoms: C1'_4  and  C1_5 
ROOT
ATOM      1  C1  N4B d   1       4.586   5.501  -3.854  0.00  0.00    -0.075 A 
ATOM      2  C2  N4B d   1       3.564   5.078  -2.976  0.00  0.00     0.002 A 
ATOM      3  C3  N4B d   1       3.786   5.062  -1.621  0.00  0.00     0.002 A 
ATOM      4  C4  N4B d   1       5.023   5.446  -1.124  0.00  0.00    -0.004 A 
ATOM      5  C5  N4B d   1       5.996   5.878  -1.977  0.00  0.00     0.002 A 
ATOM      6  C6  N4B d   1       5.785   5.903  -3.341  0.00  0.00     0.002 A 
ENDROOT
BRANCH   1   7
ATOM      7  C1' N4B d   1       4.419   5.454  -5.349  0.00  0.00     0.057 C 
BRANCH   7   8
ATOM      8  C2' N4B d   1       4.888   4.096  -5.862  0.00  0.00     0.009 C 
BRANCH   8   9
ATOM      9  C3' N4B d   1       5.853   3.427  -4.899  0.00  0.00     0.004 C 
ATOM     10  C4' N4B d   1       5.272   2.205  -4.251  0.00  0.00     0.003 C 
ENDBRANCH   8   9
ENDBRANCH   7   8
ENDBRANCH   1   7
TORSDOF 3
ENDMDL
