MODEL 1
REMARK minimizedAffinity -3.31104898
REMARK minimizedRMSD -1
REMARK  3 active torsions:
REMARK  status: ('A' for Active; 'I' for Inactive)
REMARK    1  A    between atoms: C3'_2  and  C2'_3 
REMARK    2  A    between atoms: C2'_3  and  C1'_4 
REMARK    3  A    between atoms: C1'_4  and  C1_5 
ROOT
ATOM      1  C1  N4B d   1      -1.419  -2.689  -1.818  0.00  0.00    -0.075 A 
ATOM      2  C2  N4B d   1      -1.151  -3.317  -3.054  0.00  0.00     0.002 A 
ATOM      3  C3  N4B d   1       0.023  -3.055  -3.716  0.00  0.00     0.002 A 
ATOM      4  C4  N4B d   1       0.931  -2.157  -3.174  0.00  0.00    -0.004 A 
ATOM      5  C5  N4B d   1       0.676  -1.574  -1.967  0.00  0.00     0.002 A 
ATOM      6  C6  N4B d   1      -0.498  -1.832  -1.289  0.00  0.00     0.002 A 
ENDROOT
BRANCH   1   7
ATOM      7  C1' N4B d   1      -2.727  -2.878  -1.098  0.00  0.00     0.057 C 
BRANCH   7   8
ATOM      8  C2' N4B d   1      -2.547  -2.511   0.372  0.00  0.00     0.009 C 
BRANCH   8   9
ATOM      9  C3' N4B d   1      -1.518  -3.393   1.057  0.00  0.00     0.004 C 
ATOM     10  C4' N4B d   1      -1.087  -2.856   2.389  0.00  0.00     0.003 C 
ENDBRANCH   8   9
ENDBRANCH   7   8
ENDBRANCH   1   7
TORSDOF 3
ENDMDL
