MODEL 1
REMARK minimizedAffinity 3.75410819
REMARK minimizedRMSD -1
REMARK  3 active torsions:
REMARK  status: ('A' for Active; 'I' for Inactive)
REMARK    1  A    between atoms: C3'_2  and  C2'_3 
REMARK    2  A    between atoms: C2'_3  and  C1'_4 
REMARK    3  A    between atoms: C1'_4  and  C1_5 
ROOT
ATOM      1  C1  N4B d   1      -0.898  -3.022   0.443  0.00  0.00    -0.075 A 
ATOM      2  C2  N4B d   1      -0.622  -3.194  -0.931  0.00  0.00     0.002 A 
ATOM      3  C3  N4B d   1      -1.645  -3.151  -1.847  0.00  0.00     0.002 A 
ATOM      4  C4  N4B d   1      -2.948  -2.959  -1.412  0.00  0.00    -0.004 A 
ATOM      5  C5  N4B d   1      -3.203  -2.769  -0.085  0.00  0.00     0.002 A 
ATOM      6  C6  N4B d   1      -2.184  -2.805   0.846  0.00  0.00     0.002 A 
ENDROOT
BRANCH   1   7
ATOM      7  C1' N4B d   1       0.175  -3.146   1.490  0.00  0.00     0.057 C 
BRANCH   7   8
ATOM      8  C2' N4B d   1       1.404  -3.805   0.872  0.00  0.00     0.009 C 
BRANCH   8   9
ATOM      9  C3' N4B d   1       2.687  -3.382   1.567  0.00  0.00     0.004 C 
ATOM     10  C4' N4B d   1       3.795  -3.074   0.605  0.00  0.00     0.003 C 
ENDBRANCH   8   9
ENDBRANCH   7   8
ENDBRANCH   1   7
TORSDOF 3
ENDMDL
