MODEL 1
REMARK minimizedAffinity -0.980098128
REMARK minimizedRMSD -1
REMARK  3 active torsions:
REMARK  status: ('A' for Active; 'I' for Inactive)
REMARK    1  A    between atoms: C3'_2  and  C2'_3 
REMARK    2  A    between atoms: C2'_3  and  C1'_4 
REMARK    3  A    between atoms: C1'_4  and  C1_5 
ROOT
ATOM      1  C1  N4B d   1      -1.034  -3.090  -1.565  0.00  0.00    -0.075 A 
ATOM      2  C2  N4B d   1      -1.087  -4.340  -2.220  0.00  0.00     0.002 A 
ATOM      3  C3  N4B d   1      -0.535  -4.484  -3.470  0.00  0.00     0.002 A 
ATOM      4  C4  N4B d   1       0.055  -3.393  -4.089  0.00  0.00    -0.004 A 
ATOM      5  C5  N4B d   1       0.124  -2.195  -3.439  0.00  0.00     0.002 A 
ATOM      6  C6  N4B d   1      -0.423  -2.037  -2.182  0.00  0.00     0.002 A 
ENDROOT
BRANCH   1   7
ATOM      7  C1' N4B d   1      -1.699  -2.862  -0.235  0.00  0.00     0.057 C 
BRANCH   7   8
ATOM      8  C2' N4B d   1      -0.724  -2.148   0.696  0.00  0.00     0.009 C 
BRANCH   8   9
ATOM      9  C3' N4B d   1      -0.697  -2.774   2.079  0.00  0.00     0.004 C 
ATOM     10  C4' N4B d   1      -1.598  -2.072   3.052  0.00  0.00     0.003 C 
ENDBRANCH   8   9
ENDBRANCH   7   8
ENDBRANCH   1   7
TORSDOF 3
ENDMDL
