MODEL 1
REMARK minimizedAffinity 1.04887271
REMARK minimizedRMSD -1
REMARK  3 active torsions:
REMARK  status: ('A' for Active; 'I' for Inactive)
REMARK    1  A    between atoms: C3'_2  and  C2'_3 
REMARK    2  A    between atoms: C2'_3  and  C1'_4 
REMARK    3  A    between atoms: C1'_4  and  C1_5 
ROOT
ATOM      1  C1  N4B d   1      -1.474  -2.367   1.299  0.00  0.00    -0.075 A 
ATOM      2  C2  N4B d   1      -0.517  -1.643   0.556  0.00  0.00     0.002 A 
ATOM      3  C3  N4B d   1      -0.399  -1.847  -0.797  0.00  0.00     0.002 A 
ATOM      4  C4  N4B d   1      -1.212  -2.781  -1.422  0.00  0.00    -0.004 A 
ATOM      5  C5  N4B d   1      -2.151  -3.458  -0.702  0.00  0.00     0.002 A 
ATOM      6  C6  N4B d   1      -2.283  -3.260   0.658  0.00  0.00     0.002 A 
ENDROOT
BRANCH   1   7
ATOM      7  C1' N4B d   1      -1.582  -2.240   2.794  0.00  0.00     0.057 C 
BRANCH   7   8
ATOM      8  C2' N4B d   1      -2.019  -0.822   3.146  0.00  0.00     0.009 C 
BRANCH   8   9
ATOM      9  C3' N4B d   1      -2.215  -0.642   4.642  0.00  0.00     0.004 C 
ATOM     10  C4' N4B d   1      -1.325   0.417   5.221  0.00  0.00     0.003 C 
ENDBRANCH   8   9
ENDBRANCH   7   8
ENDBRANCH   1   7
TORSDOF 3
ENDMDL
