MODEL 1
REMARK minimizedAffinity 2.0289526
REMARK minimizedRMSD -1
REMARK  3 active torsions:
REMARK  status: ('A' for Active; 'I' for Inactive)
REMARK    1  A    between atoms: C3'_2  and  C2'_3 
REMARK    2  A    between atoms: C2'_3  and  C1'_4 
REMARK    3  A    between atoms: C1'_4  and  C1_5 
ROOT
ATOM      1  C1  N4B d   1      -2.062  -2.951  -2.116  0.00  0.00    -0.075 A 
ATOM      2  C2  N4B d   1      -2.302  -4.146  -2.828  0.00  0.00     0.002 A 
ATOM      3  C3  N4B d   1      -1.614  -4.404  -3.989  0.00  0.00     0.002 A 
ATOM      4  C4  N4B d   1      -0.699  -3.476  -4.464  0.00  0.00    -0.004 A 
ATOM      5  C5  N4B d   1      -0.455  -2.335  -3.757  0.00  0.00     0.002 A 
ATOM      6  C6  N4B d   1      -1.136  -2.065  -2.587  0.00  0.00     0.002 A 
ENDROOT
BRANCH   1   7
ATOM      7  C1' N4B d   1      -2.852  -2.585  -0.889  0.00  0.00     0.057 C 
BRANCH   7   8
ATOM      8  C2' N4B d   1      -2.569  -3.605   0.210  0.00  0.00     0.009 C 
BRANCH   8   9
ATOM      9  C3' N4B d   1      -1.106  -3.609   0.619  0.00  0.00     0.004 C 
ATOM     10  C4' N4B d   1      -0.910  -3.316   2.077  0.00  0.00     0.003 C 
ENDBRANCH   8   9
ENDBRANCH   7   8
ENDBRANCH   1   7
TORSDOF 3
ENDMDL
