MODEL 1
REMARK minimizedAffinity 0.148783922
REMARK minimizedRMSD -1
REMARK  3 active torsions:
REMARK  status: ('A' for Active; 'I' for Inactive)
REMARK    1  A    between atoms: C3'_2  and  C2'_3 
REMARK    2  A    between atoms: C2'_3  and  C1'_4 
REMARK    3  A    between atoms: C1'_4  and  C1_5 
ROOT
ATOM      1  C1  N4B d   1       4.321   4.482  -1.826  0.00  0.00    -0.075 A 
ATOM      2  C2  N4B d   1       3.750   4.468  -3.117  0.00  0.00     0.002 A 
ATOM      3  C3  N4B d   1       4.317   5.207  -4.127  0.00  0.00     0.002 A 
ATOM      4  C4  N4B d   1       5.439   5.978  -3.865  0.00  0.00    -0.004 A 
ATOM      5  C5  N4B d   1       5.999   5.967  -2.622  0.00  0.00     0.002 A 
ATOM      6  C6  N4B d   1       5.443   5.226  -1.598  0.00  0.00     0.002 A 
ENDROOT
BRANCH   1   7
ATOM      7  C1' N4B d   1       3.688   3.759  -0.669  0.00  0.00     0.057 C 
BRANCH   7   8
ATOM      8  C2' N4B d   1       2.172   3.762  -0.846  0.00  0.00     0.009 C 
BRANCH   8   9
ATOM      9  C3' N4B d   1       1.445   3.583   0.476  0.00  0.00     0.004 C 
ATOM     10  C4' N4B d   1       0.058   3.038   0.306  0.00  0.00     0.003 C 
ENDBRANCH   8   9
ENDBRANCH   7   8
ENDBRANCH   1   7
TORSDOF 3
ENDMDL
