MODEL 1
REMARK minimizedAffinity -4.67471027
REMARK minimizedRMSD -1
REMARK  0 active torsions:
REMARK  status: ('A' for Active; 'I' for Inactive)
ROOT
ATOM      1  C1  DEN d   1       1.556   1.573  -0.172  0.00  0.00     0.130 A 
ATOM      2  C2  DEN d   1       0.117   1.808  -0.250  0.00  0.00    -0.031 A 
ATOM      3  C3  DEN d   1      -0.562   0.498  -0.219  0.00  0.00     0.027 A 
ATOM      4  C4  DEN d   1       0.470  -1.861  -0.055  0.00  0.00     0.027 A 
ATOM      5  C5  DEN d   1       1.650  -2.567   0.023  0.00  0.00    -0.003 A 
ATOM      6  C6  DEN d   1       2.873  -1.949   0.006  0.00  0.00     0.001 A 
ATOM      7  C7  DEN d   1       2.942  -0.582  -0.044  0.00  0.00     0.017 A 
ATOM      8  C8  DEN d   1       1.757   0.136  -0.130  0.00  0.00    -0.094 A 
ATOM      9  C9  DEN d   1       0.530  -0.506  -0.099  0.00  0.00    -0.072 A 
ENDROOT
TORSDOF 0
ENDMDL
