MODEL 1
REMARK minimizedAffinity -3.6288898
REMARK minimizedRMSD -1
REMARK  0 active torsions:
REMARK  status: ('A' for Active; 'I' for Inactive)
ROOT
ATOM      1  C1  DEN d   1       0.076  -1.004   0.608  0.00  0.00     0.130 A 
ATOM      2  C2  DEN d   1       0.709  -1.083  -0.705  0.00  0.00    -0.031 A 
ATOM      3  C3  DEN d   1       0.003  -0.153  -1.609  0.00  0.00     0.027 A 
ATOM      4  C4  DEN d   1      -1.995   1.397  -1.103  0.00  0.00     0.027 A 
ATOM      5  C5  DEN d   1      -2.884   1.803  -0.132  0.00  0.00    -0.003 A 
ATOM      6  C6  DEN d   1      -2.870   1.281   1.134  0.00  0.00     0.001 A 
ATOM      7  C7  DEN d   1      -1.920   0.355   1.476  0.00  0.00     0.017 A 
ATOM      8  C8  DEN d   1      -1.025  -0.064   0.500  0.00  0.00    -0.094 A 
ATOM      9  C9  DEN d   1      -1.048   0.485  -0.771  0.00  0.00    -0.072 A 
ENDROOT
TORSDOF 0
ENDMDL
