MODEL 1
REMARK minimizedAffinity -0.365512371
REMARK minimizedRMSD -1
REMARK  0 active torsions:
REMARK  status: ('A' for Active; 'I' for Inactive)
ROOT
ATOM      1  C1  DEN d   1       2.158  -0.314   0.541  0.00  0.00     0.130 A 
ATOM      2  C2  DEN d   1       2.982  -1.090  -0.382  0.00  0.00    -0.031 A 
ATOM      3  C3  DEN d   1       2.112  -1.577  -1.471  0.00  0.00     0.027 A 
ATOM      4  C4  DEN d   1      -0.417  -1.205  -1.818  0.00  0.00     0.027 A 
ATOM      5  C5  DEN d   1      -1.548  -0.622  -1.292  0.00  0.00    -0.003 A 
ATOM      6  C6  DEN d   1      -1.531   0.070  -0.110  0.00  0.00     0.001 A 
ATOM      7  C7  DEN d   1      -0.349   0.235   0.563  0.00  0.00     0.017 A 
ATOM      8  C8  DEN d   1       0.795  -0.356   0.042  0.00  0.00    -0.094 A 
ATOM      9  C9  DEN d   1       0.759  -1.041  -1.161  0.00  0.00    -0.072 A 
ENDROOT
TORSDOF 0
ENDMDL
