MODEL 1
REMARK minimizedAffinity -1.97871411
REMARK minimizedRMSD -1
REMARK  0 active torsions:
REMARK  status: ('A' for Active; 'I' for Inactive)
ROOT
ATOM      1  C1  DEN d   1       2.827  -1.131  -0.173  0.00  0.00     0.130 A 
ATOM      2  C2  DEN d   1       2.096  -2.395  -0.214  0.00  0.00    -0.031 A 
ATOM      3  C3  DEN d   1       0.656  -2.087  -0.316  0.00  0.00     0.027 A 
ATOM      4  C4  DEN d   1      -0.508   0.212  -0.420  0.00  0.00     0.027 A 
ATOM      5  C5  DEN d   1      -0.306   1.574  -0.406  0.00  0.00    -0.003 A 
ATOM      6  C6  DEN d   1       0.942   2.126  -0.280  0.00  0.00     0.001 A 
ATOM      7  C7  DEN d   1       2.040   1.311  -0.209  0.00  0.00     0.017 A 
ATOM      8  C8  DEN d   1       1.843  -0.064  -0.215  0.00  0.00    -0.094 A 
ATOM      9  C9  DEN d   1       0.575  -0.602  -0.355  0.00  0.00    -0.072 A 
ENDROOT
TORSDOF 0
ENDMDL
