MODEL 1
REMARK minimizedAffinity -0.337521672
REMARK minimizedRMSD -1
REMARK  0 active torsions:
REMARK  status: ('A' for Active; 'I' for Inactive)
ROOT
ATOM      1  C1  DEN d   1      -1.184   1.478  -0.672  0.00  0.00     0.130 A 
ATOM      2  C2  DEN d   1      -1.755   0.169  -0.367  0.00  0.00    -0.031 A 
ATOM      3  C3  DEN d   1      -0.672  -0.692   0.150  0.00  0.00     0.027 A 
ATOM      4  C4  DEN d   1       1.819  -0.126   0.511  0.00  0.00     0.027 A 
ATOM      5  C5  DEN d   1       2.776   0.856   0.385  0.00  0.00    -0.003 A 
ATOM      6  C6  DEN d   1       2.490   2.093  -0.129  0.00  0.00     0.001 A 
ATOM      7  C7  DEN d   1       1.205   2.396  -0.495  0.00  0.00     0.017 A 
ATOM      8  C8  DEN d   1       0.236   1.408  -0.378  0.00  0.00    -0.094 A 
ATOM      9  C9  DEN d   1       0.542   0.168   0.156  0.00  0.00    -0.072 A 
ENDROOT
TORSDOF 0
ENDMDL
