MODEL 1
REMARK minimizedAffinity -2.32226229
REMARK minimizedRMSD -1
REMARK  0 active torsions:
REMARK  status: ('A' for Active; 'I' for Inactive)
ROOT
ATOM      1  C1  DEN d   1      -3.152  -0.622   1.557  0.00  0.00     0.130 A 
ATOM      2  C2  DEN d   1      -3.810   0.655   1.295  0.00  0.00    -0.031 A 
ATOM      3  C3  DEN d   1      -2.964   1.421   0.358  0.00  0.00     0.027 A 
ATOM      4  C4  DEN d   1      -0.714   0.755  -0.712  0.00  0.00     0.027 A 
ATOM      5  C5  DEN d   1       0.248  -0.228  -0.783  0.00  0.00    -0.003 A 
ATOM      6  C6  DEN d   1       0.162  -1.388  -0.059  0.00  0.00     0.001 A 
ATOM      7  C7  DEN d   1      -0.933  -1.613   0.734  0.00  0.00     0.017 A 
ATOM      8  C8  DEN d   1      -1.903  -0.623   0.816  0.00  0.00    -0.094 A 
ATOM      9  C9  DEN d   1      -1.803   0.537   0.067  0.00  0.00    -0.072 A 
ENDROOT
TORSDOF 0
ENDMDL
