MODEL 1
REMARK minimizedAffinity -2.7163043
REMARK minimizedRMSD -1
REMARK  0 active torsions:
REMARK  status: ('A' for Active; 'I' for Inactive)
ROOT
ATOM      1  C1  DEN d   1       0.205  -1.770  -0.012  0.00  0.00     0.130 A 
ATOM      2  C2  DEN d   1       1.551  -2.184   0.375  0.00  0.00    -0.031 A 
ATOM      3  C3  DEN d   1       2.395  -0.974   0.457  0.00  0.00     0.027 A 
ATOM      4  C4  DEN d   1       1.749   1.486   0.030  0.00  0.00     0.027 A 
ATOM      5  C5  DEN d   1       0.724   2.331  -0.334  0.00  0.00    -0.003 A 
ATOM      6  C6  DEN d   1      -0.527   1.868  -0.647  0.00  0.00     0.001 A 
ATOM      7  C7  DEN d   1      -0.797   0.528  -0.558  0.00  0.00     0.017 A 
ATOM      8  C8  DEN d   1       0.234  -0.330  -0.198  0.00  0.00    -0.094 A 
ATOM      9  C9  DEN d   1       1.488   0.158   0.126  0.00  0.00    -0.072 A 
ENDROOT
TORSDOF 0
ENDMDL
