MODEL 1
REMARK minimizedAffinity 5.16178846
REMARK minimizedRMSD -1
REMARK  1 active torsions:
REMARK  status: ('A' for Active; 'I' for Inactive)
REMARK    1  A    between atoms: C1_2  and  C2_3 
ROOT
ATOM      1  C2  UNL d   1       0.647   2.369   0.414  0.00  0.00    -0.073 A 
ATOM      2  C3  UNL d   1       0.970   1.242  -0.349  0.00  0.00    -0.002 A 
ATOM      3  C4  UNL d   1       2.281   0.765  -0.381  0.00  0.00     0.004 A 
ATOM      4  C5  UNL d   1       3.279   1.404   0.354  0.00  0.00    -0.004 A 
ATOM      5  C6  UNL d   1       2.973   2.525   1.133  0.00  0.00    -0.075 A 
ATOM      6  C7  UNL d   1       4.036   3.225   1.927  0.00  0.00     0.076 C 
ATOM      7  C8  UNL d   1       1.655   3.000   1.157  0.00  0.00     0.001 A 
ENDROOT
BRANCH   1   8
ATOM      8  C1  UNL d   1      -0.769   2.884   0.457  0.00  0.00     0.053 C 
ATOM      9  C   UNL d   1      -1.787   1.771   0.263  0.00  0.00     0.018 C 
ENDBRANCH   1   8
TORSDOF 1
ENDMDL
