MODEL 1
REMARK minimizedAffinity 5.01270676
REMARK minimizedRMSD -1
REMARK  1 active torsions:
REMARK  status: ('A' for Active; 'I' for Inactive)
REMARK    1  A    between atoms: C1_2  and  C2_3 
ROOT
ATOM      1  C2  UNL d   1      -2.809   2.024   0.208  0.00  0.00    -0.073 A 
ATOM      2  C3  UNL d   1      -2.012   3.164   0.052  0.00  0.00    -0.002 A 
ATOM      3  C4  UNL d   1      -0.662   3.133   0.403  0.00  0.00     0.004 A 
ATOM      4  C5  UNL d   1      -0.094   1.963   0.905  0.00  0.00    -0.004 A 
ATOM      5  C6  UNL d   1      -0.871   0.810   1.057  0.00  0.00    -0.075 A 
ATOM      6  C7  UNL d   1      -0.275  -0.456   1.598  0.00  0.00     0.076 C 
ATOM      7  C8  UNL d   1      -2.226   0.849   0.705  0.00  0.00     0.001 A 
ENDROOT
BRANCH   1   8
ATOM      8  C1  UNL d   1      -4.266   2.050  -0.175  0.00  0.00     0.053 C 
ATOM      9  C   UNL d   1      -4.978   0.760   0.200  0.00  0.00     0.018 C 
ENDBRANCH   1   8
TORSDOF 1
ENDMDL
