MODEL 1
REMARK minimizedAffinity 2.74375296
REMARK minimizedRMSD -1
REMARK  1 active torsions:
REMARK  status: ('A' for Active; 'I' for Inactive)
REMARK    1  A    between atoms: C1_2  and  C2_3 
ROOT
ATOM      1  C2  UNL d   1      -0.219   0.561   1.599  0.00  0.00    -0.073 A 
ATOM      2  C3  UNL d   1       0.508   0.892   0.450  0.00  0.00    -0.002 A 
ATOM      3  C4  UNL d   1       0.724   2.230   0.114  0.00  0.00     0.004 A 
ATOM      4  C5  UNL d   1       0.222   3.247   0.925  0.00  0.00    -0.004 A 
ATOM      5  C6  UNL d   1      -0.497   2.936   2.083  0.00  0.00    -0.075 A 
ATOM      6  C7  UNL d   1      -1.046   4.019   2.965  0.00  0.00     0.076 C 
ATOM      7  C8  UNL d   1      -0.712   1.591   2.413  0.00  0.00     0.001 A 
ENDROOT
BRANCH   1   8
ATOM      8  C1  UNL d   1      -0.449  -0.881   1.969  0.00  0.00     0.053 C 
ATOM      9  C   UNL d   1      -0.851  -1.038   3.427  0.00  0.00     0.018 C 
ENDBRANCH   1   8
TORSDOF 1
ENDMDL
