MODEL 1
REMARK minimizedAffinity 6.21249676
REMARK minimizedRMSD -1
REMARK  1 active torsions:
REMARK  status: ('A' for Active; 'I' for Inactive)
REMARK    1  A    between atoms: C1_2  and  C2_3 
ROOT
ATOM      1  C2  UNL d   1       2.502   0.744  -0.304  0.00  0.00    -0.073 A 
ATOM      2  C3  UNL d   1       2.220  -0.515   0.239  0.00  0.00    -0.002 A 
ATOM      3  C4  UNL d   1       1.454  -1.436  -0.478  0.00  0.00     0.004 A 
ATOM      4  C5  UNL d   1       0.970  -1.112  -1.745  0.00  0.00    -0.004 A 
ATOM      5  C6  UNL d   1       1.251   0.136  -2.309  0.00  0.00    -0.075 A 
ATOM      6  C7  UNL d   1       0.735   0.502  -3.670  0.00  0.00     0.076 C 
ATOM      7  C8  UNL d   1       2.018   1.057  -1.582  0.00  0.00     0.001 A 
ENDROOT
BRANCH   1   8
ATOM      8  C1  UNL d   1       3.333   1.739   0.463  0.00  0.00     0.053 C 
ATOM      9  C   UNL d   1       2.498   2.536   1.453  0.00  0.00     0.018 C 
ENDBRANCH   1   8
TORSDOF 1
ENDMDL
