MODEL 1
REMARK minimizedAffinity 3.41165519
REMARK minimizedRMSD -1
REMARK  1 active torsions:
REMARK  status: ('A' for Active; 'I' for Inactive)
REMARK    1  A    between atoms: C1_2  and  C2_3 
ROOT
ATOM      1  C2  UNL d   1       4.930   3.788   4.965  0.00  0.00    -0.073 A 
ATOM      2  C3  UNL d   1       3.962   3.603   5.959  0.00  0.00    -0.002 A 
ATOM      3  C4  UNL d   1       2.977   2.625   5.810  0.00  0.00     0.004 A 
ATOM      4  C5  UNL d   1       2.954   1.820   4.671  0.00  0.00    -0.004 A 
ATOM      5  C6  UNL d   1       3.920   1.983   3.672  0.00  0.00    -0.075 A 
ATOM      6  C7  UNL d   1       3.907   1.126   2.440  0.00  0.00     0.076 C 
ATOM      7  C8  UNL d   1       4.904   2.968   3.828  0.00  0.00     0.001 A 
ENDROOT
BRANCH   1   8
ATOM      8  C1  UNL d   1       5.999   4.838   5.125  0.00  0.00     0.053 C 
ATOM      9  C   UNL d   1       5.536   5.996   5.995  0.00  0.00     0.018 C 
ENDBRANCH   1   8
TORSDOF 1
ENDMDL
