MODEL 1
REMARK minimizedAffinity 8.61150551
REMARK minimizedRMSD -1
REMARK  1 active torsions:
REMARK  status: ('A' for Active; 'I' for Inactive)
REMARK    1  A    between atoms: C1_2  and  C2_3 
ROOT
ATOM      1  C2  UNL d   1      -3.575   2.387   0.597  0.00  0.00    -0.073 A 
ATOM      2  C3  UNL d   1      -4.749   3.148   0.551  0.00  0.00    -0.002 A 
ATOM      3  C4  UNL d   1      -5.946   2.629   1.046  0.00  0.00     0.004 A 
ATOM      4  C5  UNL d   1      -5.981   1.349   1.598  0.00  0.00    -0.004 A 
ATOM      5  C6  UNL d   1      -4.816   0.577   1.664  0.00  0.00    -0.075 A 
ATOM      6  C7  UNL d   1      -4.837  -0.803   2.252  0.00  0.00     0.076 C 
ATOM      7  C8  UNL d   1      -3.618   1.104   1.162  0.00  0.00     0.001 A 
ENDROOT
BRANCH   1   8
ATOM      8  C1  UNL d   1      -2.279   2.946   0.069  0.00  0.00     0.053 C 
ATOM      9  C   UNL d   1      -2.312   3.135  -1.439  0.00  0.00     0.018 C 
ENDBRANCH   1   8
TORSDOF 1
ENDMDL
