MODEL 1
REMARK minimizedAffinity 2.55460739
REMARK minimizedRMSD -1
REMARK  1 active torsions:
REMARK  status: ('A' for Active; 'I' for Inactive)
REMARK    1  A    between atoms: C1_2  and  C2_3 
ROOT
ATOM      1  C2  UNL d   1      -2.419   2.678   0.111  0.00  0.00    -0.073 A 
ATOM      2  C3  UNL d   1      -1.858   1.539   0.700  0.00  0.00    -0.002 A 
ATOM      3  C4  UNL d   1      -2.631   0.715   1.519  0.00  0.00     0.004 A 
ATOM      4  C5  UNL d   1      -3.973   1.018   1.753  0.00  0.00    -0.004 A 
ATOM      5  C6  UNL d   1      -4.554   2.145   1.164  0.00  0.00    -0.075 A 
ATOM      6  C7  UNL d   1      -5.995   2.486   1.408  0.00  0.00     0.076 C 
ATOM      7  C8  UNL d   1      -3.771   2.969   0.345  0.00  0.00     0.001 A 
ENDROOT
BRANCH   1   8
ATOM      8  C1  UNL d   1      -1.590   3.567  -0.779  0.00  0.00     0.053 C 
ATOM      9  C   UNL d   1      -0.100   3.401  -0.522  0.00  0.00     0.018 C 
ENDBRANCH   1   8
TORSDOF 1
ENDMDL
