MODEL 1
REMARK minimizedAffinity 0.00661634561
REMARK minimizedRMSD -1
REMARK  1 active torsions:
REMARK  status: ('A' for Active; 'I' for Inactive)
REMARK    1  A    between atoms: C1_2  and  C2_3 
ROOT
ATOM      1  C2  UNL d   1       0.204   2.632   0.726  0.00  0.00    -0.073 A 
ATOM      2  C3  UNL d   1       0.456   3.692  -0.153  0.00  0.00    -0.002 A 
ATOM      3  C4  UNL d   1       1.753   3.940  -0.605  0.00  0.00     0.004 A 
ATOM      4  C5  UNL d   1       2.809   3.129  -0.188  0.00  0.00    -0.004 A 
ATOM      5  C6  UNL d   1       2.575   2.058   0.681  0.00  0.00    -0.075 A 
ATOM      6  C7  UNL d   1       3.700   1.178   1.140  0.00  0.00     0.076 C 
ATOM      7  C8  UNL d   1       1.271   1.817   1.132  0.00  0.00     0.001 A 
ENDROOT
BRANCH   1   8
ATOM      8  C1  UNL d   1      -1.195   2.356   1.211  0.00  0.00     0.053 C 
ATOM      9  C   UNL d   1      -2.241   2.715   0.168  0.00  0.00     0.018 C 
ENDBRANCH   1   8
TORSDOF 1
ENDMDL
