MODEL 1
REMARK minimizedAffinity 10.0813131
REMARK minimizedRMSD -1
REMARK  1 active torsions:
REMARK  status: ('A' for Active; 'I' for Inactive)
REMARK    1  A    between atoms: C1_2  and  C2_3 
ROOT
ATOM      1  C2  UNL d   1       2.494   0.680  -0.262  0.00  0.00    -0.073 A 
ATOM      2  C3  UNL d   1       2.698  -0.705  -0.276  0.00  0.00    -0.002 A 
ATOM      3  C4  UNL d   1       2.315  -1.463  -1.383  0.00  0.00     0.004 A 
ATOM      4  C5  UNL d   1       1.731  -0.845  -2.489  0.00  0.00    -0.004 A 
ATOM      5  C6  UNL d   1       1.530   0.539  -2.499  0.00  0.00    -0.075 A 
ATOM      6  C7  UNL d   1       0.901   1.219  -3.680  0.00  0.00     0.076 C 
ATOM      7  C8  UNL d   1       1.915   1.293  -1.382  0.00  0.00     0.001 A 
ENDROOT
BRANCH   1   8
ATOM      8  C1  UNL d   1       2.912   1.503   0.929  0.00  0.00     0.053 C 
ATOM      9  C   UNL d   1       1.993   2.694   1.149  0.00  0.00     0.018 C 
ENDBRANCH   1   8
TORSDOF 1
ENDMDL
