MODEL 1
REMARK minimizedAffinity 7.34469843
REMARK minimizedRMSD -1
REMARK  1 active torsions:
REMARK  status: ('A' for Active; 'I' for Inactive)
REMARK    1  A    between atoms: C1_2  and  C2_3 
ROOT
ATOM      1  C2  UNL d   1       2.108   0.420   0.320  0.00  0.00    -0.073 A 
ATOM      2  C3  UNL d   1       3.244   0.870   1.002  0.00  0.00    -0.002 A 
ATOM      3  C4  UNL d   1       3.375   2.217   1.342  0.00  0.00     0.004 A 
ATOM      4  C5  UNL d   1       2.370   3.125   1.011  0.00  0.00    -0.004 A 
ATOM      5  C6  UNL d   1       1.222   2.693   0.340  0.00  0.00    -0.075 A 
ATOM      6  C7  UNL d   1       0.132   3.658  -0.026  0.00  0.00     0.076 C 
ATOM      7  C8  UNL d   1       1.099   1.339  -0.001  0.00  0.00     0.001 A 
ENDROOT
BRANCH   1   8
ATOM      8  C1  UNL d   1       1.959  -1.035  -0.044  0.00  0.00     0.053 C 
ATOM      9  C   UNL d   1       1.825  -1.236  -1.545  0.00  0.00     0.018 C 
ENDBRANCH   1   8
TORSDOF 1
ENDMDL
