MODEL 1
REMARK minimizedAffinity 2.33482242
REMARK minimizedRMSD -1
REMARK  1 active torsions:
REMARK  status: ('A' for Active; 'I' for Inactive)
REMARK    1  A    between atoms: C1_2  and  C2_3 
ROOT
ATOM      1  C2  UNL d   1      -1.681  -4.992   0.648  0.00  0.00    -0.073 A 
ATOM      2  C3  UNL d   1      -2.181  -5.201   1.939  0.00  0.00    -0.002 A 
ATOM      3  C4  UNL d   1      -1.687  -4.462   3.015  0.00  0.00     0.004 A 
ATOM      4  C5  UNL d   1      -0.695  -3.504   2.811  0.00  0.00    -0.004 A 
ATOM      5  C6  UNL d   1      -0.191  -3.272   1.528  0.00  0.00    -0.075 A 
ATOM      6  C7  UNL d   1       0.879  -2.245   1.293  0.00  0.00     0.076 C 
ATOM      7  C8  UNL d   1      -0.690  -4.019   0.453  0.00  0.00     0.001 A 
ENDROOT
BRANCH   1   8
ATOM      8  C1  UNL d   1      -2.215  -5.783  -0.518  0.00  0.00     0.053 C 
ATOM      9  C   UNL d   1      -3.007  -4.913  -1.481  0.00  0.00     0.018 C 
ENDBRANCH   1   8
TORSDOF 1
ENDMDL
