MODEL 1
REMARK minimizedAffinity 4.03438425
REMARK minimizedRMSD -1
REMARK  1 active torsions:
REMARK  status: ('A' for Active; 'I' for Inactive)
REMARK    1  A    between atoms: C1_2  and  C2_3 
ROOT
ATOM      1  C2  UNL d   1       0.892   2.361   1.694  0.00  0.00    -0.073 A 
ATOM      2  C3  UNL d   1       0.987   2.643   0.326  0.00  0.00    -0.002 A 
ATOM      3  C4  UNL d   1       2.236   2.783  -0.279  0.00  0.00     0.004 A 
ATOM      4  C5  UNL d   1       3.402   2.634   0.473  0.00  0.00    -0.004 A 
ATOM      5  C6  UNL d   1       3.327   2.340   1.838  0.00  0.00    -0.075 A 
ATOM      6  C7  UNL d   1       4.571   2.179   2.662  0.00  0.00     0.076 C 
ATOM      7  C8  UNL d   1       2.069   2.204   2.440  0.00  0.00     0.001 A 
ENDROOT
BRANCH   1   8
ATOM      8  C1  UNL d   1      -0.455   2.203   2.351  0.00  0.00     0.053 C 
ATOM      9  C   UNL d   1      -0.790   3.380   3.253  0.00  0.00     0.018 C 
ENDBRANCH   1   8
TORSDOF 1
ENDMDL
