MODEL 1
REMARK minimizedAffinity -3.32976484
REMARK minimizedRMSD -1
REMARK  0 active torsions:
REMARK  status: ('A' for Active; 'I' for Inactive)
ROOT
ATOM      1  C   UNL d   1       1.751  -0.053  -2.087  0.00  0.00     0.023 A 
ATOM      2  C1  UNL d   1       1.036   1.144  -2.095  0.00  0.00     0.003 A 
ATOM      3  C2  UNL d   1       0.034   1.367  -1.148  0.00  0.00     0.048 A 
ATOM      4  C3  UNL d   1      -0.246   0.389  -0.195  0.00  0.00     0.023 A 
ATOM      5  C4  UNL d   1       0.468  -0.810  -0.182  0.00  0.00     0.048 A 
ATOM      6  C5  UNL d   1       1.468  -1.029  -1.132  0.00  0.00     0.003 A 
ATOM      7  I   UNL d   1      -1.736   0.719   1.216  0.00  0.00    -0.146 I 
ENDROOT
TORSDOF 0
ENDMDL
