MODEL 1
REMARK minimizedAffinity -4.76057768
REMARK minimizedRMSD -1
REMARK  0 active torsions:
REMARK  status: ('A' for Active; 'I' for Inactive)
ROOT
ATOM      1  C   UNL d   1       3.305   0.389  -1.807  0.00  0.00     0.023 A 
ATOM      2  C1  UNL d   1       3.090  -0.316  -0.623  0.00  0.00     0.003 A 
ATOM      3  C2  UNL d   1       1.790  -0.513  -0.151  0.00  0.00     0.048 A 
ATOM      4  C3  UNL d   1       0.710  -0.002  -0.869  0.00  0.00     0.023 A 
ATOM      5  C4  UNL d   1       0.920   0.704  -2.055  0.00  0.00     0.048 A 
ATOM      6  C5  UNL d   1       2.221   0.899  -2.522  0.00  0.00     0.003 A 
ATOM      7  I   UNL d   1      -1.226  -0.294  -0.170  0.00  0.00    -0.146 I 
ENDROOT
TORSDOF 0
ENDMDL
