MODEL 1
REMARK minimizedAffinity -3.30577493
REMARK minimizedRMSD -1
REMARK  0 active torsions:
REMARK  status: ('A' for Active; 'I' for Inactive)
ROOT
ATOM      1  C   UNL d   1      -3.002   0.471   3.854  0.00  0.00     0.023 A 
ATOM      2  C1  UNL d   1      -2.123   1.550   3.751  0.00  0.00     0.003 A 
ATOM      3  C2  UNL d   1      -1.539   1.861   2.522  0.00  0.00     0.048 A 
ATOM      4  C3  UNL d   1      -1.838   1.089   1.399  0.00  0.00     0.023 A 
ATOM      5  C4  UNL d   1      -2.717   0.010   1.497  0.00  0.00     0.048 A 
ATOM      6  C5  UNL d   1      -3.298  -0.298   2.729  0.00  0.00     0.003 A 
ATOM      7  I   UNL d   1      -0.970   1.550  -0.432  0.00  0.00    -0.146 I 
ENDROOT
TORSDOF 0
ENDMDL
