MODEL 1
REMARK minimizedAffinity -3.23162842
REMARK minimizedRMSD -1
REMARK  0 active torsions:
REMARK  status: ('A' for Active; 'I' for Inactive)
ROOT
ATOM      1  C   UNL d   1       2.107  -1.268  -1.646  0.00  0.00     0.023 A 
ATOM      2  C1  UNL d   1       1.751   0.065  -1.847  0.00  0.00     0.003 A 
ATOM      3  C2  UNL d   1       0.760   0.651  -1.057  0.00  0.00     0.048 A 
ATOM      4  C3  UNL d   1       0.129  -0.102  -0.068  0.00  0.00     0.023 A 
ATOM      5  C4  UNL d   1       0.482  -1.437   0.137  0.00  0.00     0.048 A 
ATOM      6  C5  UNL d   1       1.473  -2.019  -0.656  0.00  0.00     0.003 A 
ATOM      7  I   UNL d   1      -1.347   0.768   1.109  0.00  0.00    -0.146 I 
ENDROOT
TORSDOF 0
ENDMDL
