MODEL 1
REMARK minimizedAffinity -3.3315022
REMARK minimizedRMSD -1
REMARK  0 active torsions:
REMARK  status: ('A' for Active; 'I' for Inactive)
ROOT
ATOM      1  C   UNL d   1      -2.643   1.206   3.542  0.00  0.00     0.023 A 
ATOM      2  C1  UNL d   1      -3.114   0.134   2.784  0.00  0.00     0.003 A 
ATOM      3  C2  UNL d   1      -2.334  -0.386   1.749  0.00  0.00     0.048 A 
ATOM      4  C3  UNL d   1      -1.084   0.169   1.479  0.00  0.00     0.023 A 
ATOM      5  C4  UNL d   1      -0.608   1.241   2.236  0.00  0.00     0.048 A 
ATOM      6  C5  UNL d   1      -1.392   1.759   3.269  0.00  0.00     0.003 A 
ATOM      7  I   UNL d   1       0.079  -0.605  -0.060  0.00  0.00    -0.146 I 
ENDROOT
TORSDOF 0
ENDMDL
