MODEL 1
REMARK minimizedAffinity -3.16976619
REMARK minimizedRMSD -1
REMARK  0 active torsions:
REMARK  status: ('A' for Active; 'I' for Inactive)
ROOT
ATOM      1  C   UNL d   1       2.756  -0.759  -1.497  0.00  0.00     0.023 A 
ATOM      2  C1  UNL d   1       2.141   0.447  -1.836  0.00  0.00     0.003 A 
ATOM      3  C2  UNL d   1       0.939   0.814  -1.227  0.00  0.00     0.048 A 
ATOM      4  C3  UNL d   1       0.358  -0.029  -0.281  0.00  0.00     0.023 A 
ATOM      5  C4  UNL d   1       0.970  -1.235   0.062  0.00  0.00     0.048 A 
ATOM      6  C5  UNL d   1       2.171  -1.599  -0.550  0.00  0.00     0.003 A 
ATOM      7  I   UNL d   1      -1.431   0.516   0.626  0.00  0.00    -0.146 I 
ENDROOT
TORSDOF 0
ENDMDL
