MODEL 1
REMARK minimizedAffinity -2.38344884
REMARK minimizedRMSD -1
REMARK  0 active torsions:
REMARK  status: ('A' for Active; 'I' for Inactive)
ROOT
ATOM      1  C   UNL d   1       1.752   0.368  -2.760  0.00  0.00     0.023 A 
ATOM      2  C1  UNL d   1       1.742  -0.778  -1.964  0.00  0.00     0.003 A 
ATOM      3  C2  UNL d   1       0.875  -0.864  -0.873  0.00  0.00     0.048 A 
ATOM      4  C3  UNL d   1       0.020   0.198  -0.584  0.00  0.00     0.023 A 
ATOM      5  C4  UNL d   1       0.025   1.346  -1.378  0.00  0.00     0.048 A 
ATOM      6  C5  UNL d   1       0.895   1.428  -2.467  0.00  0.00     0.003 A 
ATOM      7  I   UNL d   1      -1.272   0.072   1.039  0.00  0.00    -0.146 I 
ENDROOT
TORSDOF 0
ENDMDL
