MODEL 1
REMARK minimizedAffinity -0.276732981
REMARK minimizedRMSD -1
REMARK  0 active torsions:
REMARK  status: ('A' for Active; 'I' for Inactive)
ROOT
ATOM      1  C   UNL d   1      -1.619   1.124   4.261  0.00  0.00     0.023 A 
ATOM      2  C1  UNL d   1      -2.078   0.080   3.457  0.00  0.00     0.003 A 
ATOM      3  C2  UNL d   1      -1.680  -0.001   2.121  0.00  0.00     0.048 A 
ATOM      4  C3  UNL d   1      -0.823   0.965   1.595  0.00  0.00     0.023 A 
ATOM      5  C4  UNL d   1      -0.361   2.011   2.396  0.00  0.00     0.048 A 
ATOM      6  C5  UNL d   1      -0.762   2.088   3.731  0.00  0.00     0.003 A 
ATOM      7  I   UNL d   1      -0.229   0.847  -0.393  0.00  0.00    -0.146 I 
ENDROOT
TORSDOF 0
ENDMDL
