MODEL 1
REMARK minimizedAffinity -2.9646244
REMARK minimizedRMSD -1
REMARK  0 active torsions:
REMARK  status: ('A' for Active; 'I' for Inactive)
ROOT
ATOM      1  C   UNL d   1       2.266  -0.120  -2.786  0.00  0.00     0.023 A 
ATOM      2  C1  UNL d   1       2.082  -1.166  -1.882  0.00  0.00     0.003 A 
ATOM      3  C2  UNL d   1       1.130  -1.054  -0.866  0.00  0.00     0.048 A 
ATOM      4  C3  UNL d   1       0.364   0.107  -0.762  0.00  0.00     0.023 A 
ATOM      5  C4  UNL d   1       0.544   1.156  -1.665  0.00  0.00     0.048 A 
ATOM      6  C5  UNL d   1       1.498   1.039  -2.678  0.00  0.00     0.003 A 
ATOM      7  I   UNL d   1      -1.054   0.276   0.748  0.00  0.00    -0.146 I 
ENDROOT
TORSDOF 0
ENDMDL
