MODEL 1
REMARK minimizedAffinity -1.33735704
REMARK minimizedRMSD -1
REMARK  0 active torsions:
REMARK  status: ('A' for Active; 'I' for Inactive)
ROOT
ATOM      1  C   UNL d   1       0.258  -0.642  -1.057  0.00  0.00     0.023 A 
ATOM      2  C1  UNL d   1       0.586  -1.382   0.079  0.00  0.00     0.003 A 
ATOM      3  C2  UNL d   1       0.112  -0.988   1.332  0.00  0.00     0.048 A 
ATOM      4  C3  UNL d   1      -0.691   0.147   1.442  0.00  0.00     0.023 A 
ATOM      5  C4  UNL d   1      -1.022   0.890   0.308  0.00  0.00     0.048 A 
ATOM      6  C5  UNL d   1      -0.545   0.493  -0.943  0.00  0.00     0.003 A 
ATOM      7  I   UNL d   1      -1.397   0.736   3.305  0.00  0.00    -0.146 I 
ENDROOT
TORSDOF 0
ENDMDL
