MODEL 1
REMARK minimizedAffinity -4.09091377
REMARK minimizedRMSD -1
REMARK  0 active torsions:
REMARK  status: ('A' for Active; 'I' for Inactive)
ROOT
ATOM      1  C   UNL d   1       2.568  -0.191  -2.103  0.00  0.00     0.023 A 
ATOM      2  C1  UNL d   1       1.944  -1.270  -1.477  0.00  0.00     0.003 A 
ATOM      3  C2  UNL d   1       0.912  -1.048  -0.563  0.00  0.00     0.048 A 
ATOM      4  C3  UNL d   1       0.509   0.257  -0.279  0.00  0.00     0.023 A 
ATOM      5  C4  UNL d   1       1.131   1.340  -0.903  0.00  0.00     0.048 A 
ATOM      6  C5  UNL d   1       2.162   1.112  -1.816  0.00  0.00     0.003 A 
ATOM      7  I   UNL d   1      -1.026   0.591   1.081  0.00  0.00    -0.146 I 
ENDROOT
TORSDOF 0
ENDMDL
