MODEL 1
REMARK minimizedAffinity -4.32848883
REMARK minimizedRMSD -1
REMARK  0 active torsions:
REMARK  status: ('A' for Active; 'I' for Inactive)
ROOT
ATOM      1  C   UNL d   1       3.206  -0.008  -2.043  0.00  0.00     0.023 A 
ATOM      2  C1  UNL d   1       2.798  -1.119  -1.304  0.00  0.00     0.003 A 
ATOM      3  C2  UNL d   1       1.580  -1.097  -0.623  0.00  0.00     0.048 A 
ATOM      4  C3  UNL d   1       0.773   0.039  -0.686  0.00  0.00     0.023 A 
ATOM      5  C4  UNL d   1       1.177   1.153  -1.425  0.00  0.00     0.048 A 
ATOM      6  C5  UNL d   1       2.397   1.126  -2.103  0.00  0.00     0.003 A 
ATOM      7  I   UNL d   1      -1.041   0.075   0.327  0.00  0.00    -0.146 I 
ENDROOT
TORSDOF 0
ENDMDL
