MODEL 1
REMARK minimizedAffinity 0.772895873
REMARK minimizedRMSD -1
REMARK  0 active torsions:
REMARK  status: ('A' for Active; 'I' for Inactive)
ROOT
ATOM      1  C   UNL d   1      -0.512   2.853   2.267  0.00  0.00     0.023 A 
ATOM      2  C1  UNL d   1       0.851   2.877   1.972  0.00  0.00     0.003 A 
ATOM      3  C2  UNL d   1       1.288   2.673   0.662  0.00  0.00     0.048 A 
ATOM      4  C3  UNL d   1       0.356   2.446  -0.350  0.00  0.00     0.023 A 
ATOM      5  C4  UNL d   1      -1.010   2.422  -0.060  0.00  0.00     0.048 A 
ATOM      6  C5  UNL d   1      -1.441   2.626   1.252  0.00  0.00     0.003 A 
ATOM      7  I   UNL d   1       1.003   2.143  -2.302  0.00  0.00    -0.146 I 
ENDROOT
TORSDOF 0
ENDMDL
