MODEL 1
REMARK minimizedAffinity -1.89479017
REMARK minimizedRMSD -1
REMARK  0 active torsions:
REMARK  status: ('A' for Active; 'I' for Inactive)
ROOT
ATOM      1  C   UNL d   1       4.599  -0.563   4.235  0.00  0.00     0.023 A 
ATOM      2  C1  UNL d   1       4.396  -1.722   3.485  0.00  0.00     0.003 A 
ATOM      3  C2  UNL d   1       4.798  -2.960   3.989  0.00  0.00     0.048 A 
ATOM      4  C3  UNL d   1       5.401  -3.033   5.244  0.00  0.00     0.023 A 
ATOM      5  C4  UNL d   1       5.606  -1.877   5.998  0.00  0.00     0.048 A 
ATOM      6  C5  UNL d   1       5.203  -0.640   5.490  0.00  0.00     0.003 A 
ATOM      7  I   UNL d   1       6.000  -4.876   5.997  0.00  0.00    -0.146 I 
ENDROOT
TORSDOF 0
ENDMDL
