MODEL 1
REMARK minimizedAffinity -3.3000195
REMARK minimizedRMSD -1
REMARK  0 active torsions:
REMARK  status: ('A' for Active; 'I' for Inactive)
ROOT
ATOM      1  C   UNL d   1      -0.264  -1.009   0.167  0.00  0.00     0.023 A 
ATOM      2  C1  UNL d   1      -0.382   0.332  -0.198  0.00  0.00     0.003 A 
ATOM      3  C2  UNL d   1       0.471   0.872  -1.163  0.00  0.00     0.048 A 
ATOM      4  C3  UNL d   1       1.439   0.065  -1.759  0.00  0.00     0.023 A 
ATOM      5  C4  UNL d   1       1.560  -1.278  -1.398  0.00  0.00     0.048 A 
ATOM      6  C5  UNL d   1       0.706  -1.813  -0.432  0.00  0.00     0.003 A 
ATOM      7  I   UNL d   1       2.710   0.866  -3.195  0.00  0.00    -0.146 I 
ENDROOT
TORSDOF 0
ENDMDL
