MODEL 1
REMARK minimizedAffinity -5.07132483
REMARK minimizedRMSD -1
REMARK  0 active torsions:
REMARK  status: ('A' for Active; 'I' for Inactive)
ROOT
ATOM      1  C   UNL d   1       1.770  -0.625  -1.928  0.00  0.00     0.023 A 
ATOM      2  C1  UNL d   1       1.270   0.676  -1.984  0.00  0.00     0.003 A 
ATOM      3  C2  UNL d   1       0.500   1.176  -0.932  0.00  0.00     0.048 A 
ATOM      4  C3  UNL d   1       0.234   0.369   0.174  0.00  0.00     0.023 A 
ATOM      5  C4  UNL d   1       0.733  -0.933   0.235  0.00  0.00     0.048 A 
ATOM      6  C5  UNL d   1       1.502  -1.429  -0.820  0.00  0.00     0.003 A 
ATOM      7  I   UNL d   1      -0.911   1.110   1.742  0.00  0.00    -0.146 I 
ENDROOT
TORSDOF 0
ENDMDL
