MODEL 1
REMARK minimizedAffinity 13.1831598
REMARK minimizedRMSD -1
REMARK  0 active torsions:
REMARK  status: ('A' for Active; 'I' for Inactive)
ROOT
ATOM      1  C   UNL d   1      -4.441  -0.847   3.748  0.00  0.00     0.124 A 
ATOM      2  C1  UNL d   1      -4.070  -1.542   2.605  0.00  0.00     0.062 A 
ATOM      3  C2  UNL d   1      -2.855  -1.270   1.984  0.00  0.00     0.162 A 
ATOM      4  C3  UNL d   1      -2.000  -0.298   2.504  0.00  0.00    -0.034 A 
ATOM      5  C4  UNL d   1      -2.380   0.397   3.653  0.00  0.00     0.162 A 
ATOM      6  C5  UNL d   1      -3.596   0.122   4.271  0.00  0.00     0.062 A 
ATOM      7  F   UNL d   1      -3.952   0.795   5.375  0.00  0.00    -0.097 F 
ATOM      8  F1  UNL d   1      -1.582   1.338   4.180  0.00  0.00    -0.096 F 
ATOM      9  I   UNL d   1      -0.182   0.111   1.578  0.00  0.00    -0.060 I 
ATOM     10  F2  UNL d   1      -2.522  -1.957   0.881  0.00  0.00    -0.096 F 
ATOM     11  F3  UNL d   1      -4.885  -2.478   2.098  0.00  0.00    -0.097 F 
ATOM     12  F4  UNL d   1      -5.611  -1.110   4.343  0.00  0.00    -0.092 F 
ENDROOT
TORSDOF 0
ENDMDL
