MODEL 1
REMARK minimizedAffinity 20.9452629
REMARK minimizedRMSD -1
REMARK  0 active torsions:
REMARK  status: ('A' for Active; 'I' for Inactive)
ROOT
ATOM      1  C   UNL d   1      -4.817  -0.664   4.276  0.00  0.00     0.124 A 
ATOM      2  C1  UNL d   1      -4.536  -1.315   3.082  0.00  0.00     0.062 A 
ATOM      3  C2  UNL d   1      -3.308  -1.128   2.455  0.00  0.00     0.162 A 
ATOM      4  C3  UNL d   1      -2.349  -0.288   3.021  0.00  0.00    -0.034 A 
ATOM      5  C4  UNL d   1      -2.639   0.364   4.221  0.00  0.00     0.162 A 
ATOM      6  C5  UNL d   1      -3.868   0.174   4.844  0.00  0.00     0.062 A 
ATOM      7  F   UNL d   1      -4.137   0.804   5.997  0.00  0.00    -0.097 F 
ATOM      8  F1  UNL d   1      -1.740   1.179   4.792  0.00  0.00    -0.096 F 
ATOM      9  I   UNL d   1      -0.511  -0.006   2.086  0.00  0.00    -0.060 I 
ATOM     10  F2  UNL d   1      -3.064  -1.769   1.302  0.00  0.00    -0.096 F 
ATOM     11  F3  UNL d   1      -5.452  -2.124   2.531  0.00  0.00    -0.097 F 
ATOM     12  F4  UNL d   1      -6.000  -0.844   4.877  0.00  0.00    -0.092 F 
ENDROOT
TORSDOF 0
ENDMDL
