MODEL 1
REMARK minimizedAffinity 30.9028339
REMARK minimizedRMSD -1
REMARK  0 active torsions:
REMARK  status: ('A' for Active; 'I' for Inactive)
ROOT
ATOM      1  C   UNL d   1      -5.534   1.767  -0.980  0.00  0.00     0.124 A 
ATOM      2  C1  UNL d   1      -5.599   1.634  -2.360  0.00  0.00     0.062 A 
ATOM      3  C2  UNL d   1      -5.732   0.374  -2.936  0.00  0.00     0.162 A 
ATOM      4  C3  UNL d   1      -5.801  -0.764  -2.132  0.00  0.00    -0.034 A 
ATOM      5  C4  UNL d   1      -5.733  -0.622  -0.745  0.00  0.00     0.162 A 
ATOM      6  C5  UNL d   1      -5.601   0.639  -0.174  0.00  0.00     0.062 A 
ATOM      7  F   UNL d   1      -5.537   0.766   1.159  0.00  0.00    -0.097 F 
ATOM      8  F1  UNL d   1      -5.796  -1.695   0.057  0.00  0.00    -0.096 F 
ATOM      9  I   UNL d   1      -5.999  -2.650  -2.990  0.00  0.00    -0.060 I 
ATOM     10  F2  UNL d   1      -5.793   0.275  -4.273  0.00  0.00    -0.096 F 
ATOM     11  F3  UNL d   1      -5.534   2.722  -3.141  0.00  0.00    -0.097 F 
ATOM     12  F4  UNL d   1      -5.405   2.981  -0.428  0.00  0.00    -0.092 F 
ENDROOT
TORSDOF 0
ENDMDL
