MODEL 1
REMARK minimizedAffinity 21.9889221
REMARK minimizedRMSD -1
REMARK  0 active torsions:
REMARK  status: ('A' for Active; 'I' for Inactive)
ROOT
ATOM      1  C   UNL d   1      -2.290   0.729   4.420  0.00  0.00     0.124 A 
ATOM      2  C1  UNL d   1      -2.151  -0.031   3.268  0.00  0.00     0.062 A 
ATOM      3  C2  UNL d   1      -3.198  -0.115   2.354  0.00  0.00     0.162 A 
ATOM      4  C3  UNL d   1      -4.393   0.565   2.589  0.00  0.00    -0.034 A 
ATOM      5  C4  UNL d   1      -4.525   1.327   3.751  0.00  0.00     0.162 A 
ATOM      6  C5  UNL d   1      -3.476   1.408   4.661  0.00  0.00     0.062 A 
ATOM      7  F   UNL d   1      -3.612   2.143   5.774  0.00  0.00    -0.097 F 
ATOM      8  F1  UNL d   1      -5.661   1.994   4.008  0.00  0.00    -0.096 F 
ATOM      9  I   UNL d   1      -5.960   0.443   1.225  0.00  0.00    -0.060 I 
ATOM     10  F2  UNL d   1      -3.036  -0.857   1.248  0.00  0.00    -0.096 F 
ATOM     11  F3  UNL d   1      -1.006  -0.688   3.033  0.00  0.00    -0.097 F 
ATOM     12  F4  UNL d   1      -1.282   0.807   5.298  0.00  0.00    -0.092 F 
ENDROOT
TORSDOF 0
ENDMDL
