MODEL 1
REMARK minimizedAffinity 27.8724461
REMARK minimizedRMSD -1
REMARK  0 active torsions:
REMARK  status: ('A' for Active; 'I' for Inactive)
ROOT
ATOM      1  C   UNL d   1       4.511   1.872   1.634  0.00  0.00     0.124 A 
ATOM      2  C1  UNL d   1       3.752   1.344   0.599  0.00  0.00     0.062 A 
ATOM      3  C2  UNL d   1       3.744   1.960  -0.649  0.00  0.00     0.162 A 
ATOM      4  C3  UNL d   1       4.499   3.112  -0.870  0.00  0.00    -0.034 A 
ATOM      5  C4  UNL d   1       5.261   3.637   0.176  0.00  0.00     0.162 A 
ATOM      6  C5  UNL d   1       5.265   3.018   1.421  0.00  0.00     0.062 A 
ATOM      7  F   UNL d   1       6.000   3.529   2.419  0.00  0.00    -0.097 F 
ATOM      8  F1  UNL d   1       5.999   4.743  -0.002  0.00  0.00    -0.096 F 
ATOM      9  I   UNL d   1       4.490   4.036  -2.735  0.00  0.00    -0.060 I 
ATOM     10  F2  UNL d   1       3.000   1.428  -1.630  0.00  0.00    -0.096 F 
ATOM     11  F3  UNL d   1       3.022   0.238   0.802  0.00  0.00    -0.097 F 
ATOM     12  F4  UNL d   1       4.516   1.277   2.834  0.00  0.00    -0.092 F 
ENDROOT
TORSDOF 0
ENDMDL
