MODEL 1
REMARK minimizedAffinity 13.8640165
REMARK minimizedRMSD -1
REMARK  0 active torsions:
REMARK  status: ('A' for Active; 'I' for Inactive)
ROOT
ATOM      1  C   UNL d   1      -2.256   0.186   2.561  0.00  0.00     0.124 A 
ATOM      2  C1  UNL d   1      -1.721  -0.695   1.631  0.00  0.00     0.062 A 
ATOM      3  C2  UNL d   1      -0.570  -1.416   1.932  0.00  0.00     0.162 A 
ATOM      4  C3  UNL d   1       0.054  -1.261   3.170  0.00  0.00    -0.034 A 
ATOM      5  C4  UNL d   1      -0.489  -0.373   4.100  0.00  0.00     0.162 A 
ATOM      6  C5  UNL d   1      -1.640   0.346   3.794  0.00  0.00     0.062 A 
ATOM      7  F   UNL d   1      -2.155   1.197   4.694  0.00  0.00    -0.097 F 
ATOM      8  F1  UNL d   1       0.086  -0.199   5.299  0.00  0.00    -0.096 F 
ATOM      9  I   UNL d   1       1.776  -2.338   3.624  0.00  0.00    -0.060 I 
ATOM     10  F2  UNL d   1      -0.075  -2.260   1.015  0.00  0.00    -0.096 F 
ATOM     11  F3  UNL d   1      -2.315  -0.850   0.439  0.00  0.00    -0.097 F 
ATOM     12  F4  UNL d   1      -3.364   0.880   2.268  0.00  0.00    -0.092 F 
ENDROOT
TORSDOF 0
ENDMDL
