MODEL 1
REMARK minimizedAffinity 23.6597252
REMARK minimizedRMSD -1
REMARK  0 active torsions:
REMARK  status: ('A' for Active; 'I' for Inactive)
ROOT
ATOM      1  C   UNL d   1       0.078  -0.817   3.426  0.00  0.00     0.124 A 
ATOM      2  C1  UNL d   1      -0.835   0.007   4.069  0.00  0.00     0.062 A 
ATOM      3  C2  UNL d   1      -2.047   0.318   3.459  0.00  0.00     0.162 A 
ATOM      4  C3  UNL d   1      -2.353  -0.196   2.199  0.00  0.00    -0.034 A 
ATOM      5  C4  UNL d   1      -1.429  -1.023   1.558  0.00  0.00     0.162 A 
ATOM      6  C5  UNL d   1      -0.219  -1.331   2.172  0.00  0.00     0.062 A 
ATOM      7  F   UNL d   1       0.662  -2.127   1.550  0.00  0.00    -0.097 F 
ATOM      8  F1  UNL d   1      -1.691  -1.535   0.347  0.00  0.00    -0.096 F 
ATOM      9  I   UNL d   1      -4.164   0.266   1.284  0.00  0.00    -0.060 I 
ATOM     10  F2  UNL d   1      -2.911   1.117   4.103  0.00  0.00    -0.096 F 
ATOM     11  F3  UNL d   1      -0.550   0.506   5.280  0.00  0.00    -0.097 F 
ATOM     12  F4  UNL d   1       1.244  -1.113   4.015  0.00  0.00    -0.092 F 
ENDROOT
TORSDOF 0
ENDMDL
