MODEL 1
REMARK minimizedAffinity 26.4232159
REMARK minimizedRMSD -1
REMARK  0 active torsions:
REMARK  status: ('A' for Active; 'I' for Inactive)
ROOT
ATOM      1  C   UNL d   1       3.072   1.698  -1.079  0.00  0.00     0.124 A 
ATOM      2  C1  UNL d   1       4.165   2.305  -0.475  0.00  0.00     0.062 A 
ATOM      3  C2  UNL d   1       4.947   3.207  -1.190  0.00  0.00     0.162 A 
ATOM      4  C3  UNL d   1       4.640   3.509  -2.517  0.00  0.00    -0.034 A 
ATOM      5  C4  UNL d   1       3.540   2.894  -3.117  0.00  0.00     0.162 A 
ATOM      6  C5  UNL d   1       2.761   1.993  -2.399  0.00  0.00     0.062 A 
ATOM      7  F   UNL d   1       1.706   1.407  -2.984  0.00  0.00    -0.097 F 
ATOM      8  F1  UNL d   1       3.216   3.161  -4.391  0.00  0.00    -0.096 F 
ATOM      9  I   UNL d   1       5.807   4.858  -3.588  0.00  0.00    -0.060 I 
ATOM     10  F2  UNL d   1       5.997   3.779  -0.581  0.00  0.00    -0.096 F 
ATOM     11  F3  UNL d   1       4.468   2.021   0.799  0.00  0.00    -0.097 F 
ATOM     12  F4  UNL d   1       2.322   0.829  -0.390  0.00  0.00    -0.092 F 
ENDROOT
TORSDOF 0
ENDMDL
