MODEL 1
REMARK minimizedAffinity 20.113699
REMARK minimizedRMSD -1
REMARK  0 active torsions:
REMARK  status: ('A' for Active; 'I' for Inactive)
ROOT
ATOM      1  C   UNL d   1      -2.678   0.829   3.351  0.00  0.00     0.124 A 
ATOM      2  C1  UNL d   1      -3.518   0.540   2.285  0.00  0.00     0.062 A 
ATOM      3  C2  UNL d   1      -3.340  -0.629   1.551  0.00  0.00     0.162 A 
ATOM      4  C3  UNL d   1      -2.318  -1.519   1.881  0.00  0.00    -0.034 A 
ATOM      5  C4  UNL d   1      -1.476  -1.221   2.954  0.00  0.00     0.162 A 
ATOM      6  C5  UNL d   1      -1.658  -0.051   3.685  0.00  0.00     0.062 A 
ATOM      7  F   UNL d   1      -0.845   0.227   4.715  0.00  0.00    -0.097 F 
ATOM      8  F1  UNL d   1      -0.483  -2.054   3.299  0.00  0.00    -0.096 F 
ATOM      9  I   UNL d   1      -2.048  -3.268   0.786  0.00  0.00    -0.060 I 
ATOM     10  F2  UNL d   1      -4.167  -0.884   0.526  0.00  0.00    -0.096 F 
ATOM     11  F3  UNL d   1      -4.504   1.389   1.960  0.00  0.00    -0.097 F 
ATOM     12  F4  UNL d   1      -2.851   1.955   4.056  0.00  0.00    -0.092 F 
ENDROOT
TORSDOF 0
ENDMDL
