MODEL 1
REMARK minimizedAffinity 12.7080975
REMARK minimizedRMSD -1
REMARK  0 active torsions:
REMARK  status: ('A' for Active; 'I' for Inactive)
ROOT
ATOM      1  C   UNL d   1      -1.464  -0.793   3.170  0.00  0.00     0.124 A 
ATOM      2  C1  UNL d   1      -0.554  -1.549   3.895  0.00  0.00     0.062 A 
ATOM      3  C2  UNL d   1       0.155  -2.575   3.276  0.00  0.00     0.162 A 
ATOM      4  C3  UNL d   1      -0.045  -2.851   1.923  0.00  0.00    -0.034 A 
ATOM      5  C4  UNL d   1      -0.963  -2.088   1.200  0.00  0.00     0.162 A 
ATOM      6  C5  UNL d   1      -1.668  -1.063   1.824  0.00  0.00     0.062 A 
ATOM      7  F   UNL d   1      -2.548  -0.334   1.122  0.00  0.00    -0.097 F 
ATOM      8  F1  UNL d   1      -1.179  -2.326  -0.102  0.00  0.00    -0.096 F 
ATOM      9  I   UNL d   1       1.012  -4.385   0.994  0.00  0.00    -0.060 I 
ATOM     10  F2  UNL d   1       1.028  -3.289   4.001  0.00  0.00    -0.096 F 
ATOM     11  F3  UNL d   1      -0.355  -1.291   5.195  0.00  0.00    -0.097 F 
ATOM     12  F4  UNL d   1      -2.145   0.192   3.768  0.00  0.00    -0.092 F 
ENDROOT
TORSDOF 0
ENDMDL
