MODEL 1
REMARK minimizedAffinity 20.8784294
REMARK minimizedRMSD -1
REMARK  0 active torsions:
REMARK  status: ('A' for Active; 'I' for Inactive)
ROOT
ATOM      1  C   UNL d   1      -1.564  -0.030   2.355  0.00  0.00     0.124 A 
ATOM      2  C1  UNL d   1      -2.748   0.691   2.274  0.00  0.00     0.062 A 
ATOM      3  C2  UNL d   1      -3.540   0.610   1.133  0.00  0.00     0.162 A 
ATOM      4  C3  UNL d   1      -3.152  -0.195   0.062  0.00  0.00    -0.034 A 
ATOM      5  C4  UNL d   1      -1.960  -0.916   0.150  0.00  0.00     0.162 A 
ATOM      6  C5  UNL d   1      -1.172  -0.833   1.293  0.00  0.00     0.062 A 
ATOM      7  F   UNL d   1      -0.029  -1.530   1.369  0.00  0.00    -0.097 F 
ATOM      8  F1  UNL d   1      -1.557  -1.701  -0.861  0.00  0.00    -0.096 F 
ATOM      9  I   UNL d   1      -4.334  -0.318  -1.647  0.00  0.00    -0.060 I 
ATOM     10  F2  UNL d   1      -4.678   1.318   1.082  0.00  0.00    -0.096 F 
ATOM     11  F3  UNL d   1      -3.129   1.468   3.298  0.00  0.00    -0.097 F 
ATOM     12  F4  UNL d   1      -0.804   0.050   3.454  0.00  0.00    -0.092 F 
ENDROOT
TORSDOF 0
ENDMDL
