MODEL 1
REMARK minimizedAffinity 24.8285141
REMARK minimizedRMSD -1
REMARK  0 active torsions:
REMARK  status: ('A' for Active; 'I' for Inactive)
ROOT
ATOM      1  C   UNL d   1      -2.970  -1.148   1.494  0.00  0.00     0.124 A 
ATOM      2  C1  UNL d   1      -2.003  -2.113   1.249  0.00  0.00     0.062 A 
ATOM      3  C2  UNL d   1      -0.655  -1.766   1.236  0.00  0.00     0.162 A 
ATOM      4  C3  UNL d   1      -0.266  -0.448   1.471  0.00  0.00    -0.034 A 
ATOM      5  C4  UNL d   1      -1.244   0.518   1.717  0.00  0.00     0.162 A 
ATOM      6  C5  UNL d   1      -2.590   0.166   1.728  0.00  0.00     0.062 A 
ATOM      7  F   UNL d   1      -3.522   1.100   1.966  0.00  0.00    -0.097 F 
ATOM      8  F1  UNL d   1      -0.904   1.795   1.947  0.00  0.00    -0.096 F 
ATOM      9  I   UNL d   1       1.749   0.075   1.453  0.00  0.00    -0.060 I 
ATOM     10  F2  UNL d   1       0.257  -2.720   0.996  0.00  0.00    -0.096 F 
ATOM     11  F3  UNL d   1      -2.368  -3.383   1.022  0.00  0.00    -0.097 F 
ATOM     12  F4  UNL d   1      -4.266  -1.484   1.505  0.00  0.00    -0.092 F 
ENDROOT
TORSDOF 0
ENDMDL
