MODEL 1
REMARK minimizedAffinity 32.5521049
REMARK minimizedRMSD -1
REMARK  0 active torsions:
REMARK  status: ('A' for Active; 'I' for Inactive)
ROOT
ATOM      1  C   UNL d   1       0.067  -3.011   1.848  0.00  0.00     0.124 A 
ATOM      2  C1  UNL d   1      -1.044  -2.745   1.059  0.00  0.00     0.062 A 
ATOM      3  C2  UNL d   1      -1.857  -1.651   1.341  0.00  0.00     0.162 A 
ATOM      4  C3  UNL d   1      -1.563  -0.814   2.418  0.00  0.00    -0.034 A 
ATOM      5  C4  UNL d   1      -0.445  -1.089   3.207  0.00  0.00     0.162 A 
ATOM      6  C5  UNL d   1       0.365  -2.183   2.921  0.00  0.00     0.062 A 
ATOM      7  F   UNL d   1       1.437  -2.438   3.685  0.00  0.00    -0.097 F 
ATOM      8  F1  UNL d   1      -0.133  -0.305   4.250  0.00  0.00    -0.096 F 
ATOM      9  I   UNL d   1      -2.778   0.821   2.843  0.00  0.00    -0.060 I 
ATOM     10  F2  UNL d   1      -2.924  -1.418   0.562  0.00  0.00    -0.096 F 
ATOM     11  F3  UNL d   1      -1.334  -3.544   0.022  0.00  0.00    -0.097 F 
ATOM     12  F4  UNL d   1       0.848  -4.064   1.575  0.00  0.00    -0.092 F 
ENDROOT
TORSDOF 0
ENDMDL
