MODEL 1
REMARK minimizedAffinity 24.4566689
REMARK minimizedRMSD -1
REMARK  0 active torsions:
REMARK  status: ('A' for Active; 'I' for Inactive)
ROOT
ATOM      1  C   UNL d   1       0.025  -1.469   3.470  0.00  0.00     0.124 A 
ATOM      2  C1  UNL d   1      -0.885  -0.611   4.072  0.00  0.00     0.062 A 
ATOM      3  C2  UNL d   1      -1.970  -0.123   3.351  0.00  0.00     0.162 A 
ATOM      4  C3  UNL d   1      -2.153  -0.493   2.018  0.00  0.00    -0.034 A 
ATOM      5  C4  UNL d   1      -1.234  -1.356   1.419  0.00  0.00     0.162 A 
ATOM      6  C5  UNL d   1      -0.150  -1.841   2.145  0.00  0.00     0.062 A 
ATOM      7  F   UNL d   1       0.727  -2.670   1.561  0.00  0.00    -0.097 F 
ATOM      8  F1  UNL d   1      -1.380  -1.732   0.140  0.00  0.00    -0.096 F 
ATOM      9  I   UNL d   1      -3.775   0.234   0.936  0.00  0.00    -0.060 I 
ATOM     10  F2  UNL d   1      -2.833   0.705   3.958  0.00  0.00    -0.096 F 
ATOM     11  F3  UNL d   1      -0.717  -0.250   5.353  0.00  0.00    -0.097 F 
ATOM     12  F4  UNL d   1       1.069  -1.936   4.166  0.00  0.00    -0.092 F 
ENDROOT
TORSDOF 0
ENDMDL
