MODEL 1
REMARK minimizedAffinity 23.3557701
REMARK minimizedRMSD -1
REMARK  0 active torsions:
REMARK  status: ('A' for Active; 'I' for Inactive)
ROOT
ATOM      1  C   UNL d   1       3.885   3.642  -4.005  0.00  0.00     0.124 A 
ATOM      2  C1  UNL d   1       4.198   4.505  -2.964  0.00  0.00     0.062 A 
ATOM      3  C2  UNL d   1       3.187   5.168  -2.275  0.00  0.00     0.162 A 
ATOM      4  C3  UNL d   1       1.851   4.970  -2.625  0.00  0.00    -0.034 A 
ATOM      5  C4  UNL d   1       1.543   4.102  -3.674  0.00  0.00     0.162 A 
ATOM      6  C5  UNL d   1       2.558   3.442  -4.359  0.00  0.00     0.062 A 
ATOM      7  F   UNL d   1       2.253   2.609  -5.365  0.00  0.00    -0.097 F 
ATOM      8  F1  UNL d   1       0.269   3.888  -4.036  0.00  0.00    -0.096 F 
ATOM      9  I   UNL d   1       0.335   5.959  -1.597  0.00  0.00    -0.060 I 
ATOM     10  F2  UNL d   1       3.519   5.995  -1.273  0.00  0.00    -0.096 F 
ATOM     11  F3  UNL d   1       5.480   4.701  -2.621  0.00  0.00    -0.097 F 
ATOM     12  F4  UNL d   1       4.860   3.007  -4.667  0.00  0.00    -0.092 F 
ENDROOT
TORSDOF 0
ENDMDL
