MODEL 1
REMARK minimizedAffinity 23.8529739
REMARK minimizedRMSD -1
REMARK  0 active torsions:
REMARK  status: ('A' for Active; 'I' for Inactive)
ROOT
ATOM      1  C   UNL d   1      -2.947  -1.968   0.768  0.00  0.00     0.124 A 
ATOM      2  C1  UNL d   1      -2.082  -3.050   0.863  0.00  0.00     0.062 A 
ATOM      3  C2  UNL d   1      -0.814  -2.886   1.412  0.00  0.00     0.162 A 
ATOM      4  C3  UNL d   1      -0.402  -1.635   1.873  0.00  0.00    -0.034 A 
ATOM      5  C4  UNL d   1      -1.277  -0.552   1.773  0.00  0.00     0.162 A 
ATOM      6  C5  UNL d   1      -2.544  -0.721   1.223  0.00  0.00     0.062 A 
ATOM      7  F   UNL d   1      -3.378   0.325   1.132  0.00  0.00    -0.097 F 
ATOM      8  F1  UNL d   1      -0.914   0.665   2.205  0.00  0.00    -0.096 F 
ATOM      9  I   UNL d   1       1.493  -1.386   2.695  0.00  0.00    -0.060 I 
ATOM     10  F2  UNL d   1       0.001  -3.949   1.492  0.00  0.00    -0.096 F 
ATOM     11  F3  UNL d   1      -2.469  -4.256   0.423  0.00  0.00    -0.097 F 
ATOM     12  F4  UNL d   1      -4.166  -2.129   0.238  0.00  0.00    -0.092 F 
ENDROOT
TORSDOF 0
ENDMDL
