MODEL 1
REMARK minimizedAffinity 24.3126583
REMARK minimizedRMSD -1
REMARK  0 active torsions:
REMARK  status: ('A' for Active; 'I' for Inactive)
ROOT
ATOM      1  C   UNL d   1       4.674   3.744  -4.119  0.00  0.00     0.124 A 
ATOM      2  C1  UNL d   1       4.791   4.672  -3.092  0.00  0.00     0.062 A 
ATOM      3  C2  UNL d   1       3.660   5.100  -2.404  0.00  0.00     0.162 A 
ATOM      4  C3  UNL d   1       2.402   4.601  -2.738  0.00  0.00    -0.034 A 
ATOM      5  C4  UNL d   1       2.291   3.669  -3.772  0.00  0.00     0.162 A 
ATOM      6  C5  UNL d   1       3.425   3.244  -4.457  0.00  0.00     0.062 A 
ATOM      7  F   UNL d   1       3.310   2.348  -5.448  0.00  0.00    -0.097 F 
ATOM      8  F1  UNL d   1       1.096   3.169  -4.119  0.00  0.00    -0.096 F 
ATOM      9  I   UNL d   1       0.708   5.239  -1.710  0.00  0.00    -0.060 I 
ATOM     10  F2  UNL d   1       3.803   5.997  -1.416  0.00  0.00    -0.096 F 
ATOM     11  F3  UNL d   1       5.997   5.157  -2.764  0.00  0.00    -0.097 F 
ATOM     12  F4  UNL d   1       5.764   3.335  -4.780  0.00  0.00    -0.092 F 
ENDROOT
TORSDOF 0
ENDMDL
