MODEL 1
REMARK minimizedAffinity 6.82117605
REMARK minimizedRMSD -1
REMARK  1 active torsions:
REMARK  status: ('A' for Active; 'I' for Inactive)
REMARK    1  A    between atoms: C1_2  and  C2_3 
ROOT
ATOM      1  C2  UNL d   1      -1.261   1.023   2.279  0.00  0.00    -0.081 A 
ATOM      2  C3  UNL d   1      -0.075   0.874   1.551  0.00  0.00     0.006 A 
ATOM      3  C4  UNL d   1       1.066   1.602   1.898  0.00  0.00     0.002 A 
ATOM      4  C5  UNL d   1       1.041   2.485   2.983  0.00  0.00    -0.080 A 
ATOM      5  C6  UNL d   1       2.267   3.250   3.385  0.00  0.00     0.076 C 
ATOM      6  C7  UNL d   1      -0.149   2.647   3.700  0.00  0.00     0.002 A 
ATOM      7  C8  UNL d   1      -1.290   1.920   3.353  0.00  0.00     0.006 A 
ENDROOT
BRANCH   1   8
ATOM      8  C1  UNL d   1      -2.474   0.191   1.948  0.00  0.00     0.054 C 
ATOM      9  C   UNL d   1      -3.488   0.214   3.083  0.00  0.00     0.018 C 
ENDBRANCH   1   8
TORSDOF 1
ENDMDL
