MODEL 1
REMARK minimizedAffinity -2.75598764
REMARK minimizedRMSD -1
REMARK  1 active torsions:
REMARK  status: ('A' for Active; 'I' for Inactive)
REMARK    1  A    between atoms: C1_2  and  C2_3 
ROOT
ATOM      1  C2  UNL d   1      -0.252   2.054   1.636  0.00  0.00    -0.081 A 
ATOM      2  C3  UNL d   1      -0.832   2.782   2.683  0.00  0.00     0.006 A 
ATOM      3  C4  UNL d   1      -0.183   3.899   3.214  0.00  0.00     0.002 A 
ATOM      4  C5  UNL d   1       1.052   4.311   2.702  0.00  0.00    -0.080 A 
ATOM      5  C6  UNL d   1       1.745   5.527   3.243  0.00  0.00     0.076 C 
ATOM      6  C7  UNL d   1       1.640   3.574   1.669  0.00  0.00     0.002 A 
ATOM      7  C8  UNL d   1       0.992   2.457   1.138  0.00  0.00     0.006 A 
ENDROOT
BRANCH   1   8
ATOM      8  C1  UNL d   1      -0.980   0.888   1.018  0.00  0.00     0.054 C 
ATOM      9  C   UNL d   1      -0.099  -0.352   0.972  0.00  0.00     0.018 C 
ENDBRANCH   1   8
TORSDOF 1
ENDMDL
