MODEL 1
REMARK minimizedAffinity 1.59960568
REMARK minimizedRMSD -1
REMARK  1 active torsions:
REMARK  status: ('A' for Active; 'I' for Inactive)
REMARK    1  A    between atoms: C1_2  and  C2_3 
ROOT
ATOM      1  C2  UNL d   1       1.126   2.941   1.331  0.00  0.00    -0.081 A 
ATOM      2  C3  UNL d   1       0.071   2.062   1.604  0.00  0.00     0.006 A 
ATOM      3  C4  UNL d   1      -0.817   2.325   2.649  0.00  0.00     0.002 A 
ATOM      4  C5  UNL d   1      -0.671   3.475   3.433  0.00  0.00    -0.080 A 
ATOM      5  C6  UNL d   1      -1.635   3.785   4.539  0.00  0.00     0.076 C 
ATOM      6  C7  UNL d   1       0.394   4.345   3.171  0.00  0.00     0.002 A 
ATOM      7  C8  UNL d   1       1.283   4.081   2.126  0.00  0.00     0.006 A 
ENDROOT
BRANCH   1   8
ATOM      8  C1  UNL d   1       2.047   2.693   0.163  0.00  0.00     0.054 C 
ATOM      9  C   UNL d   1       1.721   3.614  -1.004  0.00  0.00     0.018 C 
ENDBRANCH   1   8
TORSDOF 1
ENDMDL
