MODEL 1
REMARK minimizedAffinity 9.80161095
REMARK minimizedRMSD -1
REMARK  1 active torsions:
REMARK  status: ('A' for Active; 'I' for Inactive)
REMARK    1  A    between atoms: C1_2  and  C2_3 
ROOT
ATOM      1  C2  UNL d   1       0.405   2.082   1.740  0.00  0.00    -0.081 A 
ATOM      2  C3  UNL d   1       1.780   2.099   1.479  0.00  0.00     0.006 A 
ATOM      3  C4  UNL d   1       2.634   2.911   2.229  0.00  0.00     0.002 A 
ATOM      4  C5  UNL d   1       2.128   3.714   3.257  0.00  0.00    -0.080 A 
ATOM      5  C6  UNL d   1       3.037   4.568   4.090  0.00  0.00     0.076 C 
ATOM      6  C7  UNL d   1       0.751   3.711   3.506  0.00  0.00     0.002 A 
ATOM      7  C8  UNL d   1      -0.103   2.900   2.756  0.00  0.00     0.006 A 
ENDROOT
BRANCH   1   8
ATOM      8  C1  UNL d   1      -0.510   1.159   0.975  0.00  0.00     0.054 C 
ATOM      9  C   UNL d   1       0.120  -0.214   0.791  0.00  0.00     0.018 C 
ENDBRANCH   1   8
TORSDOF 1
ENDMDL
