MODEL 1
REMARK minimizedAffinity 6.07430553
REMARK minimizedRMSD -1
REMARK  1 active torsions:
REMARK  status: ('A' for Active; 'I' for Inactive)
REMARK    1  A    between atoms: C1_2  and  C2_3 
ROOT
ATOM      1  C2  UNL d   1      -1.550  -0.785   2.125  0.00  0.00    -0.081 A 
ATOM      2  C3  UNL d   1      -2.516   0.214   1.948  0.00  0.00     0.006 A 
ATOM      3  C4  UNL d   1      -3.764   0.110   2.568  0.00  0.00     0.002 A 
ATOM      4  C5  UNL d   1      -4.064  -0.989   3.379  0.00  0.00    -0.080 A 
ATOM      5  C6  UNL d   1      -5.389  -1.098   4.074  0.00  0.00     0.076 C 
ATOM      6  C7  UNL d   1      -3.106  -1.996   3.541  0.00  0.00     0.002 A 
ATOM      7  C8  UNL d   1      -1.858  -1.893   2.922  0.00  0.00     0.006 A 
ENDROOT
BRANCH   1   8
ATOM      8  C1  UNL d   1      -0.181  -0.644   1.511  0.00  0.00     0.054 C 
ATOM      9  C   UNL d   1       0.321   0.790   1.601  0.00  0.00     0.018 C 
ENDBRANCH   1   8
TORSDOF 1
ENDMDL
