MODEL 1
REMARK minimizedAffinity 0.0839688033
REMARK minimizedRMSD -1
REMARK  1 active torsions:
REMARK  status: ('A' for Active; 'I' for Inactive)
REMARK    1  A    between atoms: C1_2  and  C2_3 
ROOT
ATOM      1  C2  UNL d   1       0.019   2.811   2.175  0.00  0.00    -0.081 A 
ATOM      2  C3  UNL d   1      -1.361   2.579   2.146  0.00  0.00     0.006 A 
ATOM      3  C4  UNL d   1      -2.196   3.155   3.106  0.00  0.00     0.002 A 
ATOM      4  C5  UNL d   1      -1.667   3.978   4.106  0.00  0.00    -0.080 A 
ATOM      5  C6  UNL d   1      -2.556   4.627   5.125  0.00  0.00     0.076 C 
ATOM      6  C7  UNL d   1      -0.285   4.196   4.145  0.00  0.00     0.002 A 
ATOM      7  C8  UNL d   1       0.550   3.620   3.185  0.00  0.00     0.006 A 
ENDROOT
BRANCH   1   8
ATOM      8  C1  UNL d   1       0.914   2.244   1.102  0.00  0.00     0.054 C 
ATOM      9  C   UNL d   1       1.799   1.134   1.650  0.00  0.00     0.018 C 
ENDBRANCH   1   8
TORSDOF 1
ENDMDL
