MODEL 1
REMARK minimizedAffinity -1.45091736
REMARK minimizedRMSD -1
REMARK  1 active torsions:
REMARK  status: ('A' for Active; 'I' for Inactive)
REMARK    1  A    between atoms: C1_2  and  C2_3 
ROOT
ATOM      1  C2  UNL d   1       0.149   2.404   1.947  0.00  0.00    -0.081 A 
ATOM      2  C3  UNL d   1       0.664   3.106   3.044  0.00  0.00     0.006 A 
ATOM      3  C4  UNL d   1      -0.174   3.497   4.091  0.00  0.00     0.002 A 
ATOM      4  C5  UNL d   1      -1.538   3.187   4.062  0.00  0.00    -0.080 A 
ATOM      5  C6  UNL d   1      -2.443   3.575   5.193  0.00  0.00     0.076 C 
ATOM      6  C7  UNL d   1      -2.056   2.502   2.957  0.00  0.00     0.002 A 
ATOM      7  C8  UNL d   1      -1.218   2.111   1.910  0.00  0.00     0.006 A 
ENDROOT
BRANCH   1   8
ATOM      8  C1  UNL d   1       1.062   1.924   0.848  0.00  0.00     0.054 C 
ATOM      9  C   UNL d   1       2.030   0.865   1.355  0.00  0.00     0.018 C 
ENDBRANCH   1   8
TORSDOF 1
ENDMDL
