MODEL 1
REMARK minimizedAffinity 13.269227
REMARK minimizedRMSD -1
REMARK  1 active torsions:
REMARK  status: ('A' for Active; 'I' for Inactive)
REMARK    1  A    between atoms: C1_2  and  C2_3 
ROOT
ATOM      1  C2  UNL d   1      -0.316   1.545   1.705  0.00  0.00    -0.081 A 
ATOM      2  C3  UNL d   1      -0.118   0.161   1.788  0.00  0.00     0.006 A 
ATOM      3  C4  UNL d   1       0.878  -0.458   1.029  0.00  0.00     0.002 A 
ATOM      4  C5  UNL d   1       1.697   0.296   0.182  0.00  0.00    -0.080 A 
ATOM      5  C6  UNL d   1       2.790  -0.352  -0.615  0.00  0.00     0.076 C 
ATOM      6  C7  UNL d   1       1.487   1.676   0.086  0.00  0.00     0.002 A 
ATOM      7  C8  UNL d   1       0.491   2.296   0.844  0.00  0.00     0.006 A 
ENDROOT
BRANCH   1   8
ATOM      8  C1  UNL d   1      -1.346   2.225   2.571  0.00  0.00     0.054 C 
ATOM      9  C   UNL d   1      -0.690   3.026   3.686  0.00  0.00     0.018 C 
ENDBRANCH   1   8
TORSDOF 1
ENDMDL
