MODEL 1
REMARK minimizedAffinity 7.46468306
REMARK minimizedRMSD -1
REMARK  1 active torsions:
REMARK  status: ('A' for Active; 'I' for Inactive)
REMARK    1  A    between atoms: C1_2  and  C2_3 
ROOT
ATOM      1  C2  UNL d   1       3.770   4.650   3.723  0.00  0.00    -0.081 A 
ATOM      2  C3  UNL d   1       3.150   3.720   4.566  0.00  0.00     0.006 A 
ATOM      3  C4  UNL d   1       1.814   3.364   4.368  0.00  0.00     0.002 A 
ATOM      4  C5  UNL d   1       1.077   3.927   3.320  0.00  0.00    -0.080 A 
ATOM      5  C6  UNL d   1      -0.349   3.532   3.078  0.00  0.00     0.076 C 
ATOM      6  C7  UNL d   1       1.691   4.870   2.489  0.00  0.00     0.002 A 
ATOM      7  C8  UNL d   1       3.027   5.226   2.687  0.00  0.00     0.006 A 
ENDROOT
BRANCH   1   8
ATOM      8  C1  UNL d   1       5.229   4.987   3.895  0.00  0.00     0.054 C 
ATOM      9  C   UNL d   1       5.924   3.988   4.809  0.00  0.00     0.018 C 
ENDBRANCH   1   8
TORSDOF 1
ENDMDL
