MODEL 1
REMARK minimizedAffinity 7.89385223
REMARK minimizedRMSD -1
REMARK  1 active torsions:
REMARK  status: ('A' for Active; 'I' for Inactive)
REMARK    1  A    between atoms: C1_2  and  C2_3 
ROOT
ATOM      1  C2  UNL d   1       0.419  -3.503  -0.974  0.00  0.00    -0.081 A 
ATOM      2  C3  UNL d   1       0.734  -2.869   0.234  0.00  0.00     0.006 A 
ATOM      3  C4  UNL d   1       1.841  -2.021   0.321  0.00  0.00     0.002 A 
ATOM      4  C5  UNL d   1       2.645  -1.786  -0.799  0.00  0.00    -0.080 A 
ATOM      5  C6  UNL d   1       3.818  -0.854  -0.726  0.00  0.00     0.076 C 
ATOM      6  C7  UNL d   1       2.341  -2.433  -2.001  0.00  0.00     0.002 A 
ATOM      7  C8  UNL d   1       1.235  -3.282  -2.089  0.00  0.00     0.006 A 
ENDROOT
BRANCH   1   8
ATOM      8  C1  UNL d   1      -0.810  -4.367  -1.088  0.00  0.00     0.054 C 
ATOM      9  C   UNL d   1      -2.026  -3.684  -0.477  0.00  0.00     0.018 C 
ENDBRANCH   1   8
TORSDOF 1
ENDMDL
