MODEL 1
REMARK minimizedAffinity 12.0255175
REMARK minimizedRMSD -1
REMARK  1 active torsions:
REMARK  status: ('A' for Active; 'I' for Inactive)
REMARK    1  A    between atoms: C1_2  and  C2_3 
ROOT
ATOM      1  C2  UNL d   1      -0.408   3.015   4.079  0.00  0.00    -0.081 A 
ATOM      2  C3  UNL d   1       0.692   3.784   3.681  0.00  0.00     0.006 A 
ATOM      3  C4  UNL d   1       1.258   3.610   2.415  0.00  0.00     0.002 A 
ATOM      4  C5  UNL d   1       0.728   2.671   1.524  0.00  0.00    -0.080 A 
ATOM      5  C6  UNL d   1       1.306   2.495   0.151  0.00  0.00     0.076 C 
ATOM      6  C7  UNL d   1      -0.361   1.890   1.928  0.00  0.00     0.002 A 
ATOM      7  C8  UNL d   1      -0.926   2.063   3.194  0.00  0.00     0.006 A 
ENDROOT
BRANCH   1   8
ATOM      8  C1  UNL d   1      -1.060   3.245   5.418  0.00  0.00     0.054 C 
ATOM      9  C   UNL d   1      -2.572   3.090   5.332  0.00  0.00     0.018 C 
ENDBRANCH   1   8
TORSDOF 1
ENDMDL
