MODEL 1
REMARK minimizedAffinity 0.685314119
REMARK minimizedRMSD -1
REMARK  0 active torsions:
REMARK  status: ('A' for Active; 'I' for Inactive)
ROOT
ATOM      1  C   UNL d   1      -2.625   2.548  -5.619  0.00  0.00     0.023 A 
ATOM      2  C1  UNL d   1      -3.960   2.380  -5.989  0.00  0.00     0.003 A 
ATOM      3  C2  UNL d   1      -4.527   1.104  -5.999  0.00  0.00     0.048 A 
ATOM      4  C3  UNL d   1      -3.755   0.001  -5.638  0.00  0.00     0.023 A 
ATOM      5  C4  UNL d   1      -2.420   0.164  -5.266  0.00  0.00     0.048 A 
ATOM      6  C5  UNL d   1      -1.856   1.442  -5.258  0.00  0.00     0.003 A 
ATOM      7  I   UNL d   1      -4.598  -1.899  -5.652  0.00  0.00    -0.146 I 
ENDROOT
TORSDOF 0
ENDMDL
