MODEL 1
REMARK minimizedAffinity -0.260241032
REMARK minimizedRMSD -1
REMARK  0 active torsions:
REMARK  status: ('A' for Active; 'I' for Inactive)
ROOT
ATOM      1  C   UNL d   1      -3.091   4.525  -5.999  0.00  0.00     0.023 A 
ATOM      2  C1  UNL d   1      -4.448   4.205  -6.000  0.00  0.00     0.003 A 
ATOM      3  C2  UNL d   1      -4.852   2.868  -5.999  0.00  0.00     0.048 A 
ATOM      4  C3  UNL d   1      -3.892   1.857  -5.997  0.00  0.00     0.023 A 
ATOM      5  C4  UNL d   1      -2.532   2.172  -5.995  0.00  0.00     0.048 A 
ATOM      6  C5  UNL d   1      -2.134   3.510  -5.996  0.00  0.00     0.003 A 
ATOM      7  I   UNL d   1      -4.490  -0.134  -5.996  0.00  0.00    -0.146 I 
ENDROOT
TORSDOF 0
ENDMDL
