MODEL 1
REMARK minimizedAffinity -2.31348157
REMARK minimizedRMSD -1
REMARK  0 active torsions:
REMARK  status: ('A' for Active; 'I' for Inactive)
ROOT
ATOM      1  C   UNL d   1      -2.465   3.953  -5.999  0.00  0.00     0.023 A 
ATOM      2  C1  UNL d   1      -3.859   3.900  -5.998  0.00  0.00     0.003 A 
ATOM      3  C2  UNL d   1      -4.512   2.665  -5.998  0.00  0.00     0.048 A 
ATOM      4  C3  UNL d   1      -3.765   1.488  -5.999  0.00  0.00     0.023 A 
ATOM      5  C4  UNL d   1      -2.370   1.536  -5.999  0.00  0.00     0.048 A 
ATOM      6  C5  UNL d   1      -1.722   2.773  -6.000  0.00  0.00     0.003 A 
ATOM      7  I   UNL d   1      -4.734  -0.350  -5.999  0.00  0.00    -0.146 I 
ENDROOT
TORSDOF 0
ENDMDL
