MODEL 1
REMARK minimizedAffinity 2.90879703
REMARK minimizedRMSD -1
REMARK  0 active torsions:
REMARK  status: ('A' for Active; 'I' for Inactive)
ROOT
ATOM      1  C   UNL d   1      -3.862   2.569  -6.000  0.00  0.00     0.023 A 
ATOM      2  C1  UNL d   1      -4.037   1.210  -5.737  0.00  0.00     0.003 A 
ATOM      3  C2  UNL d   1      -2.955   0.435  -5.313  0.00  0.00     0.048 A 
ATOM      4  C3  UNL d   1      -1.702   1.026  -5.152  0.00  0.00     0.023 A 
ATOM      5  C4  UNL d   1      -1.523   2.385  -5.413  0.00  0.00     0.048 A 
ATOM      6  C5  UNL d   1      -2.607   3.156  -5.838  0.00  0.00     0.003 A 
ATOM      7  I   UNL d   1      -0.091  -0.126  -4.521  0.00  0.00    -0.146 I 
ENDROOT
TORSDOF 0
ENDMDL
