MODEL 1
REMARK minimizedAffinity 10.9331293
REMARK minimizedRMSD -1
REMARK  0 active torsions:
REMARK  status: ('A' for Active; 'I' for Inactive)
ROOT
ATOM      1  C   UNL d   1       1.038   0.721  -0.564  0.00  0.00     0.023 A 
ATOM      2  C1  UNL d   1       1.888  -0.384  -0.603  0.00  0.00     0.003 A 
ATOM      3  C2  UNL d   1       3.273  -0.201  -0.608  0.00  0.00     0.048 A 
ATOM      4  C3  UNL d   1       3.800   1.090  -0.573  0.00  0.00     0.023 A 
ATOM      5  C4  UNL d   1       2.952   2.198  -0.533  0.00  0.00     0.048 A 
ATOM      6  C5  UNL d   1       1.569   2.011  -0.529  0.00  0.00     0.003 A 
ATOM      7  I   UNL d   1       5.860   1.365  -0.579  0.00  0.00    -0.146 I 
ENDROOT
TORSDOF 0
ENDMDL
