MODEL 1
REMARK minimizedAffinity 2.79318118
REMARK minimizedRMSD -1
REMARK  0 active torsions:
REMARK  status: ('A' for Active; 'I' for Inactive)
ROOT
ATOM      1  C   UNL d   1      -2.765  -0.008  -5.977  0.00  0.00     0.023 A 
ATOM      2  C1  UNL d   1      -4.138  -0.256  -5.972  0.00  0.00     0.003 A 
ATOM      3  C2  UNL d   1      -5.041   0.808  -5.978  0.00  0.00     0.048 A 
ATOM      4  C3  UNL d   1      -4.565   2.119  -5.990  0.00  0.00     0.023 A 
ATOM      5  C4  UNL d   1      -3.193   2.372  -5.995  0.00  0.00     0.048 A 
ATOM      6  C5  UNL d   1      -2.293   1.304  -5.988  0.00  0.00     0.003 A 
ATOM      7  I   UNL d   1      -5.908   3.706  -5.999  0.00  0.00    -0.146 I 
ENDROOT
TORSDOF 0
ENDMDL
