MODEL 1
REMARK minimizedAffinity 5.90673304
REMARK minimizedRMSD -1
REMARK  0 active torsions:
REMARK  status: ('A' for Active; 'I' for Inactive)
ROOT
ATOM      1  C   UNL d   1      -2.641   2.455  -5.995  0.00  0.00     0.023 A 
ATOM      2  C1  UNL d   1      -4.021   2.254  -5.991  0.00  0.00     0.003 A 
ATOM      3  C2  UNL d   1      -4.540   0.958  -5.993  0.00  0.00     0.048 A 
ATOM      4  C3  UNL d   1      -3.672  -0.134  -5.997  0.00  0.00     0.023 A 
ATOM      5  C4  UNL d   1      -2.290   0.062  -6.000  0.00  0.00     0.048 A 
ATOM      6  C5  UNL d   1      -1.776   1.360  -5.999  0.00  0.00     0.003 A 
ATOM      7  I   UNL d   1      -4.442  -2.065  -6.000  0.00  0.00    -0.146 I 
ENDROOT
TORSDOF 0
ENDMDL
