MODEL 1
REMARK minimizedAffinity -0.279051244
REMARK minimizedRMSD -1
REMARK  0 active torsions:
REMARK  status: ('A' for Active; 'I' for Inactive)
ROOT
ATOM      1  C   UNL d   1      -4.345  -4.972  -5.992  0.00  0.00     0.023 A 
ATOM      2  C1  UNL d   1      -3.303  -4.044  -5.989  0.00  0.00     0.003 A 
ATOM      3  C2  UNL d   1      -3.585  -2.677  -5.992  0.00  0.00     0.048 A 
ATOM      4  C3  UNL d   1      -4.910  -2.244  -5.996  0.00  0.00     0.023 A 
ATOM      5  C4  UNL d   1      -5.956  -3.169  -5.998  0.00  0.00     0.048 A 
ATOM      6  C5  UNL d   1      -5.669  -4.535  -5.996  0.00  0.00     0.003 A 
ATOM      7  I   UNL d   1      -5.332  -0.209  -6.000  0.00  0.00    -0.146 I 
ENDROOT
TORSDOF 0
ENDMDL
