MODEL 1
REMARK minimizedAffinity -1.97485411
REMARK minimizedRMSD -1
REMARK  0 active torsions:
REMARK  status: ('A' for Active; 'I' for Inactive)
ROOT
ATOM      1  C   UNL d   1      -4.111   4.917  -5.984  0.00  0.00     0.023 A 
ATOM      2  C1  UNL d   1      -5.353   4.282  -5.977  0.00  0.00     0.003 A 
ATOM      3  C2  UNL d   1      -5.426   2.887  -5.981  0.00  0.00     0.048 A 
ATOM      4  C3  UNL d   1      -4.253   2.134  -5.993  0.00  0.00     0.023 A 
ATOM      5  C4  UNL d   1      -3.008   2.765  -5.999  0.00  0.00     0.048 A 
ATOM      6  C5  UNL d   1      -2.940   4.159  -5.996  0.00  0.00     0.003 A 
ATOM      7  I   UNL d   1      -4.358   0.058  -5.999  0.00  0.00    -0.146 I 
ENDROOT
TORSDOF 0
ENDMDL
