MODEL 1
REMARK minimizedAffinity 2.82625723
REMARK minimizedRMSD -1
REMARK  0 active torsions:
REMARK  status: ('A' for Active; 'I' for Inactive)
ROOT
ATOM      1  C   UNL d   1      -3.005   2.971  -5.990  0.00  0.00     0.023 A 
ATOM      2  C1  UNL d   1      -4.389   2.792  -5.988  0.00  0.00     0.003 A 
ATOM      3  C2  UNL d   1      -4.928   1.504  -5.991  0.00  0.00     0.048 A 
ATOM      4  C3  UNL d   1      -4.078   0.399  -5.995  0.00  0.00     0.023 A 
ATOM      5  C4  UNL d   1      -2.693   0.573  -5.996  0.00  0.00     0.048 A 
ATOM      6  C5  UNL d   1      -2.158   1.863  -5.994  0.00  0.00     0.003 A 
ATOM      7  I   UNL d   1      -4.878  -1.519  -5.999  0.00  0.00    -0.146 I 
ENDROOT
TORSDOF 0
ENDMDL
