MODEL 1
REMARK minimizedAffinity -0.877616704
REMARK minimizedRMSD -1
REMARK  0 active torsions:
REMARK  status: ('A' for Active; 'I' for Inactive)
ROOT
ATOM      1  C   UNL d   1      -2.811   0.579  -5.884  0.00  0.00     0.023 A 
ATOM      2  C1  UNL d   1      -2.355   1.897  -5.855  0.00  0.00     0.003 A 
ATOM      3  C2  UNL d   1      -3.268   2.954  -5.888  0.00  0.00     0.048 A 
ATOM      4  C3  UNL d   1      -4.634   2.685  -5.949  0.00  0.00     0.023 A 
ATOM      5  C4  UNL d   1      -5.095   1.368  -5.978  0.00  0.00     0.048 A 
ATOM      6  C5  UNL d   1      -4.179   0.315  -5.945  0.00  0.00     0.003 A 
ATOM      7  I   UNL d   1      -5.994   4.256  -5.999  0.00  0.00    -0.146 I 
ENDROOT
TORSDOF 0
ENDMDL
