MODEL 1
REMARK minimizedAffinity 5.06010199
REMARK minimizedRMSD -1
REMARK  0 active torsions:
REMARK  status: ('A' for Active; 'I' for Inactive)
ROOT
ATOM      1  C   UNL d   1      -4.399   4.598  -5.649  0.00  0.00     0.023 A 
ATOM      2  C1  UNL d   1      -3.068   4.366  -5.299  0.00  0.00     0.003 A 
ATOM      3  C2  UNL d   1      -2.562   3.065  -5.298  0.00  0.00     0.048 A 
ATOM      4  C3  UNL d   1      -3.391   2.000  -5.648  0.00  0.00     0.023 A 
ATOM      5  C4  UNL d   1      -4.722   2.227  -6.000  0.00  0.00     0.048 A 
ATOM      6  C5  UNL d   1      -5.225   3.530  -5.999  0.00  0.00     0.003 A 
ATOM      7  I   UNL d   1      -2.639   0.062  -5.647  0.00  0.00    -0.146 I 
ENDROOT
TORSDOF 0
ENDMDL
