MODEL 1
REMARK minimizedAffinity -2.80564642
REMARK minimizedRMSD -1
REMARK  0 active torsions:
REMARK  status: ('A' for Active; 'I' for Inactive)
ROOT
ATOM      1  C   UNL d   1      -3.469   2.992  -5.497  0.00  0.00     0.023 A 
ATOM      2  C1  UNL d   1      -2.526   2.027  -5.849  0.00  0.00     0.003 A 
ATOM      3  C2  UNL d   1      -2.911   0.692  -5.994  0.00  0.00     0.048 A 
ATOM      4  C3  UNL d   1      -4.241   0.330  -5.785  0.00  0.00     0.023 A 
ATOM      5  C4  UNL d   1      -5.189   1.292  -5.434  0.00  0.00     0.048 A 
ATOM      6  C5  UNL d   1      -4.799   2.625  -5.290  0.00  0.00     0.003 A 
ATOM      7  I   UNL d   1      -4.816  -1.656  -6.000  0.00  0.00    -0.146 I 
ENDROOT
TORSDOF 0
ENDMDL
