MODEL 1
REMARK minimizedAffinity -2.09172535
REMARK minimizedRMSD -1
REMARK  0 active torsions:
REMARK  status: ('A' for Active; 'I' for Inactive)
ROOT
ATOM      1  C   UNL d   1      -3.690   3.382  -5.996  0.00  0.00     0.023 A 
ATOM      2  C1  UNL d   1      -2.622   2.484  -6.000  0.00  0.00     0.003 A 
ATOM      3  C2  UNL d   1      -2.864   1.109  -5.999  0.00  0.00     0.048 A 
ATOM      4  C3  UNL d   1      -4.176   0.638  -5.995  0.00  0.00     0.023 A 
ATOM      5  C4  UNL d   1      -5.248   1.532  -5.991  0.00  0.00     0.048 A 
ATOM      6  C5  UNL d   1      -5.001   2.906  -5.992  0.00  0.00     0.003 A 
ATOM      7  I   UNL d   1      -4.539  -1.409  -5.993  0.00  0.00    -0.146 I 
ENDROOT
TORSDOF 0
ENDMDL
