MODEL 1
REMARK minimizedAffinity 1.04560649
REMARK minimizedRMSD -1
REMARK  0 active torsions:
REMARK  status: ('A' for Active; 'I' for Inactive)
ROOT
ATOM      1  C   UNL d   1      -1.741   1.837  -5.929  0.00  0.00     0.023 A 
ATOM      2  C1  UNL d   1      -2.937   1.119  -5.901  0.00  0.00     0.003 A 
ATOM      3  C2  UNL d   1      -4.159   1.793  -5.920  0.00  0.00     0.048 A 
ATOM      4  C3  UNL d   1      -4.179   3.186  -5.969  0.00  0.00     0.023 A 
ATOM      5  C4  UNL d   1      -2.986   3.910  -5.997  0.00  0.00     0.048 A 
ATOM      6  C5  UNL d   1      -1.766   3.231  -5.977  0.00  0.00     0.003 A 
ATOM      7  I   UNL d   1      -5.998   4.193  -5.998  0.00  0.00    -0.146 I 
ENDROOT
TORSDOF 0
ENDMDL
