MODEL 1
REMARK minimizedAffinity 2.55000067
REMARK minimizedRMSD -1
REMARK  0 active torsions:
REMARK  status: ('A' for Active; 'I' for Inactive)
ROOT
ATOM      1  C   UNL d   1      -3.960   2.827  -5.999  0.00  0.00     0.023 A 
ATOM      2  C1  UNL d   1      -2.930   1.887  -6.000  0.00  0.00     0.003 A 
ATOM      3  C2  UNL d   1      -3.227   0.522  -6.000  0.00  0.00     0.048 A 
ATOM      4  C3  UNL d   1      -4.558   0.105  -5.999  0.00  0.00     0.023 A 
ATOM      5  C4  UNL d   1      -5.592   1.042  -5.999  0.00  0.00     0.048 A 
ATOM      6  C5  UNL d   1      -5.290   2.405  -5.999  0.00  0.00     0.003 A 
ATOM      7  I   UNL d   1      -5.003  -1.925  -5.999  0.00  0.00    -0.146 I 
ENDROOT
TORSDOF 0
ENDMDL
