MODEL 1
REMARK minimizedAffinity 0.54268384
REMARK minimizedRMSD -1
REMARK  0 active torsions:
REMARK  status: ('A' for Active; 'I' for Inactive)
ROOT
ATOM      1  C   UNL d   1      -4.054  -4.719  -5.999  0.00  0.00     0.023 A 
ATOM      2  C1  UNL d   1      -5.439  -4.550  -5.999  0.00  0.00     0.003 A 
ATOM      3  C2  UNL d   1      -5.987  -3.266  -5.997  0.00  0.00     0.048 A 
ATOM      4  C3  UNL d   1      -5.145  -2.154  -5.997  0.00  0.00     0.023 A 
ATOM      5  C4  UNL d   1      -3.758  -2.318  -5.999  0.00  0.00     0.048 A 
ATOM      6  C5  UNL d   1      -3.215  -3.604  -5.999  0.00  0.00     0.003 A 
ATOM      7  I   UNL d   1      -5.958  -0.242  -5.996  0.00  0.00    -0.146 I 
ENDROOT
TORSDOF 0
ENDMDL
