MODEL 1
REMARK minimizedAffinity -0.245237291
REMARK minimizedRMSD -1
REMARK  0 active torsions:
REMARK  status: ('A' for Active; 'I' for Inactive)
ROOT
ATOM      1  C   UNL d   1      -3.751   3.481  -5.994  0.00  0.00     0.023 A 
ATOM      2  C1  UNL d   1      -5.053   2.980  -5.993  0.00  0.00     0.003 A 
ATOM      3  C2  UNL d   1      -5.271   1.600  -5.995  0.00  0.00     0.048 A 
ATOM      4  C3  UNL d   1      -4.183   0.728  -5.997  0.00  0.00     0.023 A 
ATOM      5  C4  UNL d   1      -2.878   1.226  -5.997  0.00  0.00     0.048 A 
ATOM      6  C5  UNL d   1      -2.665   2.606  -5.996  0.00  0.00     0.003 A 
ATOM      7  I   UNL d   1      -4.505  -1.325  -6.000  0.00  0.00    -0.146 I 
ENDROOT
TORSDOF 0
ENDMDL
