MODEL 1
REMARK minimizedAffinity -0.678798974
REMARK minimizedRMSD -1
REMARK  0 active torsions:
REMARK  status: ('A' for Active; 'I' for Inactive)
ROOT
ATOM      1  C   UNL d   1      -3.518  -1.746  -5.993  0.00  0.00     0.023 A 
ATOM      2  C1  UNL d   1      -2.368  -0.956  -5.997  0.00  0.00     0.003 A 
ATOM      3  C2  UNL d   1      -2.477   0.437  -5.999  0.00  0.00     0.048 A 
ATOM      4  C3  UNL d   1      -3.737   1.032  -5.996  0.00  0.00     0.023 A 
ATOM      5  C4  UNL d   1      -4.890   0.245  -5.991  0.00  0.00     0.048 A 
ATOM      6  C5  UNL d   1      -4.777  -1.146  -5.990  0.00  0.00     0.003 A 
ATOM      7  I   UNL d   1      -3.901   3.104  -6.000  0.00  0.00    -0.146 I 
ENDROOT
TORSDOF 0
ENDMDL
