MODEL 1
REMARK minimizedAffinity -1.58627784
REMARK minimizedRMSD -1
REMARK  1 active torsions:
REMARK  status: ('A' for Active; 'I' for Inactive)
REMARK    1  A    between atoms: C1_2  and  C2_3 
ROOT
ATOM      1  C2  UNL d   1      -1.169  -0.711  -1.027  0.00  0.00    -0.076 A 
ATOM      2  C3  UNL d   1      -1.960   0.392  -0.660  0.00  0.00     0.004 A 
ATOM      3  C4  UNL d   1      -1.678   1.125   0.491  0.00  0.00    -0.003 A 
ATOM      4  C5  UNL d   1      -0.600   0.769   1.294  0.00  0.00     0.000 A 
ATOM      5  C6  UNL d   1       0.206  -0.311   0.935  0.00  0.00     0.000 A 
ATOM      6  C7  UNL d   1      -0.054  -1.051  -0.230  0.00  0.00    -0.073 A 
ATOM      7  C8  UNL d   1       0.844  -2.210  -0.566  0.00  0.00     0.078 C 
ENDROOT
BRANCH   1   8
ATOM      8  C1  UNL d   1      -1.539  -1.485  -2.271  0.00  0.00     0.053 C 
ATOM      9  C   UNL d   1      -3.031  -1.441  -2.563  0.00  0.00     0.018 C 
ENDBRANCH   1   8
TORSDOF 1
ENDMDL
