MODEL 1
REMARK minimizedAffinity -4.70925093
REMARK minimizedRMSD -1
REMARK  1 active torsions:
REMARK  status: ('A' for Active; 'I' for Inactive)
REMARK    1  A    between atoms: C1_2  and  C2_3 
ROOT
ATOM      1  C2  UNL d   1       0.737   0.047   0.211  0.00  0.00    -0.076 A 
ATOM      2  C3  UNL d   1       1.821  -0.574  -0.433  0.00  0.00     0.004 A 
ATOM      3  C4  UNL d   1       3.134  -0.202  -0.147  0.00  0.00    -0.003 A 
ATOM      4  C5  UNL d   1       3.383   0.797   0.789  0.00  0.00     0.000 A 
ATOM      5  C6  UNL d   1       2.320   1.411   1.450  0.00  0.00     0.000 A 
ATOM      6  C7  UNL d   1       0.991   1.036   1.185  0.00  0.00    -0.073 A 
ATOM      7  C8  UNL d   1      -0.117   1.736   1.923  0.00  0.00     0.078 C 
ENDROOT
BRANCH   1   8
ATOM      8  C1  UNL d   1      -0.666  -0.379  -0.160  0.00  0.00     0.053 C 
ATOM      9  C   UNL d   1      -0.681  -1.516  -1.171  0.00  0.00     0.018 C 
ENDBRANCH   1   8
TORSDOF 1
ENDMDL
