MODEL 1
REMARK minimizedAffinity -2.24069214
REMARK minimizedRMSD -1
REMARK  1 active torsions:
REMARK  status: ('A' for Active; 'I' for Inactive)
REMARK    1  A    between atoms: C1_2  and  C2_3 
ROOT
ATOM      1  C2  UNL d   1      -1.327  -0.678  -1.059  0.00  0.00    -0.076 A 
ATOM      2  C3  UNL d   1      -2.093   0.492  -0.919  0.00  0.00     0.004 A 
ATOM      3  C4  UNL d   1      -1.685   1.519  -0.070  0.00  0.00    -0.003 A 
ATOM      4  C5  UNL d   1      -0.504   1.393   0.653  0.00  0.00     0.000 A 
ATOM      5  C6  UNL d   1       0.277   0.246   0.513  0.00  0.00     0.000 A 
ATOM      6  C7  UNL d   1      -0.112  -0.792  -0.352  0.00  0.00    -0.073 A 
ATOM      7  C8  UNL d   1       0.766  -2.008  -0.459  0.00  0.00     0.078 C 
ENDROOT
BRANCH   1   8
ATOM      8  C1  UNL d   1      -1.834  -1.770  -1.974  0.00  0.00     0.053 C 
ATOM      9  C   UNL d   1      -2.103  -1.270  -3.385  0.00  0.00     0.018 C 
ENDBRANCH   1   8
TORSDOF 1
ENDMDL
