MODEL 1
REMARK minimizedAffinity -2.70329595
REMARK minimizedRMSD -1
REMARK  1 active torsions:
REMARK  status: ('A' for Active; 'I' for Inactive)
REMARK    1  A    between atoms: C1_2  and  C2_3 
ROOT
ATOM      1  C2  UNL d   1      -1.058  -1.396  -0.643  0.00  0.00    -0.076 A 
ATOM      2  C3  UNL d   1      -2.386  -1.506  -1.090  0.00  0.00     0.004 A 
ATOM      3  C4  UNL d   1      -2.674  -1.777  -2.427  0.00  0.00    -0.003 A 
ATOM      4  C5  UNL d   1      -1.637  -1.943  -3.338  0.00  0.00     0.000 A 
ATOM      5  C6  UNL d   1      -0.313  -1.854  -2.909  0.00  0.00     0.000 A 
ATOM      6  C7  UNL d   1      -0.006  -1.598  -1.562  0.00  0.00    -0.073 A 
ATOM      7  C8  UNL d   1       1.439  -1.507  -1.155  0.00  0.00     0.078 C 
ENDROOT
BRANCH   1   8
ATOM      8  C1  UNL d   1      -0.808  -1.073   0.813  0.00  0.00     0.053 C 
ATOM      9  C   UNL d   1      -0.884   0.418   1.101  0.00  0.00     0.018 C 
ENDBRANCH   1   8
TORSDOF 1
ENDMDL
