MODEL 1
REMARK minimizedAffinity -1.03579438
REMARK minimizedRMSD -1
REMARK  1 active torsions:
REMARK  status: ('A' for Active; 'I' for Inactive)
REMARK    1  A    between atoms: C1_2  and  C2_3 
ROOT
ATOM      1  C2  UNL d   1      -0.027   0.738   0.306  0.00  0.00    -0.076 A 
ATOM      2  C3  UNL d   1       1.336   0.576   0.005  0.00  0.00     0.004 A 
ATOM      3  C4  UNL d   1       2.323   1.063   0.862  0.00  0.00    -0.003 A 
ATOM      4  C5  UNL d   1       1.962   1.718   2.034  0.00  0.00     0.000 A 
ATOM      5  C6  UNL d   1       0.614   1.872   2.357  0.00  0.00     0.000 A 
ATOM      6  C7  UNL d   1      -0.393   1.373   1.513  0.00  0.00    -0.073 A 
ATOM      7  C8  UNL d   1      -1.831   1.573   1.907  0.00  0.00     0.078 C 
ENDROOT
BRANCH   1   8
ATOM      8  C1  UNL d   1      -1.052   0.214  -0.673  0.00  0.00     0.053 C 
ATOM      9  C   UNL d   1      -0.785  -1.227  -1.082  0.00  0.00     0.018 C 
ENDBRANCH   1   8
TORSDOF 1
ENDMDL
