MODEL 1
REMARK minimizedAffinity -2.37262845
REMARK minimizedRMSD -1
REMARK  1 active torsions:
REMARK  status: ('A' for Active; 'I' for Inactive)
REMARK    1  A    between atoms: C1_2  and  C2_3 
ROOT
ATOM      1  C2  UNL d   1      -0.438  -0.502  -0.117  0.00  0.00    -0.076 A 
ATOM      2  C3  UNL d   1      -1.500  -0.011   0.663  0.00  0.00     0.004 A 
ATOM      3  C4  UNL d   1      -1.287   0.969   1.630  0.00  0.00    -0.003 A 
ATOM      4  C5  UNL d   1      -0.008   1.475   1.834  0.00  0.00     0.000 A 
ATOM      5  C6  UNL d   1       1.054   1.013   1.058  0.00  0.00     0.000 A 
ATOM      6  C7  UNL d   1       0.853   0.036   0.067  0.00  0.00    -0.073 A 
ATOM      7  C8  UNL d   1       2.036  -0.430  -0.737  0.00  0.00     0.078 C 
ENDROOT
BRANCH   1   8
ATOM      8  C1  UNL d   1      -0.725  -1.584  -1.132  0.00  0.00     0.053 C 
ATOM      9  C   UNL d   1      -2.174  -1.579  -1.596  0.00  0.00     0.018 C 
ENDBRANCH   1   8
TORSDOF 1
ENDMDL
