MODEL 1
REMARK minimizedAffinity -1.4144516
REMARK minimizedRMSD -1
REMARK  1 active torsions:
REMARK  status: ('A' for Active; 'I' for Inactive)
REMARK    1  A    between atoms: C1_2  and  C2_3 
ROOT
ATOM      1  C2  UNL d   1      -0.762  -0.820  -0.232  0.00  0.00    -0.076 A 
ATOM      2  C3  UNL d   1      -1.486   0.025   0.627  0.00  0.00     0.004 A 
ATOM      3  C4  UNL d   1      -0.840   0.989   1.399  0.00  0.00    -0.003 A 
ATOM      4  C5  UNL d   1       0.541   1.126   1.323  0.00  0.00     0.000 A 
ATOM      5  C6  UNL d   1       1.274   0.309   0.463  0.00  0.00     0.000 A 
ATOM      6  C7  UNL d   1       0.637  -0.658  -0.334  0.00  0.00    -0.073 A 
ATOM      7  C8  UNL d   1       1.477  -1.516  -1.239  0.00  0.00     0.078 C 
ENDROOT
BRANCH   1   8
ATOM      8  C1  UNL d   1      -1.514  -1.866  -1.023  0.00  0.00     0.053 C 
ATOM      9  C   UNL d   1      -1.925  -1.370  -2.401  0.00  0.00     0.018 C 
ENDBRANCH   1   8
TORSDOF 1
ENDMDL
