MODEL 1
REMARK minimizedAffinity -0.727809787
REMARK minimizedRMSD -1
REMARK  1 active torsions:
REMARK  status: ('A' for Active; 'I' for Inactive)
REMARK    1  A    between atoms: C1_2  and  C2_3 
ROOT
ATOM      1  C2  UNL d   1       1.305   0.684   0.464  0.00  0.00    -0.076 A 
ATOM      2  C3  UNL d   1       2.374   0.156  -0.280  0.00  0.00     0.004 A 
ATOM      3  C4  UNL d   1       3.695   0.390   0.098  0.00  0.00    -0.003 A 
ATOM      4  C5  UNL d   1       3.968   1.156   1.226  0.00  0.00     0.000 A 
ATOM      5  C6  UNL d   1       2.920   1.673   1.986  0.00  0.00     0.000 A 
ATOM      6  C7  UNL d   1       1.582   1.433   1.628  0.00  0.00    -0.073 A 
ATOM      7  C8  UNL d   1       0.490   2.020   2.481  0.00  0.00     0.078 C 
ENDROOT
BRANCH   1   8
ATOM      8  C1  UNL d   1      -0.107   0.420  -0.009  0.00  0.00     0.053 C 
ATOM      9  C   UNL d   1      -0.451  -1.061  -0.019  0.00  0.00     0.018 C 
ENDBRANCH   1   8
TORSDOF 1
ENDMDL
