MODEL 1
REMARK minimizedAffinity 0.0386043414
REMARK minimizedRMSD -1
REMARK  1 active torsions:
REMARK  status: ('A' for Active; 'I' for Inactive)
REMARK    1  A    between atoms: C1_2  and  C2_3 
ROOT
ATOM      1  C2  UNL d   1      -0.673  -0.605   0.453  0.00  0.00    -0.076 A 
ATOM      2  C3  UNL d   1      -1.803  -0.232   1.202  0.00  0.00     0.004 A 
ATOM      3  C4  UNL d   1      -1.723   0.766   2.172  0.00  0.00    -0.003 A 
ATOM      4  C5  UNL d   1      -0.512   1.407   2.409  0.00  0.00     0.000 A 
ATOM      5  C6  UNL d   1       0.614   1.061   1.664  0.00  0.00     0.000 A 
ATOM      6  C7  UNL d   1       0.547   0.069   0.671  0.00  0.00    -0.073 A 
ATOM      7  C8  UNL d   1       1.795  -0.267  -0.099  0.00  0.00     0.078 C 
ENDROOT
BRANCH   1   8
ATOM      8  C1  UNL d   1      -0.814  -1.712  -0.567  0.00  0.00     0.053 C 
ATOM      9  C   UNL d   1      -1.970  -1.478  -1.526  0.00  0.00     0.018 C 
ENDBRANCH   1   8
TORSDOF 1
ENDMDL
