MODEL 1
REMARK minimizedAffinity -4.23656702
REMARK minimizedRMSD -1
REMARK  1 active torsions:
REMARK  status: ('A' for Active; 'I' for Inactive)
REMARK    1  A    between atoms: C1_2  and  C2_3 
ROOT
ATOM      1  C2  UNL d   1       0.411  -0.412   0.031  0.00  0.00    -0.076 A 
ATOM      2  C3  UNL d   1      -0.619   0.108   0.834  0.00  0.00     0.004 A 
ATOM      3  C4  UNL d   1      -0.359   1.091   1.788  0.00  0.00    -0.003 A 
ATOM      4  C5  UNL d   1       0.936   1.571   1.953  0.00  0.00     0.000 A 
ATOM      5  C6  UNL d   1       1.967   1.079   1.153  0.00  0.00     0.000 A 
ATOM      6  C7  UNL d   1       1.719   0.100   0.176  0.00  0.00    -0.073 A 
ATOM      7  C8  UNL d   1       2.869  -0.399  -0.655  0.00  0.00     0.078 C 
ENDROOT
BRANCH   1   8
ATOM      8  C1  UNL d   1       0.074  -1.496  -0.967  0.00  0.00     0.053 C 
ATOM      9  C   UNL d   1      -1.416  -1.796  -1.021  0.00  0.00     0.018 C 
ENDBRANCH   1   8
TORSDOF 1
ENDMDL
