MODEL 1
REMARK minimizedAffinity -3.81841779
REMARK minimizedRMSD -1
REMARK  1 active torsions:
REMARK  status: ('A' for Active; 'I' for Inactive)
REMARK    1  A    between atoms: C1_2  and  C2_3 
ROOT
ATOM      1  C2  UNL d   1      -0.950  -0.375  -0.273  0.00  0.00    -0.076 A 
ATOM      2  C3  UNL d   1      -0.796  -1.739  -0.581  0.00  0.00     0.004 A 
ATOM      3  C4  UNL d   1      -1.308  -2.270  -1.763  0.00  0.00    -0.003 A 
ATOM      4  C5  UNL d   1      -1.983  -1.446  -2.658  0.00  0.00     0.000 A 
ATOM      5  C6  UNL d   1      -2.129  -0.088  -2.378  0.00  0.00     0.000 A 
ATOM      6  C7  UNL d   1      -1.605   0.467  -1.198  0.00  0.00    -0.073 A 
ATOM      7  C8  UNL d   1      -1.798   1.936  -0.943  0.00  0.00     0.078 C 
ENDROOT
BRANCH   1   8
ATOM      8  C1  UNL d   1      -0.398   0.139   1.037  0.00  0.00     0.053 C 
ATOM      9  C   UNL d   1       1.004   0.712   0.893  0.00  0.00     0.018 C 
ENDBRANCH   1   8
TORSDOF 1
ENDMDL
