MODEL 1
REMARK minimizedAffinity 20.9912872
REMARK minimizedRMSD -1
REMARK  0 active torsions:
REMARK  status: ('A' for Active; 'I' for Inactive)
ROOT
ATOM      1  C   UNL d   1       3.411   5.546  -4.098  0.00  0.00    -0.002 A 
ATOM      2  C1  UNL d   1       4.357   4.610  -4.492  0.00  0.00     0.010 A 
ATOM      3  C2  UNL d   1       4.398   3.348  -3.897  0.00  0.00     0.041 A 
ATOM      4  C3  UNL d   1       3.461   3.037  -2.892  0.00  0.00    -0.075 A 
ATOM      5  S   UNL d   1       3.320   1.554  -2.024  0.00  0.00     0.015 SA
ATOM      6  C4  UNL d   1       2.000   2.127  -1.111  0.00  0.00     0.022 A 
ATOM      7  C5  UNL d   1       1.661   3.416  -1.447  0.00  0.00     0.026 A 
ATOM      8  C6  UNL d   1       2.497   3.962  -2.479  0.00  0.00    -0.082 A 
ATOM      9  C7  UNL d   1       2.483   5.234  -3.101  0.00  0.00     0.045 A 
ENDROOT
TORSDOF 0
ENDMDL
