MODEL 1
REMARK minimizedAffinity 21.9192028
REMARK minimizedRMSD -1
REMARK  0 active torsions:
REMARK  status: ('A' for Active; 'I' for Inactive)
ROOT
ATOM      1  C   UNL d   1       2.237   0.379  -2.592  0.00  0.00    -0.002 A 
ATOM      2  C1  UNL d   1       2.620  -0.519  -3.578  0.00  0.00     0.010 A 
ATOM      3  C2  UNL d   1       3.379  -0.094  -4.670  0.00  0.00     0.041 A 
ATOM      4  C3  UNL d   1       3.752   1.262  -4.755  0.00  0.00    -0.075 A 
ATOM      5  S   UNL d   1       4.681   2.009  -6.000  0.00  0.00     0.015 SA
ATOM      6  C4  UNL d   1       4.593   3.538  -5.252  0.00  0.00     0.022 A 
ATOM      7  C5  UNL d   1       3.876   3.498  -4.080  0.00  0.00     0.026 A 
ATOM      8  C6  UNL d   1       3.380   2.185  -3.773  0.00  0.00    -0.082 A 
ATOM      9  C7  UNL d   1       2.610   1.723  -2.679  0.00  0.00     0.045 A 
ENDROOT
TORSDOF 0
ENDMDL
