MODEL 1
REMARK minimizedAffinity -4.56171131
REMARK minimizedRMSD -1
REMARK  0 active torsions:
REMARK  status: ('A' for Active; 'I' for Inactive)
ROOT
ATOM      1  C   UNL d   1      -0.028   0.105   2.590  0.00  0.00    -0.002 A 
ATOM      2  C1  UNL d   1       1.205   0.564   2.149  0.00  0.00     0.010 A 
ATOM      3  C2  UNL d   1       1.480   0.660   0.784  0.00  0.00     0.041 A 
ATOM      4  C3  UNL d   1       0.485   0.286  -0.140  0.00  0.00    -0.075 A 
ATOM      5  S   UNL d   1       0.597   0.322  -1.860  0.00  0.00     0.015 SA
ATOM      6  C4  UNL d   1      -0.990  -0.271  -2.051  0.00  0.00     0.022 A 
ATOM      7  C5  UNL d   1      -1.604  -0.496  -0.842  0.00  0.00     0.026 A 
ATOM      8  C6  UNL d   1      -0.765  -0.178   0.279  0.00  0.00    -0.082 A 
ATOM      9  C7  UNL d   1      -1.013  -0.265   1.670  0.00  0.00     0.045 A 
ENDROOT
TORSDOF 0
ENDMDL
