MODEL 1
REMARK minimizedAffinity -4.02130032
REMARK minimizedRMSD -1
REMARK  0 active torsions:
REMARK  status: ('A' for Active; 'I' for Inactive)
ROOT
ATOM      1  C   UNL d   1       1.465   0.199   2.062  0.00  0.00    -0.002 A 
ATOM      2  C1  UNL d   1       1.848   0.427   0.748  0.00  0.00     0.010 A 
ATOM      3  C2  UNL d   1       0.909   0.372  -0.285  0.00  0.00     0.041 A 
ATOM      4  C3  UNL d   1      -0.433   0.083   0.029  0.00  0.00    -0.075 A 
ATOM      5  S   UNL d   1      -1.756  -0.035  -1.071  0.00  0.00     0.015 SA
ATOM      6  C4  UNL d   1      -2.860  -0.390   0.178  0.00  0.00     0.022 A 
ATOM      7  C5  UNL d   1      -2.251  -0.422   1.410  0.00  0.00     0.026 A 
ATOM      8  C6  UNL d   1      -0.843  -0.149   1.345  0.00  0.00    -0.082 A 
ATOM      9  C7  UNL d   1       0.132  -0.088   2.369  0.00  0.00     0.045 A 
ENDROOT
TORSDOF 0
ENDMDL
