MODEL 1
REMARK minimizedAffinity -2.2453649
REMARK minimizedRMSD -1
REMARK  0 active torsions:
REMARK  status: ('A' for Active; 'I' for Inactive)
ROOT
ATOM      1  C   UNL d   1       1.479  -1.116  -3.004  0.00  0.00    -0.002 A 
ATOM      2  C1  UNL d   1       1.459  -0.045  -2.122  0.00  0.00     0.010 A 
ATOM      3  C2  UNL d   1       0.282   0.306  -1.457  0.00  0.00     0.041 A 
ATOM      4  C3  UNL d   1      -0.886  -0.446  -1.695  0.00  0.00    -0.075 A 
ATOM      5  S   UNL d   1      -2.441  -0.200  -0.994  0.00  0.00     0.015 SA
ATOM      6  C4  UNL d   1      -3.116  -1.512  -1.848  0.00  0.00     0.022 A 
ATOM      7  C5  UNL d   1      -2.191  -2.133  -2.654  0.00  0.00     0.026 A 
ATOM      8  C6  UNL d   1      -0.890  -1.529  -2.579  0.00  0.00    -0.082 A 
ATOM      9  C7  UNL d   1       0.319  -1.859  -3.238  0.00  0.00     0.045 A 
ENDROOT
TORSDOF 0
ENDMDL
