MODEL 1
REMARK minimizedAffinity -5.8586092
REMARK minimizedRMSD -1
REMARK  0 active torsions:
REMARK  status: ('A' for Active; 'I' for Inactive)
ROOT
ATOM      1  C   UNL d   1       0.017  -0.458   2.708  0.00  0.00    -0.002 A 
ATOM      2  C1  UNL d   1       1.184   0.126   2.235  0.00  0.00     0.010 A 
ATOM      3  C2  UNL d   1       1.349   0.379   0.872  0.00  0.00     0.041 A 
ATOM      4  C3  UNL d   1       0.312   0.032  -0.016  0.00  0.00    -0.075 A 
ATOM      5  S   UNL d   1       0.293   0.248  -1.726  0.00  0.00     0.015 SA
ATOM      6  C4  UNL d   1      -1.265  -0.429  -1.869  0.00  0.00     0.022 A 
ATOM      7  C5  UNL d   1      -1.772  -0.817  -0.652  0.00  0.00     0.026 A 
ATOM      8  C6  UNL d   1      -0.872  -0.557   0.437  0.00  0.00    -0.082 A 
ATOM      9  C7  UNL d   1      -1.009  -0.801   1.824  0.00  0.00     0.045 A 
ENDROOT
TORSDOF 0
ENDMDL
