MODEL 1
REMARK minimizedAffinity -3.87278199
REMARK minimizedRMSD -1
REMARK  0 active torsions:
REMARK  status: ('A' for Active; 'I' for Inactive)
ROOT
ATOM      1  C   UNL d   1       0.783  -1.158  -3.770  0.00  0.00    -0.002 A 
ATOM      2  C1  UNL d   1       1.325  -0.424  -2.725  0.00  0.00     0.010 A 
ATOM      3  C2  UNL d   1       0.534  -0.041  -1.640  0.00  0.00     0.041 A 
ATOM      4  C3  UNL d   1      -0.825  -0.414  -1.623  0.00  0.00    -0.075 A 
ATOM      5  S   UNL d   1      -1.984  -0.057  -0.398  0.00  0.00     0.015 SA
ATOM      6  C4  UNL d   1      -3.227  -0.872  -1.232  0.00  0.00     0.022 A 
ATOM      7  C5  UNL d   1      -2.785  -1.409  -2.419  0.00  0.00     0.026 A 
ATOM      8  C6  UNL d   1      -1.393  -1.154  -2.663  0.00  0.00    -0.082 A 
ATOM      9  C7  UNL d   1      -0.565  -1.526  -3.749  0.00  0.00     0.045 A 
ENDROOT
TORSDOF 0
ENDMDL
