MODEL 1
REMARK minimizedAffinity -2.05464101
REMARK minimizedRMSD -1
REMARK  0 active torsions:
REMARK  status: ('A' for Active; 'I' for Inactive)
ROOT
ATOM      1  C   UNL d   1       1.797   0.764   1.716  0.00  0.00    -0.002 A 
ATOM      2  C1  UNL d   1       2.123   0.921   0.376  0.00  0.00     0.010 A 
ATOM      3  C2  UNL d   1       1.247   0.493  -0.623  0.00  0.00     0.041 A 
ATOM      4  C3  UNL d   1       0.024  -0.099  -0.250  0.00  0.00    -0.075 A 
ATOM      5  S   UNL d   1      -1.204  -0.698  -1.301  0.00  0.00     0.015 SA
ATOM      6  C4  UNL d   1      -2.192  -1.175   0.003  0.00  0.00     0.022 A 
ATOM      7  C5  UNL d   1      -1.613  -0.893   1.218  0.00  0.00     0.026 A 
ATOM      8  C6  UNL d   1      -0.327  -0.268   1.092  0.00  0.00    -0.082 A 
ATOM      9  C7  UNL d   1       0.583   0.176   2.082  0.00  0.00     0.045 A 
ENDROOT
TORSDOF 0
ENDMDL
