MODEL 1
REMARK minimizedAffinity 1.03464615
REMARK minimizedRMSD -1
REMARK  0 active torsions:
REMARK  status: ('A' for Active; 'I' for Inactive)
ROOT
ATOM      1  C   UNL d   1       0.332   0.386   3.505  0.00  0.00    -0.002 A 
ATOM      2  C1  UNL d   1      -1.018   0.213   3.233  0.00  0.00     0.010 A 
ATOM      3  C2  UNL d   1      -1.481   0.198   1.916  0.00  0.00     0.041 A 
ATOM      4  C3  UNL d   1      -0.555   0.359   0.866  0.00  0.00    -0.075 A 
ATOM      5  S   UNL d   1      -0.893   0.373  -0.824  0.00  0.00     0.015 SA
ATOM      6  C4  UNL d   1       0.747   0.608  -1.225  0.00  0.00     0.022 A 
ATOM      7  C5  UNL d   1       1.546   0.676  -0.109  0.00  0.00     0.026 A 
ATOM      8  C6  UNL d   1       0.809   0.534   1.115  0.00  0.00    -0.082 A 
ATOM      9  C7  UNL d   1       1.247   0.545   2.461  0.00  0.00     0.045 A 
ENDROOT
TORSDOF 0
ENDMDL
