MODEL 1
REMARK minimizedAffinity -2.10423398
REMARK minimizedRMSD -1
REMARK  0 active torsions:
REMARK  status: ('A' for Active; 'I' for Inactive)
ROOT
ATOM      1  C   UNL d   1      -1.051   0.329   0.713  0.00  0.00     0.020 A 
ATOM      2  C1  UNL d   1       0.006   1.238   0.749  0.00  0.00     0.020 A 
ATOM      3  C2  UNL d   1       1.300   0.792   1.026  0.00  0.00     0.034 A 
ATOM      4  C3  UNL d   1       1.541  -0.565   1.268  0.00  0.00     0.017 A 
ATOM      5  C4  UNL d   1       0.479  -1.476   1.231  0.00  0.00     0.017 A 
ATOM      6  C5  UNL d   1      -0.815  -1.025   0.953  0.00  0.00     0.034 A 
ATOM      7 Cl   UNL d   1       0.697  -3.166   1.519  0.00  0.00    -0.070 Cl
ATOM      8 Cl1  UNL d   1       3.166  -1.046   1.603  0.00  0.00    -0.070 Cl
ENDROOT
TORSDOF 0
ENDMDL
