MODEL 1
REMARK minimizedAffinity -4.83100367
REMARK minimizedRMSD -1
REMARK  0 active torsions:
REMARK  status: ('A' for Active; 'I' for Inactive)
ROOT
ATOM      1  C   UNL d   1       3.104  -0.867   1.709  0.00  0.00     0.020 A 
ATOM      2  C1  UNL d   1       3.012   0.392   1.118  0.00  0.00     0.020 A 
ATOM      3  C2  UNL d   1       1.800   0.820   0.571  0.00  0.00     0.034 A 
ATOM      4  C3  UNL d   1       0.675  -0.012   0.615  0.00  0.00     0.017 A 
ATOM      5  C4  UNL d   1       0.769  -1.276   1.209  0.00  0.00     0.017 A 
ATOM      6  C5  UNL d   1       1.985  -1.699   1.754  0.00  0.00     0.034 A 
ATOM      7 Cl   UNL d   1      -0.575  -2.359   1.301  0.00  0.00    -0.070 Cl
ATOM      8 Cl1  UNL d   1      -0.791   0.581  -0.079  0.00  0.00    -0.070 Cl
ENDROOT
TORSDOF 0
ENDMDL
