MODEL 1
REMARK minimizedAffinity 0.621367931
REMARK minimizedRMSD -1
REMARK  0 active torsions:
REMARK  status: ('A' for Active; 'I' for Inactive)
ROOT
ATOM      1  C   UNL d   1       2.870   1.367   2.406  0.00  0.00     0.020 A 
ATOM      2  C1  UNL d   1       2.240   1.667   1.199  0.00  0.00     0.020 A 
ATOM      3  C2  UNL d   1       1.346   0.756   0.632  0.00  0.00     0.034 A 
ATOM      4  C3  UNL d   1       1.080  -0.460   1.272  0.00  0.00     0.017 A 
ATOM      5  C4  UNL d   1       1.713  -0.760   2.483  0.00  0.00     0.017 A 
ATOM      6  C5  UNL d   1       2.607   0.155   3.047  0.00  0.00     0.034 A 
ATOM      7 Cl   UNL d   1       1.435  -2.240   3.332  0.00  0.00    -0.070 Cl
ATOM      8 Cl1  UNL d   1      -0.036  -1.539   0.514  0.00  0.00    -0.070 Cl
ENDROOT
TORSDOF 0
ENDMDL
