MODEL 1
REMARK minimizedAffinity 8.834342
REMARK minimizedRMSD -1
REMARK  0 active torsions:
REMARK  status: ('A' for Active; 'I' for Inactive)
ROOT
ATOM      1  C   UNL d   1       3.061   2.244   4.109  0.00  0.00     0.020 A 
ATOM      2  C1  UNL d   1       2.734   3.007   2.989  0.00  0.00     0.020 A 
ATOM      3  C2  UNL d   1       2.167   2.395   1.869  0.00  0.00     0.034 A 
ATOM      4  C3  UNL d   1       1.925   1.017   1.867  0.00  0.00     0.017 A 
ATOM      5  C4  UNL d   1       2.254   0.252   2.992  0.00  0.00     0.017 A 
ATOM      6  C5  UNL d   1       2.822   0.869   4.110  0.00  0.00     0.034 A 
ATOM      7 Cl   UNL d   1       1.986  -1.454   3.063  0.00  0.00    -0.070 Cl
ATOM      8 Cl1  UNL d   1       1.221   0.327   0.448  0.00  0.00    -0.070 Cl
ENDROOT
TORSDOF 0
ENDMDL
