MODEL 1
REMARK minimizedAffinity 6.04662323
REMARK minimizedRMSD -1
REMARK  0 active torsions:
REMARK  status: ('A' for Active; 'I' for Inactive)
ROOT
ATOM      1  C   UNL d   1       1.319   2.280   0.050  0.00  0.00     0.020 A 
ATOM      2  C1  UNL d   1       2.377   2.289   0.958  0.00  0.00     0.020 A 
ATOM      3  C2  UNL d   1       2.511   1.251   1.882  0.00  0.00     0.034 A 
ATOM      4  C3  UNL d   1       1.587   0.200   1.901  0.00  0.00     0.017 A 
ATOM      5  C4  UNL d   1       0.525   0.192   0.989  0.00  0.00     0.017 A 
ATOM      6  C5  UNL d   1       0.395   1.234   0.065  0.00  0.00     0.034 A 
ATOM      7 Cl   UNL d   1      -0.655  -1.070   0.950  0.00  0.00    -0.070 Cl
ATOM      8 Cl1  UNL d   1       1.815  -1.051   3.071  0.00  0.00    -0.070 Cl
ENDROOT
TORSDOF 0
ENDMDL
