MODEL 1
REMARK minimizedAffinity 10.7347908
REMARK minimizedRMSD -1
REMARK  0 active torsions:
REMARK  status: ('A' for Active; 'I' for Inactive)
ROOT
ATOM      1  C   UNL d   1      -4.088   2.800   1.881  0.00  0.00     0.020 A 
ATOM      2  C1  UNL d   1      -5.355   3.382   1.908  0.00  0.00     0.020 A 
ATOM      3  C2  UNL d   1      -5.927   3.865   0.729  0.00  0.00     0.034 A 
ATOM      4  C3  UNL d   1      -5.232   3.767  -0.482  0.00  0.00     0.017 A 
ATOM      5  C4  UNL d   1      -3.961   3.183  -0.508  0.00  0.00     0.017 A 
ATOM      6  C5  UNL d   1      -3.393   2.701   0.675  0.00  0.00     0.034 A 
ATOM      7 Cl   UNL d   1      -3.042   3.027  -1.964  0.00  0.00    -0.070 Cl
ATOM      8 Cl1  UNL d   1      -6.000   4.385  -1.901  0.00  0.00    -0.070 Cl
ENDROOT
TORSDOF 0
ENDMDL
