MODEL 1
REMARK minimizedAffinity 4.12636328
REMARK minimizedRMSD -1
REMARK  0 active torsions:
REMARK  status: ('A' for Active; 'I' for Inactive)
ROOT
ATOM      1  C   UNL d   1      -2.884  -2.658  -2.524  0.00  0.00     0.020 A 
ATOM      2  C1  UNL d   1      -2.125  -3.764  -2.904  0.00  0.00     0.020 A 
ATOM      3  C2  UNL d   1      -0.889  -4.003  -2.300  0.00  0.00     0.034 A 
ATOM      4  C3  UNL d   1      -0.409  -3.136  -1.312  0.00  0.00     0.017 A 
ATOM      5  C4  UNL d   1      -1.172  -2.026  -0.931  0.00  0.00     0.017 A 
ATOM      6  C5  UNL d   1      -2.409  -1.791  -1.539  0.00  0.00     0.034 A 
ATOM      7 Cl   UNL d   1      -0.646  -0.912   0.281  0.00  0.00    -0.070 Cl
ATOM      8 Cl1  UNL d   1       1.127  -3.493  -0.607  0.00  0.00    -0.070 Cl
ENDROOT
TORSDOF 0
ENDMDL
