MODEL 1
REMARK minimizedAffinity 3.26008987
REMARK minimizedRMSD -1
REMARK  0 active torsions:
REMARK  status: ('A' for Active; 'I' for Inactive)
ROOT
ATOM      1  C   UNL d   1      -0.712  -1.004   0.650  0.00  0.00     0.020 A 
ATOM      2  C1  UNL d   1      -1.428   0.014   0.021  0.00  0.00     0.020 A 
ATOM      3  C2  UNL d   1      -0.847   1.273  -0.150  0.00  0.00     0.034 A 
ATOM      4  C3  UNL d   1       0.453   1.516   0.308  0.00  0.00     0.017 A 
ATOM      5  C4  UNL d   1       1.170   0.493   0.939  0.00  0.00     0.017 A 
ATOM      6  C5  UNL d   1       0.584  -0.765   1.107  0.00  0.00     0.034 A 
ATOM      7 Cl   UNL d   1       2.779   0.717   1.530  0.00  0.00    -0.070 Cl
ATOM      8 Cl1  UNL d   1       1.109   3.095   0.063  0.00  0.00    -0.070 Cl
ENDROOT
TORSDOF 0
ENDMDL
