MODEL 1
REMARK minimizedAffinity -4.43666029
REMARK minimizedRMSD -1
REMARK  0 active torsions:
REMARK  status: ('A' for Active; 'I' for Inactive)
ROOT
ATOM      1  C   UNL d   1       2.778  -1.493   3.761  0.00  0.00     0.020 A 
ATOM      2  C1  UNL d   1       3.526  -0.379   3.384  0.00  0.00     0.020 A 
ATOM      3  C2  UNL d   1       3.178   0.342   2.240  0.00  0.00     0.034 A 
ATOM      4  C3  UNL d   1       2.079  -0.051   1.468  0.00  0.00     0.017 A 
ATOM      5  C4  UNL d   1       1.328  -1.170   1.847  0.00  0.00     0.017 A 
ATOM      6  C5  UNL d   1       1.681  -1.888   2.994  0.00  0.00     0.034 A 
ATOM      7 Cl   UNL d   1      -0.042  -1.715   0.945  0.00  0.00    -0.070 Cl
ATOM      8 Cl1  UNL d   1       1.705   0.887   0.066  0.00  0.00    -0.070 Cl
ENDROOT
TORSDOF 0
ENDMDL
