MODEL 1
REMARK minimizedAffinity 10.98493
REMARK minimizedRMSD -1
REMARK  0 active torsions:
REMARK  status: ('A' for Active; 'I' for Inactive)
ROOT
ATOM      1  C   UNL d   1      -2.265  -2.462  -1.957  0.00  0.00     0.020 A 
ATOM      2  C1  UNL d   1      -1.615  -3.509  -2.611  0.00  0.00     0.020 A 
ATOM      3  C2  UNL d   1      -0.435  -4.036  -2.083  0.00  0.00     0.034 A 
ATOM      4  C3  UNL d   1       0.100  -3.518  -0.898  0.00  0.00     0.017 A 
ATOM      5  C4  UNL d   1      -0.553  -2.467  -0.243  0.00  0.00     0.017 A 
ATOM      6  C5  UNL d   1      -1.735  -1.943  -0.776  0.00  0.00     0.034 A 
ATOM      7 Cl   UNL d   1       0.046  -1.775   1.224  0.00  0.00    -0.070 Cl
ATOM      8 Cl1  UNL d   1       1.562  -4.218  -0.302  0.00  0.00    -0.070 Cl
ENDROOT
TORSDOF 0
ENDMDL
