MODEL 1
REMARK minimizedAffinity -4.09410143
REMARK minimizedRMSD -1
REMARK  0 active torsions:
REMARK  status: ('A' for Active; 'I' for Inactive)
ROOT
ATOM      1  C2' OXE d   1      -3.139   1.405  -1.817  0.00  0.00     0.078 C 
ATOM      2  C1' OXE d   1      -0.514   1.778  -0.894  0.00  0.00     0.078 C 
ATOM      3  C1  OXE d   1      -0.861   2.310  -2.262  0.00  0.00    -0.078 A 
ATOM      4  C2  OXE d   1      -2.134   2.081  -2.725  0.00  0.00    -0.078 A 
ATOM      5  C3  OXE d   1      -2.523   2.598  -3.958  0.00  0.00     0.003 A 
ATOM      6  C4  OXE d   1      -1.585   3.213  -4.796  0.00  0.00    -0.002 A 
ATOM      7  C5  OXE d   1      -0.272   3.420  -4.360  0.00  0.00    -0.002 A 
ATOM      8  C6  OXE d   1       0.094   3.013  -3.082  0.00  0.00     0.003 A 
ENDROOT
TORSDOF 0
ENDMDL
