MODEL 1
REMARK minimizedAffinity -4.83789396
REMARK minimizedRMSD -1
REMARK  0 active torsions:
REMARK  status: ('A' for Active; 'I' for Inactive)
ROOT
ATOM      1  C2' OXE d   1       1.746  -0.363  -0.311  0.00  0.00     0.078 C 
ATOM      2  C1' OXE d   1      -0.732   0.822   0.268  0.00  0.00     0.078 C 
ATOM      3  C1  OXE d   1      -0.248  -0.278   1.179  0.00  0.00    -0.078 A 
ATOM      4  C2  OXE d   1       0.943  -0.884   0.861  0.00  0.00    -0.078 A 
ATOM      5  C3  OXE d   1       1.462  -1.867   1.700  0.00  0.00     0.003 A 
ATOM      6  C4  OXE d   1       0.708  -2.350   2.776  0.00  0.00    -0.002 A 
ATOM      7  C5  OXE d   1      -0.526  -1.774   3.094  0.00  0.00    -0.002 A 
ATOM      8  C6  OXE d   1      -0.998  -0.710   2.332  0.00  0.00     0.003 A 
ENDROOT
TORSDOF 0
ENDMDL
