MODEL 1
REMARK minimizedAffinity -3.88711452
REMARK minimizedRMSD -1
REMARK  0 active torsions:
REMARK  status: ('A' for Active; 'I' for Inactive)
ROOT
ATOM      1  C2' OXE d   1       2.365  -1.013  -0.318  0.00  0.00     0.078 C 
ATOM      2  C1' OXE d   1       0.036   0.555  -0.319  0.00  0.00     0.078 C 
ATOM      3  C1  OXE d   1       0.261  -0.370   0.851  0.00  0.00    -0.078 A 
ATOM      4  C2  OXE d   1       1.380  -1.168   0.821  0.00  0.00    -0.078 A 
ATOM      5  C3  OXE d   1       1.664  -1.999   1.900  0.00  0.00     0.003 A 
ATOM      6  C4  OXE d   1       0.743  -2.143   2.945  0.00  0.00    -0.002 A 
ATOM      7  C5  OXE d   1      -0.422  -1.369   2.976  0.00  0.00    -0.002 A 
ATOM      8  C6  OXE d   1      -0.656  -0.449   1.961  0.00  0.00     0.003 A 
ENDROOT
TORSDOF 0
ENDMDL
