MODEL 1
REMARK minimizedAffinity -5.26095295
REMARK minimizedRMSD -1
REMARK  0 active torsions:
REMARK  status: ('A' for Active; 'I' for Inactive)
ROOT
ATOM      1  C2' OXE d   1       2.190  -1.808   0.933  0.00  0.00     0.078 C 
ATOM      2  C1' OXE d   1       0.857   0.362  -0.248  0.00  0.00     0.078 C 
ATOM      3  C1  OXE d   1       0.273  -0.219   1.016  0.00  0.00    -0.078 A 
ATOM      4  C2  OXE d   1       0.906  -1.311   1.561  0.00  0.00    -0.078 A 
ATOM      5  C3  OXE d   1       0.440  -1.852   2.756  0.00  0.00     0.003 A 
ATOM      6  C4  OXE d   1      -0.753  -1.392   3.325  0.00  0.00    -0.002 A 
ATOM      7  C5  OXE d   1      -1.435  -0.307   2.764  0.00  0.00    -0.002 A 
ATOM      8  C6  OXE d   1      -0.914   0.317   1.636  0.00  0.00     0.003 A 
ENDROOT
TORSDOF 0
ENDMDL
