MODEL 1
REMARK minimizedAffinity 0.0718141422
REMARK minimizedRMSD -1
REMARK  0 active torsions:
REMARK  status: ('A' for Active; 'I' for Inactive)
ROOT
ATOM      1  C2' OXE d   1       1.969  -1.782   0.724  0.00  0.00     0.078 C 
ATOM      2  C1' OXE d   1       2.641   0.256  -1.085  0.00  0.00     0.078 C 
ATOM      3  C1  OXE d   1       1.263   0.285  -0.473  0.00  0.00    -0.078 A 
ATOM      4  C2  OXE d   1       0.926  -0.742   0.375  0.00  0.00    -0.078 A 
ATOM      5  C3  OXE d   1      -0.313  -0.735   1.010  0.00  0.00     0.003 A 
ATOM      6  C4  OXE d   1      -1.275   0.225   0.674  0.00  0.00    -0.002 A 
ATOM      7  C5  OXE d   1      -0.967   1.258  -0.218  0.00  0.00    -0.002 A 
ATOM      8  C6  OXE d   1       0.309   1.326  -0.767  0.00  0.00     0.003 A 
ENDROOT
TORSDOF 0
ENDMDL
