MODEL 1
REMARK minimizedAffinity -5.04117107
REMARK minimizedRMSD -1
REMARK  0 active torsions:
REMARK  status: ('A' for Active; 'I' for Inactive)
ROOT
ATOM      1  C2' OXE d   1      -1.386  -1.297   2.402  0.00  0.00     0.078 C 
ATOM      2  C1' OXE d   1      -0.873   0.561   0.362  0.00  0.00     0.078 C 
ATOM      3  C1  OXE d   1       0.240  -0.377   0.755  0.00  0.00    -0.078 A 
ATOM      4  C2  OXE d   1      -0.004  -1.251   1.786  0.00  0.00    -0.078 A 
ATOM      5  C3  OXE d   1       0.970  -2.175   2.152  0.00  0.00     0.003 A 
ATOM      6  C4  OXE d   1       2.249  -2.120   1.584  0.00  0.00    -0.002 A 
ATOM      7  C5  OXE d   1       2.532  -1.210   0.560  0.00  0.00    -0.002 A 
ATOM      8  C6  OXE d   1       1.528  -0.362   0.105  0.00  0.00     0.003 A 
ENDROOT
TORSDOF 0
ENDMDL
