MODEL 1
REMARK minimizedAffinity -5.00359249
REMARK minimizedRMSD -1
REMARK  0 active torsions:
REMARK  status: ('A' for Active; 'I' for Inactive)
ROOT
ATOM      1  C2' OXE d   1       2.329  -1.167  -0.275  0.00  0.00     0.078 C 
ATOM      2  C1' OXE d   1      -0.039   0.340  -0.290  0.00  0.00     0.078 C 
ATOM      3  C1  OXE d   1       0.110  -0.727   0.766  0.00  0.00    -0.078 A 
ATOM      4  C2  OXE d   1       1.251  -1.491   0.737  0.00  0.00    -0.078 A 
ATOM      5  C3  OXE d   1       1.463  -2.452   1.721  0.00  0.00     0.003 A 
ATOM      6  C4  OXE d   1       0.457  -2.752   2.647  0.00  0.00    -0.002 A 
ATOM      7  C5  OXE d   1      -0.731  -2.013   2.670  0.00  0.00    -0.002 A 
ATOM      8  C6  OXE d   1      -0.902  -0.971   1.765  0.00  0.00     0.003 A 
ENDROOT
TORSDOF 0
ENDMDL
