MODEL 1
REMARK minimizedAffinity -4.45954323
REMARK minimizedRMSD -1
REMARK  0 active torsions:
REMARK  status: ('A' for Active; 'I' for Inactive)
ROOT
ATOM      1  C2' OXE d   1       1.524   0.763  -0.347  0.00  0.00     0.078 C 
ATOM      2  C1' OXE d   1      -1.015   1.157   0.784  0.00  0.00     0.078 C 
ATOM      3  C1  OXE d   1      -0.248  -0.077   1.189  0.00  0.00    -0.078 A 
ATOM      4  C2  OXE d   1       0.973  -0.286   0.595  0.00  0.00    -0.078 A 
ATOM      5  C3  OXE d   1       1.746  -1.380   0.974  0.00  0.00     0.003 A 
ATOM      6  C4  OXE d   1       1.226  -2.350   1.839  0.00  0.00    -0.002 A 
ATOM      7  C5  OXE d   1      -0.033  -2.177   2.425  0.00  0.00    -0.002 A 
ATOM      8  C6  OXE d   1      -0.763  -1.028   2.144  0.00  0.00     0.003 A 
ENDROOT
TORSDOF 0
ENDMDL
