MODEL 1
REMARK minimizedAffinity -5.71858644
REMARK minimizedRMSD -1
REMARK  0 active torsions:
REMARK  status: ('A' for Active; 'I' for Inactive)
ROOT
ATOM      1  C2' OXE d   1       0.965  -2.683   1.492  0.00  0.00     0.078 C 
ATOM      2  C1' OXE d   1      -1.423  -1.433   2.275  0.00  0.00     0.078 C 
ATOM      3  C1  OXE d   1      -0.564  -0.732   1.252  0.00  0.00    -0.078 A 
ATOM      4  C2  OXE d   1       0.625  -1.328   0.909  0.00  0.00    -0.078 A 
ATOM      5  C3  OXE d   1       1.429  -0.752  -0.070  0.00  0.00     0.003 A 
ATOM      6  C4  OXE d   1       1.112   0.507  -0.596  0.00  0.00    -0.002 A 
ATOM      7  C5  OXE d   1      -0.075   1.150  -0.232  0.00  0.00    -0.002 A 
ATOM      8  C6  OXE d   1      -0.943   0.526   0.657  0.00  0.00     0.003 A 
ENDROOT
TORSDOF 0
ENDMDL
