MODEL 1
REMARK minimizedAffinity -4.08123922
REMARK minimizedRMSD -1
REMARK  0 active torsions:
REMARK  status: ('A' for Active; 'I' for Inactive)
ROOT
ATOM      1  C2' OXE d   1      -0.704   0.753  -0.369  0.00  0.00     0.078 C 
ATOM      2  C1' OXE d   1       1.966   0.255  -1.078  0.00  0.00     0.078 C 
ATOM      3  C1  OXE d   1       1.344  -0.620  -0.019  0.00  0.00    -0.078 A 
ATOM      4  C2  OXE d   1       0.052  -0.339   0.355  0.00  0.00    -0.078 A 
ATOM      5  C3  OXE d   1      -0.587  -1.151   1.289  0.00  0.00     0.003 A 
ATOM      6  C4  OXE d   1       0.123  -2.153   1.961  0.00  0.00    -0.002 A 
ATOM      7  C5  OXE d   1       1.452  -2.430   1.623  0.00  0.00    -0.002 A 
ATOM      8  C6  OXE d   1       2.063  -1.702   0.608  0.00  0.00     0.003 A 
ENDROOT
TORSDOF 0
ENDMDL
