MODEL 1
REMARK minimizedAffinity -3.09598112
REMARK minimizedRMSD -1
REMARK  0 active torsions:
REMARK  status: ('A' for Active; 'I' for Inactive)
ROOT
ATOM      1  C2' OXE d   1       1.141  -0.032  -0.151  0.00  0.00     0.078 C 
ATOM      2  C1' OXE d   1      -1.454   0.619   0.700  0.00  0.00     0.078 C 
ATOM      3  C1  OXE d   1      -0.764  -0.543   1.370  0.00  0.00    -0.078 A 
ATOM      4  C2  OXE d   1       0.487  -0.884   0.915  0.00  0.00    -0.078 A 
ATOM      5  C3  OXE d   1       1.190  -1.913   1.536  0.00  0.00     0.003 A 
ATOM      6  C4  OXE d   1       0.574  -2.702   2.515  0.00  0.00    -0.002 A 
ATOM      7  C5  OXE d   1      -0.715  -2.397   2.965  0.00  0.00    -0.002 A 
ATOM      8  C6  OXE d   1      -1.380  -1.297   2.434  0.00  0.00     0.003 A 
ENDROOT
TORSDOF 0
ENDMDL
