MODEL 1
REMARK minimizedAffinity -6.17002058
REMARK minimizedRMSD -1
REMARK  0 active torsions:
REMARK  status: ('A' for Active; 'I' for Inactive)
ROOT
ATOM      1  C2' OXE d   1      -0.590   0.441   0.044  0.00  0.00     0.078 C 
ATOM      2  C1' OXE d   1      -1.741  -0.664   2.354  0.00  0.00     0.078 C 
ATOM      3  C1  OXE d   1      -0.473  -1.291   1.830  0.00  0.00    -0.078 A 
ATOM      4  C2  OXE d   1       0.058  -0.773   0.673  0.00  0.00    -0.078 A 
ATOM      5  C3  OXE d   1       1.256  -1.279   0.177  0.00  0.00     0.003 A 
ATOM      6  C4  OXE d   1       1.843  -2.409   0.759  0.00  0.00    -0.002 A 
ATOM      7  C5  OXE d   1       1.297  -2.977   1.915  0.00  0.00    -0.002 A 
ATOM      8  C6  OXE d   1       0.166  -2.405   2.487  0.00  0.00     0.003 A 
ENDROOT
TORSDOF 0
ENDMDL
