MODEL 1
REMARK minimizedAffinity -5.45748043
REMARK minimizedRMSD -1
REMARK  0 active torsions:
REMARK  status: ('A' for Active; 'I' for Inactive)
ROOT
ATOM      1  C2' OXE d   1       2.596   0.780  -0.749  0.00  0.00     0.078 C 
ATOM      2  C1' OXE d   1      -0.106   1.479  -0.445  0.00  0.00     0.078 C 
ATOM      3  C1  OXE d   1       0.320   0.104   0.005  0.00  0.00    -0.078 A 
ATOM      4  C2  OXE d   1       1.634  -0.247  -0.191  0.00  0.00    -0.078 A 
ATOM      5  C3  OXE d   1       2.091  -1.483   0.256  0.00  0.00     0.003 A 
ATOM      6  C4  OXE d   1       1.193  -2.430   0.763  0.00  0.00    -0.002 A 
ATOM      7  C5  OXE d   1      -0.157  -2.108   0.933  0.00  0.00    -0.002 A 
ATOM      8  C6  OXE d   1      -0.601  -0.833   0.600  0.00  0.00     0.003 A 
ENDROOT
TORSDOF 0
ENDMDL
