MODEL 1
REMARK minimizedAffinity -3.17409611
REMARK minimizedRMSD -1
REMARK  0 active torsions:
REMARK  status: ('A' for Active; 'I' for Inactive)
ROOT
ATOM      1  C2' OXE d   1      -2.014  -1.465   2.114  0.00  0.00     0.078 C 
ATOM      2  C1' OXE d   1       0.279  -2.528   0.892  0.00  0.00     0.078 C 
ATOM      3  C1  OXE d   1      -0.073  -1.091   0.597  0.00  0.00    -0.078 A 
ATOM      4  C2  OXE d   1      -1.223  -0.594   1.162  0.00  0.00    -0.078 A 
ATOM      5  C3  OXE d   1      -1.565   0.741   0.967  0.00  0.00     0.003 A 
ATOM      6  C4  OXE d   1      -0.833   1.538   0.078  0.00  0.00    -0.002 A 
ATOM      7  C5  OXE d   1       0.318   1.039  -0.539  0.00  0.00    -0.002 A 
ATOM      8  C6  OXE d   1       0.735  -0.257  -0.258  0.00  0.00     0.003 A 
ENDROOT
TORSDOF 0
ENDMDL
