MODEL 1
REMARK minimizedAffinity -4.87908554
REMARK minimizedRMSD -1
REMARK  0 active torsions:
REMARK  status: ('A' for Active; 'I' for Inactive)
ROOT
ATOM      1  C2' OXE d   1      -0.564   0.973  -0.531  0.00  0.00     0.078 C 
ATOM      2  C1' OXE d   1       2.113   0.478  -1.219  0.00  0.00     0.078 C 
ATOM      3  C1  OXE d   1       1.426  -0.510  -0.310  0.00  0.00    -0.078 A 
ATOM      4  C2  OXE d   1       0.131  -0.235   0.059  0.00  0.00    -0.078 A 
ATOM      5  C3  OXE d   1      -0.567  -1.141   0.852  0.00  0.00     0.003 A 
ATOM      6  C4  OXE d   1       0.085  -2.251   1.402  0.00  0.00    -0.002 A 
ATOM      7  C5  OXE d   1       1.416  -2.528   1.072  0.00  0.00    -0.002 A 
ATOM      8  C6  OXE d   1       2.086  -1.692   0.185  0.00  0.00     0.003 A 
ENDROOT
TORSDOF 0
ENDMDL
