MODEL 1
REMARK minimizedAffinity -6.20581436
REMARK minimizedRMSD -1
REMARK  0 active torsions:
REMARK  status: ('A' for Active; 'I' for Inactive)
ROOT
ATOM      1  C2' OXE d   1      -1.223   0.159   0.581  0.00  0.00     0.078 C 
ATOM      2  C1' OXE d   1      -1.807  -1.440   2.812  0.00  0.00     0.078 C 
ATOM      3  C1  OXE d   1      -0.534  -1.727   2.056  0.00  0.00    -0.078 A 
ATOM      4  C2  OXE d   1      -0.280  -0.970   0.938  0.00  0.00    -0.078 A 
ATOM      5  C3  OXE d   1       0.907  -1.156   0.235  0.00  0.00     0.003 A 
ATOM      6  C4  OXE d   1       1.769  -2.209   0.566  0.00  0.00    -0.002 A 
ATOM      7  C5  OXE d   1       1.509  -3.017   1.677  0.00  0.00    -0.002 A 
ATOM      8  C6  OXE d   1       0.385  -2.763   2.456  0.00  0.00     0.003 A 
ENDROOT
TORSDOF 0
ENDMDL
