MODEL 1
REMARK minimizedAffinity -3.27161455
REMARK minimizedRMSD -1
REMARK  0 active torsions:
REMARK  status: ('A' for Active; 'I' for Inactive)
ROOT
ATOM      1  C2' OXE d   1       1.516  -2.606   0.776  0.00  0.00     0.078 C 
ATOM      2  C1' OXE d   1      -0.951  -1.581   1.638  0.00  0.00     0.078 C 
ATOM      3  C1  OXE d   1      -0.125  -0.733   0.703  0.00  0.00    -0.078 A 
ATOM      4  C2  OXE d   1       1.102  -1.222   0.324  0.00  0.00    -0.078 A 
ATOM      5  C3  OXE d   1       1.880  -0.505  -0.580  0.00  0.00     0.003 A 
ATOM      6  C4  OXE d   1       1.494   0.779  -0.986  0.00  0.00    -0.002 A 
ATOM      7  C5  OXE d   1       0.267   1.312  -0.579  0.00  0.00    -0.002 A 
ATOM      8  C6  OXE d   1      -0.572   0.553   0.229  0.00  0.00     0.003 A 
ENDROOT
TORSDOF 0
ENDMDL
