MODEL 1
REMARK minimizedAffinity 9.07604218
REMARK minimizedRMSD -1
REMARK  1 active torsions:
REMARK  status: ('A' for Active; 'I' for Inactive)
REMARK    1  A    between atoms: C1_2  and  C2_3 
ROOT
ATOM      1  C2  UNL d   1      -1.702  -1.883   3.801  0.00  0.00    -0.081 A 
ATOM      2  C3  UNL d   1      -2.504  -0.739   3.705  0.00  0.00     0.006 A 
ATOM      3  C4  UNL d   1      -3.713  -0.661   4.400  0.00  0.00     0.002 A 
ATOM      4  C5  UNL d   1      -4.136  -1.721   5.210  0.00  0.00    -0.080 A 
ATOM      5  C6  UNL d   1      -5.417  -1.637   5.986  0.00  0.00     0.076 C 
ATOM      6  C7  UNL d   1      -3.343  -2.871   5.292  0.00  0.00     0.002 A 
ATOM      7  C8  UNL d   1      -2.135  -2.950   4.596  0.00  0.00     0.006 A 
ENDROOT
BRANCH   1   8
ATOM      8  C1  UNL d   1      -0.368  -1.944   3.103  0.00  0.00     0.054 C 
ATOM      9  C   UNL d   1       0.660  -2.692   3.940  0.00  0.00     0.018 C 
ENDBRANCH   1   8
TORSDOF 1
ENDMDL
