MODEL 1
REMARK minimizedAffinity 15.2222366
REMARK minimizedRMSD -1
REMARK  1 active torsions:
REMARK  status: ('A' for Active; 'I' for Inactive)
REMARK    1  A    between atoms: C1_2  and  C2_3 
ROOT
ATOM      1  C2  UNL d   1      -3.003  -4.534  -5.161  0.00  0.00    -0.081 A 
ATOM      2  C3  UNL d   1      -2.109  -5.490  -5.658  0.00  0.00     0.006 A 
ATOM      3  C4  UNL d   1      -1.041  -5.935  -4.875  0.00  0.00     0.002 A 
ATOM      4  C5  UNL d   1      -0.855  -5.439  -3.581  0.00  0.00    -0.080 A 
ATOM      5  C6  UNL d   1       0.270  -5.931  -2.718  0.00  0.00     0.076 C 
ATOM      6  C7  UNL d   1      -1.738  -4.471  -3.090  0.00  0.00     0.002 A 
ATOM      7  C8  UNL d   1      -2.806  -4.025  -3.873  0.00  0.00     0.006 A 
ENDROOT
BRANCH   1   8
ATOM      8  C1  UNL d   1      -4.193  -4.100  -5.978  0.00  0.00     0.054 C 
ATOM      9  C   UNL d   1      -5.271  -5.174  -6.000  0.00  0.00     0.018 C 
ENDBRANCH   1   8
TORSDOF 1
ENDMDL
