MODEL 1
REMARK minimizedAffinity 4.07311726
REMARK minimizedRMSD -1
REMARK  1 active torsions:
REMARK  status: ('A' for Active; 'I' for Inactive)
REMARK    1  A    between atoms: C1_2  and  C2_3 
ROOT
ATOM      1  C2  UNL d   1      -2.930  -5.985  -5.241  0.00  0.00    -0.081 A 
ATOM      2  C3  UNL d   1      -2.919  -5.918  -3.843  0.00  0.00     0.006 A 
ATOM      3  C4  UNL d   1      -1.711  -5.844  -3.146  0.00  0.00     0.002 A 
ATOM      4  C5  UNL d   1      -0.494  -5.828  -3.836  0.00  0.00    -0.080 A 
ATOM      5  C6  UNL d   1       0.810  -5.719  -3.102  0.00  0.00     0.076 C 
ATOM      6  C7  UNL d   1      -0.503  -5.913  -5.233  0.00  0.00     0.002 A 
ATOM      7  C8  UNL d   1      -1.712  -5.987  -5.929  0.00  0.00     0.006 A 
ENDROOT
BRANCH   1   8
ATOM      8  C1  UNL d   1      -4.233  -5.999  -5.998  0.00  0.00     0.054 C 
ATOM      9  C   UNL d   1      -4.889  -4.625  -5.996  0.00  0.00     0.018 C 
ENDBRANCH   1   8
TORSDOF 1
ENDMDL
