MODEL 1
REMARK minimizedAffinity 0.213733822
REMARK minimizedRMSD -1
REMARK  1 active torsions:
REMARK  status: ('A' for Active; 'I' for Inactive)
REMARK    1  A    between atoms: C1_2  and  C2_3 
ROOT
ATOM      1  C2  UNL d   1      -0.187  -1.464   1.673  0.00  0.00    -0.081 A 
ATOM      2  C3  UNL d   1      -1.232  -1.777   2.551  0.00  0.00     0.006 A 
ATOM      3  C4  UNL d   1      -1.012  -2.625   3.639  0.00  0.00     0.002 A 
ATOM      4  C5  UNL d   1       0.256  -3.169   3.870  0.00  0.00    -0.080 A 
ATOM      5  C6  UNL d   1       0.512  -4.058   5.051  0.00  0.00     0.076 C 
ATOM      6  C7  UNL d   1       1.295  -2.871   2.983  0.00  0.00     0.002 A 
ATOM      7  C8  UNL d   1       1.076  -2.023   1.895  0.00  0.00     0.006 A 
ENDROOT
BRANCH   1   8
ATOM      8  C1  UNL d   1      -0.405  -0.498   0.537  0.00  0.00     0.054 C 
ATOM      9  C   UNL d   1       0.745  -0.547  -0.459  0.00  0.00     0.018 C 
ENDBRANCH   1   8
TORSDOF 1
ENDMDL
