MODEL 1
REMARK minimizedAffinity 2.62432623
REMARK minimizedRMSD -1
REMARK  1 active torsions:
REMARK  status: ('A' for Active; 'I' for Inactive)
REMARK    1  A    between atoms: C1_2  and  C2_3 
ROOT
ATOM      1  C2  UNL d   1      -0.359   3.075  -3.132  0.00  0.00    -0.081 A 
ATOM      2  C3  UNL d   1      -0.624   2.827  -1.779  0.00  0.00     0.006 A 
ATOM      3  C4  UNL d   1      -1.809   3.279  -1.195  0.00  0.00     0.002 A 
ATOM      4  C5  UNL d   1      -2.753   3.979  -1.955  0.00  0.00    -0.080 A 
ATOM      5  C6  UNL d   1      -4.043   4.444  -1.348  0.00  0.00     0.076 C 
ATOM      6  C7  UNL d   1      -2.480   4.243  -3.302  0.00  0.00     0.002 A 
ATOM      7  C8  UNL d   1      -1.294   3.792  -3.886  0.00  0.00     0.006 A 
ENDROOT
BRANCH   1   8
ATOM      8  C1  UNL d   1       0.889   2.533  -3.780  0.00  0.00     0.054 C 
ATOM      9  C   UNL d   1       1.629   1.583  -2.849  0.00  0.00     0.018 C 
ENDBRANCH   1   8
TORSDOF 1
ENDMDL
