MODEL 1
REMARK minimizedAffinity 10.143528
REMARK minimizedRMSD -1
REMARK  1 active torsions:
REMARK  status: ('A' for Active; 'I' for Inactive)
REMARK    1  A    between atoms: C1_2  and  C2_3 
ROOT
ATOM      1  C2  UNL d   1       3.818  -0.665   1.489  0.00  0.00    -0.081 A 
ATOM      2  C3  UNL d   1       3.343   0.627   1.232  0.00  0.00     0.006 A 
ATOM      3  C4  UNL d   1       2.051   0.822   0.738  0.00  0.00     0.002 A 
ATOM      4  C5  UNL d   1       1.211  -0.271   0.500  0.00  0.00    -0.080 A 
ATOM      5  C6  UNL d   1      -0.189  -0.074  -0.003  0.00  0.00     0.076 C 
ATOM      6  C7  UNL d   1       1.691  -1.563   0.739  0.00  0.00     0.002 A 
ATOM      7  C8  UNL d   1       2.983  -1.758   1.233  0.00  0.00     0.006 A 
ENDROOT
BRANCH   1   8
ATOM      8  C1  UNL d   1       5.188  -0.874   2.083  0.00  0.00     0.054 C 
ATOM      9  C   UNL d   1       5.999  -1.869   1.266  0.00  0.00     0.018 C 
ENDBRANCH   1   8
TORSDOF 1
ENDMDL
