MODEL 1
REMARK minimizedAffinity 5.17365599
REMARK minimizedRMSD -1
REMARK  1 active torsions:
REMARK  status: ('A' for Active; 'I' for Inactive)
REMARK    1  A    between atoms: C1_2  and  C2_3 
ROOT
ATOM      1  C2  UNL d   1      -3.322  -5.855  -5.139  0.00  0.00    -0.081 A 
ATOM      2  C3  UNL d   1      -2.193  -5.865  -5.967  0.00  0.00     0.006 A 
ATOM      3  C4  UNL d   1      -0.910  -5.824  -5.416  0.00  0.00     0.002 A 
ATOM      4  C5  UNL d   1      -0.734  -5.781  -4.028  0.00  0.00    -0.080 A 
ATOM      5  C6  UNL d   1       0.638  -5.767  -3.423  0.00  0.00     0.076 C 
ATOM      6  C7  UNL d   1      -1.863  -5.754  -3.201  0.00  0.00     0.002 A 
ATOM      7  C8  UNL d   1      -3.146  -5.794  -3.752  0.00  0.00     0.006 A 
ENDROOT
BRANCH   1   8
ATOM      8  C1  UNL d   1      -4.705  -5.965  -5.727  0.00  0.00     0.054 C 
ATOM      9  C   UNL d   1      -5.302  -4.591  -5.998  0.00  0.00     0.018 C 
ENDBRANCH   1   8
TORSDOF 1
ENDMDL
