MODEL 1
REMARK minimizedAffinity 1.10545409
REMARK minimizedRMSD -1
REMARK  1 active torsions:
REMARK  status: ('A' for Active; 'I' for Inactive)
REMARK    1  A    between atoms: C1_2  and  C2_3 
ROOT
ATOM      1  C2  UNL d   1      -2.038  -5.234  -5.530  0.00  0.00    -0.081 A 
ATOM      2  C3  UNL d   1      -3.192  -6.000  -5.737  0.00  0.00     0.006 A 
ATOM      3  C4  UNL d   1      -4.436  -5.381  -5.877  0.00  0.00     0.002 A 
ATOM      4  C5  UNL d   1      -4.547  -3.988  -5.821  0.00  0.00    -0.080 A 
ATOM      5  C6  UNL d   1      -5.873  -3.309  -6.000  0.00  0.00     0.076 C 
ATOM      6  C7  UNL d   1      -3.397  -3.224  -5.597  0.00  0.00     0.002 A 
ATOM      7  C8  UNL d   1      -2.152  -3.841  -5.456  0.00  0.00     0.006 A 
ENDROOT
BRANCH   1   8
ATOM      8  C1  UNL d   1      -0.685  -5.894  -5.444  0.00  0.00     0.054 C 
ATOM      9  C   UNL d   1       0.021  -5.540  -4.143  0.00  0.00     0.018 C 
ENDBRANCH   1   8
TORSDOF 1
ENDMDL
