MODEL 1
REMARK minimizedAffinity 17.3648968
REMARK minimizedRMSD -1
REMARK  1 active torsions:
REMARK  status: ('A' for Active; 'I' for Inactive)
REMARK    1  A    between atoms: C1_2  and  C2_3 
ROOT
ATOM      1  C2  UNL d   1      -0.043  -2.242   1.944  0.00  0.00    -0.081 A 
ATOM      2  C3  UNL d   1       1.266  -2.602   1.599  0.00  0.00     0.006 A 
ATOM      3  C4  UNL d   1       2.042  -3.369   2.470  0.00  0.00     0.002 A 
ATOM      4  C5  UNL d   1       1.521  -3.795   3.697  0.00  0.00    -0.080 A 
ATOM      5  C6  UNL d   1       2.334  -4.645   4.628  0.00  0.00     0.076 C 
ATOM      6  C7  UNL d   1       0.220  -3.421   4.049  0.00  0.00     0.002 A 
ATOM      7  C8  UNL d   1      -0.557  -2.654   3.178  0.00  0.00     0.006 A 
ENDROOT
BRANCH   1   8
ATOM      8  C1  UNL d   1      -0.905  -1.469   0.978  0.00  0.00     0.054 C 
ATOM      9  C   UNL d   1      -0.077  -0.490   0.159  0.00  0.00     0.018 C 
ENDBRANCH   1   8
TORSDOF 1
ENDMDL
