MODEL 1
REMARK minimizedAffinity 0.35755676
REMARK minimizedRMSD -1
REMARK  1 active torsions:
REMARK  status: ('A' for Active; 'I' for Inactive)
REMARK    1  A    between atoms: C1_2  and  C2_3 
ROOT
ATOM      1  C2  UNL d   1       1.533  -0.052   0.346  0.00  0.00    -0.081 A 
ATOM      2  C3  UNL d   1       2.006  -1.365   0.229  0.00  0.00     0.006 A 
ATOM      3  C4  UNL d   1       3.279  -1.703   0.696  0.00  0.00     0.002 A 
ATOM      4  C5  UNL d   1       4.095  -0.737   1.293  0.00  0.00    -0.080 A 
ATOM      5  C6  UNL d   1       5.451  -1.094   1.826  0.00  0.00     0.076 C 
ATOM      6  C7  UNL d   1       3.630   0.578   1.394  0.00  0.00     0.002 A 
ATOM      7  C8  UNL d   1       2.358   0.917   0.927  0.00  0.00     0.006 A 
ENDROOT
BRANCH   1   8
ATOM      8  C1  UNL d   1       0.136   0.302  -0.098  0.00  0.00     0.054 C 
ATOM      9  C   UNL d   1      -0.847  -0.812   0.232  0.00  0.00     0.018 C 
ENDBRANCH   1   8
TORSDOF 1
ENDMDL
