MODEL 1
REMARK minimizedAffinity -0.830167174
REMARK minimizedRMSD -1
REMARK  1 active torsions:
REMARK  status: ('A' for Active; 'I' for Inactive)
REMARK    1  A    between atoms: C1_2  and  C2_3 
ROOT
ATOM      1  C2  UNL d   1      -4.450  -2.663  -4.381  0.00  0.00    -0.081 A 
ATOM      2  C3  UNL d   1      -5.300  -1.629  -4.789  0.00  0.00     0.006 A 
ATOM      3  C4  UNL d   1      -5.814  -0.724  -3.857  0.00  0.00     0.002 A 
ATOM      4  C5  UNL d   1      -5.480  -0.834  -2.503  0.00  0.00    -0.080 A 
ATOM      5  C6  UNL d   1      -6.000   0.148  -1.496  0.00  0.00     0.076 C 
ATOM      6  C7  UNL d   1      -4.644  -1.878  -2.092  0.00  0.00     0.002 A 
ATOM      7  C8  UNL d   1      -4.131  -2.783  -3.024  0.00  0.00     0.006 A 
ENDROOT
BRANCH   1   8
ATOM      8  C1  UNL d   1      -3.843  -3.601  -5.393  0.00  0.00     0.054 C 
ATOM      9  C   UNL d   1      -2.499  -4.135  -4.916  0.00  0.00     0.018 C 
ENDBRANCH   1   8
TORSDOF 1
ENDMDL
