MODEL 1
REMARK minimizedAffinity -1.5429852
REMARK minimizedRMSD -1
REMARK  1 active torsions:
REMARK  status: ('A' for Active; 'I' for Inactive)
REMARK    1  A    between atoms: C1_2  and  C2_3 
ROOT
ATOM      1  C2  UNL d   1      -3.793  -2.644  -4.576  0.00  0.00    -0.081 A 
ATOM      2  C3  UNL d   1      -3.427  -2.866  -3.243  0.00  0.00     0.006 A 
ATOM      3  C4  UNL d   1      -4.090  -2.205  -2.207  0.00  0.00     0.002 A 
ATOM      4  C5  UNL d   1      -5.135  -1.317  -2.486  0.00  0.00    -0.080 A 
ATOM      5  C6  UNL d   1      -5.875  -0.623  -1.381  0.00  0.00     0.076 C 
ATOM      6  C7  UNL d   1      -5.489  -1.082  -3.819  0.00  0.00     0.002 A 
ATOM      7  C8  UNL d   1      -4.826  -1.743  -4.855  0.00  0.00     0.006 A 
ENDROOT
BRANCH   1   8
ATOM      8  C1  UNL d   1      -3.123  -3.405  -5.692  0.00  0.00     0.054 C 
ATOM      9  C   UNL d   1      -2.477  -4.684  -5.179  0.00  0.00     0.018 C 
ENDBRANCH   1   8
TORSDOF 1
ENDMDL
