MODEL 1
REMARK minimizedAffinity 5.32757187
REMARK minimizedRMSD -1
REMARK  1 active torsions:
REMARK  status: ('A' for Active; 'I' for Inactive)
REMARK    1  A    between atoms: C1_2  and  C2_3 
ROOT
ATOM      1  C2  UNL d   1      -5.729  -0.193  -4.049  0.00  0.00    -0.081 A 
ATOM      2  C3  UNL d   1      -5.594  -1.477  -3.508  0.00  0.00     0.006 A 
ATOM      3  C4  UNL d   1      -5.665  -1.675  -2.127  0.00  0.00     0.002 A 
ATOM      4  C5  UNL d   1      -5.881  -0.594  -1.265  0.00  0.00    -0.080 A 
ATOM      5  C6  UNL d   1      -5.989  -0.796   0.217  0.00  0.00     0.076 C 
ATOM      6  C7  UNL d   1      -5.998   0.692  -1.804  0.00  0.00     0.002 A 
ATOM      7  C8  UNL d   1      -5.926   0.890  -3.185  0.00  0.00     0.006 A 
ENDROOT
BRANCH   1   8
ATOM      8  C1  UNL d   1      -5.717   0.015  -5.542  0.00  0.00     0.054 C 
ATOM      9  C   UNL d   1      -4.427   0.680  -5.998  0.00  0.00     0.018 C 
ENDBRANCH   1   8
TORSDOF 1
ENDMDL
