MODEL 1
REMARK minimizedAffinity 2.57013249
REMARK minimizedRMSD -1
REMARK  1 active torsions:
REMARK  status: ('A' for Active; 'I' for Inactive)
REMARK    1  A    between atoms: C1_2  and  C2_3 
ROOT
ATOM      1  C2  UNL d   1      -4.200  -4.316  -5.372  0.00  0.00    -0.081 A 
ATOM      2  C3  UNL d   1      -3.271  -5.156  -6.000  0.00  0.00     0.006 A 
ATOM      3  C4  UNL d   1      -2.049  -5.443  -5.388  0.00  0.00     0.002 A 
ATOM      4  C5  UNL d   1      -1.738  -4.902  -4.136  0.00  0.00    -0.080 A 
ATOM      5  C6  UNL d   1      -0.441  -5.226  -3.455  0.00  0.00     0.076 C 
ATOM      6  C7  UNL d   1      -2.657  -4.049  -3.517  0.00  0.00     0.002 A 
ATOM      7  C8  UNL d   1      -3.880  -3.761  -4.129  0.00  0.00     0.006 A 
ENDROOT
BRANCH   1   8
ATOM      8  C1  UNL d   1      -5.545  -4.057  -6.000  0.00  0.00     0.054 C 
ATOM      9  C   UNL d   1      -5.882  -2.573  -5.994  0.00  0.00     0.018 C 
ENDBRANCH   1   8
TORSDOF 1
ENDMDL
