MODEL 1
REMARK minimizedAffinity 1.109972
REMARK minimizedRMSD -1
REMARK  1 active torsions:
REMARK  status: ('A' for Active; 'I' for Inactive)
REMARK    1  A    between atoms: N_2  and  C1_3 
ROOT
ATOM      1  C1  UNL d   1      -3.655  -1.108   2.485  0.00  0.00     0.143 A 
ATOM      2  C2  UNL d   1      -4.966  -0.911   2.039  0.00  0.00    -0.057 A 
ATOM      3  C3  UNL d   1      -5.288  -0.974   0.678  0.00  0.00     0.033 A 
ATOM      4  C4  UNL d   1      -4.295  -1.207  -0.268  0.00  0.00    -0.042 A 
ATOM      5  C5  UNL d   1      -2.980  -1.381   0.150  0.00  0.00     0.033 A 
ATOM      6  C6  UNL d   1      -2.666  -1.323   1.512  0.00  0.00    -0.057 A 
ENDROOT
BRANCH   1   7
ATOM      7  N   UNL d   1      -3.255  -0.960   3.815  0.00  0.00    -0.732 N 
ATOM      8  C   UNL d   1      -2.123  -0.126   4.156  0.00  0.00     0.284 C 
ATOM      9  H3  UNL d   1      -4.045  -0.869   4.450  0.00  0.00     0.395 HD
ENDBRANCH   1   7
TORSDOF 1
ENDMDL
