MODEL 1
REMARK minimizedAffinity 1.26375508
REMARK minimizedRMSD -1
REMARK  1 active torsions:
REMARK  status: ('A' for Active; 'I' for Inactive)
REMARK    1  A    between atoms: N_2  and  C1_3 
ROOT
ATOM      1  C1  UNL d   1       5.472   2.890   3.784  0.00  0.00     0.143 A 
ATOM      2  C2  UNL d   1       5.959   2.473   5.027  0.00  0.00    -0.057 A 
ATOM      3  C3  UNL d   1       5.990   1.117   5.377  0.00  0.00     0.033 A 
ATOM      4  C4  UNL d   1       5.506   0.155   4.497  0.00  0.00    -0.042 A 
ATOM      5  C5  UNL d   1       4.994   0.549   3.266  0.00  0.00     0.033 A 
ATOM      6  C6  UNL d   1       4.972   1.904   2.920  0.00  0.00    -0.057 A 
ENDROOT
BRANCH   1   7
ATOM      7  N   UNL d   1       5.323   4.230   3.417  0.00  0.00    -0.732 N 
ATOM      8  C   UNL d   1       6.000   5.276   4.155  0.00  0.00     0.284 C 
ATOM      9  H3  UNL d   1       5.334   4.360   2.408  0.00  0.00     0.395 HD
ENDBRANCH   1   7
TORSDOF 1
ENDMDL
