MODEL 1
REMARK minimizedAffinity 5.85963583
REMARK minimizedRMSD -1
REMARK  1 active torsions:
REMARK  status: ('A' for Active; 'I' for Inactive)
REMARK    1  A    between atoms: N_2  and  C1_3 
ROOT
ATOM      1  C1  UNL d   1       4.499   2.095   3.258  0.00  0.00     0.143 A 
ATOM      2  C2  UNL d   1       4.535   0.810   2.707  0.00  0.00    -0.057 A 
ATOM      3  C3  UNL d   1       5.266  -0.220   3.312  0.00  0.00     0.033 A 
ATOM      4  C4  UNL d   1       6.000   0.026   4.468  0.00  0.00    -0.042 A 
ATOM      5  C5  UNL d   1       5.999   1.303   5.020  0.00  0.00     0.033 A 
ATOM      6  C6  UNL d   1       5.262   2.325   4.414  0.00  0.00    -0.057 A 
ENDROOT
BRANCH   1   7
ATOM      7  N   UNL d   1       3.871   3.185   2.650  0.00  0.00    -0.732 N 
ATOM      8  C   UNL d   1       3.042   2.999   1.479  0.00  0.00     0.284 C 
ATOM      9  H3  UNL d   1       3.492   3.843   3.328  0.00  0.00     0.395 HD
ENDBRANCH   1   7
TORSDOF 1
ENDMDL
