MODEL 1
REMARK minimizedAffinity 2.65297794
REMARK minimizedRMSD -1
REMARK  1 active torsions:
REMARK  status: ('A' for Active; 'I' for Inactive)
REMARK    1  A    between atoms: N_2  and  C1_3 
ROOT
ATOM      1  C1  UNL d   1       4.673   1.976   3.634  0.00  0.00     0.143 A 
ATOM      2  C2  UNL d   1       4.681   0.681   3.105  0.00  0.00    -0.057 A 
ATOM      3  C3  UNL d   1       5.311  -0.374   3.777  0.00  0.00     0.033 A 
ATOM      4  C4  UNL d   1       5.971  -0.145   4.979  0.00  0.00    -0.042 A 
ATOM      5  C5  UNL d   1       5.998   1.139   5.511  0.00  0.00     0.033 A 
ATOM      6  C6  UNL d   1       5.361   2.187   4.839  0.00  0.00    -0.057 A 
ENDROOT
BRANCH   1   7
ATOM      7  N   UNL d   1       4.149   3.086   2.966  0.00  0.00    -0.732 N 
ATOM      8  C   UNL d   1       3.438   2.926   1.716  0.00  0.00     0.284 C 
ATOM      9  H3  UNL d   1       3.725   3.757   3.603  0.00  0.00     0.395 HD
ENDBRANCH   1   7
TORSDOF 1
ENDMDL
