MODEL 1
REMARK minimizedAffinity 1.83331048
REMARK minimizedRMSD -1
REMARK  1 active torsions:
REMARK  status: ('A' for Active; 'I' for Inactive)
REMARK    1  A    between atoms: N_2  and  C1_3 
ROOT
ATOM      1  C1  UNL d   1       5.332   3.081   3.519  0.00  0.00     0.143 A 
ATOM      2  C2  UNL d   1       5.999   2.440   4.568  0.00  0.00    -0.057 A 
ATOM      3  C3  UNL d   1       5.999   1.044   4.682  0.00  0.00     0.033 A 
ATOM      4  C4  UNL d   1       5.305   0.265   3.763  0.00  0.00    -0.042 A 
ATOM      5  C5  UNL d   1       4.614   0.882   2.726  0.00  0.00     0.033 A 
ATOM      6  C6  UNL d   1       4.623   2.276   2.613  0.00  0.00    -0.057 A 
ENDROOT
BRANCH   1   7
ATOM      7  N   UNL d   1       5.212   4.469   3.406  0.00  0.00    -0.732 N 
ATOM      8  C   UNL d   1       5.516   5.328   4.530  0.00  0.00     0.284 C 
ATOM      9  H3  UNL d   1       5.552   4.817   2.512  0.00  0.00     0.395 HD
ENDBRANCH   1   7
TORSDOF 1
ENDMDL
