MODEL 1
REMARK minimizedAffinity 2.35794616
REMARK minimizedRMSD -1
REMARK  1 active torsions:
REMARK  status: ('A' for Active; 'I' for Inactive)
REMARK    1  A    between atoms: N_2  and  C1_3 
ROOT
ATOM      1  C1  UNL d   1       5.264   3.356   3.918  0.00  0.00     0.143 A 
ATOM      2  C2  UNL d   1       5.998   2.628   4.861  0.00  0.00    -0.057 A 
ATOM      3  C3  UNL d   1       6.000   1.228   4.855  0.00  0.00     0.033 A 
ATOM      4  C4  UNL d   1       5.243   0.529   3.921  0.00  0.00    -0.042 A 
ATOM      5  C5  UNL d   1       4.486   1.232   2.990  0.00  0.00     0.033 A 
ATOM      6  C6  UNL d   1       4.494   2.630   2.996  0.00  0.00    -0.057 A 
ENDROOT
BRANCH   1   7
ATOM      7  N   UNL d   1       5.143   4.748   3.933  0.00  0.00    -0.732 N 
ATOM      8  C   UNL d   1       6.000   5.554   4.776  0.00  0.00     0.284 C 
ATOM      9  H3  UNL d   1       4.991   5.135   3.004  0.00  0.00     0.395 HD
ENDBRANCH   1   7
TORSDOF 1
ENDMDL
