MODEL 1
REMARK minimizedAffinity 4.2035346
REMARK minimizedRMSD -1
REMARK  1 active torsions:
REMARK  status: ('A' for Active; 'I' for Inactive)
REMARK    1  A    between atoms: N_2  and  C1_3 
ROOT
ATOM      1  C1  UNL d   1      -0.191   0.076  -1.610  0.00  0.00     0.143 A 
ATOM      2  C2  UNL d   1      -0.361  -1.282  -1.321  0.00  0.00    -0.057 A 
ATOM      3  C3  UNL d   1      -1.400  -1.723  -0.492  0.00  0.00     0.033 A 
ATOM      4  C4  UNL d   1      -2.272  -0.808   0.088  0.00  0.00    -0.042 A 
ATOM      5  C5  UNL d   1      -2.107   0.549  -0.165  0.00  0.00     0.033 A 
ATOM      6  C6  UNL d   1      -1.072   0.983  -0.999  0.00  0.00    -0.057 A 
ENDROOT
BRANCH   1   7
ATOM      7  N   UNL d   1       0.880   0.587  -2.347  0.00  0.00    -0.732 N 
ATOM      8  C   UNL d   1       0.717   1.772  -3.161  0.00  0.00     0.284 C 
ATOM      9  H3  UNL d   1       1.757   0.554  -1.831  0.00  0.00     0.395 HD
ENDBRANCH   1   7
TORSDOF 1
ENDMDL
