MODEL 1
REMARK minimizedAffinity 3.06784821
REMARK minimizedRMSD -1
REMARK  1 active torsions:
REMARK  status: ('A' for Active; 'I' for Inactive)
REMARK    1  A    between atoms: N_2  and  C1_3 
ROOT
ATOM      1  C1  UNL d   1       5.008   2.876  -5.287  0.00  0.00     0.143 A 
ATOM      2  C2  UNL d   1       5.957   2.186  -4.525  0.00  0.00    -0.057 A 
ATOM      3  C3  UNL d   1       6.000   0.787  -4.511  0.00  0.00     0.033 A 
ATOM      4  C4  UNL d   1       5.072   0.049  -5.240  0.00  0.00    -0.042 A 
ATOM      5  C5  UNL d   1       4.105   0.714  -5.986  0.00  0.00     0.033 A 
ATOM      6  C6  UNL d   1       4.071   2.111  -6.000  0.00  0.00    -0.057 A 
ENDROOT
BRANCH   1   7
ATOM      7  N   UNL d   1       4.852   4.264  -5.264  0.00  0.00    -0.732 N 
ATOM      8  C   UNL d   1       4.110   4.905  -4.200  0.00  0.00     0.284 C 
ATOM      9  H3  UNL d   1       5.702   4.755  -5.533  0.00  0.00     0.395 HD
ENDBRANCH   1   7
TORSDOF 1
ENDMDL
