MODEL 1
REMARK minimizedAffinity -0.363359004
REMARK minimizedRMSD -1
REMARK  1 active torsions:
REMARK  status: ('A' for Active; 'I' for Inactive)
REMARK    1  A    between atoms: N_2  and  C1_3 
ROOT
ATOM      1  C1  UNL d   1       5.726   3.203   3.852  0.00  0.00     0.143 A 
ATOM      2  C2  UNL d   1       5.999   2.743   5.145  0.00  0.00    -0.057 A 
ATOM      3  C3  UNL d   1       5.995   1.376   5.445  0.00  0.00     0.033 A 
ATOM      4  C4  UNL d   1       5.686   0.442   4.461  0.00  0.00    -0.042 A 
ATOM      5  C5  UNL d   1       5.387   0.878   3.175  0.00  0.00     0.033 A 
ATOM      6  C6  UNL d   1       5.400   2.244   2.880  0.00  0.00    -0.057 A 
ENDROOT
BRANCH   1   7
ATOM      7  N   UNL d   1       5.618   4.554   3.513  0.00  0.00    -0.732 N 
ATOM      8  C   UNL d   1       5.997   5.583   4.458  0.00  0.00     0.284 C 
ATOM      9  H3  UNL d   1       5.912   4.739   2.557  0.00  0.00     0.395 HD
ENDBRANCH   1   7
TORSDOF 1
ENDMDL
