MODEL 1
REMARK minimizedAffinity 3.5430553
REMARK minimizedRMSD -1
REMARK  1 active torsions:
REMARK  status: ('A' for Active; 'I' for Inactive)
REMARK    1  A    between atoms: N_2  and  C1_3 
ROOT
ATOM      1  C1  UNL d   1      -3.246   1.463  -0.044  0.00  0.00     0.143 A 
ATOM      2  C2  UNL d   1      -4.105   2.527   0.250  0.00  0.00    -0.057 A 
ATOM      3  C3  UNL d   1      -3.673   3.856   0.161  0.00  0.00     0.033 A 
ATOM      4  C4  UNL d   1      -2.360   4.144  -0.198  0.00  0.00    -0.042 A 
ATOM      5  C5  UNL d   1      -1.481   3.101  -0.470  0.00  0.00     0.033 A 
ATOM      6  C6  UNL d   1      -1.921   1.777  -0.386  0.00  0.00    -0.057 A 
ENDROOT
BRANCH   1   7
ATOM      7  N   UNL d   1      -3.587   0.119   0.121  0.00  0.00    -0.732 N 
ATOM      8  C   UNL d   1      -3.304  -0.566   1.364  0.00  0.00     0.284 C 
ATOM      9  H3  UNL d   1      -4.496  -0.103  -0.278  0.00  0.00     0.395 HD
ENDBRANCH   1   7
TORSDOF 1
ENDMDL
