MODEL 1
REMARK minimizedAffinity 2.72180891
REMARK minimizedRMSD -1
REMARK  1 active torsions:
REMARK  status: ('A' for Active; 'I' for Inactive)
REMARK    1  A    between atoms: N_2  and  C1_3 
ROOT
ATOM      1  C1  UNL d   1       3.837   3.347  -5.412  0.00  0.00     0.143 A 
ATOM      2  C2  UNL d   1       3.473   2.131  -6.000  0.00  0.00    -0.057 A 
ATOM      3  C3  UNL d   1       4.342   1.033  -5.995  0.00  0.00     0.033 A 
ATOM      4  C4  UNL d   1       5.607   1.142  -5.426  0.00  0.00    -0.042 A 
ATOM      5  C5  UNL d   1       6.000   2.349  -4.858  0.00  0.00     0.033 A 
ATOM      6  C6  UNL d   1       5.125   3.439  -4.860  0.00  0.00    -0.057 A 
ENDROOT
BRANCH   1   7
ATOM      7  N   UNL d   1       3.056   4.504  -5.470  0.00  0.00    -0.732 N 
ATOM      8  C   UNL d   1       1.626   4.439  -5.263  0.00  0.00     0.284 C 
ATOM      9  H3  UNL d   1       3.506   5.299  -5.022  0.00  0.00     0.395 HD
ENDBRANCH   1   7
TORSDOF 1
ENDMDL
