MODEL 1
REMARK minimizedAffinity 8.52152824
REMARK minimizedRMSD -1
REMARK  0 active torsions:
REMARK  status: ('A' for Active; 'I' for Inactive)
ROOT
ATOM      1  O1  BZF d   1      -1.517   5.929   3.640  0.00  0.00    -0.204 OA
ATOM      2  C2  BZF d   1      -0.751   5.929   4.790  0.00  0.00     0.174 A 
ATOM      3  C3  BZF d   1      -1.534   6.000   5.886  0.00  0.00    -0.012 A 
ATOM      4  C3A BZF d   1      -2.876   5.954   5.393  0.00  0.00    -0.107 A 
ATOM      5  C4  BZF d   1      -4.100   5.971   6.000  0.00  0.00     0.055 A 
ATOM      6  C5  BZF d   1      -5.219   5.987   5.229  0.00  0.00    -0.016 A 
ATOM      7  C6  BZF d   1      -5.151   5.992   3.851  0.00  0.00     0.022 A 
ATOM      8  C7  BZF d   1      -3.960   5.970   3.204  0.00  0.00     0.029 A 
ATOM      9  C7A BZF d   1      -2.828   5.920   3.980  0.00  0.00     0.058 A 
ENDROOT
TORSDOF 0
ENDMDL
