MODEL 1
REMARK minimizedAffinity 9.99162102
REMARK minimizedRMSD -1
REMARK  0 active torsions:
REMARK  status: ('A' for Active; 'I' for Inactive)
ROOT
ATOM      1  O1  BZF d   1      -3.992  -1.746  -0.989  0.00  0.00    -0.204 OA
ATOM      2  C2  BZF d   1      -5.047  -2.543  -0.588  0.00  0.00     0.174 A 
ATOM      3  C3  BZF d   1      -5.297  -2.378   0.727  0.00  0.00    -0.012 A 
ATOM      4  C3A BZF d   1      -4.399  -1.350   1.155  0.00  0.00    -0.107 A 
ATOM      5  C4  BZF d   1      -4.181  -0.734   2.354  0.00  0.00     0.055 A 
ATOM      6  C5  BZF d   1      -3.179   0.179   2.455  0.00  0.00    -0.016 A 
ATOM      7  C6  BZF d   1      -2.375   0.496   1.380  0.00  0.00     0.022 A 
ATOM      8  C7  BZF d   1      -2.556  -0.086   0.169  0.00  0.00     0.029 A 
ATOM      9  C7A BZF d   1      -3.589  -0.984   0.056  0.00  0.00     0.058 A 
ENDROOT
TORSDOF 0
ENDMDL
