MODEL 1
REMARK minimizedAffinity 6.26520348
REMARK minimizedRMSD -1
REMARK  0 active torsions:
REMARK  status: ('A' for Active; 'I' for Inactive)
ROOT
ATOM      1  O1  BZF d   1       3.527   5.976   3.991  0.00  0.00    -0.204 OA
ATOM      2  C2  BZF d   1       4.533   5.903   4.934  0.00  0.00     0.174 A 
ATOM      3  C3  BZF d   1       5.609   5.258   4.438  0.00  0.00    -0.012 A 
ATOM      4  C3A BZF d   1       5.287   4.987   3.070  0.00  0.00    -0.107 A 
ATOM      5  C4  BZF d   1       5.962   4.381   2.049  0.00  0.00     0.055 A 
ATOM      6  C5  BZF d   1       5.338   4.211   0.854  0.00  0.00    -0.016 A 
ATOM      7  C6  BZF d   1       4.039   4.629   0.647  0.00  0.00     0.022 A 
ATOM      8  C7  BZF d   1       3.331   5.239   1.629  0.00  0.00     0.029 A 
ATOM      9  C7A BZF d   1       3.970   5.442   2.827  0.00  0.00     0.058 A 
ENDROOT
TORSDOF 0
ENDMDL
