MODEL 1
REMARK minimizedAffinity 2.4181726
REMARK minimizedRMSD -1
REMARK  0 active torsions:
REMARK  status: ('A' for Active; 'I' for Inactive)
ROOT
ATOM      1  O1  BZF d   1      -1.784   0.997   2.506  0.00  0.00    -0.204 OA
ATOM      2  C2  BZF d   1      -2.774   0.665   3.411  0.00  0.00     0.174 A 
ATOM      3  C3  BZF d   1      -3.532  -0.346   2.941  0.00  0.00    -0.012 A 
ATOM      4  C3A BZF d   1      -2.924  -0.728   1.703  0.00  0.00    -0.107 A 
ATOM      5  C4  BZF d   1      -3.210  -1.687   0.774  0.00  0.00     0.055 A 
ATOM      6  C5  BZF d   1      -2.464  -1.751  -0.360  0.00  0.00    -0.016 A 
ATOM      7  C6  BZF d   1      -1.430  -0.869  -0.600  0.00  0.00     0.022 A 
ATOM      8  C7  BZF d   1      -1.106   0.096   0.295  0.00  0.00     0.029 A 
ATOM      9  C7A BZF d   1      -1.837   0.142   1.457  0.00  0.00     0.058 A 
ENDROOT
TORSDOF 0
ENDMDL
