MODEL 1
REMARK minimizedAffinity 0.627495348
REMARK minimizedRMSD -1
REMARK  0 active torsions:
REMARK  status: ('A' for Active; 'I' for Inactive)
ROOT
ATOM      1  O1  BZF d   1       3.958  -2.826   3.682  0.00  0.00    -0.204 OA
ATOM      2  C2  BZF d   1       5.057  -1.992   3.751  0.00  0.00     0.174 A 
ATOM      3  C3  BZF d   1       6.000  -2.510   4.566  0.00  0.00    -0.012 A 
ATOM      4  C3A BZF d   1       5.493  -3.788   4.962  0.00  0.00    -0.107 A 
ATOM      5  C4  BZF d   1       5.981  -4.786   5.756  0.00  0.00     0.055 A 
ATOM      6  C5  BZF d   1       5.206  -5.876   5.999  0.00  0.00    -0.016 A 
ATOM      7  C6  BZF d   1       3.938  -5.997   5.469  0.00  0.00     0.022 A 
ATOM      8  C7  BZF d   1       3.413  -5.036   4.672  0.00  0.00     0.029 A 
ATOM      9  C7A BZF d   1       4.207  -3.949   4.398  0.00  0.00     0.058 A 
ENDROOT
TORSDOF 0
ENDMDL
