MODEL 1
REMARK minimizedAffinity 6.41767168
REMARK minimizedRMSD -1
REMARK  0 active torsions:
REMARK  status: ('A' for Active; 'I' for Inactive)
ROOT
ATOM      1  O1  BZF d   1       3.455   5.953   1.803  0.00  0.00    -0.204 OA
ATOM      2  C2  BZF d   1       3.840   5.254   0.675  0.00  0.00     0.174 A 
ATOM      3  C3  BZF d   1       4.881   4.442   0.948  0.00  0.00    -0.012 A 
ATOM      4  C3A BZF d   1       5.106   4.578   2.355  0.00  0.00    -0.107 A 
ATOM      5  C4  BZF d   1       5.996   4.011   3.223  0.00  0.00     0.055 A 
ATOM      6  C5  BZF d   1       5.999   4.413   4.521  0.00  0.00    -0.016 A 
ATOM      7  C6  BZF d   1       5.133   5.382   4.983  0.00  0.00     0.022 A 
ATOM      8  C7  BZF d   1       4.229   5.969   4.161  0.00  0.00     0.029 A 
ATOM      9  C7A BZF d   1       4.201   5.541   2.856  0.00  0.00     0.058 A 
ENDROOT
TORSDOF 0
ENDMDL
