MODEL 1
REMARK minimizedAffinity 11.9897032
REMARK minimizedRMSD -1
REMARK  0 active torsions:
REMARK  status: ('A' for Active; 'I' for Inactive)
ROOT
ATOM      1  O1  BZF d   1       5.931   3.842   5.176  0.00  0.00    -0.204 OA
ATOM      2  C2  BZF d   1       5.861   4.951   5.998  0.00  0.00     0.174 A 
ATOM      3  C3  BZF d   1       5.272   5.982   5.360  0.00  0.00    -0.012 A 
ATOM      4  C3A BZF d   1       4.870   5.460   4.090  0.00  0.00    -0.107 A 
ATOM      5  C4  BZF d   1       4.221   5.998   3.016  0.00  0.00     0.055 A 
ATOM      6  C5  BZF d   1       4.048   5.241   1.901  0.00  0.00    -0.016 A 
ATOM      7  C6  BZF d   1       4.515   3.946   1.823  0.00  0.00     0.022 A 
ATOM      8  C7  BZF d   1       5.161   3.367   2.865  0.00  0.00     0.029 A 
ATOM      9  C7A BZF d   1       5.309   4.118   4.005  0.00  0.00     0.058 A 
ENDROOT
TORSDOF 0
ENDMDL
