MODEL 1
REMARK minimizedAffinity 18.0155544
REMARK minimizedRMSD -1
REMARK  0 active torsions:
REMARK  status: ('A' for Active; 'I' for Inactive)
ROOT
ATOM      1  O1  BZF d   1      -1.108   4.287   5.860  0.00  0.00    -0.204 OA
ATOM      2  C2  BZF d   1      -1.594   5.578   5.934  0.00  0.00     0.174 A 
ATOM      3  C3  BZF d   1      -2.017   6.000   4.725  0.00  0.00    -0.012 A 
ATOM      4  C3A BZF d   1      -1.866   4.871   3.858  0.00  0.00    -0.107 A 
ATOM      5  C4  BZF d   1      -2.132   4.661   2.535  0.00  0.00     0.055 A 
ATOM      6  C5  BZF d   1      -1.801   3.467   1.977  0.00  0.00    -0.016 A 
ATOM      7  C6  BZF d   1      -1.200   2.464   2.709  0.00  0.00     0.022 A 
ATOM      8  C7  BZF d   1      -0.921   2.625   4.026  0.00  0.00     0.029 A 
ATOM      9  C7A BZF d   1      -1.284   3.818   4.601  0.00  0.00     0.058 A 
ENDROOT
TORSDOF 0
ENDMDL
