MODEL 1
REMARK minimizedAffinity 3.14768338
REMARK minimizedRMSD -1
REMARK  0 active torsions:
REMARK  status: ('A' for Active; 'I' for Inactive)
ROOT
ATOM      1  O1  BZF d   1      -2.716   2.321  -0.342  0.00  0.00    -0.204 OA
ATOM      2  C2  BZF d   1      -2.244   1.191  -0.981  0.00  0.00     0.174 A 
ATOM      3  C3  BZF d   1      -1.814   0.279  -0.086  0.00  0.00    -0.012 A 
ATOM      4  C3A BZF d   1      -2.117   0.838   1.196  0.00  0.00    -0.107 A 
ATOM      5  C4  BZF d   1      -1.945   0.398   2.477  0.00  0.00     0.055 A 
ATOM      6  C5  BZF d   1      -2.281   1.217   3.508  0.00  0.00    -0.016 A 
ATOM      7  C6  BZF d   1      -2.787   2.483   3.295  0.00  0.00     0.022 A 
ATOM      8  C7  BZF d   1      -2.980   2.961   2.041  0.00  0.00     0.029 A 
ATOM      9  C7A BZF d   1      -2.672   2.123   0.998  0.00  0.00     0.058 A 
ENDROOT
TORSDOF 0
ENDMDL
