MODEL 1
REMARK minimizedAffinity 8.72774124
REMARK minimizedRMSD -1
REMARK  0 active torsions:
REMARK  status: ('A' for Active; 'I' for Inactive)
ROOT
ATOM      1  O1  BZF d   1      -2.351   1.994  -1.216  0.00  0.00    -0.204 OA
ATOM      2  C2  BZF d   1      -1.343   1.236  -1.780  0.00  0.00     0.174 A 
ATOM      3  C3  BZF d   1      -0.790   0.417  -0.861  0.00  0.00    -0.012 A 
ATOM      4  C3A BZF d   1      -1.558   0.614   0.330  0.00  0.00    -0.107 A 
ATOM      5  C4  BZF d   1      -1.505   0.071   1.582  0.00  0.00     0.055 A 
ATOM      6  C5  BZF d   1      -2.353   0.533   2.538  0.00  0.00    -0.016 A 
ATOM      7  C6  BZF d   1      -3.261   1.539   2.279  0.00  0.00     0.022 A 
ATOM      8  C7  BZF d   1      -3.355   2.104   1.051  0.00  0.00     0.029 A 
ATOM      9  C7A BZF d   1      -2.522   1.617   0.074  0.00  0.00     0.058 A 
ENDROOT
TORSDOF 0
ENDMDL
