MODEL 1
REMARK minimizedAffinity 18.6494083
REMARK minimizedRMSD -1
REMARK  0 active torsions:
REMARK  status: ('A' for Active; 'I' for Inactive)
ROOT
ATOM      1  O1  BZF d   1       3.402  -1.799  -1.836  0.00  0.00    -0.204 OA
ATOM      2  C2  BZF d   1       4.464  -1.116  -1.275  0.00  0.00     0.174 A 
ATOM      3  C3  BZF d   1       4.253   0.215  -1.318  0.00  0.00    -0.012 A 
ATOM      4  C3A BZF d   1       2.938   0.370  -1.861  0.00  0.00    -0.107 A 
ATOM      5  C4  BZF d   1       2.158   1.457  -2.133  0.00  0.00     0.055 A 
ATOM      6  C5  BZF d   1       0.950   1.270  -2.728  0.00  0.00    -0.016 A 
ATOM      7  C6  BZF d   1       0.496   0.013  -3.069  0.00  0.00     0.022 A 
ATOM      8  C7  BZF d   1       1.232  -1.095  -2.814  0.00  0.00     0.029 A 
ATOM      9  C7A BZF d   1       2.438  -0.913  -2.183  0.00  0.00     0.058 A 
ENDROOT
TORSDOF 0
ENDMDL
