MODEL 1
REMARK minimizedAffinity 7.19775343
REMARK minimizedRMSD -1
REMARK  0 active torsions:
REMARK  status: ('A' for Active; 'I' for Inactive)
ROOT
ATOM      1  O1  BZF d   1      -3.276   2.025   1.624  0.00  0.00    -0.204 OA
ATOM      2  C2  BZF d   1      -3.071   2.050   2.990  0.00  0.00     0.174 A 
ATOM      3  C3  BZF d   1      -2.671   0.841   3.436  0.00  0.00    -0.012 A 
ATOM      4  C3A BZF d   1      -2.534   0.034   2.262  0.00  0.00    -0.107 A 
ATOM      5  C4  BZF d   1      -2.152  -1.260   2.052  0.00  0.00     0.055 A 
ATOM      6  C5  BZF d   1      -2.196  -1.766   0.792  0.00  0.00    -0.016 A 
ATOM      7  C6  BZF d   1      -2.621  -1.008  -0.280  0.00  0.00     0.022 A 
ATOM      8  C7  BZF d   1      -3.006   0.282  -0.122  0.00  0.00     0.029 A 
ATOM      9  C7A BZF d   1      -2.931   0.805   1.146  0.00  0.00     0.058 A 
ENDROOT
TORSDOF 0
ENDMDL
