MODEL 1
REMARK minimizedAffinity 7.22532463
REMARK minimizedRMSD -1
REMARK  0 active torsions:
REMARK  status: ('A' for Active; 'I' for Inactive)
ROOT
ATOM      1  O1  BZF d   1      -0.906   0.929   2.413  0.00  0.00    -0.204 OA
ATOM      2  C2  BZF d   1      -1.812   0.932   3.456  0.00  0.00     0.174 A 
ATOM      3  C3  BZF d   1      -2.948   0.295   3.104  0.00  0.00    -0.012 A 
ATOM      4  C3A BZF d   1      -2.703  -0.212   1.789  0.00  0.00    -0.107 A 
ATOM      5  C4  BZF d   1      -3.449  -0.947   0.912  0.00  0.00     0.055 A 
ATOM      6  C5  BZF d   1      -2.945  -1.214  -0.321  0.00  0.00    -0.016 A 
ATOM      7  C6  BZF d   1      -1.703  -0.759  -0.712  0.00  0.00     0.022 A 
ATOM      8  C7  BZF d   1      -0.924  -0.031   0.125  0.00  0.00     0.029 A 
ATOM      9  C7A BZF d   1      -1.417   0.213   1.383  0.00  0.00     0.058 A 
ENDROOT
TORSDOF 0
ENDMDL
