MODEL 1
REMARK minimizedAffinity 15.4956045
REMARK minimizedRMSD -1
REMARK  0 active torsions:
REMARK  status: ('A' for Active; 'I' for Inactive)
ROOT
ATOM      1  O1  BZF d   1      -1.703  -0.978   0.948  0.00  0.00    -0.204 OA
ATOM      2  C2  BZF d   1      -2.132  -0.882  -0.362  0.00  0.00     0.174 A 
ATOM      3  C3  BZF d   1      -3.035   0.110  -0.498  0.00  0.00    -0.012 A 
ATOM      4  C3A BZF d   1      -3.111   0.729   0.790  0.00  0.00    -0.107 A 
ATOM      5  C4  BZF d   1      -3.825   1.784   1.283  0.00  0.00     0.055 A 
ATOM      6  C5  BZF d   1      -3.726   2.087   2.604  0.00  0.00    -0.016 A 
ATOM      7  C6  BZF d   1      -2.928   1.356   3.460  0.00  0.00     0.022 A 
ATOM      8  C7  BZF d   1      -2.198   0.304   3.015  0.00  0.00     0.029 A 
ATOM      9  C7A BZF d   1      -2.270   0.015   1.674  0.00  0.00     0.058 A 
ENDROOT
TORSDOF 0
ENDMDL
