MODEL 1
REMARK minimizedAffinity 10.1361313
REMARK minimizedRMSD -1
REMARK  0 active torsions:
REMARK  status: ('A' for Active; 'I' for Inactive)
ROOT
ATOM      1  O1  BZF d   1       5.569   5.544   2.369  0.00  0.00    -0.204 OA
ATOM      2  C2  BZF d   1       4.441   6.000   3.024  0.00  0.00     0.174 A 
ATOM      3  C3  BZF d   1       3.375   6.000   2.198  0.00  0.00    -0.012 A 
ATOM      4  C3A BZF d   1       3.847   5.427   0.975  0.00  0.00    -0.107 A 
ATOM      5  C4  BZF d   1       3.252   5.145  -0.221  0.00  0.00     0.055 A 
ATOM      6  C5  BZF d   1       4.009   4.655  -1.237  0.00  0.00    -0.016 A 
ATOM      7  C6  BZF d   1       5.364   4.438  -1.094  0.00  0.00     0.022 A 
ATOM      8  C7  BZF d   1       5.998   4.698   0.076  0.00  0.00     0.029 A 
ATOM      9  C7A BZF d   1       5.229   5.162   1.114  0.00  0.00     0.058 A 
ENDROOT
TORSDOF 0
ENDMDL
