MODEL 1
REMARK minimizedAffinity 13.0651808
REMARK minimizedRMSD -1
REMARK  0 active torsions:
REMARK  status: ('A' for Active; 'I' for Inactive)
ROOT
ATOM      1  O1  BZF d   1       0.035   1.209  -2.202  0.00  0.00    -0.204 OA
ATOM      2  C2  BZF d   1       0.436   2.481  -2.562  0.00  0.00     0.174 A 
ATOM      3  C3  BZF d   1       1.748   2.499  -2.874  0.00  0.00    -0.012 A 
ATOM      4  C3A BZF d   1       2.174   1.136  -2.787  0.00  0.00    -0.107 A 
ATOM      5  C4  BZF d   1       3.370   0.511  -2.999  0.00  0.00     0.055 A 
ATOM      6  C5  BZF d   1       3.470  -0.822  -2.757  0.00  0.00    -0.016 A 
ATOM      7  C6  BZF d   1       2.398  -1.560  -2.299  0.00  0.00     0.022 A 
ATOM      8  C7  BZF d   1       1.190  -0.985  -2.079  0.00  0.00     0.029 A 
ATOM      9  C7A BZF d   1       1.077   0.356  -2.354  0.00  0.00     0.058 A 
ENDROOT
TORSDOF 0
ENDMDL
