MODEL 1
REMARK minimizedAffinity 6.71962166
REMARK minimizedRMSD -1
REMARK  0 active torsions:
REMARK  status: ('A' for Active; 'I' for Inactive)
ROOT
ATOM      1  O1  BZF d   1       3.809   6.000   2.653  0.00  0.00    -0.204 OA
ATOM      2  C2  BZF d   1       4.972   5.996   3.398  0.00  0.00     0.174 A 
ATOM      3  C3  BZF d   1       5.999   5.499   2.680  0.00  0.00    -0.012 A 
ATOM      4  C3A BZF d   1       5.463   5.256   1.375  0.00  0.00    -0.107 A 
ATOM      5  C4  BZF d   1       5.999   4.778   0.214  0.00  0.00     0.055 A 
ATOM      6  C5  BZF d   1       5.189   4.594  -0.861  0.00  0.00    -0.016 A 
ATOM      7  C6  BZF d   1       3.839   4.873  -0.809  0.00  0.00     0.022 A 
ATOM      8  C7  BZF d   1       3.263   5.354   0.319  0.00  0.00     0.029 A 
ATOM      9  C7A BZF d   1       4.085   5.572   1.397  0.00  0.00     0.058 A 
ENDROOT
TORSDOF 0
ENDMDL
