MODEL 1
REMARK minimizedAffinity 7.93350697
REMARK minimizedRMSD -1
REMARK  0 active torsions:
REMARK  status: ('A' for Active; 'I' for Inactive)
ROOT
ATOM      1  C   UNL d   1      -0.622   1.824  -1.242  0.00  0.00     0.077 C 
ATOM      2  C1  UNL d   1      -1.196   1.988   0.134  0.00  0.00    -0.074 A 
ATOM      3  C2  UNL d   1      -2.577   1.929   0.348  0.00  0.00    -0.005 A 
ATOM      4  C3  UNL d   1      -3.097   2.074   1.634  0.00  0.00     0.006 A 
ATOM      5  C4  UNL d   1      -2.242   2.279   2.718  0.00  0.00    -0.005 A 
ATOM      6  C5  UNL d   1      -0.858   2.340   2.523  0.00  0.00    -0.074 A 
ATOM      7  C6  UNL d   1       0.075   2.550   3.679  0.00  0.00     0.077 C 
ATOM      8  C7  UNL d   1      -0.344   2.187   1.229  0.00  0.00    -0.001 A 
ENDROOT
TORSDOF 0
ENDMDL
