MODEL 1
REMARK minimizedAffinity 0.719139218
REMARK minimizedRMSD -1
REMARK  0 active torsions:
REMARK  status: ('A' for Active; 'I' for Inactive)
ROOT
ATOM      1  C   UNL d   1      -2.773   2.621   0.413  0.00  0.00     0.077 C 
ATOM      2  C1  UNL d   1      -1.840   1.877   1.321  0.00  0.00    -0.074 A 
ATOM      3  C2  UNL d   1      -1.493   0.547   1.062  0.00  0.00    -0.005 A 
ATOM      4  C3  UNL d   1      -0.616  -0.130   1.910  0.00  0.00     0.006 A 
ATOM      5  C4  UNL d   1      -0.079   0.516   3.024  0.00  0.00    -0.005 A 
ATOM      6  C5  UNL d   1      -0.413   1.845   3.299  0.00  0.00    -0.074 A 
ATOM      7  C6  UNL d   1       0.164   2.556   4.487  0.00  0.00     0.077 C 
ATOM      8  C7  UNL d   1      -1.289   2.521   2.438  0.00  0.00    -0.001 A 
ENDROOT
TORSDOF 0
ENDMDL
