MODEL 1
REMARK minimizedAffinity 5.29340219
REMARK minimizedRMSD -1
REMARK  0 active torsions:
REMARK  status: ('A' for Active; 'I' for Inactive)
ROOT
ATOM      1  C   UNL d   1      -1.720  -3.152   4.227  0.00  0.00     0.077 C 
ATOM      2  C1  UNL d   1      -3.077  -3.275   4.854  0.00  0.00    -0.074 A 
ATOM      3  C2  UNL d   1      -3.705  -2.166   5.430  0.00  0.00    -0.005 A 
ATOM      4  C3  UNL d   1      -4.972  -2.293   6.000  0.00  0.00     0.006 A 
ATOM      5  C4  UNL d   1      -5.622  -3.527   6.000  0.00  0.00    -0.005 A 
ATOM      6  C5  UNL d   1      -5.010  -4.647   5.428  0.00  0.00    -0.074 A 
ATOM      7  C6  UNL d   1      -5.699  -5.979   5.410  0.00  0.00     0.077 C 
ATOM      8  C7  UNL d   1      -3.740  -4.510   4.850  0.00  0.00    -0.001 A 
ENDROOT
TORSDOF 0
ENDMDL
