MODEL 1
REMARK minimizedAffinity 5.2320013
REMARK minimizedRMSD -1
REMARK  0 active torsions:
REMARK  status: ('A' for Active; 'I' for Inactive)
ROOT
ATOM      1  C   UNL d   1       5.670  -3.228   0.745  0.00  0.00     0.077 C 
ATOM      2  C1  UNL d   1       5.328  -3.556  -0.678  0.00  0.00    -0.074 A 
ATOM      3  C2  UNL d   1       6.000  -2.940  -1.739  0.00  0.00    -0.005 A 
ATOM      4  C3  UNL d   1       5.678  -3.262  -3.057  0.00  0.00     0.006 A 
ATOM      5  C4  UNL d   1       4.682  -4.202  -3.327  0.00  0.00    -0.005 A 
ATOM      6  C5  UNL d   1       4.000  -4.829  -2.280  0.00  0.00    -0.074 A 
ATOM      7  C6  UNL d   1       2.934  -5.848  -2.553  0.00  0.00     0.077 C 
ATOM      8  C7  UNL d   1       4.335  -4.505  -0.958  0.00  0.00    -0.001 A 
ENDROOT
TORSDOF 0
ENDMDL
