MODEL 1
REMARK minimizedAffinity 5.02465487
REMARK minimizedRMSD -1
REMARK  0 active torsions:
REMARK  status: ('A' for Active; 'I' for Inactive)
ROOT
ATOM      1  C   UNL d   1      -3.702   3.165   1.255  0.00  0.00     0.077 C 
ATOM      2  C1  UNL d   1      -2.311   2.609   1.190  0.00  0.00    -0.074 A 
ATOM      3  C2  UNL d   1      -1.751   1.944   2.285  0.00  0.00    -0.005 A 
ATOM      4  C3  UNL d   1      -0.459   1.424   2.206  0.00  0.00     0.006 A 
ATOM      5  C4  UNL d   1       0.285   1.564   1.034  0.00  0.00    -0.005 A 
ATOM      6  C5  UNL d   1      -0.259   2.226  -0.072  0.00  0.00    -0.074 A 
ATOM      7  C6  UNL d   1       0.523   2.377  -1.342  0.00  0.00     0.077 C 
ATOM      8  C7  UNL d   1      -1.560   2.740   0.013  0.00  0.00    -0.001 A 
ENDROOT
TORSDOF 0
ENDMDL
