MODEL 1
REMARK minimizedAffinity 6.81273031
REMARK minimizedRMSD -1
REMARK  0 active torsions:
REMARK  status: ('A' for Active; 'I' for Inactive)
ROOT
ATOM      1  C   UNL d   1       3.679  -6.000  -1.883  0.00  0.00     0.077 C 
ATOM      2  C1  UNL d   1       4.171  -4.855  -2.718  0.00  0.00    -0.074 A 
ATOM      3  C2  UNL d   1       5.503  -4.435  -2.647  0.00  0.00    -0.005 A 
ATOM      4  C3  UNL d   1       5.949  -3.375  -3.437  0.00  0.00     0.006 A 
ATOM      5  C4  UNL d   1       5.069  -2.726  -4.304  0.00  0.00    -0.005 A 
ATOM      6  C5  UNL d   1       3.734  -3.133  -4.388  0.00  0.00    -0.074 A 
ATOM      7  C6  UNL d   1       2.777  -2.453  -5.322  0.00  0.00     0.077 C 
ATOM      8  C7  UNL d   1       3.295  -4.203  -3.597  0.00  0.00    -0.001 A 
ENDROOT
TORSDOF 0
ENDMDL
