MODEL 1
REMARK minimizedAffinity 9.84276199
REMARK minimizedRMSD -1
REMARK  0 active torsions:
REMARK  status: ('A' for Active; 'I' for Inactive)
ROOT
ATOM      1  C   UNL d   1       2.075   0.927  -4.632  0.00  0.00     0.077 C 
ATOM      2  C1  UNL d   1       0.961   1.108  -3.644  0.00  0.00    -0.074 A 
ATOM      3  C2  UNL d   1       1.120   1.930  -2.524  0.00  0.00    -0.005 A 
ATOM      4  C3  UNL d   1       0.071   2.096  -1.619  0.00  0.00     0.006 A 
ATOM      5  C4  UNL d   1      -1.144   1.442  -1.824  0.00  0.00    -0.005 A 
ATOM      6  C5  UNL d   1      -1.321   0.616  -2.939  0.00  0.00    -0.074 A 
ATOM      7  C6  UNL d   1      -2.625  -0.086  -3.179  0.00  0.00     0.077 C 
ATOM      8  C7  UNL d   1      -0.266   0.460  -3.847  0.00  0.00    -0.001 A 
ENDROOT
TORSDOF 0
ENDMDL
