MODEL 1
REMARK minimizedAffinity 4.23451757
REMARK minimizedRMSD -1
REMARK  0 active torsions:
REMARK  status: ('A' for Active; 'I' for Inactive)
ROOT
ATOM      1  C   UNL d   1       5.975  -2.232   1.142  0.00  0.00     0.077 C 
ATOM      2  C1  UNL d   1       4.822  -2.340   0.188  0.00  0.00    -0.074 A 
ATOM      3  C2  UNL d   1       3.631  -1.644   0.419  0.00  0.00    -0.005 A 
ATOM      4  C3  UNL d   1       2.571  -1.747  -0.482  0.00  0.00     0.006 A 
ATOM      5  C4  UNL d   1       2.692  -2.545  -1.621  0.00  0.00    -0.005 A 
ATOM      6  C5  UNL d   1       3.876  -3.247  -1.868  0.00  0.00    -0.074 A 
ATOM      7  C6  UNL d   1       4.025  -4.101  -3.092  0.00  0.00     0.077 C 
ATOM      8  C7  UNL d   1       4.939  -3.133  -0.962  0.00  0.00    -0.001 A 
ENDROOT
TORSDOF 0
ENDMDL
