MODEL 1
REMARK minimizedAffinity -3.26472187
REMARK minimizedRMSD -1
REMARK  0 active torsions:
REMARK  status: ('A' for Active; 'I' for Inactive)
ROOT
ATOM      1  C   UNL d   1       0.886  -2.520  -1.094  0.00  0.00     0.077 C 
ATOM      2  C1  UNL d   1       0.257  -1.159  -1.136  0.00  0.00    -0.074 A 
ATOM      3  C2  UNL d   1      -0.296  -0.660  -2.320  0.00  0.00    -0.005 A 
ATOM      4  C3  UNL d   1      -0.886   0.604  -2.341  0.00  0.00     0.006 A 
ATOM      5  C4  UNL d   1      -0.929   1.379  -1.182  0.00  0.00    -0.005 A 
ATOM      6  C5  UNL d   1      -0.383   0.896   0.011  0.00  0.00    -0.074 A 
ATOM      7  C6  UNL d   1      -0.430   1.712   1.268  0.00  0.00     0.077 C 
ATOM      8  C7  UNL d   1       0.202  -0.378   0.026  0.00  0.00    -0.001 A 
ENDROOT
TORSDOF 0
ENDMDL
