MODEL 1
REMARK minimizedAffinity 6.01518774
REMARK minimizedRMSD -1
REMARK  0 active torsions:
REMARK  status: ('A' for Active; 'I' for Inactive)
ROOT
ATOM      1  C   UNL d   1      -2.133   3.007   1.290  0.00  0.00     0.077 C 
ATOM      2  C1  UNL d   1      -1.281   2.146   2.175  0.00  0.00    -0.074 A 
ATOM      3  C2  UNL d   1      -0.197   2.685   2.874  0.00  0.00    -0.005 A 
ATOM      4  C3  UNL d   1       0.581   1.874   3.700  0.00  0.00     0.006 A 
ATOM      5  C4  UNL d   1       0.283   0.518   3.836  0.00  0.00    -0.005 A 
ATOM      6  C5  UNL d   1      -0.798  -0.039   3.145  0.00  0.00    -0.074 A 
ATOM      7  C6  UNL d   1      -1.139  -1.493   3.287  0.00  0.00     0.077 C 
ATOM      8  C7  UNL d   1      -1.579   0.784   2.322  0.00  0.00    -0.001 A 
ENDROOT
TORSDOF 0
ENDMDL
