MODEL 1
REMARK minimizedAffinity 10.7430906
REMARK minimizedRMSD -1
REMARK  0 active torsions:
REMARK  status: ('A' for Active; 'I' for Inactive)
ROOT
ATOM      1  C   UNL d   1      -1.876  -1.637   4.027  0.00  0.00     0.077 C 
ATOM      2  C1  UNL d   1      -1.298  -0.473   3.278  0.00  0.00    -0.074 A 
ATOM      3  C2  UNL d   1       0.085  -0.331   3.125  0.00  0.00    -0.005 A 
ATOM      4  C3  UNL d   1       0.607   0.752   2.418  0.00  0.00     0.006 A 
ATOM      5  C4  UNL d   1      -0.247   1.703   1.858  0.00  0.00    -0.005 A 
ATOM      6  C5  UNL d   1      -1.633   1.577   2.000  0.00  0.00    -0.074 A 
ATOM      7  C6  UNL d   1      -2.565   2.585   1.395  0.00  0.00     0.077 C 
ATOM      8  C7  UNL d   1      -2.150   0.482   2.706  0.00  0.00    -0.001 A 
ENDROOT
TORSDOF 0
ENDMDL
