MODEL 1
REMARK minimizedAffinity 12.3240652
REMARK minimizedRMSD -1
REMARK  0 active torsions:
REMARK  status: ('A' for Active; 'I' for Inactive)
ROOT
ATOM      1  C   UNL d   1       1.939   1.368  -4.894  0.00  0.00     0.077 C 
ATOM      2  C1  UNL d   1       1.104   1.172  -3.663  0.00  0.00    -0.074 A 
ATOM      3  C2  UNL d   1       1.475   1.749  -2.444  0.00  0.00    -0.005 A 
ATOM      4  C3  UNL d   1       0.684   1.566  -1.310  0.00  0.00     0.006 A 
ATOM      5  C4  UNL d   1      -0.484   0.805  -1.383  0.00  0.00    -0.005 A 
ATOM      6  C5  UNL d   1      -0.871   0.222  -2.594  0.00  0.00    -0.074 A 
ATOM      7  C6  UNL d   1      -2.128  -0.590  -2.692  0.00  0.00     0.077 C 
ATOM      8  C7  UNL d   1      -0.074   0.416  -3.730  0.00  0.00    -0.001 A 
ENDROOT
TORSDOF 0
ENDMDL
