MODEL 1
REMARK minimizedAffinity 4.6101675
REMARK minimizedRMSD -1
REMARK  0 active torsions:
REMARK  status: ('A' for Active; 'I' for Inactive)
ROOT
ATOM      1  C   UNL d   1       6.000  -1.130   0.013  0.00  0.00     0.077 C 
ATOM      2  C1  UNL d   1       4.748  -1.798  -0.472  0.00  0.00    -0.074 A 
ATOM      3  C2  UNL d   1       3.492  -1.402  -0.001  0.00  0.00    -0.005 A 
ATOM      4  C3  UNL d   1       2.336  -2.027  -0.468  0.00  0.00     0.006 A 
ATOM      5  C4  UNL d   1       2.423  -3.052  -1.410  0.00  0.00    -0.005 A 
ATOM      6  C5  UNL d   1       3.670  -3.462  -1.894  0.00  0.00    -0.074 A 
ATOM      7  C6  UNL d   1       3.781  -4.556  -2.914  0.00  0.00     0.077 C 
ATOM      8  C7  UNL d   1       4.827  -2.824  -1.425  0.00  0.00    -0.001 A 
ENDROOT
TORSDOF 0
ENDMDL
