MODEL 1
REMARK minimizedAffinity 11.9865217
REMARK minimizedRMSD -1
REMARK  0 active torsions:
REMARK  status: ('A' for Active; 'I' for Inactive)
ROOT
ATOM      1  C   UNL d   1      -1.477   3.816  -2.948  0.00  0.00     0.077 C 
ATOM      2  C1  UNL d   1      -0.912   3.471  -1.602  0.00  0.00    -0.074 A 
ATOM      3  C2  UNL d   1       0.357   3.917  -1.220  0.00  0.00    -0.005 A 
ATOM      4  C3  UNL d   1       0.866   3.597   0.039  0.00  0.00     0.006 A 
ATOM      5  C4  UNL d   1       0.111   2.829   0.926  0.00  0.00    -0.005 A 
ATOM      6  C5  UNL d   1      -1.160   2.375   0.562  0.00  0.00    -0.074 A 
ATOM      7  C6  UNL d   1      -1.989   1.557   1.508  0.00  0.00     0.077 C 
ATOM      8  C7  UNL d   1      -1.667   2.707  -0.702  0.00  0.00    -0.001 A 
ENDROOT
TORSDOF 0
ENDMDL
