MODEL 1
REMARK minimizedAffinity 0.407749325
REMARK minimizedRMSD -1
REMARK  0 active torsions:
REMARK  status: ('A' for Active; 'I' for Inactive)
ROOT
ATOM      1  C   UNL d   1       0.521  -0.786   0.573  0.00  0.00    -0.002 A 
ATOM      2  C1  UNL d   1      -0.002   0.499   0.560  0.00  0.00     0.010 A 
ATOM      3  C2  UNL d   1      -0.199   1.173  -0.647  0.00  0.00     0.041 A 
ATOM      4  C3  UNL d   1       0.139   0.526  -1.852  0.00  0.00    -0.075 A 
ATOM      5  S   UNL d   1      -0.016   1.156  -3.449  0.00  0.00     0.015 SA
ATOM      6  C4  UNL d   1       0.606  -0.266  -4.151  0.00  0.00     0.022 A 
ATOM      7  C5  UNL d   1       0.931  -1.209  -3.205  0.00  0.00     0.026 A 
ATOM      8  C6  UNL d   1       0.666  -0.768  -1.864  0.00  0.00    -0.082 A 
ATOM      9  C7  UNL d   1       0.855  -1.425  -0.624  0.00  0.00     0.045 A 
ENDROOT
TORSDOF 0
ENDMDL
