MODEL 1
REMARK minimizedAffinity -3.67153716
REMARK minimizedRMSD -1
REMARK  0 active torsions:
REMARK  status: ('A' for Active; 'I' for Inactive)
ROOT
ATOM      1  C   UNL d   1      -1.841   0.530   1.542  0.00  0.00    -0.002 A 
ATOM      2  C1  UNL d   1      -0.702   0.292   2.299  0.00  0.00     0.010 A 
ATOM      3  C2  UNL d   1       0.440  -0.256   1.711  0.00  0.00     0.041 A 
ATOM      4  C3  UNL d   1       0.418  -0.562   0.336  0.00  0.00    -0.075 A 
ATOM      5  S   UNL d   1       1.699  -1.239  -0.598  0.00  0.00     0.015 SA
ATOM      6  C4  UNL d   1       0.766  -1.227  -2.024  0.00  0.00     0.022 A 
ATOM      7  C5  UNL d   1      -0.495  -0.723  -1.810  0.00  0.00     0.026 A 
ATOM      8  C6  UNL d   1      -0.716  -0.331  -0.447  0.00  0.00    -0.082 A 
ATOM      9  C7  UNL d   1      -1.858   0.225   0.179  0.00  0.00     0.045 A 
ENDROOT
TORSDOF 0
ENDMDL
