MODEL 1
REMARK minimizedAffinity -1.81804657
REMARK minimizedRMSD -1
REMARK  0 active torsions:
REMARK  status: ('A' for Active; 'I' for Inactive)
ROOT
ATOM      1  C   UNL d   1       0.744   0.372   3.820  0.00  0.00    -0.002 A 
ATOM      2  C1  UNL d   1       1.617  -0.306   2.981  0.00  0.00     0.010 A 
ATOM      3  C2  UNL d   1       1.301  -0.500   1.635  0.00  0.00     0.041 A 
ATOM      4  C3  UNL d   1       0.082   0.005   1.141  0.00  0.00    -0.075 A 
ATOM      5  S   UNL d   1      -0.515  -0.112  -0.472  0.00  0.00     0.015 SA
ATOM      6  C4  UNL d   1      -1.942   0.736  -0.085  0.00  0.00     0.022 A 
ATOM      7  C5  UNL d   1      -1.979   1.106   1.238  0.00  0.00     0.026 A 
ATOM      8  C6  UNL d   1      -0.813   0.692   1.967  0.00  0.00    -0.082 A 
ATOM      9  C7  UNL d   1      -0.464   0.872   3.327  0.00  0.00     0.045 A 
ENDROOT
TORSDOF 0
ENDMDL
