MODEL 1
REMARK minimizedAffinity 0.691141784
REMARK minimizedRMSD -1
REMARK  0 active torsions:
REMARK  status: ('A' for Active; 'I' for Inactive)
ROOT
ATOM      1  C   UNL d   1      -2.396   0.957   1.151  0.00  0.00    -0.002 A 
ATOM      2  C1  UNL d   1      -1.510   0.281   1.977  0.00  0.00     0.010 A 
ATOM      3  C2  UNL d   1      -0.430  -0.421   1.438  0.00  0.00     0.041 A 
ATOM      4  C3  UNL d   1      -0.253  -0.430   0.040  0.00  0.00    -0.075 A 
ATOM      5  S   UNL d   1       0.998  -1.220  -0.844  0.00  0.00     0.015 SA
ATOM      6  C4  UNL d   1       0.387  -0.678  -2.340  0.00  0.00     0.022 A 
ATOM      7  C5  UNL d   1      -0.744   0.088  -2.187  0.00  0.00     0.026 A 
ATOM      8  C6  UNL d   1      -1.131   0.245  -0.813  0.00  0.00    -0.082 A 
ATOM      9  C7  UNL d   1      -2.217   0.946  -0.235  0.00  0.00     0.045 A 
ENDROOT
TORSDOF 0
ENDMDL
