MODEL 1
REMARK minimizedAffinity -4.29084921
REMARK minimizedRMSD -1
REMARK  1 active torsions:
REMARK  status: ('A' for Active; 'I' for Inactive)
REMARK    1  A    between atoms: C1_2  and  C2_3 
ROOT
ATOM      1  C2  UNL d   1       0.027   0.511  -0.414  0.00  0.00    -0.081 A 
ATOM      2  C3  UNL d   1       0.942   0.499   0.646  0.00  0.00     0.006 A 
ATOM      3  C4  UNL d   1       0.575  -0.017   1.892  0.00  0.00     0.002 A 
ATOM      4  C5  UNL d   1      -0.708  -0.535   2.095  0.00  0.00    -0.080 A 
ATOM      5  C6  UNL d   1      -1.105  -1.119   3.419  0.00  0.00     0.076 C 
ATOM      6  C7  UNL d   1      -1.627  -0.507   1.041  0.00  0.00     0.002 A 
ATOM      7  C8  UNL d   1      -1.262   0.009  -0.204  0.00  0.00     0.006 A 
ENDROOT
BRANCH   1   8
ATOM      8  C1  UNL d   1       0.440   1.007  -1.777  0.00  0.00     0.054 C 
ATOM      9  C   UNL d   1       0.787  -0.149  -2.704  0.00  0.00     0.018 C 
ENDBRANCH   1   8
TORSDOF 1
ENDMDL
