MODEL 1
REMARK minimizedAffinity -5.45068216
REMARK minimizedRMSD -1
REMARK  1 active torsions:
REMARK  status: ('A' for Active; 'I' for Inactive)
REMARK    1  A    between atoms: C1_2  and  C2_3 
ROOT
ATOM      1  C2  UNL d   1       0.597   0.103  -1.246  0.00  0.00    -0.081 A 
ATOM      2  C3  UNL d   1      -0.482  -0.508  -0.597  0.00  0.00     0.006 A 
ATOM      3  C4  UNL d   1      -0.637  -0.387   0.786  0.00  0.00     0.002 A 
ATOM      4  C5  UNL d   1       0.279   0.353   1.541  0.00  0.00    -0.080 A 
ATOM      5  C6  UNL d   1       0.107   0.517   3.022  0.00  0.00     0.076 C 
ATOM      6  C7  UNL d   1       1.367   0.950   0.895  0.00  0.00     0.002 A 
ATOM      7  C8  UNL d   1       1.523   0.829  -0.488  0.00  0.00     0.006 A 
ENDROOT
BRANCH   1   8
ATOM      8  C1  UNL d   1       0.732   0.029  -2.746  0.00  0.00     0.054 C 
ATOM      9  C   UNL d   1       0.866  -1.412  -3.218  0.00  0.00     0.018 C 
ENDBRANCH   1   8
TORSDOF 1
ENDMDL
