MODEL 1
REMARK minimizedAffinity -4.26555586
REMARK minimizedRMSD -1
REMARK  1 active torsions:
REMARK  status: ('A' for Active; 'I' for Inactive)
REMARK    1  A    between atoms: C1_2  and  C2_3 
ROOT
ATOM      1  C2  UNL d   1       1.600  -0.534  -2.412  0.00  0.00    -0.081 A 
ATOM      2  C3  UNL d   1       1.144  -0.594  -1.090  0.00  0.00     0.006 A 
ATOM      3  C4  UNL d   1       0.595  -1.774  -0.583  0.00  0.00     0.002 A 
ATOM      4  C5  UNL d   1       0.500  -2.915  -1.386  0.00  0.00    -0.080 A 
ATOM      5  C6  UNL d   1      -0.060  -4.197  -0.845  0.00  0.00     0.076 C 
ATOM      6  C7  UNL d   1       0.940  -2.850  -2.713  0.00  0.00     0.002 A 
ATOM      7  C8  UNL d   1       1.488  -1.670  -3.221  0.00  0.00     0.006 A 
ENDROOT
BRANCH   1   8
ATOM      8  C1  UNL d   1       2.252   0.718  -2.942  0.00  0.00     0.054 C 
ATOM      9  C   UNL d   1       3.570   0.404  -3.635  0.00  0.00     0.018 C 
ENDBRANCH   1   8
TORSDOF 1
ENDMDL
