MODEL 1
REMARK minimizedAffinity -4.6190052
REMARK minimizedRMSD -1
REMARK  1 active torsions:
REMARK  status: ('A' for Active; 'I' for Inactive)
REMARK    1  A    between atoms: C1_2  and  C2_3 
ROOT
ATOM      1  C2  UNL d   1       0.465   0.597  -1.559  0.00  0.00    -0.081 A 
ATOM      2  C3  UNL d   1       1.233   1.443  -0.750  0.00  0.00     0.006 A 
ATOM      3  C4  UNL d   1       1.034   1.473   0.632  0.00  0.00     0.002 A 
ATOM      4  C5  UNL d   1       0.070   0.654   1.229  0.00  0.00    -0.080 A 
ATOM      5  C6  UNL d   1      -0.133   0.655   2.715  0.00  0.00     0.076 C 
ATOM      6  C7  UNL d   1      -0.710  -0.178   0.418  0.00  0.00     0.002 A 
ATOM      7  C8  UNL d   1      -0.512  -0.209  -0.964  0.00  0.00     0.006 A 
ENDROOT
BRANCH   1   8
ATOM      8  C1  UNL d   1       0.721   0.515  -3.042  0.00  0.00     0.054 C 
ATOM      9  C   UNL d   1       2.173   0.831  -3.371  0.00  0.00     0.018 C 
ENDBRANCH   1   8
TORSDOF 1
ENDMDL
