MODEL 1
REMARK minimizedAffinity -4.4895587
REMARK minimizedRMSD -1
REMARK  1 active torsions:
REMARK  status: ('A' for Active; 'I' for Inactive)
REMARK    1  A    between atoms: C1_2  and  C2_3 
ROOT
ATOM      1  C2  UNL d   1       3.268   0.393  -3.887  0.00  0.00    -0.081 A 
ATOM      2  C3  UNL d   1       3.773  -0.834  -4.334  0.00  0.00     0.006 A 
ATOM      3  C4  UNL d   1       2.999  -1.993  -4.246  0.00  0.00     0.002 A 
ATOM      4  C5  UNL d   1       1.705  -1.944  -3.718  0.00  0.00    -0.080 A 
ATOM      5  C6  UNL d   1       0.852  -3.175  -3.646  0.00  0.00     0.076 C 
ATOM      6  C7  UNL d   1       1.206  -0.721  -3.255  0.00  0.00     0.002 A 
ATOM      7  C8  UNL d   1       1.980   0.438  -3.342  0.00  0.00     0.006 A 
ENDROOT
BRANCH   1   8
ATOM      8  C1  UNL d   1       4.076   1.657  -4.039  0.00  0.00     0.054 C 
ATOM      9  C   UNL d   1       3.352   2.675  -4.908  0.00  0.00     0.018 C 
ENDBRANCH   1   8
TORSDOF 1
ENDMDL
