MODEL 1
REMARK minimizedAffinity -2.1975801
REMARK minimizedRMSD -1
REMARK  1 active torsions:
REMARK  status: ('A' for Active; 'I' for Inactive)
REMARK    1  A    between atoms: C1_2  and  C2_3 
ROOT
ATOM      1  C2  UNL d   1       3.281   0.670  -3.860  0.00  0.00    -0.081 A 
ATOM      2  C3  UNL d   1       3.746  -0.496  -4.479  0.00  0.00     0.006 A 
ATOM      3  C4  UNL d   1       2.941  -1.636  -4.538  0.00  0.00     0.002 A 
ATOM      4  C5  UNL d   1       1.656  -1.626  -3.985  0.00  0.00    -0.080 A 
ATOM      5  C6  UNL d   1       0.769  -2.834  -4.068  0.00  0.00     0.076 C 
ATOM      6  C7  UNL d   1       1.198  -0.467  -3.351  0.00  0.00     0.002 A 
ATOM      7  C8  UNL d   1       2.003   0.673  -3.291  0.00  0.00     0.006 A 
ENDROOT
BRANCH   1   8
ATOM      8  C1  UNL d   1       4.122   1.921  -3.852  0.00  0.00     0.054 C 
ATOM      9  C   UNL d   1       3.552   2.977  -4.788  0.00  0.00     0.018 C 
ENDBRANCH   1   8
TORSDOF 1
ENDMDL
