MODEL 1
REMARK minimizedAffinity 4.93395281
REMARK minimizedRMSD -1
REMARK  1 active torsions:
REMARK  status: ('A' for Active; 'I' for Inactive)
REMARK    1  A    between atoms: C1_2  and  C2_3 
ROOT
ATOM      1  C2  UNL d   1       0.435   0.204   2.916  0.00  0.00    -0.081 A 
ATOM      2  C3  UNL d   1       0.658   1.010   1.793  0.00  0.00     0.006 A 
ATOM      3  C4  UNL d   1       1.935   1.109   1.235  0.00  0.00     0.002 A 
ATOM      4  C5  UNL d   1       3.007   0.398   1.785  0.00  0.00    -0.080 A 
ATOM      5  C6  UNL d   1       4.376   0.472   1.177  0.00  0.00     0.076 C 
ATOM      6  C7  UNL d   1       2.788  -0.394   2.917  0.00  0.00     0.002 A 
ATOM      7  C8  UNL d   1       1.511  -0.492   3.476  0.00  0.00     0.006 A 
ENDROOT
BRANCH   1   8
ATOM      8  C1  UNL d   1      -0.954   0.044   3.481  0.00  0.00     0.054 C 
ATOM      9  C   UNL d   1      -1.266  -1.416   3.777  0.00  0.00     0.018 C 
ENDBRANCH   1   8
TORSDOF 1
ENDMDL
