MODEL 1
REMARK minimizedAffinity -3.1727469
REMARK minimizedRMSD -1
REMARK  1 active torsions:
REMARK  status: ('A' for Active; 'I' for Inactive)
REMARK    1  A    between atoms: C1_2  and  C2_3 
ROOT
ATOM      1  C2  UNL d   1       0.016  -0.086  -0.879  0.00  0.00    -0.081 A 
ATOM      2  C3  UNL d   1       1.079  -0.350  -0.006  0.00  0.00     0.006 A 
ATOM      3  C4  UNL d   1       0.849  -0.506   1.363  0.00  0.00     0.002 A 
ATOM      4  C5  UNL d   1      -0.447  -0.409   1.880  0.00  0.00    -0.080 A 
ATOM      5  C6  UNL d   1      -0.711  -0.605   3.344  0.00  0.00     0.076 C 
ATOM      6  C7  UNL d   1      -1.506  -0.128   1.011  0.00  0.00     0.002 A 
ATOM      7  C8  UNL d   1      -1.277   0.029  -0.358  0.00  0.00     0.006 A 
ENDROOT
BRANCH   1   8
ATOM      8  C1  UNL d   1       0.252   0.018  -2.364  0.00  0.00     0.054 C 
ATOM      9  C   UNL d   1       0.736  -1.304  -2.942  0.00  0.00     0.018 C 
ENDBRANCH   1   8
TORSDOF 1
ENDMDL
