MODEL 1
REMARK minimizedAffinity -3.05629492
REMARK minimizedRMSD -1
REMARK  1 active torsions:
REMARK  status: ('A' for Active; 'I' for Inactive)
REMARK    1  A    between atoms: C1_2  and  C2_3 
ROOT
ATOM      1  C2  UNL d   1       0.870  -0.462  -1.334  0.00  0.00    -0.081 A 
ATOM      2  C3  UNL d   1       1.374  -1.175  -0.240  0.00  0.00     0.006 A 
ATOM      3  C4  UNL d   1       1.022  -0.814   1.063  0.00  0.00     0.002 A 
ATOM      4  C5  UNL d   1       0.156   0.260   1.293  0.00  0.00    -0.080 A 
ATOM      5  C6  UNL d   1      -0.254   0.639   2.685  0.00  0.00     0.076 C 
ATOM      6  C7  UNL d   1      -0.334   0.983   0.200  0.00  0.00     0.002 A 
ATOM      7  C8  UNL d   1       0.018   0.623  -1.103  0.00  0.00     0.006 A 
ENDROOT
BRANCH   1   8
ATOM      8  C1  UNL d   1       1.196  -0.889  -2.743  0.00  0.00     0.054 C 
ATOM      9  C   UNL d   1       0.658  -2.282  -3.037  0.00  0.00     0.018 C 
ENDBRANCH   1   8
TORSDOF 1
ENDMDL
