MODEL 1
REMARK minimizedAffinity -4.61203957
REMARK minimizedRMSD -1
REMARK  1 active torsions:
REMARK  status: ('A' for Active; 'I' for Inactive)
REMARK    1  A    between atoms: C1_2  and  C2_3 
ROOT
ATOM      1  C2  UNL d   1      -1.038  -0.112   0.974  0.00  0.00    -0.081 A 
ATOM      2  C3  UNL d   1      -0.831   0.345   2.281  0.00  0.00     0.006 A 
ATOM      3  C4  UNL d   1       0.460   0.426   2.807  0.00  0.00     0.002 A 
ATOM      4  C5  UNL d   1       1.566   0.059   2.032  0.00  0.00    -0.080 A 
ATOM      5  C6  UNL d   1       2.960   0.170   2.574  0.00  0.00     0.076 C 
ATOM      6  C7  UNL d   1       1.358  -0.414   0.732  0.00  0.00     0.002 A 
ATOM      7  C8  UNL d   1       0.067  -0.495   0.206  0.00  0.00     0.006 A 
ENDROOT
BRANCH   1   8
ATOM      8  C1  UNL d   1      -2.424  -0.139   0.382  0.00  0.00     0.054 C 
ATOM      9  C   UNL d   1      -2.525   0.773  -0.833  0.00  0.00     0.018 C 
ENDBRANCH   1   8
TORSDOF 1
ENDMDL
