MODEL 1
REMARK minimizedAffinity -2.45828629
REMARK minimizedRMSD -1
REMARK  1 active torsions:
REMARK  status: ('A' for Active; 'I' for Inactive)
REMARK    1  A    between atoms: C1_2  and  C2_3 
ROOT
ATOM      1  C2  UNL d   1       0.278  -0.358  -1.215  0.00  0.00    -0.081 A 
ATOM      2  C3  UNL d   1       1.281  -0.799  -0.344  0.00  0.00     0.006 A 
ATOM      3  C4  UNL d   1       1.251  -0.448   1.008  0.00  0.00     0.002 A 
ATOM      4  C5  UNL d   1       0.213   0.343   1.513  0.00  0.00    -0.080 A 
ATOM      5  C6  UNL d   1       0.152   0.702   2.968  0.00  0.00     0.076 C 
ATOM      6  C7  UNL d   1      -0.780   0.799   0.639  0.00  0.00     0.002 A 
ATOM      7  C8  UNL d   1      -0.750   0.448  -0.713  0.00  0.00     0.006 A 
ENDROOT
BRANCH   1   8
ATOM      8  C1  UNL d   1       0.273  -0.789  -2.659  0.00  0.00     0.054 C 
ATOM      9  C   UNL d   1       1.375  -1.799  -2.939  0.00  0.00     0.018 C 
ENDBRANCH   1   8
TORSDOF 1
ENDMDL
