MODEL 1
REMARK minimizedAffinity -3.34745502
REMARK minimizedRMSD -1
REMARK  1 active torsions:
REMARK  status: ('A' for Active; 'I' for Inactive)
REMARK    1  A    between atoms: C1_2  and  C2_3 
ROOT
ATOM      1  C2  UNL d   1       0.368  -0.671  -1.214  0.00  0.00    -0.081 A 
ATOM      2  C3  UNL d   1      -0.407   0.428  -0.822  0.00  0.00     0.006 A 
ATOM      3  C4  UNL d   1      -0.815   0.569   0.506  0.00  0.00     0.002 A 
ATOM      4  C5  UNL d   1      -0.449  -0.381   1.466  0.00  0.00    -0.080 A 
ATOM      5  C6  UNL d   1      -0.855  -0.225   2.902  0.00  0.00     0.076 C 
ATOM      6  C7  UNL d   1       0.310  -1.487   1.072  0.00  0.00     0.002 A 
ATOM      7  C8  UNL d   1       0.718  -1.629  -0.257  0.00  0.00     0.006 A 
ENDROOT
BRANCH   1   8
ATOM      8  C1  UNL d   1       0.864  -0.792  -2.632  0.00  0.00     0.054 C 
ATOM      9  C   UNL d   1       1.135  -2.244  -3.001  0.00  0.00     0.018 C 
ENDBRANCH   1   8
TORSDOF 1
ENDMDL
