MODEL 1
REMARK minimizedAffinity 4.96719837
REMARK minimizedRMSD -1
REMARK  1 active torsions:
REMARK  status: ('A' for Active; 'I' for Inactive)
REMARK    1  A    between atoms: N_2  and  C1_3 
ROOT
ATOM      1  C1  UNL d   1      -2.644  -0.029  -2.177  0.00  0.00     0.143 A 
ATOM      2  C2  UNL d   1      -3.128   1.282  -2.249  0.00  0.00    -0.057 A 
ATOM      3  C3  UNL d   1      -2.822   2.224  -1.259  0.00  0.00     0.033 A 
ATOM      4  C4  UNL d   1      -2.049   1.862  -0.161  0.00  0.00    -0.042 A 
ATOM      5  C5  UNL d   1      -1.578   0.558  -0.056  0.00  0.00     0.033 A 
ATOM      6  C6  UNL d   1      -1.882  -0.376  -1.051  0.00  0.00    -0.057 A 
ENDROOT
BRANCH   1   7
ATOM      7  N   UNL d   1      -2.994  -1.038  -3.078  0.00  0.00    -0.732 N 
ATOM      8  C   UNL d   1      -3.693  -2.221  -2.624  0.00  0.00     0.284 C 
ATOM      9  H3  UNL d   1      -3.334  -0.668  -3.962  0.00  0.00     0.395 HD
ENDBRANCH   1   7
TORSDOF 1
ENDMDL
