MODEL 1
REMARK minimizedAffinity 6.58247948
REMARK minimizedRMSD -1
REMARK  1 active torsions:
REMARK  status: ('A' for Active; 'I' for Inactive)
REMARK    1  A    between atoms: N_2  and  C1_3 
ROOT
ATOM      1  C1  UNL d   1       2.134  -3.386   1.904  0.00  0.00     0.143 A 
ATOM      2  C2  UNL d   1       0.938  -3.089   2.566  0.00  0.00    -0.057 A 
ATOM      3  C3  UNL d   1       0.579  -1.768   2.860  0.00  0.00     0.033 A 
ATOM      4  C4  UNL d   1       1.428  -0.719   2.523  0.00  0.00    -0.042 A 
ATOM      5  C5  UNL d   1       2.634  -0.992   1.887  0.00  0.00     0.033 A 
ATOM      6  C6  UNL d   1       2.983  -2.313   1.589  0.00  0.00    -0.057 A 
ENDROOT
BRANCH   1   7
ATOM      7  N   UNL d   1       2.593  -4.684   1.671  0.00  0.00    -0.732 N 
ATOM      8  C   UNL d   1       2.288  -5.362   0.429  0.00  0.00     0.284 C 
ATOM      9  H3  UNL d   1       3.547  -4.824   1.997  0.00  0.00     0.395 HD
ENDBRANCH   1   7
TORSDOF 1
ENDMDL
