MODEL 1
REMARK minimizedAffinity 4.20915794
REMARK minimizedRMSD -1
REMARK  1 active torsions:
REMARK  status: ('A' for Active; 'I' for Inactive)
REMARK    1  A    between atoms: N_2  and  C1_3 
ROOT
ATOM      1  C1  UNL d   1      -3.329  -0.527  -4.328  0.00  0.00     0.143 A 
ATOM      2  C2  UNL d   1      -3.791   0.560  -5.077  0.00  0.00    -0.057 A 
ATOM      3  C3  UNL d   1      -3.865   1.844  -4.524  0.00  0.00     0.033 A 
ATOM      4  C4  UNL d   1      -3.504   2.059  -3.198  0.00  0.00    -0.042 A 
ATOM      5  C5  UNL d   1      -3.065   0.988  -2.427  0.00  0.00     0.033 A 
ATOM      6  C6  UNL d   1      -2.987  -0.291  -2.987  0.00  0.00    -0.057 A 
ENDROOT
BRANCH   1   7
ATOM      7  N   UNL d   1      -3.326  -1.845  -4.790  0.00  0.00    -0.732 N 
ATOM      8  C   UNL d   1      -4.061  -2.210  -5.983  0.00  0.00     0.284 C 
ATOM      9  H3  UNL d   1      -2.408  -2.280  -4.718  0.00  0.00     0.395 HD
ENDBRANCH   1   7
TORSDOF 1
ENDMDL
