MODEL 1
REMARK minimizedAffinity 5.23424578
REMARK minimizedRMSD -1
REMARK  1 active torsions:
REMARK  status: ('A' for Active; 'I' for Inactive)
REMARK    1  A    between atoms: N_2  and  C1_3 
ROOT
ATOM      1  C1  UNL d   1       0.993  -3.565   3.798  0.00  0.00     0.143 A 
ATOM      2  C2  UNL d   1       1.737  -4.349   2.910  0.00  0.00    -0.057 A 
ATOM      3  C3  UNL d   1       2.513  -3.766   1.901  0.00  0.00     0.033 A 
ATOM      4  C4  UNL d   1       2.536  -2.384   1.744  0.00  0.00    -0.042 A 
ATOM      5  C5  UNL d   1       1.785  -1.586   2.599  0.00  0.00     0.033 A 
ATOM      6  C6  UNL d   1       1.017  -2.174   3.609  0.00  0.00    -0.057 A 
ENDROOT
BRANCH   1   7
ATOM      7  N   UNL d   1       0.125  -4.089   4.759  0.00  0.00    -0.732 N 
ATOM      8  C   UNL d   1       0.614  -4.987   5.783  0.00  0.00     0.284 C 
ATOM      9  H3  UNL d   1      -0.544  -3.400   5.095  0.00  0.00     0.395 HD
ENDBRANCH   1   7
TORSDOF 1
ENDMDL
