MODEL 1
REMARK minimizedAffinity 1.66481137
REMARK minimizedRMSD -1
REMARK  1 active torsions:
REMARK  status: ('A' for Active; 'I' for Inactive)
REMARK    1  A    between atoms: N_2  and  C1_3 
ROOT
ATOM      1  C1  UNL d   1       2.241  -1.390   2.748  0.00  0.00     0.143 A 
ATOM      2  C2  UNL d   1       2.351  -2.691   2.244  0.00  0.00    -0.057 A 
ATOM      3  C3  UNL d   1       2.227  -3.807   3.081  0.00  0.00     0.033 A 
ATOM      4  C4  UNL d   1       2.019  -3.640   4.446  0.00  0.00    -0.042 A 
ATOM      5  C5  UNL d   1       1.931  -2.356   4.973  0.00  0.00     0.033 A 
ATOM      6  C6  UNL d   1       2.049  -1.246   4.131  0.00  0.00    -0.057 A 
ENDROOT
BRANCH   1   7
ATOM      7  N   UNL d   1       2.453  -0.240   1.984  0.00  0.00    -0.732 N 
ATOM      8  C   UNL d   1       3.620  -0.122   1.137  0.00  0.00     0.284 C 
ATOM      9  H3  UNL d   1       1.596   0.109   1.562  0.00  0.00     0.395 HD
ENDBRANCH   1   7
TORSDOF 1
ENDMDL
