MODEL 1
REMARK minimizedAffinity 7.62936592
REMARK minimizedRMSD -1
REMARK  1 active torsions:
REMARK  status: ('A' for Active; 'I' for Inactive)
REMARK    1  A    between atoms: N_2  and  C1_3 
ROOT
ATOM      1  C1  UNL d   1      -3.919   0.843  -3.756  0.00  0.00     0.143 A 
ATOM      2  C2  UNL d   1      -4.161  -0.502  -4.053  0.00  0.00    -0.057 A 
ATOM      3  C3  UNL d   1      -3.744  -1.523  -3.190  0.00  0.00     0.033 A 
ATOM      4  C4  UNL d   1      -3.049  -1.216  -2.025  0.00  0.00    -0.042 A 
ATOM      5  C5  UNL d   1      -2.775   0.113  -1.722  0.00  0.00     0.033 A 
ATOM      6  C6  UNL d   1      -3.200   1.128  -2.584  0.00  0.00    -0.057 A 
ENDROOT
BRANCH   1   7
ATOM      7  N   UNL d   1      -4.222   1.898  -4.621  0.00  0.00    -0.732 N 
ATOM      8  C   UNL d   1      -4.577   1.641  -6.000  0.00  0.00     0.284 C 
ATOM      9  H3  UNL d   1      -4.785   2.618  -4.174  0.00  0.00     0.395 HD
ENDBRANCH   1   7
TORSDOF 1
ENDMDL
