MODEL 1
REMARK minimizedAffinity 3.78618956
REMARK minimizedRMSD -1
REMARK  1 active torsions:
REMARK  status: ('A' for Active; 'I' for Inactive)
REMARK    1  A    between atoms: N_2  and  C1_3 
ROOT
ATOM      1  C1  UNL d   1       1.925  -2.084   3.000  0.00  0.00     0.143 A 
ATOM      2  C2  UNL d   1       1.804  -3.416   2.590  0.00  0.00    -0.057 A 
ATOM      3  C3  UNL d   1       2.231  -4.469   3.407  0.00  0.00     0.033 A 
ATOM      4  C4  UNL d   1       2.814  -4.206   4.643  0.00  0.00    -0.042 A 
ATOM      5  C5  UNL d   1       2.966  -2.889   5.061  0.00  0.00     0.033 A 
ATOM      6  C6  UNL d   1       2.532  -1.842   4.242  0.00  0.00    -0.057 A 
ENDROOT
BRANCH   1   7
ATOM      7  N   UNL d   1       1.610  -0.989   2.192  0.00  0.00    -0.732 N 
ATOM      8  C   UNL d   1       2.611   0.008   1.878  0.00  0.00     0.284 C 
ATOM      9  H3  UNL d   1       1.017  -1.245   1.405  0.00  0.00     0.395 HD
ENDBRANCH   1   7
TORSDOF 1
ENDMDL
