MODEL 1
REMARK minimizedAffinity 10.8714571
REMARK minimizedRMSD -1
REMARK  1 active torsions:
REMARK  status: ('A' for Active; 'I' for Inactive)
REMARK    1  A    between atoms: N_2  and  C1_3 
ROOT
ATOM      1  C1  UNL d   1       2.188  -0.716   2.267  0.00  0.00     0.143 A 
ATOM      2  C2  UNL d   1       0.953  -0.960   2.877  0.00  0.00    -0.057 A 
ATOM      3  C3  UNL d   1       0.627  -2.228   3.375  0.00  0.00     0.033 A 
ATOM      4  C4  UNL d   1       1.522  -3.284   3.244  0.00  0.00    -0.042 A 
ATOM      5  C5  UNL d   1       2.745  -3.070   2.619  0.00  0.00     0.033 A 
ATOM      6  C6  UNL d   1       3.068  -1.801   2.130  0.00  0.00    -0.057 A 
ENDROOT
BRANCH   1   7
ATOM      7  N   UNL d   1       2.531   0.497   1.665  0.00  0.00    -0.732 N 
ATOM      8  C   UNL d   1       2.002   1.746   2.169  0.00  0.00     0.284 C 
ATOM      9  H3  UNL d   1       3.514   0.537   1.405  0.00  0.00     0.395 HD
ENDBRANCH   1   7
TORSDOF 1
ENDMDL
