MODEL 1
REMARK minimizedAffinity -1.61253059
REMARK minimizedRMSD -1
REMARK  1 active torsions:
REMARK  status: ('A' for Active; 'I' for Inactive)
REMARK    1  A    between atoms: N_2  and  C1_3 
ROOT
ATOM      1  C1  UNL d   1       1.736  -3.849   4.678  0.00  0.00     0.143 A 
ATOM      2  C2  UNL d   1       1.277  -2.542   4.487  0.00  0.00    -0.057 A 
ATOM      3  C3  UNL d   1       1.626  -1.809   3.346  0.00  0.00     0.033 A 
ATOM      4  C4  UNL d   1       2.467  -2.364   2.386  0.00  0.00    -0.042 A 
ATOM      5  C5  UNL d   1       2.955  -3.652   2.568  0.00  0.00     0.033 A 
ATOM      6  C6  UNL d   1       2.598  -4.381   3.706  0.00  0.00    -0.057 A 
ENDROOT
BRANCH   1   7
ATOM      7  N   UNL d   1       1.505  -4.593   5.838  0.00  0.00    -0.732 N 
ATOM      8  C   UNL d   1       0.320  -5.413   5.964  0.00  0.00     0.284 C 
ATOM      9  H3  UNL d   1       2.353  -5.029   6.195  0.00  0.00     0.395 HD
ENDBRANCH   1   7
TORSDOF 1
ENDMDL
