MODEL 1
REMARK minimizedAffinity 5.20753622
REMARK minimizedRMSD -1
REMARK  1 active torsions:
REMARK  status: ('A' for Active; 'I' for Inactive)
REMARK    1  A    between atoms: N_2  and  C1_3 
ROOT
ATOM      1  C1  UNL d   1      -2.531   0.508  -2.425  0.00  0.00     0.143 A 
ATOM      2  C2  UNL d   1      -3.143   1.754  -2.251  0.00  0.00    -0.057 A 
ATOM      3  C3  UNL d   1      -2.937   2.508  -1.089  0.00  0.00     0.033 A 
ATOM      4  C4  UNL d   1      -2.137   2.013  -0.064  0.00  0.00    -0.042 A 
ATOM      5  C5  UNL d   1      -1.539   0.766  -0.205  0.00  0.00     0.033 A 
ATOM      6  C6  UNL d   1      -1.742   0.021  -1.370  0.00  0.00    -0.057 A 
ENDROOT
BRANCH   1   7
ATOM      7  N   UNL d   1      -2.774  -0.333  -3.514  0.00  0.00    -0.732 N 
ATOM      8  C   UNL d   1      -3.511  -1.566  -3.343  0.00  0.00     0.284 C 
ATOM      9  H3  UNL d   1      -3.017   0.184  -4.356  0.00  0.00     0.395 HD
ENDBRANCH   1   7
TORSDOF 1
ENDMDL
