MODEL 1
REMARK minimizedAffinity -3.09095931
REMARK minimizedRMSD -1
REMARK  0 active torsions:
REMARK  status: ('A' for Active; 'I' for Inactive)
ROOT
ATOM      1  C   UNL d   1      -2.381   5.998  -3.595  0.00  0.00     0.023 A 
ATOM      2  C1  UNL d   1      -2.337   5.996  -4.989  0.00  0.00     0.003 A 
ATOM      3  C2  UNL d   1      -1.107   5.995  -5.650  0.00  0.00     0.048 A 
ATOM      4  C3  UNL d   1       0.075   5.995  -4.910  0.00  0.00     0.023 A 
ATOM      5  C4  UNL d   1       0.036   5.996  -3.515  0.00  0.00     0.048 A 
ATOM      6  C5  UNL d   1      -1.196   5.998  -2.858  0.00  0.00     0.003 A 
ATOM      7  I   UNL d   1       1.908   5.992  -5.891  0.00  0.00    -0.146 I 
ENDROOT
TORSDOF 0
ENDMDL
