MODEL 1
REMARK minimizedAffinity 1.27477086
REMARK minimizedRMSD -1
REMARK  0 active torsions:
REMARK  status: ('A' for Active; 'I' for Inactive)
ROOT
ATOM      1  C   UNL d   1      -2.655   5.998  -1.870  0.00  0.00     0.023 A 
ATOM      2  C1  UNL d   1      -3.057   5.995  -3.205  0.00  0.00     0.003 A 
ATOM      3  C2  UNL d   1      -2.101   5.996  -4.223  0.00  0.00     0.048 A 
ATOM      4  C3  UNL d   1      -0.745   5.997  -3.898  0.00  0.00     0.023 A 
ATOM      5  C4  UNL d   1      -0.338   5.999  -2.563  0.00  0.00     0.048 A 
ATOM      6  C5  UNL d   1      -1.298   5.999  -1.549  0.00  0.00     0.003 A 
ATOM      7  I   UNL d   1       0.680   5.997  -5.412  0.00  0.00    -0.146 I 
ENDROOT
TORSDOF 0
ENDMDL
