MODEL 1
REMARK minimizedAffinity -2.70827746
REMARK minimizedRMSD -1
REMARK  0 active torsions:
REMARK  status: ('A' for Active; 'I' for Inactive)
ROOT
ATOM      1  C   UNL d   1      -1.910   5.995  -4.220  0.00  0.00     0.023 A 
ATOM      2  C1  UNL d   1      -1.582   5.989  -5.576  0.00  0.00     0.003 A 
ATOM      3  C2  UNL d   1      -0.243   5.988  -5.972  0.00  0.00     0.048 A 
ATOM      4  C3  UNL d   1       0.763   5.993  -5.006  0.00  0.00     0.023 A 
ATOM      5  C4  UNL d   1       0.440   5.998  -3.649  0.00  0.00     0.048 A 
ATOM      6  C5  UNL d   1      -0.900   6.000  -3.257  0.00  0.00     0.003 A 
ATOM      7  I   UNL d   1       2.757   5.991  -5.593  0.00  0.00    -0.146 I 
ENDROOT
TORSDOF 0
ENDMDL
