MODEL 1
REMARK minimizedAffinity 1.80349016
REMARK minimizedRMSD -1
REMARK  0 active torsions:
REMARK  status: ('A' for Active; 'I' for Inactive)
ROOT
ATOM      1  C   UNL d   1       1.998   5.998  -4.689  0.00  0.00     0.023 A 
ATOM      2  C1  UNL d   1       1.361   5.999  -5.930  0.00  0.00     0.003 A 
ATOM      3  C2  UNL d   1      -0.034   5.999  -6.000  0.00  0.00     0.048 A 
ATOM      4  C3  UNL d   1      -0.785   5.999  -4.825  0.00  0.00     0.023 A 
ATOM      5  C4  UNL d   1      -0.152   5.999  -3.581  0.00  0.00     0.048 A 
ATOM      6  C5  UNL d   1       1.243   5.998  -3.516  0.00  0.00     0.003 A 
ATOM      7  I   UNL d   1      -2.861   5.999  -4.927  0.00  0.00    -0.146 I 
ENDROOT
TORSDOF 0
ENDMDL
