MODEL 1
REMARK minimizedAffinity -2.54556227
REMARK minimizedRMSD -1
REMARK  0 active torsions:
REMARK  status: ('A' for Active; 'I' for Inactive)
ROOT
ATOM      1  C   UNL d   1       1.536   4.440  -5.393  0.00  0.00     0.023 A 
ATOM      2  C1  UNL d   1       2.253   3.744  -4.419  0.00  0.00     0.003 A 
ATOM      3  C2  UNL d   1       3.530   4.172  -4.052  0.00  0.00     0.048 A 
ATOM      4  C3  UNL d   1       4.084   5.297  -4.661  0.00  0.00     0.023 A 
ATOM      5  C4  UNL d   1       3.370   5.997  -5.635  0.00  0.00     0.048 A 
ATOM      6  C5  UNL d   1       2.094   5.565  -6.000  0.00  0.00     0.003 A 
ATOM      7  I   UNL d   1       5.985   5.936  -4.116  0.00  0.00    -0.146 I 
ENDROOT
TORSDOF 0
ENDMDL
