MODEL 1
REMARK minimizedAffinity 9.83565807
REMARK minimizedRMSD -1
REMARK  0 active torsions:
REMARK  status: ('A' for Active; 'I' for Inactive)
ROOT
ATOM      1  C   UNL d   1      -0.187   5.977  -5.987  0.00  0.00     0.023 A 
ATOM      2  C1  UNL d   1      -1.551   5.976  -5.696  0.00  0.00     0.003 A 
ATOM      3  C2  UNL d   1      -1.983   5.981  -4.368  0.00  0.00     0.048 A 
ATOM      4  C3  UNL d   1      -1.045   5.988  -3.336  0.00  0.00     0.023 A 
ATOM      5  C4  UNL d   1       0.321   5.990  -3.622  0.00  0.00     0.048 A 
ATOM      6  C5  UNL d   1       0.748   5.985  -4.951  0.00  0.00     0.003 A 
ATOM      7  I   UNL d   1      -1.686   5.996  -1.359  0.00  0.00    -0.146 I 
ENDROOT
TORSDOF 0
ENDMDL
