MODEL 1
REMARK minimizedAffinity -0.120507725
REMARK minimizedRMSD -1
REMARK  0 active torsions:
REMARK  status: ('A' for Active; 'I' for Inactive)
ROOT
ATOM      1  C   UNL d   1      -2.616   5.991  -3.737  0.00  0.00     0.023 A 
ATOM      2  C1  UNL d   1      -1.584   5.999  -2.798  0.00  0.00     0.003 A 
ATOM      3  C2  UNL d   1      -0.253   6.000  -3.222  0.00  0.00     0.048 A 
ATOM      4  C3  UNL d   1       0.039   5.994  -4.585  0.00  0.00     0.023 A 
ATOM      5  C4  UNL d   1      -0.991   5.987  -5.528  0.00  0.00     0.048 A 
ATOM      6  C5  UNL d   1      -2.320   5.985  -5.100  0.00  0.00     0.003 A 
ATOM      7  I   UNL d   1       2.018   5.996  -5.218  0.00  0.00    -0.146 I 
ENDROOT
TORSDOF 0
ENDMDL
