MODEL 1
REMARK minimizedAffinity -2.74309587
REMARK minimizedRMSD -1
REMARK  0 active torsions:
REMARK  status: ('A' for Active; 'I' for Inactive)
ROOT
ATOM      1  C   UNL d   1       5.873   5.944  -4.513  0.00  0.00     0.023 A 
ATOM      2  C1  UNL d   1       5.328   5.974  -5.797  0.00  0.00     0.003 A 
ATOM      3  C2  UNL d   1       3.942   5.988  -5.967  0.00  0.00     0.048 A 
ATOM      4  C3  UNL d   1       3.107   5.973  -4.850  0.00  0.00     0.023 A 
ATOM      5  C4  UNL d   1       3.649   5.944  -3.564  0.00  0.00     0.048 A 
ATOM      6  C5  UNL d   1       5.035   5.929  -3.398  0.00  0.00     0.003 A 
ATOM      7  I   UNL d   1       1.044   5.995  -5.101  0.00  0.00    -0.146 I 
ENDROOT
TORSDOF 0
ENDMDL
