MODEL 1
REMARK minimizedAffinity 10.2228613
REMARK minimizedRMSD -1
REMARK  0 active torsions:
REMARK  status: ('A' for Active; 'I' for Inactive)
ROOT
ATOM      1  C   UNL d   1      -1.501   5.927  -4.521  0.00  0.00     0.023 A 
ATOM      2  C1  UNL d   1      -0.965   5.875  -5.808  0.00  0.00     0.003 A 
ATOM      3  C2  UNL d   1       0.418   5.814  -5.988  0.00  0.00     0.048 A 
ATOM      4  C3  UNL d   1       1.260   5.805  -4.876  0.00  0.00     0.023 A 
ATOM      5  C4  UNL d   1       0.729   5.856  -3.587  0.00  0.00     0.048 A 
ATOM      6  C5  UNL d   1      -0.655   5.918  -3.412  0.00  0.00     0.003 A 
ATOM      7  I   UNL d   1       3.320   5.714  -5.142  0.00  0.00    -0.146 I 
ENDROOT
TORSDOF 0
ENDMDL
