MODEL 1
REMARK minimizedAffinity 7.72625923
REMARK minimizedRMSD -1
REMARK  0 active torsions:
REMARK  status: ('A' for Active; 'I' for Inactive)
ROOT
ATOM      1  C   UNL d   1      -3.045   5.980   0.248  0.00  0.00     0.023 A 
ATOM      2  C1  UNL d   1      -4.143   5.984  -0.612  0.00  0.00     0.003 A 
ATOM      3  C2  UNL d   1      -3.949   5.988  -1.995  0.00  0.00     0.048 A 
ATOM      4  C3  UNL d   1      -2.654   5.987  -2.511  0.00  0.00     0.023 A 
ATOM      5  C4  UNL d   1      -1.552   5.982  -1.655  0.00  0.00     0.048 A 
ATOM      6  C5  UNL d   1      -1.751   5.979  -0.273  0.00  0.00     0.003 A 
ATOM      7  I   UNL d   1      -2.363   5.993  -4.569  0.00  0.00    -0.146 I 
ENDROOT
TORSDOF 0
ENDMDL
