MODEL 1
REMARK minimizedAffinity 4.21304512
REMARK minimizedRMSD -1
REMARK  0 active torsions:
REMARK  status: ('A' for Active; 'I' for Inactive)
ROOT
ATOM      1  C   UNL d   1       5.694   4.173  -2.865  0.00  0.00     0.023 A 
ATOM      2  C1  UNL d   1       4.503   3.708  -2.306  0.00  0.00     0.003 A 
ATOM      3  C2  UNL d   1       3.389   3.485  -3.117  0.00  0.00     0.048 A 
ATOM      4  C3  UNL d   1       3.473   3.727  -4.488  0.00  0.00     0.023 A 
ATOM      5  C4  UNL d   1       4.662   4.191  -5.052  0.00  0.00     0.048 A 
ATOM      6  C5  UNL d   1       5.773   4.414  -4.237  0.00  0.00     0.003 A 
ATOM      7  I   UNL d   1       1.816   3.395  -5.699  0.00  0.00    -0.146 I 
ENDROOT
TORSDOF 0
ENDMDL
