MODEL 1
REMARK minimizedAffinity 0.22560975
REMARK minimizedRMSD -1
REMARK  0 active torsions:
REMARK  status: ('A' for Active; 'I' for Inactive)
ROOT
ATOM      1  C   UNL d   1      -2.525   5.281  -1.728  0.00  0.00     0.023 A 
ATOM      2  C1  UNL d   1      -1.241   5.793  -1.543  0.00  0.00     0.003 A 
ATOM      3  C2  UNL d   1      -0.405   5.999  -2.643  0.00  0.00     0.048 A 
ATOM      4  C3  UNL d   1      -0.862   5.693  -3.925  0.00  0.00     0.023 A 
ATOM      5  C4  UNL d   1      -2.147   5.182  -4.114  0.00  0.00     0.048 A 
ATOM      6  C5  UNL d   1      -2.978   4.977  -3.012  0.00  0.00     0.003 A 
ATOM      7  I   UNL d   1       0.380   6.000  -5.563  0.00  0.00    -0.146 I 
ENDROOT
TORSDOF 0
ENDMDL
