MODEL 1
REMARK minimizedAffinity -2.31525207
REMARK minimizedRMSD -1
REMARK  2 active torsions:
REMARK  status: ('A' for Active; 'I' for Inactive)
REMARK    1  A    between atoms: C2'_3  and  C1'_4 
REMARK    2  A    between atoms: C1'_4  and  C1_5 
ROOT
ATOM      1  C1  I4B d   1      -1.313  -0.192   0.818  0.00  0.00    -0.075 A 
ATOM      2  C2  I4B d   1      -0.819   0.573  -0.209  0.00  0.00     0.003 A 
ATOM      3  C3  I4B d   1       0.151   0.039  -1.092  0.00  0.00     0.002 A 
ATOM      4  C4  I4B d   1       0.633  -1.237  -0.882  0.00  0.00    -0.004 A 
ATOM      5  C5  I4B d   1       0.114  -2.018   0.146  0.00  0.00     0.002 A 
ATOM      6  C6  I4B d   1      -0.874  -1.498   0.995  0.00  0.00     0.003 A 
ENDROOT
BRANCH   1   7
ATOM      7  C1' I4B d   1      -2.312   0.414   1.752  0.00  0.00     0.060 C 
BRANCH   7   8
ATOM      8  C2' I4B d   1      -1.552   1.085   2.878  0.00  0.00    -0.013 C 
ATOM      9  C4' I4B d   1      -1.850   2.561   2.933  0.00  0.00     0.013 C 
ATOM     10  C3' I4B d   1      -1.931   0.408   4.160  0.00  0.00     0.013 C 
ENDBRANCH   7   8
ENDBRANCH   1   7
TORSDOF 2
ENDMDL
