MODEL 1
REMARK minimizedAffinity -1.07581294
REMARK minimizedRMSD -1
REMARK  2 active torsions:
REMARK  status: ('A' for Active; 'I' for Inactive)
REMARK    1  A    between atoms: C2'_3  and  C1'_4 
REMARK    2  A    between atoms: C1'_4  and  C1_5 
ROOT
ATOM      1  C1  I4B d   1      -0.861   0.004   0.178  0.00  0.00    -0.075 A 
ATOM      2  C2  I4B d   1       0.120   0.880  -0.215  0.00  0.00     0.003 A 
ATOM      3  C3  I4B d   1       1.353   0.394  -0.712  0.00  0.00     0.002 A 
ATOM      4  C4  I4B d   1       1.581  -0.967  -0.752  0.00  0.00    -0.004 A 
ATOM      5  C5  I4B d   1       0.577  -1.854  -0.374  0.00  0.00     0.002 A 
ATOM      6  C6  I4B d   1      -0.656  -1.367   0.082  0.00  0.00     0.003 A 
ENDROOT
BRANCH   1   7
ATOM      7  C1' I4B d   1      -2.139   0.552   0.729  0.00  0.00     0.060 C 
BRANCH   7   8
ATOM      8  C2' I4B d   1      -2.102   0.397   2.236  0.00  0.00    -0.013 C 
ATOM      9  C4' I4B d   1      -2.223   1.732   2.924  0.00  0.00     0.013 C 
ATOM     10  C3' I4B d   1      -3.217  -0.522   2.635  0.00  0.00     0.013 C 
ENDBRANCH   7   8
ENDBRANCH   1   7
TORSDOF 2
ENDMDL
