MODEL 1
REMARK minimizedAffinity -4.43525791
REMARK minimizedRMSD -1
REMARK  2 active torsions:
REMARK  status: ('A' for Active; 'I' for Inactive)
REMARK    1  A    between atoms: C2'_3  and  C1'_4 
REMARK    2  A    between atoms: C1'_4  and  C1_5 
ROOT
ATOM      1  C1  I4B d   1      -0.936   0.219   0.703  0.00  0.00    -0.075 A 
ATOM      2  C2  I4B d   1       0.173  -0.434   1.180  0.00  0.00     0.003 A 
ATOM      3  C3  I4B d   1       1.259  -0.719   0.317  0.00  0.00     0.002 A 
ATOM      4  C4  I4B d   1       1.173  -0.380  -1.017  0.00  0.00    -0.004 A 
ATOM      5  C5  I4B d   1       0.057   0.303  -1.494  0.00  0.00     0.002 A 
ATOM      6  C6  I4B d   1      -0.999   0.615  -0.626  0.00  0.00     0.003 A 
ENDROOT
BRANCH   1   7
ATOM      7  C1' I4B d   1      -2.079   0.474   1.635  0.00  0.00     0.060 C 
BRANCH   7   8
ATOM      8  C2' I4B d   1      -1.519   1.085   2.903  0.00  0.00    -0.013 C 
ATOM      9  C4' I4B d   1      -1.899   2.538   3.022  0.00  0.00     0.013 C 
ATOM     10  C3' I4B d   1      -2.038   0.293   4.066  0.00  0.00     0.013 C 
ENDBRANCH   7   8
ENDBRANCH   1   7
TORSDOF 2
ENDMDL
