MODEL 1
REMARK minimizedAffinity -6.06266737
REMARK minimizedRMSD -1
REMARK  2 active torsions:
REMARK  status: ('A' for Active; 'I' for Inactive)
REMARK    1  A    between atoms: C2'_3  and  C1'_4 
REMARK    2  A    between atoms: C1'_4  and  C1_5 
ROOT
ATOM      1  C1  I4B d   1      -0.339  -0.162   0.155  0.00  0.00    -0.075 A 
ATOM      2  C2  I4B d   1       0.746   0.449  -0.424  0.00  0.00     0.003 A 
ATOM      3  C3  I4B d   1       1.865  -0.319  -0.826  0.00  0.00     0.002 A 
ATOM      4  C4  I4B d   1       1.879  -1.678  -0.587  0.00  0.00    -0.004 A 
ATOM      5  C5  I4B d   1       0.769  -2.299  -0.021  0.00  0.00     0.002 A 
ATOM      6  C6  I4B d   1      -0.352  -1.538   0.341  0.00  0.00     0.003 A 
ENDROOT
BRANCH   1   7
ATOM      7  C1' I4B d   1      -1.491   0.684   0.598  0.00  0.00     0.060 C 
BRANCH   7   8
ATOM      8  C2' I4B d   1      -1.671   0.482   2.089  0.00  0.00    -0.013 C 
ATOM      9  C4' I4B d   1      -1.464   1.770   2.842  0.00  0.00     0.013 C 
ATOM     10  C3' I4B d   1      -3.048  -0.064   2.319  0.00  0.00     0.013 C 
ENDBRANCH   7   8
ENDBRANCH   1   7
TORSDOF 2
ENDMDL
