MODEL 1
REMARK minimizedAffinity -3.47312069
REMARK minimizedRMSD -1
REMARK  2 active torsions:
REMARK  status: ('A' for Active; 'I' for Inactive)
REMARK    1  A    between atoms: C2'_3  and  C1'_4 
REMARK    2  A    between atoms: C1'_4  and  C1_5 
ROOT
ATOM      1  C1  I4B d   1      -0.827   0.303   0.006  0.00  0.00    -0.075 A 
ATOM      2  C2  I4B d   1       0.149   1.110  -0.521  0.00  0.00     0.003 A 
ATOM      3  C3  I4B d   1       1.338   0.544  -1.042  0.00  0.00     0.002 A 
ATOM      4  C4  I4B d   1       1.530  -0.821  -0.970  0.00  0.00    -0.004 A 
ATOM      5  C5  I4B d   1       0.529  -1.640  -0.455  0.00  0.00     0.002 A 
ATOM      6  C6  I4B d   1      -0.662  -1.076   0.025  0.00  0.00     0.003 A 
ENDROOT
BRANCH   1   7
ATOM      7  C1' I4B d   1      -2.056   0.936   0.578  0.00  0.00     0.060 C 
BRANCH   7   8
ATOM      8  C2' I4B d   1      -1.996   0.795   2.085  0.00  0.00    -0.013 C 
ATOM      9  C4' I4B d   1      -1.774   2.128   2.749  0.00  0.00     0.013 C 
ATOM     10  C3' I4B d   1      -3.280   0.169   2.543  0.00  0.00     0.013 C 
ENDBRANCH   7   8
ENDBRANCH   1   7
TORSDOF 2
ENDMDL
