MODEL 1
REMARK minimizedAffinity -5.07965994
REMARK minimizedRMSD -1
REMARK  2 active torsions:
REMARK  status: ('A' for Active; 'I' for Inactive)
REMARK    1  A    between atoms: C2'_3  and  C1'_4 
REMARK    2  A    between atoms: C1'_4  and  C1_5 
ROOT
ATOM      1  C1  I4B d   1      -0.343   0.246  -0.076  0.00  0.00    -0.075 A 
ATOM      2  C2  I4B d   1      -0.349  -1.121  -0.196  0.00  0.00     0.003 A 
ATOM      3  C3  I4B d   1       0.739  -1.787  -0.810  0.00  0.00     0.002 A 
ATOM      4  C4  I4B d   1       1.782  -1.049  -1.331  0.00  0.00    -0.004 A 
ATOM      5  C5  I4B d   1       1.798   0.336  -1.187  0.00  0.00     0.002 A 
ATOM      6  C6  I4B d   1       0.735   0.987  -0.545  0.00  0.00     0.003 A 
ENDROOT
BRANCH   1   7
ATOM      7  C1' I4B d   1      -1.523   0.920   0.549  0.00  0.00     0.060 C 
BRANCH   7   8
ATOM      8  C2' I4B d   1      -1.719   0.332   1.931  0.00  0.00    -0.013 C 
ATOM      9  C4' I4B d   1      -1.623   1.395   2.994  0.00  0.00     0.013 C 
ATOM     10  C3' I4B d   1      -3.057  -0.345   1.961  0.00  0.00     0.013 C 
ENDBRANCH   7   8
ENDBRANCH   1   7
TORSDOF 2
ENDMDL
