MODEL 1
REMARK minimizedAffinity -3.99214149
REMARK minimizedRMSD -1
REMARK  2 active torsions:
REMARK  status: ('A' for Active; 'I' for Inactive)
REMARK    1  A    between atoms: C2'_3  and  C1'_4 
REMARK    2  A    between atoms: C1'_4  and  C1_5 
ROOT
ATOM      1  C1  I4B d   1      -1.986   0.705   1.303  0.00  0.00    -0.075 A 
ATOM      2  C2  I4B d   1      -2.695  -0.183   2.072  0.00  0.00     0.003 A 
ATOM      3  C3  I4B d   1      -3.119   0.181   3.373  0.00  0.00     0.002 A 
ATOM      4  C4  I4B d   1      -2.771   1.416   3.881  0.00  0.00    -0.004 A 
ATOM      5  C5  I4B d   1      -2.071   2.324   3.090  0.00  0.00     0.002 A 
ATOM      6  C6  I4B d   1      -1.687   1.971   1.789  0.00  0.00     0.003 A 
ENDROOT
BRANCH   1   7
ATOM      7  C1' I4B d   1      -1.525   0.275  -0.054  0.00  0.00     0.060 C 
BRANCH   7   8
ATOM      8  C2' I4B d   1      -0.211  -0.460   0.110  0.00  0.00    -0.013 C 
ATOM      9  C4' I4B d   1      -0.352  -1.916  -0.248  0.00  0.00     0.013 C 
ATOM     10  C3' I4B d   1       0.809   0.215  -0.758  0.00  0.00     0.013 C 
ENDBRANCH   7   8
ENDBRANCH   1   7
TORSDOF 2
ENDMDL
