MODEL 1
REMARK minimizedAffinity -0.760086596
REMARK minimizedRMSD -1
REMARK  2 active torsions:
REMARK  status: ('A' for Active; 'I' for Inactive)
REMARK    1  A    between atoms: C2'_3  and  C1'_4 
REMARK    2  A    between atoms: C1'_4  and  C1_5 
ROOT
ATOM      1  C1  I4B d   1      -0.606   0.031   0.349  0.00  0.00    -0.075 A 
ATOM      2  C2  I4B d   1      -0.403  -1.327   0.340  0.00  0.00     0.003 A 
ATOM      3  C3  I4B d   1       0.743  -1.871  -0.290  0.00  0.00     0.002 A 
ATOM      4  C4  I4B d   1       1.626  -1.032  -0.938  0.00  0.00    -0.004 A 
ATOM      5  C5  I4B d   1       1.430   0.346  -0.908  0.00  0.00     0.002 A 
ATOM      6  C6  I4B d   1       0.313   0.882  -0.250  0.00  0.00     0.003 A 
ENDROOT
BRANCH   1   7
ATOM      7  C1' I4B d   1      -1.843   0.570   0.995  0.00  0.00     0.060 C 
BRANCH   7   8
ATOM      8  C2' I4B d   1      -1.547   0.783   2.465  0.00  0.00    -0.013 C 
ATOM      9  C4' I4B d   1      -1.120   2.202   2.735  0.00  0.00     0.013 C 
ATOM     10  C3' I4B d   1      -2.780   0.432   3.242  0.00  0.00     0.013 C 
ENDBRANCH   7   8
ENDBRANCH   1   7
TORSDOF 2
ENDMDL
