MODEL 1
REMARK minimizedAffinity -5.50653219
REMARK minimizedRMSD -1
REMARK  2 active torsions:
REMARK  status: ('A' for Active; 'I' for Inactive)
REMARK    1  A    between atoms: C2'_3  and  C1'_4 
REMARK    2  A    between atoms: C1'_4  and  C1_5 
ROOT
ATOM      1  C1  I4B d   1      -0.965   0.127   0.958  0.00  0.00    -0.075 A 
ATOM      2  C2  I4B d   1      -2.171   0.681   0.606  0.00  0.00     0.003 A 
ATOM      3  C3  I4B d   1      -2.930   1.401   1.560  0.00  0.00     0.002 A 
ATOM      4  C4  I4B d   1      -2.472   1.499   2.858  0.00  0.00    -0.004 A 
ATOM      5  C5  I4B d   1      -1.239   0.956   3.207  0.00  0.00     0.002 A 
ATOM      6  C6  I4B d   1      -0.474   0.276   2.248  0.00  0.00     0.003 A 
ENDROOT
BRANCH   1   7
ATOM      7  C1' I4B d   1      -0.205  -0.656  -0.066  0.00  0.00     0.060 C 
BRANCH   7   8
ATOM      8  C2' I4B d   1       1.111   0.054  -0.313  0.00  0.00    -0.013 C 
ATOM      9  C4' I4B d   1       2.128  -0.879  -0.915  0.00  0.00     0.013 C 
ATOM     10  C3' I4B d   1       0.845   1.221  -1.217  0.00  0.00     0.013 C 
ENDBRANCH   7   8
ENDBRANCH   1   7
TORSDOF 2
ENDMDL
