MODEL 1
REMARK minimizedAffinity -4.24192333
REMARK minimizedRMSD -1
REMARK  2 active torsions:
REMARK  status: ('A' for Active; 'I' for Inactive)
REMARK    1  A    between atoms: C2'_3  and  C1'_4 
REMARK    2  A    between atoms: C1'_4  and  C1_5 
ROOT
ATOM      1  C1  I4B d   1      -1.778   0.465   1.516  0.00  0.00    -0.075 A 
ATOM      2  C2  I4B d   1      -0.978   1.354   2.189  0.00  0.00     0.003 A 
ATOM      3  C3  I4B d   1      -1.295   1.736   3.515  0.00  0.00     0.002 A 
ATOM      4  C4  I4B d   1      -2.441   1.246   4.108  0.00  0.00    -0.004 A 
ATOM      5  C5  I4B d   1      -3.238   0.326   3.433  0.00  0.00     0.002 A 
ATOM      6  C6  I4B d   1      -2.898  -0.077   2.133  0.00  0.00     0.003 A 
ENDROOT
BRANCH   1   7
ATOM      7  C1' I4B d   1      -1.432   0.109   0.105  0.00  0.00     0.060 C 
BRANCH   7   8
ATOM      8  C2' I4B d   1       0.067  -0.095   0.029  0.00  0.00    -0.013 C 
ATOM      9  C4' I4B d   1       0.419  -1.559   0.009  0.00  0.00     0.013 C 
ATOM     10  C3' I4B d   1       0.567   0.599  -1.203  0.00  0.00     0.013 C 
ENDBRANCH   7   8
ENDBRANCH   1   7
TORSDOF 2
ENDMDL
