MODEL 1
REMARK minimizedAffinity 11.0303202
REMARK minimizedRMSD -1
REMARK  2 active torsions:
REMARK  status: ('A' for Active; 'I' for Inactive)
REMARK    1  A    between atoms: C2'_3  and  C1'_4 
REMARK    2  A    between atoms: C1'_4  and  C1_5 
ROOT
ATOM      1  C1  I4B d   1      -1.447  -0.089  -0.195  0.00  0.00    -0.075 A 
ATOM      2  C2  I4B d   1      -1.503   0.806   0.843  0.00  0.00     0.003 A 
ATOM      3  C3  I4B d   1      -0.420   1.687   1.083  0.00  0.00     0.002 A 
ATOM      4  C4  I4B d   1       0.710   1.605   0.297  0.00  0.00    -0.004 A 
ATOM      5  C5  I4B d   1       0.755   0.712  -0.770  0.00  0.00     0.002 A 
ATOM      6  C6  I4B d   1      -0.335  -0.132  -1.026  0.00  0.00     0.003 A 
ENDROOT
BRANCH   1   7
ATOM      7  C1' I4B d   1      -2.594  -1.027  -0.400  0.00  0.00     0.060 C 
BRANCH   7   8
ATOM      8  C2' I4B d   1      -2.034  -2.430  -0.522  0.00  0.00    -0.013 C 
ATOM      9  C4' I4B d   1      -1.521  -2.929   0.803  0.00  0.00     0.013 C 
ATOM     10  C3' I4B d   1      -3.120  -3.318  -1.052  0.00  0.00     0.013 C 
ENDBRANCH   7   8
ENDBRANCH   1   7
TORSDOF 2
ENDMDL
