MODEL 1
REMARK minimizedAffinity -4.88917637
REMARK minimizedRMSD -1
REMARK  2 active torsions:
REMARK  status: ('A' for Active; 'I' for Inactive)
REMARK    1  A    between atoms: C2'_3  and  C1'_4 
REMARK    2  A    between atoms: C1'_4  and  C1_5 
ROOT
ATOM      1  C1  I4B d   1      -0.903   0.334   0.207  0.00  0.00    -0.075 A 
ATOM      2  C2  I4B d   1      -0.122   1.367  -0.247  0.00  0.00     0.003 A 
ATOM      3  C3  I4B d   1       1.091   1.098  -0.928  0.00  0.00     0.002 A 
ATOM      4  C4  I4B d   1       1.505  -0.209  -1.087  0.00  0.00    -0.004 A 
ATOM      5  C5  I4B d   1       0.701  -1.255  -0.646  0.00  0.00     0.002 A 
ATOM      6  C6  I4B d   1      -0.517  -0.983  -0.006  0.00  0.00     0.003 A 
ENDROOT
BRANCH   1   7
ATOM      7  C1' I4B d   1      -2.161   0.655   0.950  0.00  0.00     0.060 C 
BRANCH   7   8
ATOM      8  C2' I4B d   1      -1.774   1.170   2.321  0.00  0.00    -0.013 C 
ATOM      9  C4' I4B d   1      -2.336   2.546   2.565  0.00  0.00     0.013 C 
ATOM     10  C3' I4B d   1      -2.275   0.192   3.342  0.00  0.00     0.013 C 
ENDBRANCH   7   8
ENDBRANCH   1   7
TORSDOF 2
ENDMDL
