MODEL 1
REMARK minimizedAffinity -4.65450096
REMARK minimizedRMSD -1
REMARK  2 active torsions:
REMARK  status: ('A' for Active; 'I' for Inactive)
REMARK    1  A    between atoms: C2'_3  and  C1'_4 
REMARK    2  A    between atoms: C1'_4  and  C1_5 
ROOT
ATOM      1  C1  I4B d   1      -0.469   0.047   0.206  0.00  0.00    -0.075 A 
ATOM      2  C2  I4B d   1      -0.166  -1.290   0.274  0.00  0.00     0.003 A 
ATOM      3  C3  I4B d   1       1.062  -1.770  -0.240  0.00  0.00     0.002 A 
ATOM      4  C4  I4B d   1       1.931  -0.892  -0.856  0.00  0.00    -0.004 A 
ATOM      5  C5  I4B d   1       1.632   0.467  -0.904  0.00  0.00     0.002 A 
ATOM      6  C6  I4B d   1       0.430   0.942  -0.359  0.00  0.00     0.003 A 
ENDROOT
BRANCH   1   7
ATOM      7  C1' I4B d   1      -1.790   0.515   0.729  0.00  0.00     0.060 C 
BRANCH   7   8
ATOM      8  C2' I4B d   1      -1.701   0.567   2.241  0.00  0.00    -0.013 C 
ATOM      9  C4' I4B d   1      -1.395   1.961   2.721  0.00  0.00     0.013 C 
ATOM     10  C3' I4B d   1      -3.004   0.076   2.799  0.00  0.00     0.013 C 
ENDBRANCH   7   8
ENDBRANCH   1   7
TORSDOF 2
ENDMDL
