MODEL 1
REMARK minimizedAffinity -3.00403738
REMARK minimizedRMSD -1
REMARK  2 active torsions:
REMARK  status: ('A' for Active; 'I' for Inactive)
REMARK    1  A    between atoms: C2'_3  and  C1'_4 
REMARK    2  A    between atoms: C1'_4  and  C1_5 
ROOT
ATOM      1  C1  I4B d   1      -0.757  -0.233   0.283  0.00  0.00    -0.075 A 
ATOM      2  C2  I4B d   1      -0.652  -1.576   0.017  0.00  0.00     0.003 A 
ATOM      3  C3  I4B d   1       0.488  -2.082  -0.653  0.00  0.00     0.002 A 
ATOM      4  C4  I4B d   1       1.468  -1.210  -1.082  0.00  0.00    -0.004 A 
ATOM      5  C5  I4B d   1       1.370   0.148  -0.791  0.00  0.00     0.002 A 
ATOM      6  C6  I4B d   1       0.256   0.638  -0.094  0.00  0.00     0.003 A 
ENDROOT
BRANCH   1   7
ATOM      7  C1' I4B d   1      -1.990   0.272   0.963  0.00  0.00     0.060 C 
BRANCH   7   8
ATOM      8  C2' I4B d   1      -1.558   1.128   2.136  0.00  0.00    -0.013 C 
ATOM      9  C4' I4B d   1      -1.458   2.579   1.745  0.00  0.00     0.013 C 
ATOM     10  C3' I4B d   1      -2.551   0.933   3.243  0.00  0.00     0.013 C 
ENDBRANCH   7   8
ENDBRANCH   1   7
TORSDOF 2
ENDMDL
