MODEL 1
REMARK minimizedAffinity -4.79804516
REMARK minimizedRMSD -1
REMARK  2 active torsions:
REMARK  status: ('A' for Active; 'I' for Inactive)
REMARK    1  A    between atoms: C2'_3  and  C1'_4 
REMARK    2  A    between atoms: C1'_4  and  C1_5 
ROOT
ATOM      1  C1  I4B d   1      -0.423   0.196  -0.170  0.00  0.00    -0.075 A 
ATOM      2  C2  I4B d   1      -0.107  -1.131  -0.020  0.00  0.00     0.003 A 
ATOM      3  C3  I4B d   1       1.069  -1.654  -0.610  0.00  0.00     0.002 A 
ATOM      4  C4  I4B d   1       1.868  -0.832  -1.378  0.00  0.00    -0.004 A 
ATOM      5  C5  I4B d   1       1.558   0.518  -1.509  0.00  0.00     0.002 A 
ATOM      6  C6  I4B d   1       0.412   1.039  -0.892  0.00  0.00     0.003 A 
ENDROOT
BRANCH   1   7
ATOM      7  C1' I4B d   1      -1.690   0.708   0.438  0.00  0.00     0.060 C 
BRANCH   7   8
ATOM      8  C2' I4B d   1      -1.597   0.521   1.939  0.00  0.00    -0.013 C 
ATOM      9  C4' I4B d   1      -1.450   1.843   2.645  0.00  0.00     0.013 C 
ATOM     10  C3' I4B d   1      -2.830  -0.202   2.393  0.00  0.00     0.013 C 
ENDBRANCH   7   8
ENDBRANCH   1   7
TORSDOF 2
ENDMDL
