MODEL 1
REMARK minimizedAffinity -1.25681484
REMARK minimizedRMSD -1
REMARK  0 active torsions:
REMARK  status: ('A' for Active; 'I' for Inactive)
ROOT
ATOM      1  C2' OXE d   1       1.617  -1.370  -1.032  0.00  0.00     0.078 C 
ATOM      2  C1' OXE d   1       3.421   0.036  -2.659  0.00  0.00     0.078 C 
ATOM      3  C1  OXE d   1       1.970   0.022  -3.068  0.00  0.00    -0.078 A 
ATOM      4  C2  OXE d   1       1.101  -0.708  -2.291  0.00  0.00    -0.078 A 
ATOM      5  C3  OXE d   1      -0.258  -0.709  -2.593  0.00  0.00     0.003 A 
ATOM      6  C4  OXE d   1      -0.725  -0.103  -3.765  0.00  0.00    -0.002 A 
ATOM      7  C5  OXE d   1       0.150   0.612  -4.591  0.00  0.00    -0.002 A 
ATOM      8  C6  OXE d   1       1.489   0.719  -4.235  0.00  0.00     0.003 A 
ENDROOT
TORSDOF 0
ENDMDL
