MODEL 1
REMARK minimizedAffinity -5.35910988
REMARK minimizedRMSD -1
REMARK  0 active torsions:
REMARK  status: ('A' for Active; 'I' for Inactive)
ROOT
ATOM      1  C2' OXE d   1       0.342  -0.457  -1.279  0.00  0.00     0.078 C 
ATOM      2  C1' OXE d   1       2.347  -0.814   0.654  0.00  0.00     0.078 C 
ATOM      3  C1  OXE d   1       1.024  -0.249   1.108  0.00  0.00    -0.078 A 
ATOM      4  C2  OXE d   1       0.065  -0.034   0.148  0.00  0.00    -0.078 A 
ATOM      5  C3  OXE d   1      -1.191   0.434   0.521  0.00  0.00     0.003 A 
ATOM      6  C4  OXE d   1      -1.436   0.832   1.841  0.00  0.00    -0.002 A 
ATOM      7  C5  OXE d   1      -0.460   0.659   2.827  0.00  0.00    -0.002 A 
ATOM      8  C6  OXE d   1       0.758   0.082   2.486  0.00  0.00     0.003 A 
ENDROOT
TORSDOF 0
ENDMDL
