MODEL 1
REMARK minimizedAffinity -3.47878385
REMARK minimizedRMSD -1
REMARK  0 active torsions:
REMARK  status: ('A' for Active; 'I' for Inactive)
ROOT
ATOM      1  C2' OXE d   1      -0.761   0.736   2.870  0.00  0.00     0.078 C 
ATOM      2  C1' OXE d   1       1.846  -0.200   2.419  0.00  0.00     0.078 C 
ATOM      3  C1  OXE d   1       0.902  -0.154   1.244  0.00  0.00    -0.078 A 
ATOM      4  C2  OXE d   1      -0.386   0.261   1.483  0.00  0.00    -0.078 A 
ATOM      5  C3  OXE d   1      -1.282   0.374   0.424  0.00  0.00     0.003 A 
ATOM      6  C4  OXE d   1      -0.929  -0.077  -0.854  0.00  0.00    -0.002 A 
ATOM      7  C5  OXE d   1       0.365  -0.541  -1.111  0.00  0.00    -0.002 A 
ATOM      8  C6  OXE d   1       1.304  -0.546  -0.085  0.00  0.00     0.003 A 
ENDROOT
TORSDOF 0
ENDMDL
