MODEL 1
REMARK minimizedAffinity -2.39693117
REMARK minimizedRMSD -1
REMARK  0 active torsions:
REMARK  status: ('A' for Active; 'I' for Inactive)
ROOT
ATOM      1  C2' OXE d   1      -1.602   0.493   2.330  0.00  0.00     0.078 C 
ATOM      2  C1' OXE d   1       1.111  -0.226   2.252  0.00  0.00     0.078 C 
ATOM      3  C1  OXE d   1       0.348  -0.217   0.951  0.00  0.00    -0.078 A 
ATOM      4  C2  OXE d   1      -0.991   0.091   1.005  0.00  0.00    -0.078 A 
ATOM      5  C3  OXE d   1      -1.729   0.167  -0.173  0.00  0.00     0.003 A 
ATOM      6  C4  OXE d   1      -1.158  -0.217  -1.393  0.00  0.00    -0.002 A 
ATOM      7  C5  OXE d   1       0.193  -0.572  -1.464  0.00  0.00    -0.002 A 
ATOM      8  C6  OXE d   1       0.969  -0.536  -0.311  0.00  0.00     0.003 A 
ENDROOT
TORSDOF 0
ENDMDL
