MODEL 1
REMARK minimizedAffinity -5.45193529
REMARK minimizedRMSD -1
REMARK  0 active torsions:
REMARK  status: ('A' for Active; 'I' for Inactive)
ROOT
ATOM      1  C2' OXE d   1       2.299  -0.226   1.816  0.00  0.00     0.078 C 
ATOM      2  C1' OXE d   1       1.177  -0.438  -0.748  0.00  0.00     0.078 C 
ATOM      3  C1  OXE d   1       0.256  -0.101   0.398  0.00  0.00    -0.078 A 
ATOM      4  C2  OXE d   1       0.805  -0.046   1.656  0.00  0.00    -0.078 A 
ATOM      5  C3  OXE d   1       0.010   0.315   2.740  0.00  0.00     0.003 A 
ATOM      6  C4  OXE d   1      -1.373   0.470   2.585  0.00  0.00    -0.002 A 
ATOM      7  C5  OXE d   1      -1.959   0.378   1.318  0.00  0.00    -0.002 A 
ATOM      8  C6  OXE d   1      -1.154   0.136   0.210  0.00  0.00     0.003 A 
ENDROOT
TORSDOF 0
ENDMDL
