MODEL 1
REMARK minimizedAffinity -1.52714074
REMARK minimizedRMSD -1
REMARK  0 active torsions:
REMARK  status: ('A' for Active; 'I' for Inactive)
ROOT
ATOM      1  C2' OXE d   1       1.867  -0.567   1.890  0.00  0.00     0.078 C 
ATOM      2  C1' OXE d   1      -0.848   0.075   2.197  0.00  0.00     0.078 C 
ATOM      3  C1  OXE d   1      -0.328  -0.131   0.797  0.00  0.00    -0.078 A 
ATOM      4  C2  OXE d   1       1.012  -0.399   0.653  0.00  0.00    -0.078 A 
ATOM      5  C3  OXE d   1       1.532  -0.651  -0.613  0.00  0.00     0.003 A 
ATOM      6  C4  OXE d   1       0.737  -0.484  -1.753  0.00  0.00    -0.002 A 
ATOM      7  C5  OXE d   1      -0.622  -0.172  -1.631  0.00  0.00    -0.002 A 
ATOM      8  C6  OXE d   1      -1.178  -0.034  -0.364  0.00  0.00     0.003 A 
ENDROOT
TORSDOF 0
ENDMDL
