MODEL 1
REMARK minimizedAffinity -2.48918962
REMARK minimizedRMSD -1
REMARK  0 active torsions:
REMARK  status: ('A' for Active; 'I' for Inactive)
ROOT
ATOM      1  C2' OXE d   1       2.147  -0.817   1.152  0.00  0.00     0.078 C 
ATOM      2  C1' OXE d   1       0.565  -0.320  -1.113  0.00  0.00     0.078 C 
ATOM      3  C1  OXE d   1      -0.003   0.046   0.236  0.00  0.00    -0.078 A 
ATOM      4  C2  OXE d   1       0.760  -0.244   1.342  0.00  0.00    -0.078 A 
ATOM      5  C3  OXE d   1       0.307   0.123   2.606  0.00  0.00     0.003 A 
ATOM      6  C4  OXE d   1      -0.982   0.644   2.774  0.00  0.00    -0.002 A 
ATOM      7  C5  OXE d   1      -1.790   0.910   1.664  0.00  0.00    -0.002 A 
ATOM      8  C6  OXE d   1      -1.300   0.657   0.388  0.00  0.00     0.003 A 
ENDROOT
TORSDOF 0
ENDMDL
