MODEL 1
REMARK minimizedAffinity -1.65439188
REMARK minimizedRMSD -1
REMARK  0 active torsions:
REMARK  status: ('A' for Active; 'I' for Inactive)
ROOT
ATOM      1  C2' OXE d   1      -1.178  -0.049  -0.017  0.00  0.00     0.078 C 
ATOM      2  C1' OXE d   1       1.269  -1.384  -0.352  0.00  0.00     0.078 C 
ATOM      3  C1  OXE d   1       0.887  -0.348  -1.379  0.00  0.00    -0.078 A 
ATOM      4  C2  OXE d   1      -0.334   0.266  -1.234  0.00  0.00    -0.078 A 
ATOM      5  C3  OXE d   1      -0.712   1.269  -2.123  0.00  0.00     0.003 A 
ATOM      6  C4  OXE d   1       0.070   1.547  -3.250  0.00  0.00    -0.002 A 
ATOM      7  C5  OXE d   1       1.298   0.904  -3.439  0.00  0.00    -0.002 A 
ATOM      8  C6  OXE d   1       1.740  -0.013  -2.493  0.00  0.00     0.003 A 
ENDROOT
TORSDOF 0
ENDMDL
