MODEL 1
REMARK minimizedAffinity -2.98383498
REMARK minimizedRMSD -1
REMARK  0 active torsions:
REMARK  status: ('A' for Active; 'I' for Inactive)
ROOT
ATOM      1  C   UNL d   1       2.458   0.698   0.782  0.00  0.00     0.172 C 
ATOM      2  N   UNL d   1       3.895   0.714   0.914  0.00  0.00    -0.070 N 
ATOM      3  C1  UNL d   1       4.672  -0.341   1.313  0.00  0.00    -0.004 A 
ATOM      4  C2  UNL d   1       5.986   0.077   1.310  0.00  0.00    -0.047 A 
ATOM      5  C3  UNL d   1       5.998   1.430   0.895  0.00  0.00    -0.047 A 
ATOM      6  C4  UNL d   1       4.691   1.799   0.657  0.00  0.00    -0.004 A 
ENDROOT
TORSDOF 0
ENDMDL
