MODEL 1
REMARK minimizedAffinity 7.56288004
REMARK minimizedRMSD -1
REMARK  0 active torsions:
REMARK  status: ('A' for Active; 'I' for Inactive)
ROOT
ATOM      1  C   UNL d   1      -0.679  -3.128   0.159  0.00  0.00     0.172 C 
ATOM      2  N   UNL d   1      -1.370  -3.102  -1.109  0.00  0.00    -0.070 N 
ATOM      3  C1  UNL d   1      -1.160  -3.966  -2.150  0.00  0.00    -0.004 A 
ATOM      4  C2  UNL d   1      -2.013  -3.609  -3.173  0.00  0.00    -0.047 A 
ATOM      5  C3  UNL d   1      -2.760  -2.492  -2.731  0.00  0.00    -0.047 A 
ATOM      6  C4  UNL d   1      -2.342  -2.199  -1.450  0.00  0.00    -0.004 A 
ENDROOT
TORSDOF 0
ENDMDL
