MODEL 1
REMARK minimizedAffinity 5.6730628
REMARK minimizedRMSD -1
REMARK  0 active torsions:
REMARK  status: ('A' for Active; 'I' for Inactive)
ROOT
ATOM      1  C   UNL d   1      -0.209  -2.897   0.151  0.00  0.00     0.172 C 
ATOM      2  N   UNL d   1      -1.163  -3.001  -0.928  0.00  0.00    -0.070 N 
ATOM      3  C1  UNL d   1      -2.298  -2.248  -1.065  0.00  0.00    -0.004 A 
ATOM      4  C2  UNL d   1      -2.935  -2.649  -2.220  0.00  0.00    -0.047 A 
ATOM      5  C3  UNL d   1      -2.155  -3.679  -2.797  0.00  0.00    -0.047 A 
ATOM      6  C4  UNL d   1      -1.064  -3.877  -1.977  0.00  0.00    -0.004 A 
ENDROOT
TORSDOF 0
ENDMDL
