MODEL 1
REMARK minimizedAffinity 1.11277103
REMARK minimizedRMSD -1
REMARK  0 active torsions:
REMARK  status: ('A' for Active; 'I' for Inactive)
ROOT
ATOM      1  C   UNL d   1      -1.572  -2.813  -4.031  0.00  0.00     0.172 C 
ATOM      2  N   UNL d   1      -1.467  -2.858  -2.592  0.00  0.00    -0.070 N 
ATOM      3  C1  UNL d   1      -0.386  -3.313  -1.884  0.00  0.00    -0.004 A 
ATOM      4  C2  UNL d   1      -0.678  -3.191  -0.543  0.00  0.00    -0.047 A 
ATOM      5  C3  UNL d   1      -1.980  -2.646  -0.441  0.00  0.00    -0.047 A 
ATOM      6  C4  UNL d   1      -2.445  -2.450  -1.724  0.00  0.00    -0.004 A 
ENDROOT
TORSDOF 0
ENDMDL
