MODEL 1
REMARK minimizedAffinity 0.235491827
REMARK minimizedRMSD -1
REMARK  0 active torsions:
REMARK  status: ('A' for Active; 'I' for Inactive)
ROOT
ATOM      1  C   UNL d   1       4.534  -0.903   0.079  0.00  0.00     0.172 C 
ATOM      2  N   UNL d   1       3.571   0.161  -0.082  0.00  0.00    -0.070 N 
ATOM      3  C1  UNL d   1       3.446   0.966  -1.183  0.00  0.00    -0.004 A 
ATOM      4  C2  UNL d   1       2.416   1.850  -0.945  0.00  0.00    -0.047 A 
ATOM      5  C3  UNL d   1       1.906   1.569   0.345  0.00  0.00    -0.047 A 
ATOM      6  C4  UNL d   1       2.639   0.519   0.856  0.00  0.00    -0.004 A 
ENDROOT
TORSDOF 0
ENDMDL
