MODEL 1
REMARK minimizedAffinity -0.913042247
REMARK minimizedRMSD -1
REMARK  0 active torsions:
REMARK  status: ('A' for Active; 'I' for Inactive)
ROOT
ATOM      1  C   UNL d   1       3.473  -0.375   1.470  0.00  0.00     0.172 C 
ATOM      2  N   UNL d   1       4.262   0.818   1.268  0.00  0.00    -0.070 N 
ATOM      3  C1  UNL d   1       3.791   2.017   0.802  0.00  0.00    -0.004 A 
ATOM      4  C2  UNL d   1       4.851   2.896   0.753  0.00  0.00    -0.047 A 
ATOM      5  C3  UNL d   1       5.999   2.202   1.204  0.00  0.00    -0.047 A 
ATOM      6  C4  UNL d   1       5.605   0.917   1.516  0.00  0.00    -0.004 A 
ENDROOT
TORSDOF 0
ENDMDL
