MODEL 1
REMARK minimizedAffinity 0.776069999
REMARK minimizedRMSD -1
REMARK  0 active torsions:
REMARK  status: ('A' for Active; 'I' for Inactive)
ROOT
ATOM      1  C   UNL d   1      -4.372  -4.248  -2.944  0.00  0.00     0.172 C 
ATOM      2  N   UNL d   1      -3.148  -3.507  -2.748  0.00  0.00    -0.070 N 
ATOM      3  C1  UNL d   1      -2.294  -3.100  -3.737  0.00  0.00    -0.004 A 
ATOM      4  C2  UNL d   1      -1.250  -2.425  -3.142  0.00  0.00    -0.047 A 
ATOM      5  C3  UNL d   1      -1.485  -2.426  -1.747  0.00  0.00    -0.047 A 
ATOM      6  C4  UNL d   1      -2.667  -3.103  -1.531  0.00  0.00    -0.004 A 
ENDROOT
TORSDOF 0
ENDMDL
