MODEL 1
REMARK minimizedAffinity 5.73979044
REMARK minimizedRMSD -1
REMARK  0 active torsions:
REMARK  status: ('A' for Active; 'I' for Inactive)
ROOT
ATOM      1  C   UNL d   1       4.038   1.417  -2.781  0.00  0.00     0.172 C 
ATOM      2  N   UNL d   1       3.770   1.081  -1.403  0.00  0.00    -0.070 N 
ATOM      3  C1  UNL d   1       2.783   1.626  -0.626  0.00  0.00    -0.004 A 
ATOM      4  C2  UNL d   1       2.858   1.044   0.621  0.00  0.00    -0.047 A 
ATOM      5  C3  UNL d   1       3.928   0.118   0.593  0.00  0.00    -0.047 A 
ATOM      6  C4  UNL d   1       4.475   0.162  -0.672  0.00  0.00    -0.004 A 
ENDROOT
TORSDOF 0
ENDMDL
