MODEL 1
REMARK minimizedAffinity 3.56115317
REMARK minimizedRMSD -1
REMARK  0 active torsions:
REMARK  status: ('A' for Active; 'I' for Inactive)
ROOT
ATOM      1  C   UNL d   1       1.922   1.510   1.747  0.00  0.00     0.172 C 
ATOM      2  N   UNL d   1       3.064   0.658   1.511  0.00  0.00    -0.070 N 
ATOM      3  C1  UNL d   1       3.400   0.088   0.312  0.00  0.00    -0.004 A 
ATOM      4  C2  UNL d   1       4.550  -0.648   0.502  0.00  0.00    -0.047 A 
ATOM      5  C3  UNL d   1       4.917  -0.515   1.862  0.00  0.00    -0.047 A 
ATOM      6  C4  UNL d   1       3.980   0.299   2.463  0.00  0.00    -0.004 A 
ENDROOT
TORSDOF 0
ENDMDL
