MODEL 1
REMARK minimizedAffinity -1.76803756
REMARK minimizedRMSD -1
REMARK  0 active torsions:
REMARK  status: ('A' for Active; 'I' for Inactive)
ROOT
ATOM      1  C   UNL d   1       0.195  -3.262  -0.761  0.00  0.00     0.172 C 
ATOM      2  N   UNL d   1      -0.911  -3.152  -1.684  0.00  0.00    -0.070 N 
ATOM      3  C1  UNL d   1      -2.216  -2.919  -1.342  0.00  0.00    -0.004 A 
ATOM      4  C2  UNL d   1      -2.957  -2.884  -2.503  0.00  0.00    -0.047 A 
ATOM      5  C3  UNL d   1      -2.066  -3.105  -3.581  0.00  0.00    -0.047 A 
ATOM      6  C4  UNL d   1      -0.806  -3.268  -3.045  0.00  0.00    -0.004 A 
ENDROOT
TORSDOF 0
ENDMDL
