MODEL 1
REMARK minimizedAffinity -1.85756266
REMARK minimizedRMSD -1
REMARK  0 active torsions:
REMARK  status: ('A' for Active; 'I' for Inactive)
ROOT
ATOM      1  C   UNL d   1      -1.778  -2.551   0.629  0.00  0.00     0.172 C 
ATOM      2  N   UNL d   1      -1.352  -2.883  -0.710  0.00  0.00    -0.070 N 
ATOM      3  C1  UNL d   1      -2.104  -2.738  -1.846  0.00  0.00    -0.004 A 
ATOM      4  C2  UNL d   1      -1.343  -3.163  -2.913  0.00  0.00    -0.047 A 
ATOM      5  C3  UNL d   1      -0.091  -3.580  -2.401  0.00  0.00    -0.047 A 
ATOM      6  C4  UNL d   1      -0.124  -3.395  -1.035  0.00  0.00    -0.004 A 
ENDROOT
TORSDOF 0
ENDMDL
