MODEL 1
REMARK minimizedAffinity -2.27675676
REMARK minimizedRMSD -1
REMARK  0 active torsions:
REMARK  status: ('A' for Active; 'I' for Inactive)
ROOT
ATOM      1  C   UNL d   1       4.822   2.679   1.520  0.00  0.00     0.172 C 
ATOM      2  N   UNL d   1       5.096   3.885   2.265  0.00  0.00    -0.070 N 
ATOM      3  C1  UNL d   1       4.501   5.102   2.061  0.00  0.00    -0.004 A 
ATOM      4  C2  UNL d   1       5.032   5.989   2.971  0.00  0.00    -0.047 A 
ATOM      5  C3  UNL d   1       5.981   5.283   3.748  0.00  0.00    -0.047 A 
ATOM      6  C4  UNL d   1       6.000   3.982   3.290  0.00  0.00    -0.004 A 
ENDROOT
TORSDOF 0
ENDMDL
