MODEL 1
REMARK minimizedAffinity 1.36193991
REMARK minimizedRMSD -1
REMARK  0 active torsions:
REMARK  status: ('A' for Active; 'I' for Inactive)
ROOT
ATOM      1  C   UNL d   1      -1.254  -2.495  -5.396  0.00  0.00     0.172 C 
ATOM      2  N   UNL d   1      -1.508  -2.761  -3.999  0.00  0.00    -0.070 N 
ATOM      3  C1  UNL d   1      -2.071  -1.886  -3.109  0.00  0.00    -0.004 A 
ATOM      4  C2  UNL d   1      -2.142  -2.515  -1.885  0.00  0.00    -0.047 A 
ATOM      5  C3  UNL d   1      -1.601  -3.813  -2.045  0.00  0.00    -0.047 A 
ATOM      6  C4  UNL d   1      -1.216  -3.939  -3.363  0.00  0.00    -0.004 A 
ENDROOT
TORSDOF 0
ENDMDL
