MODEL 1
REMARK minimizedAffinity -1.17641926
REMARK minimizedRMSD -1
REMARK  0 active torsions:
REMARK  status: ('A' for Active; 'I' for Inactive)
ROOT
ATOM      1  C   UNL d   1      -0.907  -3.645   0.704  0.00  0.00     0.172 C 
ATOM      2  N   UNL d   1      -1.013  -3.433  -0.720  0.00  0.00    -0.070 N 
ATOM      3  C1  UNL d   1      -0.107  -3.849  -1.659  0.00  0.00    -0.004 A 
ATOM      4  C2  UNL d   1      -0.569  -3.453  -2.896  0.00  0.00    -0.047 A 
ATOM      5  C3  UNL d   1      -1.794  -2.775  -2.693  0.00  0.00    -0.047 A 
ATOM      6  C4  UNL d   1      -2.045  -2.777  -1.337  0.00  0.00    -0.004 A 
ENDROOT
TORSDOF 0
ENDMDL
