MODEL 1
REMARK minimizedAffinity -4.29760742
REMARK minimizedRMSD -1
REMARK  0 active torsions:
REMARK  status: ('A' for Active; 'I' for Inactive)
ROOT
ATOM      1  C   UNL d   1      -2.375   0.651  -1.131  0.00  0.00     0.077 C 
ATOM      2  C1  UNL d   1      -1.268   0.540  -0.125  0.00  0.00    -0.074 A 
ATOM      3  C2  UNL d   1       0.046   0.885  -0.460  0.00  0.00    -0.005 A 
ATOM      4  C3  UNL d   1       1.063   0.785   0.489  0.00  0.00     0.006 A 
ATOM      5  C4  UNL d   1       0.778   0.339   1.780  0.00  0.00    -0.005 A 
ATOM      6  C5  UNL d   1      -0.529  -0.010   2.133  0.00  0.00    -0.074 A 
ATOM      7  C6  UNL d   1      -0.854  -0.482   3.520  0.00  0.00     0.077 C 
ATOM      8  C7  UNL d   1      -1.547   0.100   1.177  0.00  0.00    -0.001 A 
ENDROOT
TORSDOF 0
ENDMDL
