MODEL 1
REMARK minimizedAffinity -3.49648166
REMARK minimizedRMSD -1
REMARK  0 active torsions:
REMARK  status: ('A' for Active; 'I' for Inactive)
ROOT
ATOM      1  C   UNL d   1      -2.084   0.791  -1.290  0.00  0.00     0.077 C 
ATOM      2  C1  UNL d   1      -1.087   0.545  -0.197  0.00  0.00    -0.074 A 
ATOM      3  C2  UNL d   1       0.285   0.674  -0.432  0.00  0.00    -0.005 A 
ATOM      4  C3  UNL d   1       1.199   0.451   0.597  0.00  0.00     0.006 A 
ATOM      5  C4  UNL d   1       0.752   0.098   1.871  0.00  0.00    -0.005 A 
ATOM      6  C5  UNL d   1      -0.617  -0.034   2.125  0.00  0.00    -0.074 A 
ATOM      7  C6  UNL d   1      -1.116  -0.403   3.491  0.00  0.00     0.077 C 
ATOM      8  C7  UNL d   1      -1.530   0.198   1.088  0.00  0.00    -0.001 A 
ENDROOT
TORSDOF 0
ENDMDL
