MODEL 1
REMARK minimizedAffinity -3.78522611
REMARK minimizedRMSD -1
REMARK  0 active torsions:
REMARK  status: ('A' for Active; 'I' for Inactive)
ROOT
ATOM      1  C   UNL d   1      -1.344   0.564  -1.243  0.00  0.00     0.077 C 
ATOM      2  C1  UNL d   1      -0.617   0.362   0.053  0.00  0.00    -0.074 A 
ATOM      3  C2  UNL d   1       0.770   0.521   0.132  0.00  0.00    -0.005 A 
ATOM      4  C3  UNL d   1       1.430   0.338   1.347  0.00  0.00     0.006 A 
ATOM      5  C4  UNL d   1       0.712  -0.004   2.493  0.00  0.00    -0.005 A 
ATOM      6  C5  UNL d   1      -0.676  -0.166   2.434  0.00  0.00    -0.074 A 
ATOM      7  C6  UNL d   1      -1.465  -0.524   3.658  0.00  0.00     0.077 C 
ATOM      8  C7  UNL d   1      -1.333   0.026   1.211  0.00  0.00    -0.001 A 
ENDROOT
TORSDOF 0
ENDMDL
