MODEL 1
REMARK minimizedAffinity -5.54992867
REMARK minimizedRMSD -1
REMARK  0 active torsions:
REMARK  status: ('A' for Active; 'I' for Inactive)
ROOT
ATOM      1  C   UNL d   1      -1.568  -0.356   3.383  0.00  0.00     0.077 C 
ATOM      2  C1  UNL d   1      -0.994  -0.035   2.035  0.00  0.00    -0.074 A 
ATOM      3  C2  UNL d   1       0.383  -0.111   1.804  0.00  0.00    -0.005 A 
ATOM      4  C3  UNL d   1       0.902   0.181   0.542  0.00  0.00     0.006 A 
ATOM      5  C4  UNL d   1       0.049   0.551  -0.499  0.00  0.00    -0.005 A 
ATOM      6  C5  UNL d   1      -1.330   0.631  -0.287  0.00  0.00    -0.074 A 
ATOM      7  C6  UNL d   1      -2.261   1.017  -1.398  0.00  0.00     0.077 C 
ATOM      8  C7  UNL d   1      -1.844   0.329   0.982  0.00  0.00    -0.001 A 
ENDROOT
TORSDOF 0
ENDMDL
