MODEL 1
REMARK minimizedAffinity -3.4129684
REMARK minimizedRMSD -1
REMARK  0 active torsions:
REMARK  status: ('A' for Active; 'I' for Inactive)
ROOT
ATOM      1  C   UNL d   1      -1.325  -1.148   3.141  0.00  0.00     0.077 C 
ATOM      2  C1  UNL d   1      -0.366  -0.459   2.216  0.00  0.00    -0.074 A 
ATOM      3  C2  UNL d   1       0.712   0.277   2.716  0.00  0.00    -0.005 A 
ATOM      4  C3  UNL d   1       1.601   0.904   1.843  0.00  0.00     0.006 A 
ATOM      5  C4  UNL d   1       1.420   0.802   0.463  0.00  0.00    -0.005 A 
ATOM      6  C5  UNL d   1       0.348   0.069  -0.055  0.00  0.00    -0.074 A 
ATOM      7  C6  UNL d   1       0.145  -0.059  -1.536  0.00  0.00     0.077 C 
ATOM      8  C7  UNL d   1      -0.537  -0.564   0.828  0.00  0.00    -0.001 A 
ENDROOT
TORSDOF 0
ENDMDL
