MODEL 1
REMARK minimizedAffinity -3.06465435
REMARK minimizedRMSD -1
REMARK  0 active torsions:
REMARK  status: ('A' for Active; 'I' for Inactive)
ROOT
ATOM      1  C   UNL d   1      -1.356   0.468  -2.081  0.00  0.00     0.077 C 
ATOM      2  C1  UNL d   1      -0.546   0.270  -0.835  0.00  0.00    -0.074 A 
ATOM      3  C2  UNL d   1       0.826   0.542  -0.818  0.00  0.00    -0.005 A 
ATOM      4  C3  UNL d   1       1.564   0.362   0.352  0.00  0.00     0.006 A 
ATOM      5  C4  UNL d   1       0.940  -0.092   1.514  0.00  0.00    -0.005 A 
ATOM      6  C5  UNL d   1      -0.431  -0.368   1.517  0.00  0.00    -0.074 A 
ATOM      7  C6  UNL d   1      -1.120  -0.847   2.760  0.00  0.00     0.077 C 
ATOM      8  C7  UNL d   1      -1.168  -0.178   0.339  0.00  0.00    -0.001 A 
ENDROOT
TORSDOF 0
ENDMDL
