MODEL 1
REMARK minimizedAffinity -0.897541761
REMARK minimizedRMSD -1
REMARK  0 active torsions:
REMARK  status: ('A' for Active; 'I' for Inactive)
ROOT
ATOM      1  C   UNL d   1      -2.887   0.568   0.288  0.00  0.00     0.077 C 
ATOM      2  C1  UNL d   1      -1.407   0.543   0.044  0.00  0.00    -0.074 A 
ATOM      3  C2  UNL d   1      -0.503   0.578   1.111  0.00  0.00    -0.005 A 
ATOM      4  C3  UNL d   1       0.870   0.544   0.869  0.00  0.00     0.006 A 
ATOM      5  C4  UNL d   1       1.353   0.476  -0.439  0.00  0.00    -0.005 A 
ATOM      6  C5  UNL d   1       0.463   0.439  -1.517  0.00  0.00    -0.074 A 
ATOM      7  C6  UNL d   1       0.965   0.356  -2.928  0.00  0.00     0.077 C 
ATOM      8  C7  UNL d   1      -0.915   0.466  -1.266  0.00  0.00    -0.001 A 
ENDROOT
TORSDOF 0
ENDMDL
