MODEL 1
REMARK minimizedAffinity -5.29907799
REMARK minimizedRMSD -1
REMARK  0 active torsions:
REMARK  status: ('A' for Active; 'I' for Inactive)
ROOT
ATOM      1  C   UNL d   1       1.980   0.653   0.247  0.00  0.00     0.077 C 
ATOM      2  C1  UNL d   1       0.520   0.384   0.463  0.00  0.00    -0.074 A 
ATOM      3  C2  UNL d   1      -0.400   0.530  -0.581  0.00  0.00    -0.005 A 
ATOM      4  C3  UNL d   1      -1.753   0.267  -0.367  0.00  0.00     0.006 A 
ATOM      5  C4  UNL d   1      -2.199  -0.143   0.890  0.00  0.00    -0.005 A 
ATOM      6  C5  UNL d   1      -1.294  -0.296   1.945  0.00  0.00    -0.074 A 
ATOM      7  C6  UNL d   1      -1.755  -0.746   3.299  0.00  0.00     0.077 C 
ATOM      8  C7  UNL d   1       0.065  -0.036   1.720  0.00  0.00    -0.001 A 
ENDROOT
TORSDOF 0
ENDMDL
