MODEL 1
REMARK minimizedAffinity -0.876992464
REMARK minimizedRMSD -1
REMARK  0 active torsions:
REMARK  status: ('A' for Active; 'I' for Inactive)
ROOT
ATOM      1  C   UNL d   1      -0.764  -1.134   3.364  0.00  0.00     0.077 C 
ATOM      2  C1  UNL d   1      -0.014  -0.387   2.302  0.00  0.00    -0.074 A 
ATOM      3  C2  UNL d   1       1.073   0.430   2.628  0.00  0.00    -0.005 A 
ATOM      4  C3  UNL d   1       1.766   1.111   1.628  0.00  0.00     0.006 A 
ATOM      5  C4  UNL d   1       1.380   0.984   0.293  0.00  0.00    -0.005 A 
ATOM      6  C5  UNL d   1       0.295   0.171  -0.052  0.00  0.00    -0.074 A 
ATOM      7  C6  UNL d   1      -0.127   0.016  -1.483  0.00  0.00     0.077 C 
ATOM      8  C7  UNL d   1      -0.392  -0.516   0.957  0.00  0.00    -0.001 A 
ENDROOT
TORSDOF 0
ENDMDL
