MODEL 1
REMARK minimizedAffinity -4.12755775
REMARK minimizedRMSD -1
REMARK  0 active torsions:
REMARK  status: ('A' for Active; 'I' for Inactive)
ROOT
ATOM      1  C   UNL d   1      -1.369  -0.775   3.533  0.00  0.00     0.077 C 
ATOM      2  C1  UNL d   1      -0.777  -0.378   2.214  0.00  0.00    -0.074 A 
ATOM      3  C2  UNL d   1      -1.528  -0.453   1.036  0.00  0.00    -0.005 A 
ATOM      4  C3  UNL d   1      -0.966  -0.071  -0.182  0.00  0.00     0.006 A 
ATOM      5  C4  UNL d   1       0.350   0.389  -0.235  0.00  0.00    -0.005 A 
ATOM      6  C5  UNL d   1       1.116   0.473   0.932  0.00  0.00    -0.074 A 
ATOM      7  C6  UNL d   1       2.529   0.975   0.894  0.00  0.00     0.077 C 
ATOM      8  C7  UNL d   1       0.542   0.093   2.153  0.00  0.00    -0.001 A 
ENDROOT
TORSDOF 0
ENDMDL
