MODEL 1
REMARK minimizedAffinity -5.41841888
REMARK minimizedRMSD -1
REMARK  0 active torsions:
REMARK  status: ('A' for Active; 'I' for Inactive)
ROOT
ATOM      1  C   UNL d   1      -1.303   0.746  -1.377  0.00  0.00     0.077 C 
ATOM      2  C1  UNL d   1      -0.602   0.387  -0.101  0.00  0.00    -0.074 A 
ATOM      3  C2  UNL d   1       0.752   0.687   0.084  0.00  0.00    -0.005 A 
ATOM      4  C3  UNL d   1       1.388   0.355   1.279  0.00  0.00     0.006 A 
ATOM      5  C4  UNL d   1       0.679  -0.279   2.301  0.00  0.00    -0.005 A 
ATOM      6  C5  UNL d   1      -0.675  -0.586   2.134  0.00  0.00    -0.074 A 
ATOM      7  C6  UNL d   1      -1.454  -1.258   3.225  0.00  0.00     0.077 C 
ATOM      8  C7  UNL d   1      -1.309  -0.243   0.932  0.00  0.00    -0.001 A 
ENDROOT
TORSDOF 0
ENDMDL
