MODEL 1
REMARK minimizedAffinity -2.34691072
REMARK minimizedRMSD -1
REMARK  0 active torsions:
REMARK  status: ('A' for Active; 'I' for Inactive)
ROOT
ATOM      1  C   UNL d   1      -1.860  -1.341   3.085  0.00  0.00     0.077 C 
ATOM      2  C1  UNL d   1      -0.690  -0.671   2.429  0.00  0.00    -0.074 A 
ATOM      3  C2  UNL d   1       0.388  -0.202   3.187  0.00  0.00    -0.005 A 
ATOM      4  C3  UNL d   1       1.474   0.410   2.561  0.00  0.00     0.006 A 
ATOM      5  C4  UNL d   1       1.494   0.559   1.174  0.00  0.00    -0.005 A 
ATOM      6  C5  UNL d   1       0.426   0.096   0.400  0.00  0.00    -0.074 A 
ATOM      7  C6  UNL d   1       0.435   0.240  -1.093  0.00  0.00     0.077 C 
ATOM      8  C7  UNL d   1      -0.659  -0.524   1.035  0.00  0.00    -0.001 A 
ENDROOT
TORSDOF 0
ENDMDL
