MODEL 1
REMARK minimizedAffinity -2.48242092
REMARK minimizedRMSD -1
REMARK  0 active torsions:
REMARK  status: ('A' for Active; 'I' for Inactive)
ROOT
ATOM      1  C   UNL d   1       0.036   0.413   2.178  0.00  0.00     0.077 C 
ATOM      2  C1  UNL d   1      -0.380   0.422   0.737  0.00  0.00    -0.074 A 
ATOM      3  C2  UNL d   1      -1.700   0.706   0.372  0.00  0.00    -0.005 A 
ATOM      4  C3  UNL d   1      -2.071   0.720  -0.972  0.00  0.00     0.006 A 
ATOM      5  C4  UNL d   1      -1.127   0.450  -1.964  0.00  0.00    -0.005 A 
ATOM      6  C5  UNL d   1       0.197   0.164  -1.619  0.00  0.00    -0.074 A 
ATOM      7  C6  UNL d   1       1.226  -0.119  -2.673  0.00  0.00     0.077 C 
ATOM      8  C7  UNL d   1       0.564   0.159  -0.266  0.00  0.00    -0.001 A 
ENDROOT
TORSDOF 0
ENDMDL
