MODEL 1
REMARK minimizedAffinity -3.58380604
REMARK minimizedRMSD -1
REMARK  0 active torsions:
REMARK  status: ('A' for Active; 'I' for Inactive)
ROOT
ATOM      1  C   UNL d   1      -0.600   0.510  -1.253  0.00  0.00     0.077 C 
ATOM      2  C1  UNL d   1      -0.033   0.305   0.120  0.00  0.00    -0.074 A 
ATOM      3  C2  UNL d   1       1.299   0.625   0.403  0.00  0.00    -0.005 A 
ATOM      4  C3  UNL d   1       1.810   0.438   1.687  0.00  0.00     0.006 A 
ATOM      5  C4  UNL d   1       0.995  -0.071   2.700  0.00  0.00    -0.005 A 
ATOM      6  C5  UNL d   1      -0.339  -0.396   2.436  0.00  0.00    -0.074 A 
ATOM      7  C6  UNL d   1      -1.230  -0.934   3.515  0.00  0.00     0.077 C 
ATOM      8  C7  UNL d   1      -0.847  -0.198   1.145  0.00  0.00    -0.001 A 
ENDROOT
TORSDOF 0
ENDMDL
