MODEL 1
REMARK minimizedAffinity -4.34349537
REMARK minimizedRMSD -1
REMARK  0 active torsions:
REMARK  status: ('A' for Active; 'I' for Inactive)
ROOT
ATOM      1  C   UNL d   1      -1.944  -1.017   3.650  0.00  0.00     0.077 C 
ATOM      2  C1  UNL d   1      -0.846  -0.449   2.800  0.00  0.00    -0.074 A 
ATOM      3  C2  UNL d   1       0.258   0.184   3.380  0.00  0.00    -0.005 A 
ATOM      4  C3  UNL d   1       1.275   0.699   2.577  0.00  0.00     0.006 A 
ATOM      5  C4  UNL d   1       1.200   0.585   1.189  0.00  0.00    -0.005 A 
ATOM      6  C5  UNL d   1       0.105  -0.046   0.591  0.00  0.00    -0.074 A 
ATOM      7  C6  UNL d   1       0.013  -0.185  -0.900  0.00  0.00     0.077 C 
ATOM      8  C7  UNL d   1      -0.911  -0.566   1.405  0.00  0.00    -0.001 A 
ENDROOT
TORSDOF 0
ENDMDL
