MODEL 1
REMARK minimizedAffinity -2.04584551
REMARK minimizedRMSD -1
REMARK  0 active torsions:
REMARK  status: ('A' for Active; 'I' for Inactive)
ROOT
ATOM      1  C   UNL d   1      -0.990  -2.749   2.258  0.00  0.00     0.077 C 
ATOM      2  C1  UNL d   1      -0.645  -1.623   1.329  0.00  0.00    -0.074 A 
ATOM      3  C2  UNL d   1      -1.547  -1.201   0.347  0.00  0.00    -0.005 A 
ATOM      4  C3  UNL d   1      -1.216  -0.146  -0.504  0.00  0.00     0.006 A 
ATOM      5  C4  UNL d   1       0.017   0.496  -0.381  0.00  0.00    -0.005 A 
ATOM      6  C5  UNL d   1       0.930   0.088   0.596  0.00  0.00    -0.074 A 
ATOM      7  C6  UNL d   1       2.255   0.774   0.748  0.00  0.00     0.077 C 
ATOM      8  C7  UNL d   1       0.588  -0.968   1.452  0.00  0.00    -0.001 A 
ENDROOT
TORSDOF 0
ENDMDL
