MODEL 1
REMARK minimizedAffinity 2.31700301
REMARK minimizedRMSD -1
REMARK  0 active torsions:
REMARK  status: ('A' for Active; 'I' for Inactive)
ROOT
ATOM      1  C1  DEN d   1      -0.469   1.637  -4.595  0.00  0.00     0.130 A 
ATOM      2  C2  DEN d   1      -0.115   2.905  -5.227  0.00  0.00    -0.031 A 
ATOM      3  C3  DEN d   1      -1.215   3.860  -4.984  0.00  0.00     0.027 A 
ATOM      4  C4  DEN d   1      -3.419   3.500  -3.694  0.00  0.00     0.027 A 
ATOM      5  C5  DEN d   1      -4.172   2.586  -2.990  0.00  0.00    -0.003 A 
ATOM      6  C6  DEN d   1      -3.762   1.293  -2.803  0.00  0.00     0.001 A 
ATOM      7  C7  DEN d   1      -2.545   0.889  -3.287  0.00  0.00     0.017 A 
ATOM      8  C8  DEN d   1      -1.784   1.803  -4.004  0.00  0.00    -0.094 A 
ATOM      9  C9  DEN d   1      -2.211   3.110  -4.172  0.00  0.00    -0.072 A 
ENDROOT
TORSDOF 0
ENDMDL
