MODEL 1
REMARK minimizedAffinity 10.4841909
REMARK minimizedRMSD -1
REMARK  0 active torsions:
REMARK  status: ('A' for Active; 'I' for Inactive)
ROOT
ATOM      1  C1  DEN d   1       2.323  -1.774   1.135  0.00  0.00     0.130 A 
ATOM      2  C2  DEN d   1       2.895  -2.705   0.167  0.00  0.00    -0.031 A 
ATOM      3  C3  DEN d   1       1.834  -3.647  -0.242  0.00  0.00     0.027 A 
ATOM      4  C4  DEN d   1      -0.627  -3.751   0.522  0.00  0.00     0.027 A 
ATOM      5  C5  DEN d   1      -1.573  -3.176   1.341  0.00  0.00    -0.003 A 
ATOM      6  C6  DEN d   1      -1.281  -2.124   2.167  0.00  0.00     0.001 A 
ATOM      7  C7  DEN d   1      -0.022  -1.584   2.159  0.00  0.00     0.017 A 
ATOM      8  C8  DEN d   1       0.939  -2.163   1.342  0.00  0.00    -0.094 A 
ATOM      9  C9  DEN d   1       0.621  -3.219   0.505  0.00  0.00    -0.072 A 
ENDROOT
TORSDOF 0
ENDMDL
