MODEL 1
REMARK minimizedAffinity -1.76907599
REMARK minimizedRMSD -1
REMARK  0 active torsions:
REMARK  status: ('A' for Active; 'I' for Inactive)
ROOT
ATOM      1  C1  DEN d   1       0.604  -3.573   0.562  0.00  0.00     0.130 A 
ATOM      2  C2  DEN d   1       2.011  -3.526   0.172  0.00  0.00    -0.031 A 
ATOM      3  C3  DEN d   1       2.511  -2.161   0.433  0.00  0.00     0.027 A 
ATOM      4  C4  DEN d   1       1.253  -0.129   1.400  0.00  0.00     0.027 A 
ATOM      5  C5  DEN d   1       0.038   0.320   1.870  0.00  0.00    -0.003 A 
ATOM      6  C6  DEN d   1      -1.072  -0.480   1.904  0.00  0.00     0.001 A 
ATOM      7  C7  DEN d   1      -0.980  -1.787   1.503  0.00  0.00     0.017 A 
ATOM      8  C8  DEN d   1       0.240  -2.245   1.021  0.00  0.00    -0.094 A 
ATOM      9  C9  DEN d   1       1.354  -1.423   1.006  0.00  0.00    -0.072 A 
ENDROOT
TORSDOF 0
ENDMDL
