MODEL 1
REMARK minimizedAffinity 5.54945517
REMARK minimizedRMSD -1
REMARK  0 active torsions:
REMARK  status: ('A' for Active; 'I' for Inactive)
ROOT
ATOM      1  C1  DEN d   1      -2.560   1.845  -2.687  0.00  0.00     0.130 A 
ATOM      2  C2  DEN d   1      -3.711   2.732  -2.537  0.00  0.00    -0.031 A 
ATOM      3  C3  DEN d   1      -3.489   3.915  -3.393  0.00  0.00     0.027 A 
ATOM      4  C4  DEN d   1      -1.490   4.454  -4.931  0.00  0.00     0.027 A 
ATOM      5  C5  DEN d   1      -0.266   4.007  -5.379  0.00  0.00    -0.003 A 
ATOM      6  C6  DEN d   1       0.289   2.835  -4.939  0.00  0.00     0.001 A 
ATOM      7  C7  DEN d   1      -0.401   2.046  -4.057  0.00  0.00     0.017 A 
ATOM      8  C8  DEN d   1      -1.631   2.493  -3.595  0.00  0.00    -0.094 A 
ATOM      9  C9  DEN d   1      -2.182   3.675  -4.061  0.00  0.00    -0.072 A 
ENDROOT
TORSDOF 0
ENDMDL
