MODEL 1
REMARK minimizedAffinity -2.18376923
REMARK minimizedRMSD -1
REMARK  0 active torsions:
REMARK  status: ('A' for Active; 'I' for Inactive)
ROOT
ATOM      1  C1  DEN d   1      -1.642   4.344  -6.000  0.00  0.00     0.130 A 
ATOM      2  C2  DEN d   1      -0.335   3.694  -5.999  0.00  0.00    -0.031 A 
ATOM      3  C3  DEN d   1      -0.305   2.729  -4.882  0.00  0.00     0.027 A 
ATOM      4  C4  DEN d   1      -2.150   2.177  -3.166  0.00  0.00     0.027 A 
ATOM      5  C5  DEN d   1      -3.430   2.480  -2.757  0.00  0.00    -0.003 A 
ATOM      6  C6  DEN d   1      -4.185   3.441  -3.375  0.00  0.00     0.001 A 
ATOM      7  C7  DEN d   1      -3.683   4.103  -4.464  0.00  0.00     0.017 A 
ATOM      8  C8  DEN d   1      -2.391   3.809  -4.877  0.00  0.00    -0.094 A 
ATOM      9  C9  DEN d   1      -1.648   2.824  -4.247  0.00  0.00    -0.072 A 
ENDROOT
TORSDOF 0
ENDMDL
