MODEL 1
REMARK minimizedAffinity 13.4551802
REMARK minimizedRMSD -1
REMARK  0 active torsions:
REMARK  status: ('A' for Active; 'I' for Inactive)
ROOT
ATOM      1  C1  DEN d   1      -0.678  -3.228   2.366  0.00  0.00     0.130 A 
ATOM      2  C2  DEN d   1      -1.813  -3.142   1.450  0.00  0.00    -0.031 A 
ATOM      3  C3  DEN d   1      -1.284  -2.954   0.085  0.00  0.00     0.027 A 
ATOM      4  C4  DEN d   1       1.169  -2.793  -0.698  0.00  0.00     0.027 A 
ATOM      5  C5  DEN d   1       2.482  -2.799  -0.282  0.00  0.00    -0.003 A 
ATOM      6  C6  DEN d   1       2.830  -2.913   1.037  0.00  0.00     0.001 A 
ATOM      7  C7  DEN d   1       1.854  -3.072   1.985  0.00  0.00     0.017 A 
ATOM      8  C8  DEN d   1       0.527  -3.059   1.575  0.00  0.00    -0.094 A 
ATOM      9  C9  DEN d   1       0.196  -2.955   0.235  0.00  0.00    -0.072 A 
ENDROOT
TORSDOF 0
ENDMDL
