MODEL 1
REMARK minimizedAffinity 3.34495711
REMARK minimizedRMSD -1
REMARK  0 active torsions:
REMARK  status: ('A' for Active; 'I' for Inactive)
ROOT
ATOM      1  C1  DEN d   1      -1.457   1.085  -4.077  0.00  0.00     0.130 A 
ATOM      2  C2  DEN d   1      -0.875  -0.194  -3.679  0.00  0.00    -0.031 A 
ATOM      3  C3  DEN d   1       0.527  -0.222  -4.144  0.00  0.00     0.027 A 
ATOM      4  C4  DEN d   1       1.846   1.584  -5.430  0.00  0.00     0.027 A 
ATOM      5  C5  DEN d   1       1.772   2.835  -6.000  0.00  0.00    -0.003 A 
ATOM      6  C6  DEN d   1       0.616   3.571  -5.999  0.00  0.00     0.001 A 
ATOM      7  C7  DEN d   1      -0.501   3.080  -5.376  0.00  0.00     0.017 A 
ATOM      8  C8  DEN d   1      -0.436   1.815  -4.806  0.00  0.00    -0.094 A 
ATOM      9  C9  DEN d   1       0.745   1.093  -4.806  0.00  0.00    -0.072 A 
ENDROOT
TORSDOF 0
ENDMDL
