MODEL 1
REMARK minimizedAffinity 10.5122557
REMARK minimizedRMSD -1
REMARK  1 active torsions:
REMARK  status: ('A' for Active; 'I' for Inactive)
REMARK    1  A    between atoms: C1_2  and  C2_3 
ROOT
ATOM      1  C2  UNL d   1      -5.999  -0.176   3.981  0.00  0.00    -0.073 A 
ATOM      2  C3  UNL d   1      -5.993  -0.861   5.201  0.00  0.00    -0.002 A 
ATOM      3  C4  UNL d   1      -5.996  -2.256   5.226  0.00  0.00     0.004 A 
ATOM      4  C5  UNL d   1      -5.999  -2.980   4.033  0.00  0.00    -0.004 A 
ATOM      5  C6  UNL d   1      -5.994  -2.314   2.804  0.00  0.00    -0.075 A 
ATOM      6  C7  UNL d   1      -6.000  -3.077   1.512  0.00  0.00     0.076 C 
ATOM      7  C8  UNL d   1      -5.993  -0.912   2.787  0.00  0.00     0.001 A 
ENDROOT
BRANCH   1   8
ATOM      8  C1  UNL d   1      -5.989   1.330   3.948  0.00  0.00     0.053 C 
ATOM      9  C   UNL d   1      -5.940   1.870   2.528  0.00  0.00     0.018 C 
ENDBRANCH   1   8
TORSDOF 1
ENDMDL
