MODEL 1
REMARK minimizedAffinity 14.3003502
REMARK minimizedRMSD -1
REMARK  1 active torsions:
REMARK  status: ('A' for Active; 'I' for Inactive)
REMARK    1  A    between atoms: C1_2  and  C2_3 
ROOT
ATOM      1  C2  UNL d   1      -3.634   2.744   5.342  0.00  0.00    -0.073 A 
ATOM      2  C3  UNL d   1      -2.308   3.153   5.520  0.00  0.00    -0.002 A 
ATOM      3  C4  UNL d   1      -2.016   4.479   5.843  0.00  0.00     0.004 A 
ATOM      4  C5  UNL d   1      -3.047   5.406   5.999  0.00  0.00    -0.004 A 
ATOM      5  C6  UNL d   1      -4.379   5.014   5.837  0.00  0.00    -0.075 A 
ATOM      6  C7  UNL d   1      -5.499   5.999   5.999  0.00  0.00     0.076 C 
ATOM      7  C8  UNL d   1      -4.664   3.681   5.510  0.00  0.00     0.001 A 
ENDROOT
BRANCH   1   8
ATOM      8  C1  UNL d   1      -3.954   1.312   4.999  0.00  0.00     0.053 C 
ATOM      9  C   UNL d   1      -3.602   0.978   3.558  0.00  0.00     0.018 C 
ENDBRANCH   1   8
TORSDOF 1
ENDMDL
