MODEL 1
REMARK minimizedAffinity 6.56791306
REMARK minimizedRMSD -1
REMARK  1 active torsions:
REMARK  status: ('A' for Active; 'I' for Inactive)
REMARK    1  A    between atoms: C1_2  and  C2_3 
ROOT
ATOM      1  C2  UNL d   1       3.036   0.028  -2.888  0.00  0.00    -0.073 A 
ATOM      2  C3  UNL d   1       2.518   1.099  -3.625  0.00  0.00    -0.002 A 
ATOM      3  C4  UNL d   1       1.981   2.209  -2.972  0.00  0.00     0.004 A 
ATOM      4  C5  UNL d   1       1.963   2.263  -1.578  0.00  0.00    -0.004 A 
ATOM      5  C6  UNL d   1       2.487   1.208  -0.824  0.00  0.00    -0.075 A 
ATOM      6  C7  UNL d   1       2.474   1.250   0.676  0.00  0.00     0.076 C 
ATOM      7  C8  UNL d   1       3.022   0.095  -1.487  0.00  0.00     0.001 A 
ENDROOT
BRANCH   1   8
ATOM      8  C1  UNL d   1       3.622  -1.171  -3.589  0.00  0.00     0.053 C 
ATOM      9  C   UNL d   1       5.073  -0.946  -3.984  0.00  0.00     0.018 C 
ENDBRANCH   1   8
TORSDOF 1
ENDMDL
