MODEL 1
REMARK minimizedAffinity 1.31738126
REMARK minimizedRMSD -1
REMARK  1 active torsions:
REMARK  status: ('A' for Active; 'I' for Inactive)
REMARK    1  A    between atoms: C1_2  and  C2_3 
ROOT
ATOM      1  C2  UNL d   1       5.376  -3.287   3.903  0.00  0.00    -0.073 A 
ATOM      2  C3  UNL d   1       5.453  -3.287   5.301  0.00  0.00    -0.002 A 
ATOM      3  C4  UNL d   1       5.713  -2.104   5.992  0.00  0.00     0.004 A 
ATOM      4  C5  UNL d   1       5.892  -0.909   5.296  0.00  0.00    -0.004 A 
ATOM      5  C6  UNL d   1       5.807  -0.886   3.900  0.00  0.00    -0.075 A 
ATOM      6  C7  UNL d   1       6.000   0.391   3.136  0.00  0.00     0.076 C 
ATOM      7  C8  UNL d   1       5.548  -2.079   3.212  0.00  0.00     0.001 A 
ENDROOT
BRANCH   1   8
ATOM      8  C1  UNL d   1       5.088  -4.562   3.152  0.00  0.00     0.053 C 
ATOM      9  C   UNL d   1       4.262  -5.536   3.978  0.00  0.00     0.018 C 
ENDBRANCH   1   8
TORSDOF 1
ENDMDL
