MODEL 1
REMARK minimizedAffinity 1.67980254
REMARK minimizedRMSD -1
REMARK  1 active torsions:
REMARK  status: ('A' for Active; 'I' for Inactive)
REMARK    1  A    between atoms: C1_2  and  C2_3 
ROOT
ATOM      1  C2  UNL d   1      -0.689  -0.726  -1.562  0.00  0.00    -0.073 A 
ATOM      2  C3  UNL d   1      -1.558  -1.820  -1.477  0.00  0.00    -0.002 A 
ATOM      3  C4  UNL d   1      -2.600  -1.965  -2.393  0.00  0.00     0.004 A 
ATOM      4  C5  UNL d   1      -2.781  -1.024  -3.406  0.00  0.00    -0.004 A 
ATOM      5  C6  UNL d   1      -1.916   0.070  -3.515  0.00  0.00    -0.075 A 
ATOM      6  C7  UNL d   1      -2.098   1.092  -4.598  0.00  0.00     0.076 C 
ATOM      7  C8  UNL d   1      -0.873   0.210  -2.590  0.00  0.00     0.001 A 
ENDROOT
BRANCH   1   8
ATOM      8  C1  UNL d   1       0.442  -0.568  -0.579  0.00  0.00     0.053 C 
ATOM      9  C   UNL d   1       0.039  -0.988   0.825  0.00  0.00     0.018 C 
ENDBRANCH   1   8
TORSDOF 1
ENDMDL
