MODEL 1
REMARK minimizedAffinity 0.44312188
REMARK minimizedRMSD -1
REMARK  1 active torsions:
REMARK  status: ('A' for Active; 'I' for Inactive)
REMARK    1  A    between atoms: C1_2  and  C2_3 
ROOT
ATOM      1  C2  UNL d   1       2.298   0.998  -3.172  0.00  0.00    -0.073 A 
ATOM      2  C3  UNL d   1       2.210   0.929  -1.777  0.00  0.00    -0.002 A 
ATOM      3  C4  UNL d   1       0.963   0.899  -1.151  0.00  0.00     0.004 A 
ATOM      4  C5  UNL d   1      -0.206   0.931  -1.911  0.00  0.00    -0.004 A 
ATOM      5  C6  UNL d   1      -0.138   0.988  -3.307  0.00  0.00    -0.075 A 
ATOM      6  C7  UNL d   1      -1.385   1.024  -4.139  0.00  0.00     0.076 C 
ATOM      7  C8  UNL d   1       1.118   1.020  -3.928  0.00  0.00     0.001 A 
ENDROOT
BRANCH   1   8
ATOM      8  C1  UNL d   1       3.642   1.024  -3.853  0.00  0.00     0.053 C 
ATOM      9  C   UNL d   1       3.972  -0.305  -4.514  0.00  0.00     0.018 C 
ENDBRANCH   1   8
TORSDOF 1
ENDMDL
