MODEL 1
REMARK minimizedAffinity -0.846016467
REMARK minimizedRMSD -1
REMARK  1 active torsions:
REMARK  status: ('A' for Active; 'I' for Inactive)
REMARK    1  A    between atoms: C1_2  and  C2_3 
ROOT
ATOM      1  C2  UNL d   1       5.536  -2.880   4.791  0.00  0.00    -0.073 A 
ATOM      2  C3  UNL d   1       5.771  -2.202   5.992  0.00  0.00    -0.002 A 
ATOM      3  C4  UNL d   1       6.000  -0.826   5.991  0.00  0.00     0.004 A 
ATOM      4  C5  UNL d   1       5.989  -0.113   4.792  0.00  0.00    -0.004 A 
ATOM      5  C6  UNL d   1       5.743  -0.771   3.583  0.00  0.00    -0.075 A 
ATOM      6  C7  UNL d   1       5.730  -0.019   2.284  0.00  0.00     0.076 C 
ATOM      7  C8  UNL d   1       5.517  -2.154   3.591  0.00  0.00     0.001 A 
ENDROOT
BRANCH   1   8
ATOM      8  C1  UNL d   1       5.282  -4.366   4.787  0.00  0.00     0.053 C 
ATOM      9  C   UNL d   1       4.478  -4.809   5.999  0.00  0.00     0.018 C 
ENDBRANCH   1   8
TORSDOF 1
ENDMDL
