MODEL 1
REMARK minimizedAffinity 2.09234285
REMARK minimizedRMSD -1
REMARK  1 active torsions:
REMARK  status: ('A' for Active; 'I' for Inactive)
REMARK    1  A    between atoms: C1_2  and  C2_3 
ROOT
ATOM      1  C2  UNL d   1      -0.578   0.383   0.425  0.00  0.00    -0.073 A 
ATOM      2  C3  UNL d   1      -1.640   0.878   1.189  0.00  0.00    -0.002 A 
ATOM      3  C4  UNL d   1      -1.398   1.486   2.422  0.00  0.00     0.004 A 
ATOM      4  C5  UNL d   1      -0.094   1.611   2.899  0.00  0.00    -0.004 A 
ATOM      5  C6  UNL d   1       0.982   1.133   2.144  0.00  0.00    -0.075 A 
ATOM      6  C7  UNL d   1       2.392   1.258   2.644  0.00  0.00     0.076 C 
ATOM      7  C8  UNL d   1       0.731   0.522   0.909  0.00  0.00     0.001 A 
ENDROOT
BRANCH   1   8
ATOM      8  C1  UNL d   1      -0.833  -0.268  -0.910  0.00  0.00     0.053 C 
ATOM      9  C   UNL d   1      -0.046   0.396  -2.028  0.00  0.00     0.018 C 
ENDBRANCH   1   8
TORSDOF 1
ENDMDL
