MODEL 1
REMARK minimizedAffinity 9.34960842
REMARK minimizedRMSD -1
REMARK  1 active torsions:
REMARK  status: ('A' for Active; 'I' for Inactive)
REMARK    1  A    between atoms: C1_2  and  C2_3 
ROOT
ATOM      1  C2  UNL d   1       3.232  -1.126  -2.831  0.00  0.00    -0.073 A 
ATOM      2  C3  UNL d   1       4.417  -0.602  -3.362  0.00  0.00    -0.002 A 
ATOM      3  C4  UNL d   1       4.647  -0.634  -4.738  0.00  0.00     0.004 A 
ATOM      4  C5  UNL d   1       3.694  -1.182  -5.597  0.00  0.00    -0.004 A 
ATOM      5  C6  UNL d   1       2.499  -1.699  -5.087  0.00  0.00    -0.075 A 
ATOM      6  C7  UNL d   1       1.465  -2.293  -5.997  0.00  0.00     0.076 C 
ATOM      7  C8  UNL d   1       2.276  -1.666  -3.703  0.00  0.00     0.001 A 
ENDROOT
BRANCH   1   8
ATOM      8  C1  UNL d   1       2.976  -1.088  -1.347  0.00  0.00     0.053 C 
ATOM      9  C   UNL d   1       2.880   0.336  -0.821  0.00  0.00     0.018 C 
ENDBRANCH   1   8
TORSDOF 1
ENDMDL
