MODEL 1
REMARK minimizedAffinity 5.36217451
REMARK minimizedRMSD -1
REMARK  0 active torsions:
REMARK  status: ('A' for Active; 'I' for Inactive)
ROOT
ATOM      1  C   UNL d   1       3.921  -0.140  -1.402  0.00  0.00     0.023 A 
ATOM      2  C1  UNL d   1       4.449  -0.262  -2.687  0.00  0.00     0.003 A 
ATOM      3  C2  UNL d   1       3.641  -0.021  -3.801  0.00  0.00     0.048 A 
ATOM      4  C3  UNL d   1       2.307   0.342  -3.622  0.00  0.00     0.023 A 
ATOM      5  C4  UNL d   1       1.775   0.466  -2.337  0.00  0.00     0.048 A 
ATOM      6  C5  UNL d   1       2.586   0.223  -1.227  0.00  0.00     0.003 A 
ATOM      7  I   UNL d   1       1.103   0.701  -5.277  0.00  0.00    -0.146 I 
ENDROOT
TORSDOF 0
ENDMDL
