MODEL 1
REMARK minimizedAffinity 1.46574724
REMARK minimizedRMSD -1
REMARK  0 active torsions:
REMARK  status: ('A' for Active; 'I' for Inactive)
ROOT
ATOM      1  C   UNL d   1       2.833   0.661  -4.421  0.00  0.00     0.023 A 
ATOM      2  C1  UNL d   1       3.804   0.039  -3.635  0.00  0.00     0.003 A 
ATOM      3  C2  UNL d   1       3.423  -0.749  -2.547  0.00  0.00     0.048 A 
ATOM      4  C3  UNL d   1       2.070  -0.911  -2.250  0.00  0.00     0.023 A 
ATOM      5  C4  UNL d   1       1.096  -0.291  -3.034  0.00  0.00     0.048 A 
ATOM      6  C5  UNL d   1       1.481   0.497  -4.120  0.00  0.00     0.003 A 
ATOM      7  I   UNL d   1       1.502  -2.083  -0.631  0.00  0.00    -0.146 I 
ENDROOT
TORSDOF 0
ENDMDL
