MODEL 1
REMARK minimizedAffinity 8.75771236
REMARK minimizedRMSD -1
REMARK  0 active torsions:
REMARK  status: ('A' for Active; 'I' for Inactive)
ROOT
ATOM      1  C   UNL d   1       2.794  -0.918   2.149  0.00  0.00     0.023 A 
ATOM      2  C1  UNL d   1       3.357  -1.615   1.080  0.00  0.00     0.003 A 
ATOM      3  C2  UNL d   1       2.545  -2.089   0.048  0.00  0.00     0.048 A 
ATOM      4  C3  UNL d   1       1.170  -1.862   0.091  0.00  0.00     0.023 A 
ATOM      5  C4  UNL d   1       0.602  -1.164   1.159  0.00  0.00     0.048 A 
ATOM      6  C5  UNL d   1       1.418  -0.693   2.188  0.00  0.00     0.003 A 
ATOM      7  I   UNL d   1      -0.042  -2.566  -1.443  0.00  0.00    -0.146 I 
ENDROOT
TORSDOF 0
ENDMDL
