MODEL 1
REMARK minimizedAffinity 8.48321342
REMARK minimizedRMSD -1
REMARK  0 active torsions:
REMARK  status: ('A' for Active; 'I' for Inactive)
ROOT
ATOM      1  C   UNL d   1       1.278   0.523  -4.640  0.00  0.00     0.023 A 
ATOM      2  C1  UNL d   1       2.204   1.148  -3.804  0.00  0.00     0.003 A 
ATOM      3  C2  UNL d   1       2.248   0.828  -2.446  0.00  0.00     0.048 A 
ATOM      4  C3  UNL d   1       1.363  -0.118  -1.929  0.00  0.00     0.023 A 
ATOM      5  C4  UNL d   1       0.436  -0.747  -2.761  0.00  0.00     0.048 A 
ATOM      6  C5  UNL d   1       0.395  -0.423  -4.119  0.00  0.00     0.003 A 
ATOM      7  I   UNL d   1       1.427  -0.595   0.093  0.00  0.00    -0.146 I 
ENDROOT
TORSDOF 0
ENDMDL
