MODEL 1
REMARK minimizedAffinity 3.81828117
REMARK minimizedRMSD -1
REMARK  0 active torsions:
REMARK  status: ('A' for Active; 'I' for Inactive)
ROOT
ATOM      1  C   UNL d   1       0.619   0.663  -4.460  0.00  0.00     0.023 A 
ATOM      2  C1  UNL d   1       1.643   1.343  -3.802  0.00  0.00     0.003 A 
ATOM      3  C2  UNL d   1       1.977   1.005  -2.489  0.00  0.00     0.048 A 
ATOM      4  C3  UNL d   1       1.283  -0.016  -1.841  0.00  0.00     0.023 A 
ATOM      5  C4  UNL d   1       0.257  -0.700  -2.495  0.00  0.00     0.048 A 
ATOM      6  C5  UNL d   1      -0.073  -0.357  -3.808  0.00  0.00     0.003 A 
ATOM      7  I   UNL d   1       1.777  -0.521   0.114  0.00  0.00    -0.146 I 
ENDROOT
TORSDOF 0
ENDMDL
