MODEL 1
REMARK minimizedAffinity 7.09351444
REMARK minimizedRMSD -1
REMARK  0 active torsions:
REMARK  status: ('A' for Active; 'I' for Inactive)
ROOT
ATOM      1  C   UNL d   1       1.919   0.743  -4.976  0.00  0.00     0.023 A 
ATOM      2  C1  UNL d   1       0.775   0.111  -4.489  0.00  0.00     0.003 A 
ATOM      3  C2  UNL d   1       0.726  -0.322  -3.162  0.00  0.00     0.048 A 
ATOM      4  C3  UNL d   1       1.825  -0.120  -2.328  0.00  0.00     0.023 A 
ATOM      5  C4  UNL d   1       2.972   0.512  -2.811  0.00  0.00     0.048 A 
ATOM      6  C5  UNL d   1       3.017   0.943  -4.138  0.00  0.00     0.003 A 
ATOM      7  I   UNL d   1       1.755  -0.764  -0.353  0.00  0.00    -0.146 I 
ENDROOT
TORSDOF 0
ENDMDL
