MODEL 1
REMARK minimizedAffinity 6.33068275
REMARK minimizedRMSD -1
REMARK  0 active torsions:
REMARK  status: ('A' for Active; 'I' for Inactive)
ROOT
ATOM      1  C   UNL d   1       1.212   0.700  -4.773  0.00  0.00     0.023 A 
ATOM      2  C1  UNL d   1       0.443  -0.379  -4.337  0.00  0.00     0.003 A 
ATOM      3  C2  UNL d   1       0.668  -0.933  -3.075  0.00  0.00     0.048 A 
ATOM      4  C3  UNL d   1       1.661  -0.402  -2.254  0.00  0.00     0.023 A 
ATOM      5  C4  UNL d   1       2.432   0.679  -2.685  0.00  0.00     0.048 A 
ATOM      6  C5  UNL d   1       2.205   1.229  -3.948  0.00  0.00     0.003 A 
ATOM      7  I   UNL d   1       1.997  -1.224  -0.375  0.00  0.00    -0.146 I 
ENDROOT
TORSDOF 0
ENDMDL
