MODEL 1
REMARK minimizedAffinity 6.65817022
REMARK minimizedRMSD -1
REMARK  0 active torsions:
REMARK  status: ('A' for Active; 'I' for Inactive)
ROOT
ATOM      1  C   UNL d   1       1.829   2.009  -3.225  0.00  0.00     0.023 A 
ATOM      2  C1  UNL d   1       3.203   2.194  -3.073  0.00  0.00     0.003 A 
ATOM      3  C2  UNL d   1       4.082   1.138  -3.322  0.00  0.00     0.048 A 
ATOM      4  C3  UNL d   1       3.580  -0.100  -3.724  0.00  0.00     0.023 A 
ATOM      5  C4  UNL d   1       2.206  -0.288  -3.878  0.00  0.00     0.048 A 
ATOM      6  C5  UNL d   1       1.331   0.770  -3.627  0.00  0.00     0.003 A 
ATOM      7  I   UNL d   1       4.887  -1.673  -4.095  0.00  0.00    -0.146 I 
ENDROOT
TORSDOF 0
ENDMDL
