MODEL 1
REMARK minimizedAffinity 9.74787045
REMARK minimizedRMSD -1
REMARK  2 active torsions:
REMARK  status: ('A' for Active; 'I' for Inactive)
REMARK    1  A    between atoms: C2'_3  and  C1'_4 
REMARK    2  A    between atoms: C1'_4  and  C1_5 
ROOT
ATOM      1  C1  I4B d   1       0.263  -3.550   0.821  0.00  0.00    -0.075 A 
ATOM      2  C2  I4B d   1       0.421  -4.417  -0.232  0.00  0.00     0.003 A 
ATOM      3  C3  I4B d   1      -0.664  -4.691  -1.099  0.00  0.00     0.002 A 
ATOM      4  C4  I4B d   1      -1.895  -4.118  -0.849  0.00  0.00    -0.004 A 
ATOM      5  C5  I4B d   1      -2.047  -3.222   0.205  0.00  0.00     0.002 A 
ATOM      6  C6  I4B d   1      -0.958  -2.926   1.038  0.00  0.00     0.003 A 
ENDROOT
BRANCH   1   7
ATOM      7  C1' I4B d   1       1.421  -3.310   1.736  0.00  0.00     0.060 C 
BRANCH   7   8
ATOM      8  C2' I4B d   1       1.274  -1.919   2.320  0.00  0.00    -0.013 C 
ATOM      9  C4' I4B d   1       1.488  -1.928   3.810  0.00  0.00     0.013 C 
ATOM     10  C3' I4B d   1       2.263  -1.023   1.636  0.00  0.00     0.013 C 
ENDBRANCH   7   8
ENDBRANCH   1   7
TORSDOF 2
ENDMDL
