MODEL 1
REMARK minimizedAffinity 16.5363216
REMARK minimizedRMSD -1
REMARK  2 active torsions:
REMARK  status: ('A' for Active; 'I' for Inactive)
REMARK    1  A    between atoms: C2'_3  and  C1'_4 
REMARK    2  A    between atoms: C1'_4  and  C1_5 
ROOT
ATOM      1  C1  I4B d   1       2.872  -1.493   1.091  0.00  0.00    -0.075 A 
ATOM      2  C2  I4B d   1       2.692  -2.686   1.746  0.00  0.00     0.003 A 
ATOM      3  C3  I4B d   1       1.834  -2.759   2.870  0.00  0.00     0.002 A 
ATOM      4  C4  I4B d   1       1.220  -1.613   3.333  0.00  0.00    -0.004 A 
ATOM      5  C5  I4B d   1       1.385  -0.409   2.653  0.00  0.00     0.002 A 
ATOM      6  C6  I4B d   1       2.207  -0.351   1.518  0.00  0.00     0.003 A 
ENDROOT
BRANCH   1   7
ATOM      7  C1' I4B d   1       3.811  -1.444  -0.073  0.00  0.00     0.060 C 
BRANCH   7   8
ATOM      8  C2' I4B d   1       4.322  -2.849  -0.319  0.00  0.00    -0.013 C 
ATOM      9  C4' I4B d   1       3.909  -3.349  -1.678  0.00  0.00     0.013 C 
ATOM     10  C3' I4B d   1       5.815  -2.829  -0.180  0.00  0.00     0.013 C 
ENDBRANCH   7   8
ENDBRANCH   1   7
TORSDOF 2
ENDMDL
