MODEL 1
REMARK minimizedAffinity 4.49590492
REMARK minimizedRMSD -1
REMARK  2 active torsions:
REMARK  status: ('A' for Active; 'I' for Inactive)
REMARK    1  A    between atoms: C2'_3  and  C1'_4 
REMARK    2  A    between atoms: C1'_4  and  C1_5 
ROOT
ATOM      1  C1  I4B d   1      -3.514   3.118  -4.061  0.00  0.00    -0.075 A 
ATOM      2  C2  I4B d   1      -4.072   2.122  -4.822  0.00  0.00     0.003 A 
ATOM      3  C3  I4B d   1      -3.984   0.772  -4.405  0.00  0.00     0.002 A 
ATOM      4  C4  I4B d   1      -3.289   0.460  -3.254  0.00  0.00    -0.004 A 
ATOM      5  C5  I4B d   1      -2.743   1.474  -2.472  0.00  0.00     0.002 A 
ATOM      6  C6  I4B d   1      -2.867   2.812  -2.871  0.00  0.00     0.003 A 
ENDROOT
BRANCH   1   7
ATOM      7  C1' I4B d   1      -3.598   4.530  -4.548  0.00  0.00     0.060 C 
BRANCH   7   8
ATOM      8  C2' I4B d   1      -4.652   5.245  -3.728  0.00  0.00    -0.013 C 
ATOM      9  C4' I4B d   1      -5.994   5.204  -4.410  0.00  0.00     0.013 C 
ATOM     10  C3' I4B d   1      -4.710   4.593  -2.379  0.00  0.00     0.013 C 
ENDBRANCH   7   8
ENDBRANCH   1   7
TORSDOF 2
ENDMDL
