MODEL 1
REMARK minimizedAffinity 10.0138674
REMARK minimizedRMSD -1
REMARK  2 active torsions:
REMARK  status: ('A' for Active; 'I' for Inactive)
REMARK    1  A    between atoms: C2'_3  and  C1'_4 
REMARK    2  A    between atoms: C1'_4  and  C1_5 
ROOT
ATOM      1  C1  I4B d   1      -3.223   2.005  -2.761  0.00  0.00    -0.075 A 
ATOM      2  C2  I4B d   1      -3.856   2.856  -1.889  0.00  0.00     0.003 A 
ATOM      3  C3  I4B d   1      -4.417   4.069  -2.356  0.00  0.00     0.002 A 
ATOM      4  C4  I4B d   1      -4.280   4.413  -3.686  0.00  0.00    -0.004 A 
ATOM      5  C5  I4B d   1      -3.658   3.539  -4.573  0.00  0.00     0.002 A 
ATOM      6  C6  I4B d   1      -3.137   2.322  -4.111  0.00  0.00     0.003 A 
ENDROOT
BRANCH   1   7
ATOM      7  C1' I4B d   1      -2.613   0.749  -2.227  0.00  0.00     0.060 C 
BRANCH   7   8
ATOM      8  C2' I4B d   1      -2.031   1.055  -0.862  0.00  0.00    -0.013 C 
ATOM      9  C4' I4B d   1      -1.992  -0.176   0.004  0.00  0.00     0.013 C 
ATOM     10  C3' I4B d   1      -0.656   1.620  -1.062  0.00  0.00     0.013 C 
ENDBRANCH   7   8
ENDBRANCH   1   7
TORSDOF 2
ENDMDL
