MODEL 1
REMARK minimizedAffinity 8.17307472
REMARK minimizedRMSD -1
REMARK  2 active torsions:
REMARK  status: ('A' for Active; 'I' for Inactive)
REMARK    1  A    between atoms: C2'_3  and  C1'_4 
REMARK    2  A    between atoms: C1'_4  and  C1_5 
ROOT
ATOM      1  C1  I4B d   1      -3.902   3.190  -3.628  0.00  0.00    -0.075 A 
ATOM      2  C2  I4B d   1      -4.240   4.509  -3.448  0.00  0.00     0.003 A 
ATOM      3  C3  I4B d   1      -4.306   5.386  -4.557  0.00  0.00     0.002 A 
ATOM      4  C4  I4B d   1      -3.980   4.918  -5.814  0.00  0.00    -0.004 A 
ATOM      5  C5  I4B d   1      -3.660   3.576  -5.998  0.00  0.00     0.002 A 
ATOM      6  C6  I4B d   1      -3.633   2.703  -4.900  0.00  0.00     0.003 A 
ENDROOT
BRANCH   1   7
ATOM      7  C1' I4B d   1      -3.810   2.300  -2.430  0.00  0.00     0.060 C 
BRANCH   7   8
ATOM      8  C2' I4B d   1      -3.001   1.079  -2.817  0.00  0.00    -0.013 C 
ATOM      9  C4' I4B d   1      -2.176   0.581  -1.659  0.00  0.00     0.013 C 
ATOM     10  C3' I4B d   1      -3.954   0.024  -3.296  0.00  0.00     0.013 C 
ENDBRANCH   7   8
ENDBRANCH   1   7
TORSDOF 2
ENDMDL
