MODEL 1
REMARK minimizedAffinity 14.490428
REMARK minimizedRMSD -1
REMARK  2 active torsions:
REMARK  status: ('A' for Active; 'I' for Inactive)
REMARK    1  A    between atoms: C2'_3  and  C1'_4 
REMARK    2  A    between atoms: C1'_4  and  C1_5 
ROOT
ATOM      1  C1  I4B d   1       1.516  -1.191   3.002  0.00  0.00    -0.075 A 
ATOM      2  C2  I4B d   1       2.112  -2.396   3.278  0.00  0.00     0.003 A 
ATOM      3  C3  I4B d   1       2.704  -2.625   4.544  0.00  0.00     0.002 A 
ATOM      4  C4  I4B d   1       2.720  -1.611   5.480  0.00  0.00    -0.004 A 
ATOM      5  C5  I4B d   1       2.095  -0.398   5.206  0.00  0.00     0.002 A 
ATOM      6  C6  I4B d   1       1.478  -0.190   3.964  0.00  0.00     0.003 A 
ENDROOT
BRANCH   1   7
ATOM      7  C1' I4B d   1       0.930  -0.971   1.643  0.00  0.00     0.060 C 
BRANCH   7   8
ATOM      8  C2' I4B d   1       2.017  -0.406   0.752  0.00  0.00    -0.013 C 
ATOM      9  C4' I4B d   1       2.589  -1.468  -0.151  0.00  0.00     0.013 C 
ATOM     10  C3' I4B d   1       1.426   0.719  -0.043  0.00  0.00     0.013 C 
ENDBRANCH   7   8
ENDBRANCH   1   7
TORSDOF 2
ENDMDL
