MODEL 1
REMARK minimizedAffinity 8.65929317
REMARK minimizedRMSD -1
REMARK  2 active torsions:
REMARK  status: ('A' for Active; 'I' for Inactive)
REMARK    1  A    between atoms: C2'_3  and  C1'_4 
REMARK    2  A    between atoms: C1'_4  and  C1_5 
ROOT
ATOM      1  C1  I4B d   1       2.298  -1.762   2.291  0.00  0.00    -0.075 A 
ATOM      2  C2  I4B d   1       1.661  -0.697   2.877  0.00  0.00     0.003 A 
ATOM      3  C3  I4B d   1       1.297  -0.749   4.244  0.00  0.00     0.002 A 
ATOM      4  C4  I4B d   1       1.544  -1.896   4.970  0.00  0.00    -0.004 A 
ATOM      5  C5  I4B d   1       2.211  -2.966   4.381  0.00  0.00     0.002 A 
ATOM      6  C6  I4B d   1       2.602  -2.894   3.036  0.00  0.00     0.003 A 
ENDROOT
BRANCH   1   7
ATOM      7  C1' I4B d   1       2.638  -1.687   0.836  0.00  0.00     0.060 C 
BRANCH   7   8
ATOM      8  C2' I4B d   1       3.619  -2.800   0.527  0.00  0.00    -0.013 C 
ATOM      9  C4' I4B d   1       3.269  -3.493  -0.763  0.00  0.00     0.013 C 
ATOM     10  C3' I4B d   1       4.993  -2.201   0.465  0.00  0.00     0.013 C 
ENDBRANCH   7   8
ENDBRANCH   1   7
TORSDOF 2
ENDMDL
