MODEL 1
REMARK minimizedAffinity 3.66426516
REMARK minimizedRMSD -1
REMARK  2 active torsions:
REMARK  status: ('A' for Active; 'I' for Inactive)
REMARK    1  A    between atoms: C2'_3  and  C1'_4 
REMARK    2  A    between atoms: C1'_4  and  C1_5 
ROOT
ATOM      1  C1  I4B d   1       2.173  -2.248   2.079  0.00  0.00    -0.075 A 
ATOM      2  C2  I4B d   1       1.582  -1.068   2.457  0.00  0.00     0.003 A 
ATOM      3  C3  I4B d   1       1.278  -0.828   3.819  0.00  0.00     0.002 A 
ATOM      4  C4  I4B d   1       1.534  -1.808   4.756  0.00  0.00    -0.004 A 
ATOM      5  C5  I4B d   1       2.154  -2.994   4.374  0.00  0.00     0.002 A 
ATOM      6  C6  I4B d   1       2.487  -3.211   3.029  0.00  0.00     0.003 A 
ENDROOT
BRANCH   1   7
ATOM      7  C1' I4B d   1       2.451  -2.483   0.628  0.00  0.00     0.060 C 
BRANCH   7   8
ATOM      8  C2' I4B d   1       3.783  -1.840   0.298  0.00  0.00    -0.013 C 
ATOM      9  C4' I4B d   1       4.787  -2.868  -0.152  0.00  0.00     0.013 C 
ATOM     10  C3' I4B d   1       3.548  -0.810  -0.766  0.00  0.00     0.013 C 
ENDBRANCH   7   8
ENDBRANCH   1   7
TORSDOF 2
ENDMDL
