MODEL 1
REMARK minimizedAffinity 11.4268761
REMARK minimizedRMSD -1
REMARK  2 active torsions:
REMARK  status: ('A' for Active; 'I' for Inactive)
REMARK    1  A    between atoms: C2'_3  and  C1'_4 
REMARK    2  A    between atoms: C1'_4  and  C1_5 
ROOT
ATOM      1  C1  I4B d   1       2.631  -2.324   2.211  0.00  0.00    -0.075 A 
ATOM      2  C2  I4B d   1       1.978  -1.150   1.928  0.00  0.00     0.003 A 
ATOM      3  C3  I4B d   1       1.264  -0.470   2.944  0.00  0.00     0.002 A 
ATOM      4  C4  I4B d   1       1.188  -1.021   4.207  0.00  0.00    -0.004 A 
ATOM      5  C5  I4B d   1       1.870  -2.199   4.497  0.00  0.00     0.002 A 
ATOM      6  C6  I4B d   1       2.606  -2.849   3.496  0.00  0.00     0.003 A 
ENDROOT
BRANCH   1   7
ATOM      7  C1' I4B d   1       3.348  -3.033   1.106  0.00  0.00     0.060 C 
BRANCH   7   8
ATOM      8  C2' I4B d   1       4.478  -2.141   0.634  0.00  0.00    -0.013 C 
ATOM      9  C4' I4B d   1       5.818  -2.786   0.872  0.00  0.00     0.013 C 
ATOM     10  C3' I4B d   1       4.265  -1.856  -0.823  0.00  0.00     0.013 C 
ENDBRANCH   7   8
ENDBRANCH   1   7
TORSDOF 2
ENDMDL
