MODEL 1
REMARK minimizedAffinity 13.8053417
REMARK minimizedRMSD -1
REMARK  1 active torsions:
REMARK  status: ('A' for Active; 'I' for Inactive)
REMARK    1  A    between atoms: C1_2  and  C2_3 
ROOT
ATOM      1  C2  UNL d   1       1.054  -2.150  -5.606  0.00  0.00    -0.081 A 
ATOM      2  C3  UNL d   1       2.390  -2.268  -5.202  0.00  0.00     0.006 A 
ATOM      3  C4  UNL d   1       3.022  -3.514  -5.201  0.00  0.00     0.002 A 
ATOM      4  C5  UNL d   1       2.332  -4.660  -5.610  0.00  0.00    -0.080 A 
ATOM      5  C6  UNL d   1       3.008  -5.998  -5.642  0.00  0.00     0.076 C 
ATOM      6  C7  UNL d   1       0.993  -4.545  -5.997  0.00  0.00     0.002 A 
ATOM      7  C8  UNL d   1       0.360  -3.300  -5.998  0.00  0.00     0.006 A 
ENDROOT
BRANCH   1   8
ATOM      8  C1  UNL d   1       0.389  -0.799  -5.670  0.00  0.00     0.054 C 
ATOM      9  C   UNL d   1      -0.431  -0.525  -4.418  0.00  0.00     0.018 C 
ENDBRANCH   1   8
TORSDOF 1
ENDMDL
