MODEL 1
REMARK minimizedAffinity 10.4115314
REMARK minimizedRMSD -1
REMARK  1 active torsions:
REMARK  status: ('A' for Active; 'I' for Inactive)
REMARK    1  A    between atoms: C1_2  and  C2_3 
ROOT
ATOM      1  C2  UNL d   1       2.162   0.230   3.833  0.00  0.00    -0.081 A 
ATOM      2  C3  UNL d   1       1.278   1.280   3.555  0.00  0.00     0.006 A 
ATOM      3  C4  UNL d   1      -0.031   1.015   3.145  0.00  0.00     0.002 A 
ATOM      4  C5  UNL d   1      -0.480  -0.303   3.014  0.00  0.00    -0.080 A 
ATOM      5  C6  UNL d   1      -1.892  -0.602   2.604  0.00  0.00     0.076 C 
ATOM      6  C7  UNL d   1       0.408  -1.353   3.274  0.00  0.00     0.002 A 
ATOM      7  C8  UNL d   1       1.717  -1.088   3.684  0.00  0.00     0.006 A 
ENDROOT
BRANCH   1   8
ATOM      8  C1  UNL d   1       3.554   0.513   4.337  0.00  0.00     0.054 C 
ATOM      9  C   UNL d   1       4.192   1.669   3.582  0.00  0.00     0.018 C 
ENDBRANCH   1   8
TORSDOF 1
ENDMDL
