MODEL 1
REMARK minimizedAffinity 10.9054337
REMARK minimizedRMSD -1
REMARK  1 active torsions:
REMARK  status: ('A' for Active; 'I' for Inactive)
REMARK    1  A    between atoms: C1_2  and  C2_3 
ROOT
ATOM      1  C2  UNL d   1       1.550   1.244   1.785  0.00  0.00    -0.081 A 
ATOM      2  C3  UNL d   1       2.288   1.260   2.975  0.00  0.00     0.006 A 
ATOM      3  C4  UNL d   1       2.103   0.264   3.937  0.00  0.00     0.002 A 
ATOM      4  C5  UNL d   1       1.185  -0.769   3.722  0.00  0.00    -0.080 A 
ATOM      5  C6  UNL d   1       0.999  -1.861   4.732  0.00  0.00     0.076 C 
ATOM      6  C7  UNL d   1       0.435  -0.776   2.541  0.00  0.00     0.002 A 
ATOM      7  C8  UNL d   1       0.618   0.221   1.579  0.00  0.00     0.006 A 
ENDROOT
BRANCH   1   8
ATOM      8  C1  UNL d   1       1.793   2.280   0.718  0.00  0.00     0.054 C 
ATOM      9  C   UNL d   1       3.197   2.860   0.819  0.00  0.00     0.018 C 
ENDBRANCH   1   8
TORSDOF 1
ENDMDL
