MODEL 1
REMARK minimizedAffinity 12.3275166
REMARK minimizedRMSD -1
REMARK  1 active torsions:
REMARK  status: ('A' for Active; 'I' for Inactive)
REMARK    1  A    between atoms: C1_2  and  C2_3 
ROOT
ATOM      1  C2  UNL d   1       3.303  -1.138   4.999  0.00  0.00    -0.081 A 
ATOM      2  C3  UNL d   1       3.354   0.165   4.491  0.00  0.00     0.006 A 
ATOM      3  C4  UNL d   1       2.367   0.623   3.614  0.00  0.00     0.002 A 
ATOM      4  C5  UNL d   1       1.310  -0.212   3.238  0.00  0.00    -0.080 A 
ATOM      5  C6  UNL d   1       0.228   0.277   2.321  0.00  0.00     0.076 C 
ATOM      6  C7  UNL d   1       1.268  -1.520   3.732  0.00  0.00     0.002 A 
ATOM      7  C8  UNL d   1       2.254  -1.978   4.608  0.00  0.00     0.006 A 
ENDROOT
BRANCH   1   8
ATOM      8  C1  UNL d   1       4.329  -1.613   5.996  0.00  0.00     0.054 C 
ATOM      9  C   UNL d   1       4.494  -3.126   5.942  0.00  0.00     0.018 C 
ENDBRANCH   1   8
TORSDOF 1
ENDMDL
