MODEL 1
REMARK minimizedAffinity 10.5733156
REMARK minimizedRMSD -1
REMARK  1 active torsions:
REMARK  status: ('A' for Active; 'I' for Inactive)
REMARK    1  A    between atoms: C1_2  and  C2_3 
ROOT
ATOM      1  C2  UNL d   1      -0.519   0.091   3.016  0.00  0.00    -0.081 A 
ATOM      2  C3  UNL d   1      -0.795  -1.153   3.596  0.00  0.00     0.006 A 
ATOM      3  C4  UNL d   1      -2.114  -1.592   3.735  0.00  0.00     0.002 A 
ATOM      4  C5  UNL d   1      -3.177  -0.798   3.291  0.00  0.00    -0.080 A 
ATOM      5  C6  UNL d   1      -4.596  -1.270   3.408  0.00  0.00     0.076 C 
ATOM      6  C7  UNL d   1      -2.902   0.453   2.729  0.00  0.00     0.002 A 
ATOM      7  C8  UNL d   1      -1.583   0.892   2.589  0.00  0.00     0.006 A 
ENDROOT
BRANCH   1   8
ATOM      8  C1  UNL d   1       0.905   0.539   2.805  0.00  0.00     0.054 C 
ATOM      9  C   UNL d   1       1.884  -0.605   3.027  0.00  0.00     0.018 C 
ENDBRANCH   1   8
TORSDOF 1
ENDMDL
