MODEL 1
REMARK minimizedAffinity 12.7656021
REMARK minimizedRMSD -1
REMARK  1 active torsions:
REMARK  status: ('A' for Active; 'I' for Inactive)
REMARK    1  A    between atoms: C1_2  and  C2_3 
ROOT
ATOM      1  C2  UNL d   1      -1.132  -3.802  -5.053  0.00  0.00    -0.081 A 
ATOM      2  C3  UNL d   1      -1.387  -2.999  -3.935  0.00  0.00     0.006 A 
ATOM      3  C4  UNL d   1      -0.723  -1.780  -3.773  0.00  0.00     0.002 A 
ATOM      4  C5  UNL d   1       0.199  -1.342  -4.729  0.00  0.00    -0.080 A 
ATOM      5  C6  UNL d   1       0.896  -0.022  -4.582  0.00  0.00     0.076 C 
ATOM      6  C7  UNL d   1       0.466  -2.152  -5.837  0.00  0.00     0.002 A 
ATOM      7  C8  UNL d   1      -0.196  -3.371  -5.999  0.00  0.00     0.006 A 
ENDROOT
BRANCH   1   8
ATOM      8  C1  UNL d   1      -1.894  -5.086  -5.264  0.00  0.00     0.054 C 
ATOM      9  C   UNL d   1      -3.203  -4.838  -6.000  0.00  0.00     0.018 C 
ENDBRANCH   1   8
TORSDOF 1
ENDMDL
