MODEL 1
REMARK minimizedAffinity -2.02437377
REMARK minimizedRMSD -1
REMARK  0 active torsions:
REMARK  status: ('A' for Active; 'I' for Inactive)
ROOT
ATOM      1  C4' PXY d   1      -1.048   0.086   1.423  0.00  0.00     0.077 C 
ATOM      2  C1' PXY d   1       1.042   0.544  -3.947  0.00  0.00     0.077 C 
ATOM      3  C1  PXY d   1       0.492   0.411  -2.541  0.00  0.00    -0.082 A 
ATOM      4  C2  PXY d   1      -0.012   1.473  -1.932  0.00  0.00     0.003 A 
ATOM      5  C3  PXY d   1      -0.484   1.377  -0.649  0.00  0.00     0.003 A 
ATOM      6  C4  PXY d   1      -0.490   0.171  -0.000  0.00  0.00    -0.082 A 
ATOM      7  C5  PXY d   1       0.013  -0.918  -0.618  0.00  0.00     0.003 A 
ATOM      8  C6  PXY d   1       0.526  -0.792  -1.906  0.00  0.00     0.003 A 
ENDROOT
TORSDOF 0
ENDMDL
