MODEL 1
REMARK minimizedAffinity -2.63581991
REMARK minimizedRMSD -1
REMARK  0 active torsions:
REMARK  status: ('A' for Active; 'I' for Inactive)
ROOT
ATOM      1  C4' PXY d   1       0.847   0.802  -2.974  0.00  0.00     0.077 C 
ATOM      2  C1' PXY d   1      -1.970   0.386   2.056  0.00  0.00     0.077 C 
ATOM      3  C1  PXY d   1      -1.241   0.503   0.733  0.00  0.00    -0.082 A 
ATOM      4  C2  PXY d   1      -0.426  -0.466   0.347  0.00  0.00     0.003 A 
ATOM      5  C3  PXY d   1       0.266  -0.361  -0.832  0.00  0.00     0.003 A 
ATOM      6  C4  PXY d   1       0.082   0.721  -1.650  0.00  0.00    -0.082 A 
ATOM      7  C5  PXY d   1      -0.756   1.709  -1.269  0.00  0.00     0.003 A 
ATOM      8  C6  PXY d   1      -1.417   1.603  -0.049  0.00  0.00     0.003 A 
ENDROOT
TORSDOF 0
ENDMDL
