MODEL 1
REMARK minimizedAffinity -2.47249413
REMARK minimizedRMSD -1
REMARK  0 active torsions:
REMARK  status: ('A' for Active; 'I' for Inactive)
ROOT
ATOM      1  C4' PXY d   1       1.231   0.787  -3.072  0.00  0.00     0.077 C 
ATOM      2  C1' PXY d   1      -1.837   0.036   1.770  0.00  0.00     0.077 C 
ATOM      3  C1  PXY d   1      -1.025   0.223   0.503  0.00  0.00    -0.082 A 
ATOM      4  C2  PXY d   1      -1.023   1.398  -0.105  0.00  0.00     0.003 A 
ATOM      5  C3  PXY d   1      -0.320   1.575  -1.269  0.00  0.00     0.003 A 
ATOM      6  C4  PXY d   1       0.433   0.555  -1.786  0.00  0.00    -0.082 A 
ATOM      7  C5  PXY d   1       0.445  -0.643  -1.165  0.00  0.00     0.003 A 
ATOM      8  C6  PXY d   1      -0.309  -0.815  -0.007  0.00  0.00     0.003 A 
ENDROOT
TORSDOF 0
ENDMDL
