MODEL 1
REMARK minimizedAffinity -0.440970272
REMARK minimizedRMSD -1
REMARK  0 active torsions:
REMARK  status: ('A' for Active; 'I' for Inactive)
ROOT
ATOM      1  C4' PXY d   1       0.311  -0.391  -2.371  0.00  0.00     0.077 C 
ATOM      2  C1' PXY d   1      -0.919   0.365   3.226  0.00  0.00     0.077 C 
ATOM      3  C1  PXY d   1      -0.584   0.168   1.761  0.00  0.00    -0.082 A 
ATOM      4  C2  PXY d   1      -1.492   0.443   0.839  0.00  0.00     0.003 A 
ATOM      5  C3  PXY d   1      -1.217   0.240  -0.489  0.00  0.00     0.003 A 
ATOM      6  C4  PXY d   1       0.019  -0.198  -0.881  0.00  0.00    -0.082 A 
ATOM      7  C5  PXY d   1       0.955  -0.471   0.053  0.00  0.00     0.003 A 
ATOM      8  C6  PXY d   1       0.642  -0.298   1.398  0.00  0.00     0.003 A 
ENDROOT
TORSDOF 0
ENDMDL
