MODEL 1
REMARK minimizedAffinity 3.05926251
REMARK minimizedRMSD -1
REMARK  0 active torsions:
REMARK  status: ('A' for Active; 'I' for Inactive)
ROOT
ATOM      1  C4' PXY d   1       1.232  -0.055   0.508  0.00  0.00     0.077 C 
ATOM      2  C1' PXY d   1      -4.332  -0.464  -1.005  0.00  0.00     0.077 C 
ATOM      3  C1  PXY d   1      -2.870  -0.368  -0.614  0.00  0.00    -0.082 A 
ATOM      4  C2  PXY d   1      -2.514   0.403   0.400  0.00  0.00     0.003 A 
ATOM      5  C3  PXY d   1      -1.193   0.526   0.747  0.00  0.00     0.003 A 
ATOM      6  C4  PXY d   1      -0.233  -0.189   0.083  0.00  0.00    -0.082 A 
ATOM      7  C5  PXY d   1      -0.590  -0.987  -0.946  0.00  0.00     0.003 A 
ATOM      8  C6  PXY d   1      -1.931  -1.066  -1.309  0.00  0.00     0.003 A 
ENDROOT
TORSDOF 0
ENDMDL
