MODEL 1
REMARK minimizedAffinity -2.28367877
REMARK minimizedRMSD -1
REMARK  0 active torsions:
REMARK  status: ('A' for Active; 'I' for Inactive)
ROOT
ATOM      1  C4' PXY d   1       0.852  -0.738  -2.479  0.00  0.00     0.077 C 
ATOM      2  C1' PXY d   1      -1.276   0.480   2.756  0.00  0.00     0.077 C 
ATOM      3  C1  PXY d   1      -0.706   0.160   1.388  0.00  0.00    -0.082 A 
ATOM      4  C2  PXY d   1      -1.394   0.475   0.303  0.00  0.00     0.003 A 
ATOM      5  C3  PXY d   1      -0.908   0.164  -0.941  0.00  0.00     0.003 A 
ATOM      6  C4  PXY d   1       0.320  -0.426  -1.078  0.00  0.00    -0.082 A 
ATOM      7  C5  PXY d   1       1.033  -0.741   0.024  0.00  0.00     0.003 A 
ATOM      8  C6  PXY d   1       0.504  -0.454   1.279  0.00  0.00     0.003 A 
ENDROOT
TORSDOF 0
ENDMDL
