MODEL 1
REMARK minimizedAffinity 0.17506896
REMARK minimizedRMSD -1
REMARK  0 active torsions:
REMARK  status: ('A' for Active; 'I' for Inactive)
ROOT
ATOM      1  C4' PXY d   1       1.452  -0.379   0.765  0.00  0.00     0.077 C 
ATOM      2  C1' PXY d   1       0.335   0.320  -4.863  0.00  0.00     0.077 C 
ATOM      3  C1  PXY d   1       0.615   0.135  -3.385  0.00  0.00    -0.082 A 
ATOM      4  C2  PXY d   1       1.695   0.682  -2.850  0.00  0.00     0.003 A 
ATOM      5  C3  PXY d   1       1.981   0.497  -1.522  0.00  0.00     0.003 A 
ATOM      6  C4  PXY d   1       1.124  -0.210  -0.721  0.00  0.00    -0.082 A 
ATOM      7  C5  PXY d   1       0.015  -0.762  -1.257  0.00  0.00     0.003 A 
ATOM      8  C6  PXY d   1      -0.235  -0.598  -2.616  0.00  0.00     0.003 A 
ENDROOT
TORSDOF 0
ENDMDL
