MODEL 1
REMARK minimizedAffinity -3.6813345
REMARK minimizedRMSD -1
REMARK  0 active torsions:
REMARK  status: ('A' for Active; 'I' for Inactive)
ROOT
ATOM      1  C4' PXY d   1      -2.828   0.735   0.017  0.00  0.00     0.077 C 
ATOM      2  C1' PXY d   1       2.341  -1.495   1.329  0.00  0.00     0.077 C 
ATOM      3  C1  PXY d   1       0.981  -0.914   0.996  0.00  0.00    -0.082 A 
ATOM      4  C2  PXY d   1       0.635  -0.741  -0.269  0.00  0.00     0.003 A 
ATOM      5  C3  PXY d   1      -0.578  -0.187  -0.587  0.00  0.00     0.003 A 
ATOM      6  C4  PXY d   1      -1.469   0.143   0.400  0.00  0.00    -0.082 A 
ATOM      7  C5  PXY d   1      -1.128  -0.041   1.693  0.00  0.00     0.003 A 
ATOM      8  C6  PXY d   1       0.125  -0.566   1.995  0.00  0.00     0.003 A 
ENDROOT
TORSDOF 0
ENDMDL
