MODEL 1
REMARK minimizedAffinity -4.82254124
REMARK minimizedRMSD -1
REMARK  0 active torsions:
REMARK  status: ('A' for Active; 'I' for Inactive)
ROOT
ATOM      1  C4' PXY d   1       0.637  -0.642  -2.374  0.00  0.00     0.077 C 
ATOM      2  C1' PXY d   1      -1.082   1.164   2.841  0.00  0.00     0.077 C 
ATOM      3  C1  PXY d   1      -0.620   0.685   1.479  0.00  0.00    -0.082 A 
ATOM      4  C2  PXY d   1      -1.085   1.272   0.387  0.00  0.00     0.003 A 
ATOM      5  C3  PXY d   1      -0.702   0.831  -0.853  0.00  0.00     0.003 A 
ATOM      6  C4  PXY d   1       0.206  -0.186  -0.978  0.00  0.00    -0.082 A 
ATOM      7  C5  PXY d   1       0.692  -0.783   0.131  0.00  0.00     0.003 A 
ATOM      8  C6  PXY d   1       0.260  -0.348   1.381  0.00  0.00     0.003 A 
ENDROOT
TORSDOF 0
ENDMDL
