MODEL 1
REMARK minimizedAffinity -3.1472168
REMARK minimizedRMSD -1
REMARK  0 active torsions:
REMARK  status: ('A' for Active; 'I' for Inactive)
ROOT
ATOM      1  C4' PXY d   1       1.089   0.169  -3.278  0.00  0.00     0.077 C 
ATOM      2  C1' PXY d   1      -2.194  -3.734  -5.999  0.00  0.00     0.077 C 
ATOM      3  C1  PXY d   1      -1.327  -2.708  -5.297  0.00  0.00    -0.082 A 
ATOM      4  C2  PXY d   1      -1.095  -2.825  -3.999  0.00  0.00     0.003 A 
ATOM      5  C3  PXY d   1      -0.340  -1.888  -3.342  0.00  0.00     0.003 A 
ATOM      6  C4  PXY d   1       0.228  -0.849  -4.030  0.00  0.00    -0.082 A 
ATOM      7  C5  PXY d   1       0.005  -0.729  -5.356  0.00  0.00     0.003 A 
ATOM      8  C6  PXY d   1      -0.799  -1.667  -5.997  0.00  0.00     0.003 A 
ENDROOT
TORSDOF 0
ENDMDL
