MODEL 1
REMARK minimizedAffinity 6.11468792
REMARK minimizedRMSD -1
REMARK  0 active torsions:
REMARK  status: ('A' for Active; 'I' for Inactive)
ROOT
ATOM      1  C4' PXY d   1      -4.771   0.153  -0.973  0.00  0.00     0.077 C 
ATOM      2  C1' PXY d   1      -0.757   1.474   2.971  0.00  0.00     0.077 C 
ATOM      3  C1  PXY d   1      -1.803   1.117   1.933  0.00  0.00    -0.082 A 
ATOM      4  C2  PXY d   1      -2.611   2.056   1.470  0.00  0.00     0.003 A 
ATOM      5  C3  PXY d   1      -3.583   1.745   0.554  0.00  0.00     0.003 A 
ATOM      6  C4  PXY d   1      -3.694   0.469   0.069  0.00  0.00    -0.082 A 
ATOM      7  C5  PXY d   1      -2.866  -0.492   0.529  0.00  0.00     0.003 A 
ATOM      8  C6  PXY d   1      -1.913  -0.164   1.489  0.00  0.00     0.003 A 
ENDROOT
TORSDOF 0
ENDMDL
