MODEL 1
REMARK minimizedAffinity -4.76117659
REMARK minimizedRMSD -1
REMARK  0 active torsions:
REMARK  status: ('A' for Active; 'I' for Inactive)
ROOT
ATOM      1  C   UNL d   1       1.383  -0.274  -1.103  0.00  0.00     0.078 C 
ATOM      2  C1  UNL d   1       0.152   0.292  -0.460  0.00  0.00    -0.077 A 
ATOM      3  C2  UNL d   1      -0.475  -0.368   0.603  0.00  0.00    -0.001 A 
ATOM      4  C3  UNL d   1      -1.626   0.167   1.186  0.00  0.00     0.003 A 
ATOM      5  C4  UNL d   1      -2.160   1.362   0.710  0.00  0.00    -0.005 A 
ATOM      6  C5  UNL d   1      -1.544   2.025  -0.350  0.00  0.00     0.003 A 
ATOM      7  C6  UNL d   1      -0.393   1.492  -0.933  0.00  0.00    -0.001 A 
ENDROOT
TORSDOF 0
ENDMDL
