MODEL 1
REMARK minimizedAffinity -5.40689516
REMARK minimizedRMSD -1
REMARK  0 active torsions:
REMARK  status: ('A' for Active; 'I' for Inactive)
ROOT
ATOM      1  C   UNL d   1      -2.313   1.547   1.455  0.00  0.00     0.078 C 
ATOM      2  C1  UNL d   1      -1.150   0.811   0.859  0.00  0.00    -0.077 A 
ATOM      3  C2  UNL d   1      -0.611   1.193  -0.375  0.00  0.00    -0.001 A 
ATOM      4  C3  UNL d   1       0.465   0.493  -0.923  0.00  0.00     0.003 A 
ATOM      5  C4  UNL d   1       1.011  -0.594  -0.243  0.00  0.00    -0.005 A 
ATOM      6  C5  UNL d   1       0.480  -0.983   0.985  0.00  0.00     0.003 A 
ATOM      7  C6  UNL d   1      -0.596  -0.284   1.534  0.00  0.00    -0.001 A 
ENDROOT
TORSDOF 0
ENDMDL
