MODEL 1
REMARK minimizedAffinity -4.00903416
REMARK minimizedRMSD -1
REMARK  0 active torsions:
REMARK  status: ('A' for Active; 'I' for Inactive)
ROOT
ATOM      1  C   UNL d   1       0.397  -0.791   1.807  0.00  0.00     0.078 C 
ATOM      2  C1  UNL d   1      -0.525   0.208   1.176  0.00  0.00    -0.077 A 
ATOM      3  C2  UNL d   1      -1.044   1.278   1.916  0.00  0.00    -0.001 A 
ATOM      4  C3  UNL d   1      -1.909   2.196   1.318  0.00  0.00     0.003 A 
ATOM      5  C4  UNL d   1      -2.265   2.051  -0.022  0.00  0.00    -0.005 A 
ATOM      6  C5  UNL d   1      -1.756   0.989  -0.765  0.00  0.00     0.003 A 
ATOM      7  C6  UNL d   1      -0.890   0.070  -0.169  0.00  0.00    -0.001 A 
ENDROOT
TORSDOF 0
ENDMDL
