MODEL 1
REMARK minimizedAffinity -5.44503641
REMARK minimizedRMSD -1
REMARK  0 active torsions:
REMARK  status: ('A' for Active; 'I' for Inactive)
ROOT
ATOM      1  C   UNL d   1      -0.739  -0.541  -0.028  0.00  0.00     0.078 C 
ATOM      2  C1  UNL d   1      -0.753   0.956   0.039  0.00  0.00    -0.077 A 
ATOM      3  C2  UNL d   1      -1.583   1.629   0.945  0.00  0.00    -0.001 A 
ATOM      4  C3  UNL d   1      -1.593   3.024   0.991  0.00  0.00     0.003 A 
ATOM      5  C4  UNL d   1      -0.777   3.758   0.132  0.00  0.00    -0.005 A 
ATOM      6  C5  UNL d   1       0.050   3.098  -0.774  0.00  0.00     0.003 A 
ATOM      7  C6  UNL d   1       0.062   1.703  -0.821  0.00  0.00    -0.001 A 
ENDROOT
TORSDOF 0
ENDMDL
