MODEL 1
REMARK minimizedAffinity -5.05636406
REMARK minimizedRMSD -1
REMARK  0 active torsions:
REMARK  status: ('A' for Active; 'I' for Inactive)
ROOT
ATOM      1  C   UNL d   1       0.787  -0.525  -0.660  0.00  0.00     0.078 C 
ATOM      2  C1  UNL d   1       0.202   0.652   0.060  0.00  0.00    -0.077 A 
ATOM      3  C2  UNL d   1      -0.461   0.493   1.283  0.00  0.00    -0.001 A 
ATOM      4  C3  UNL d   1      -1.010   1.597   1.938  0.00  0.00     0.003 A 
ATOM      5  C4  UNL d   1      -0.902   2.868   1.377  0.00  0.00    -0.005 A 
ATOM      6  C5  UNL d   1      -0.245   3.036   0.159  0.00  0.00     0.003 A 
ATOM      7  C6  UNL d   1       0.304   1.933  -0.497  0.00  0.00    -0.001 A 
ENDROOT
TORSDOF 0
ENDMDL
