MODEL 1
REMARK minimizedAffinity -6.2797451
REMARK minimizedRMSD -1
REMARK  0 active torsions:
REMARK  status: ('A' for Active; 'I' for Inactive)
ROOT
ATOM      1  C   UNL d   1       0.841  -0.741   2.632  0.00  0.00     0.078 C 
ATOM      2  C1  UNL d   1      -0.141   0.012   1.787  0.00  0.00    -0.077 A 
ATOM      3  C2  UNL d   1      -0.787   1.155   2.276  0.00  0.00    -0.001 A 
ATOM      4  C3  UNL d   1      -1.706   1.841   1.481  0.00  0.00     0.003 A 
ATOM      5  C4  UNL d   1      -1.990   1.391   0.193  0.00  0.00    -0.005 A 
ATOM      6  C5  UNL d   1      -1.355   0.254  -0.302  0.00  0.00     0.003 A 
ATOM      7  C6  UNL d   1      -0.435  -0.433   0.492  0.00  0.00    -0.001 A 
ENDROOT
TORSDOF 0
ENDMDL
