MODEL 1
REMARK minimizedAffinity -5.44238329
REMARK minimizedRMSD -1
REMARK  0 active torsions:
REMARK  status: ('A' for Active; 'I' for Inactive)
ROOT
ATOM      1  C   UNL d   1       0.535  -0.140  -0.077  0.00  0.00     0.078 C 
ATOM      2  C1  UNL d   1      -0.457   0.927   0.277  0.00  0.00    -0.077 A 
ATOM      3  C2  UNL d   1      -0.437   2.172  -0.362  0.00  0.00    -0.001 A 
ATOM      4  C3  UNL d   1      -1.361   3.159  -0.015  0.00  0.00     0.003 A 
ATOM      5  C4  UNL d   1      -2.311   2.911   0.973  0.00  0.00    -0.005 A 
ATOM      6  C5  UNL d   1      -2.338   1.675   1.616  0.00  0.00     0.003 A 
ATOM      7  C6  UNL d   1      -1.415   0.687   1.271  0.00  0.00    -0.001 A 
ENDROOT
TORSDOF 0
ENDMDL
