MODEL 1
REMARK minimizedAffinity -4.6839819
REMARK minimizedRMSD -1
REMARK  0 active torsions:
REMARK  status: ('A' for Active; 'I' for Inactive)
ROOT
ATOM      1  C   UNL d   1      -1.048   3.564   0.518  0.00  0.00     0.078 C 
ATOM      2  C1  UNL d   1      -1.107   2.093   0.802  0.00  0.00    -0.077 A 
ATOM      3  C2  UNL d   1      -0.394   1.178   0.017  0.00  0.00    -0.001 A 
ATOM      4  C3  UNL d   1      -0.466  -0.189   0.287  0.00  0.00     0.003 A 
ATOM      5  C4  UNL d   1      -1.251  -0.655   1.340  0.00  0.00    -0.005 A 
ATOM      6  C5  UNL d   1      -1.965   0.248   2.125  0.00  0.00     0.003 A 
ATOM      7  C6  UNL d   1      -1.895   1.616   1.857  0.00  0.00    -0.001 A 
ENDROOT
TORSDOF 0
ENDMDL
