MODEL 1
REMARK minimizedAffinity -5.20254755
REMARK minimizedRMSD -1
REMARK  0 active torsions:
REMARK  status: ('A' for Active; 'I' for Inactive)
ROOT
ATOM      1  C   UNL d   1      -2.028   3.427   1.195  0.00  0.00     0.078 C 
ATOM      2  C1  UNL d   1      -1.068   2.324   0.860  0.00  0.00    -0.077 A 
ATOM      3  C2  UNL d   1      -0.412   2.289  -0.376  0.00  0.00    -0.001 A 
ATOM      4  C3  UNL d   1       0.472   1.252  -0.678  0.00  0.00     0.003 A 
ATOM      5  C4  UNL d   1       0.707   0.241   0.252  0.00  0.00    -0.005 A 
ATOM      6  C5  UNL d   1       0.058   0.266   1.484  0.00  0.00     0.003 A 
ATOM      7  C6  UNL d   1      -0.827   1.303   1.787  0.00  0.00    -0.001 A 
ENDROOT
TORSDOF 0
ENDMDL
