MODEL 1
REMARK minimizedAffinity -5.55720091
REMARK minimizedRMSD -1
REMARK  0 active torsions:
REMARK  status: ('A' for Active; 'I' for Inactive)
ROOT
ATOM      1  C   UNL d   1      -0.243   3.428  -1.154  0.00  0.00     0.078 C 
ATOM      2  C1  UNL d   1      -0.287   2.334  -0.129  0.00  0.00    -0.077 A 
ATOM      3  C2  UNL d   1       0.287   1.083  -0.385  0.00  0.00    -0.001 A 
ATOM      4  C3  UNL d   1       0.230   0.071   0.575  0.00  0.00     0.003 A 
ATOM      5  C4  UNL d   1      -0.401   0.299   1.796  0.00  0.00    -0.005 A 
ATOM      6  C5  UNL d   1      -0.977   1.541   2.058  0.00  0.00     0.003 A 
ATOM      7  C6  UNL d   1      -0.921   2.554   1.100  0.00  0.00    -0.001 A 
ENDROOT
TORSDOF 0
ENDMDL
