MODEL 1
REMARK minimizedAffinity -5.91003227
REMARK minimizedRMSD -1
REMARK  0 active torsions:
REMARK  status: ('A' for Active; 'I' for Inactive)
ROOT
ATOM      1  C   UNL d   1       0.392  -0.320  -0.435  0.00  0.00     0.078 C 
ATOM      2  C1  UNL d   1      -0.109   1.046  -0.070  0.00  0.00    -0.077 A 
ATOM      3  C2  UNL d   1      -0.971   1.231   1.018  0.00  0.00    -0.001 A 
ATOM      4  C3  UNL d   1      -1.437   2.507   1.339  0.00  0.00     0.003 A 
ATOM      5  C4  UNL d   1      -1.049   3.607   0.577  0.00  0.00    -0.005 A 
ATOM      6  C5  UNL d   1      -0.194   3.432  -0.509  0.00  0.00     0.003 A 
ATOM      7  C6  UNL d   1       0.274   2.157  -0.832  0.00  0.00    -0.001 A 
ENDROOT
TORSDOF 0
ENDMDL
