MODEL 1
REMARK minimizedAffinity -4.29189396
REMARK minimizedRMSD -1
REMARK  0 active torsions:
REMARK  status: ('A' for Active; 'I' for Inactive)
ROOT
ATOM      1  C   UNL d   1       0.338   3.444  -1.186  0.00  0.00     0.078 C 
ATOM      2  C1  UNL d   1       0.171   2.342  -0.183  0.00  0.00    -0.077 A 
ATOM      3  C2  UNL d   1       0.665   1.057  -0.434  0.00  0.00    -0.001 A 
ATOM      4  C3  UNL d   1       0.494   0.038   0.505  0.00  0.00     0.003 A 
ATOM      5  C4  UNL d   1      -0.172   0.295   1.702  0.00  0.00    -0.005 A 
ATOM      6  C5  UNL d   1      -0.669   1.571   1.960  0.00  0.00     0.003 A 
ATOM      7  C6  UNL d   1      -0.499   2.590   1.022  0.00  0.00    -0.001 A 
ENDROOT
TORSDOF 0
ENDMDL
