MODEL 1
REMARK minimizedAffinity -5.56196213
REMARK minimizedRMSD -1
REMARK  0 active torsions:
REMARK  status: ('A' for Active; 'I' for Inactive)
ROOT
ATOM      1  C   UNL d   1       0.428  -0.848  -0.410  0.00  0.00     0.078 C 
ATOM      2  C1  UNL d   1      -0.459   0.209   0.178  0.00  0.00    -0.077 A 
ATOM      3  C2  UNL d   1       0.082   1.314   0.847  0.00  0.00    -0.001 A 
ATOM      4  C3  UNL d   1      -0.756   2.285   1.398  0.00  0.00     0.003 A 
ATOM      5  C4  UNL d   1      -2.140   2.159   1.287  0.00  0.00    -0.005 A 
ATOM      6  C5  UNL d   1      -2.687   1.062   0.625  0.00  0.00     0.003 A 
ATOM      7  C6  UNL d   1      -1.850   0.090   0.074  0.00  0.00    -0.001 A 
ENDROOT
TORSDOF 0
ENDMDL
