MODEL 1
REMARK minimizedAffinity 0.748120487
REMARK minimizedRMSD -1
REMARK  0 active torsions:
REMARK  status: ('A' for Active; 'I' for Inactive)
ROOT
ATOM      1  C   UNL d   1      -2.283   0.249   2.258  0.00  0.00     0.077 C 
ATOM      2  C1  UNL d   1      -0.858  -0.221   2.257  0.00  0.00    -0.074 A 
ATOM      3  C2  UNL d   1      -0.126  -0.293   1.068  0.00  0.00    -0.005 A 
ATOM      4  C3  UNL d   1       1.201  -0.723   1.084  0.00  0.00     0.006 A 
ATOM      5  C4  UNL d   1       1.808  -1.084   2.288  0.00  0.00    -0.005 A 
ATOM      6  C5  UNL d   1       1.091  -1.017   3.487  0.00  0.00    -0.074 A 
ATOM      7  C6  UNL d   1       1.731  -1.392   4.791  0.00  0.00     0.077 C 
ATOM      8  C7  UNL d   1      -0.239  -0.578   3.463  0.00  0.00    -0.001 A 
ENDROOT
TORSDOF 0
ENDMDL
