MODEL 1
REMARK minimizedAffinity -0.364783734
REMARK minimizedRMSD -1
REMARK  0 active torsions:
REMARK  status: ('A' for Active; 'I' for Inactive)
ROOT
ATOM      1  C   UNL d   1      -4.336  -1.444   3.291  0.00  0.00     0.077 C 
ATOM      2  C1  UNL d   1      -2.975  -1.007   2.836  0.00  0.00    -0.074 A 
ATOM      3  C2  UNL d   1      -2.814  -0.269   1.659  0.00  0.00    -0.005 A 
ATOM      4  C3  UNL d   1      -1.544   0.139   1.253  0.00  0.00     0.006 A 
ATOM      5  C4  UNL d   1      -0.423  -0.187   2.018  0.00  0.00    -0.005 A 
ATOM      6  C5  UNL d   1      -0.565  -0.924   3.198  0.00  0.00    -0.074 A 
ATOM      7  C6  UNL d   1       0.628  -1.274   4.037  0.00  0.00     0.077 C 
ATOM      8  C7  UNL d   1      -1.846  -1.324   3.603  0.00  0.00    -0.001 A 
ENDROOT
TORSDOF 0
ENDMDL
