MODEL 1
REMARK minimizedAffinity 1.92990661
REMARK minimizedRMSD -1
REMARK  0 active torsions:
REMARK  status: ('A' for Active; 'I' for Inactive)
ROOT
ATOM      1  C   UNL d   1      -3.657  -1.655  -0.871  0.00  0.00     0.077 C 
ATOM      2  C1  UNL d   1      -2.631  -1.070   0.053  0.00  0.00    -0.074 A 
ATOM      3  C2  UNL d   1      -3.005  -0.501   1.274  0.00  0.00    -0.005 A 
ATOM      4  C3  UNL d   1      -2.038   0.030   2.128  0.00  0.00     0.006 A 
ATOM      5  C4  UNL d   1      -0.689  -0.003   1.769  0.00  0.00    -0.005 A 
ATOM      6  C5  UNL d   1      -0.297  -0.569   0.552  0.00  0.00    -0.074 A 
ATOM      7  C6  UNL d   1       1.149  -0.622   0.156  0.00  0.00     0.077 C 
ATOM      8  C7  UNL d   1      -1.274  -1.107  -0.297  0.00  0.00    -0.001 A 
ENDROOT
TORSDOF 0
ENDMDL
