MODEL 1
REMARK minimizedAffinity 0.297788471
REMARK minimizedRMSD -1
REMARK  0 active torsions:
REMARK  status: ('A' for Active; 'I' for Inactive)
ROOT
ATOM      1  C   UNL d   1      -1.122   0.016  -0.568  0.00  0.00     0.077 C 
ATOM      2  C1  UNL d   1      -1.046  -0.330   0.890  0.00  0.00    -0.074 A 
ATOM      3  C2  UNL d   1      -2.192  -0.325   1.691  0.00  0.00    -0.005 A 
ATOM      4  C3  UNL d   1      -2.107  -0.657   3.042  0.00  0.00     0.006 A 
ATOM      5  C4  UNL d   1      -0.877  -0.998   3.606  0.00  0.00    -0.005 A 
ATOM      6  C5  UNL d   1       0.280  -1.010   2.821  0.00  0.00    -0.074 A 
ATOM      7  C6  UNL d   1       1.608  -1.383   3.409  0.00  0.00     0.077 C 
ATOM      8  C7  UNL d   1       0.185  -0.681   1.462  0.00  0.00    -0.001 A 
ENDROOT
TORSDOF 0
ENDMDL
