MODEL 1
REMARK minimizedAffinity -0.965117455
REMARK minimizedRMSD -1
REMARK  0 active torsions:
REMARK  status: ('A' for Active; 'I' for Inactive)
ROOT
ATOM      1  C   UNL d   1       1.447  -1.097   0.176  0.00  0.00     0.077 C 
ATOM      2  C1  UNL d   1       0.012  -0.665   0.132  0.00  0.00    -0.074 A 
ATOM      3  C2  UNL d   1      -0.686  -0.611  -1.078  0.00  0.00    -0.005 A 
ATOM      4  C3  UNL d   1      -2.024  -0.216  -1.102  0.00  0.00     0.006 A 
ATOM      5  C4  UNL d   1      -2.676   0.129   0.082  0.00  0.00    -0.005 A 
ATOM      6  C5  UNL d   1      -1.994   0.080   1.303  0.00  0.00    -0.074 A 
ATOM      7  C6  UNL d   1      -2.683   0.438   2.586  0.00  0.00     0.077 C 
ATOM      8  C7  UNL d   1      -0.652  -0.324   1.319  0.00  0.00    -0.001 A 
ENDROOT
TORSDOF 0
ENDMDL
