MODEL 1
REMARK minimizedAffinity -0.683681786
REMARK minimizedRMSD -1
REMARK  0 active torsions:
REMARK  status: ('A' for Active; 'I' for Inactive)
ROOT
ATOM      1  C   UNL d   1      -2.177   0.265   1.439  0.00  0.00     0.077 C 
ATOM      2  C1  UNL d   1      -1.621  -0.590   2.539  0.00  0.00    -0.074 A 
ATOM      3  C2  UNL d   1      -2.462  -1.368   3.340  0.00  0.00    -0.005 A 
ATOM      4  C3  UNL d   1      -1.929  -2.166   4.353  0.00  0.00     0.006 A 
ATOM      5  C4  UNL d   1      -0.551  -2.193   4.574  0.00  0.00    -0.005 A 
ATOM      6  C5  UNL d   1       0.306  -1.422   3.782  0.00  0.00    -0.074 A 
ATOM      7  C6  UNL d   1       1.789  -1.446   4.000  0.00  0.00     0.077 C 
ATOM      8  C7  UNL d   1      -0.237  -0.628   2.762  0.00  0.00    -0.001 A 
ENDROOT
TORSDOF 0
ENDMDL
