MODEL 1
REMARK minimizedAffinity 1.83561397
REMARK minimizedRMSD -1
REMARK  0 active torsions:
REMARK  status: ('A' for Active; 'I' for Inactive)
ROOT
ATOM      1  C   UNL d   1      -4.957   0.776  -1.139  0.00  0.00     0.077 C 
ATOM      2  C1  UNL d   1      -3.689   0.443  -0.410  0.00  0.00    -0.074 A 
ATOM      3  C2  UNL d   1      -3.453   0.928   0.880  0.00  0.00    -0.005 A 
ATOM      4  C3  UNL d   1      -2.273   0.602   1.549  0.00  0.00     0.006 A 
ATOM      5  C4  UNL d   1      -1.319  -0.210   0.935  0.00  0.00    -0.005 A 
ATOM      6  C5  UNL d   1      -1.538  -0.705  -0.354  0.00  0.00    -0.074 A 
ATOM      7  C6  UNL d   1      -0.527  -1.588  -1.024  0.00  0.00     0.077 C 
ATOM      8  C7  UNL d   1      -2.729  -0.379  -1.017  0.00  0.00    -0.001 A 
ENDROOT
TORSDOF 0
ENDMDL
