MODEL 1
REMARK minimizedAffinity 7.63772821
REMARK minimizedRMSD -1
REMARK  0 active torsions:
REMARK  status: ('A' for Active; 'I' for Inactive)
ROOT
ATOM      1  C   UNL d   1       1.893  -1.759   4.961  0.00  0.00     0.077 C 
ATOM      2  C1  UNL d   1       1.248  -1.214   3.721  0.00  0.00    -0.074 A 
ATOM      3  C2  UNL d   1       2.016  -0.855   2.609  0.00  0.00    -0.005 A 
ATOM      4  C3  UNL d   1       1.401  -0.358   1.460  0.00  0.00     0.006 A 
ATOM      5  C4  UNL d   1       0.014  -0.215   1.412  0.00  0.00    -0.005 A 
ATOM      6  C5  UNL d   1      -0.771  -0.570   2.514  0.00  0.00    -0.074 A 
ATOM      7  C6  UNL d   1      -2.264  -0.431   2.475  0.00  0.00     0.077 C 
ATOM      8  C7  UNL d   1      -0.146  -1.074   3.662  0.00  0.00    -0.001 A 
ENDROOT
TORSDOF 0
ENDMDL
