MODEL 1
REMARK minimizedAffinity 0.621827364
REMARK minimizedRMSD -1
REMARK  0 active torsions:
REMARK  status: ('A' for Active; 'I' for Inactive)
ROOT
ATOM      1  C   UNL d   1      -2.454   0.480   1.846  0.00  0.00     0.077 C 
ATOM      2  C1  UNL d   1      -1.890  -0.477   2.853  0.00  0.00    -0.074 A 
ATOM      3  C2  UNL d   1      -2.727  -1.327   3.585  0.00  0.00    -0.005 A 
ATOM      4  C3  UNL d   1      -2.187  -2.219   4.511  0.00  0.00     0.006 A 
ATOM      5  C4  UNL d   1      -0.807  -2.270   4.715  0.00  0.00    -0.005 A 
ATOM      6  C5  UNL d   1       0.045  -1.430   3.992  0.00  0.00    -0.074 A 
ATOM      7  C6  UNL d   1       1.530  -1.480   4.192  0.00  0.00     0.077 C 
ATOM      8  C7  UNL d   1      -0.505  -0.541   3.058  0.00  0.00    -0.001 A 
ENDROOT
TORSDOF 0
ENDMDL
