MODEL 1
REMARK minimizedAffinity 1.57371926
REMARK minimizedRMSD -1
REMARK  0 active torsions:
REMARK  status: ('A' for Active; 'I' for Inactive)
ROOT
ATOM      1  C   UNL d   1       0.447  -0.727  -0.554  0.00  0.00     0.077 C 
ATOM      2  C1  UNL d   1      -0.327  -0.641   0.728  0.00  0.00    -0.074 A 
ATOM      3  C2  UNL d   1      -1.660  -0.220   0.736  0.00  0.00    -0.005 A 
ATOM      4  C3  UNL d   1      -2.370  -0.154   1.935  0.00  0.00     0.006 A 
ATOM      5  C4  UNL d   1      -1.755  -0.508   3.136  0.00  0.00    -0.005 A 
ATOM      6  C5  UNL d   1      -0.422  -0.933   3.147  0.00  0.00    -0.074 A 
ATOM      7  C6  UNL d   1       0.251  -1.328   4.428  0.00  0.00     0.077 C 
ATOM      8  C7  UNL d   1       0.282  -1.004   1.938  0.00  0.00    -0.001 A 
ENDROOT
TORSDOF 0
ENDMDL
