MODEL 1
REMARK minimizedAffinity -0.574529886
REMARK minimizedRMSD -1
REMARK  0 active torsions:
REMARK  status: ('A' for Active; 'I' for Inactive)
ROOT
ATOM      1  C   UNL d   1       0.662  -1.410   4.959  0.00  0.00     0.077 C 
ATOM      2  C1  UNL d   1       0.036  -1.060   3.642  0.00  0.00    -0.074 A 
ATOM      3  C2  UNL d   1      -1.302  -0.661   3.564  0.00  0.00    -0.005 A 
ATOM      4  C3  UNL d   1      -1.867  -0.330   2.333  0.00  0.00     0.006 A 
ATOM      5  C4  UNL d   1      -1.101  -0.394   1.168  0.00  0.00    -0.005 A 
ATOM      6  C5  UNL d   1       0.239  -0.790   1.226  0.00  0.00    -0.074 A 
ATOM      7  C6  UNL d   1       1.079  -0.855  -0.015  0.00  0.00     0.077 C 
ATOM      8  C7  UNL d   1       0.802  -1.115   2.468  0.00  0.00    -0.001 A 
ENDROOT
TORSDOF 0
ENDMDL
