MODEL 1
REMARK minimizedAffinity 6.56734657
REMARK minimizedRMSD -1
REMARK  0 active torsions:
REMARK  status: ('A' for Active; 'I' for Inactive)
ROOT
ATOM      1  C   UNL d   1      -0.232  -0.429  -0.646  0.00  0.00     0.077 C 
ATOM      2  C1  UNL d   1      -0.584  -0.432   0.813  0.00  0.00    -0.074 A 
ATOM      3  C2  UNL d   1      -1.852  -0.031   1.247  0.00  0.00    -0.005 A 
ATOM      4  C3  UNL d   1      -2.167  -0.047   2.605  0.00  0.00     0.006 A 
ATOM      5  C4  UNL d   1      -1.220  -0.465   3.542  0.00  0.00    -0.005 A 
ATOM      6  C5  UNL d   1       0.052  -0.870   3.126  0.00  0.00    -0.074 A 
ATOM      7  C6  UNL d   1       1.078  -1.331   4.118  0.00  0.00     0.077 C 
ATOM      8  C7  UNL d   1       0.359  -0.857   1.759  0.00  0.00    -0.001 A 
ENDROOT
TORSDOF 0
ENDMDL
