MODEL 1
REMARK minimizedAffinity -0.976186514
REMARK minimizedRMSD -1
REMARK  0 active torsions:
REMARK  status: ('A' for Active; 'I' for Inactive)
ROOT
ATOM      1  C   UNL d   1       2.111  -0.817   0.138  0.00  0.00     0.077 C 
ATOM      2  C1  UNL d   1       0.640  -0.574   0.303  0.00  0.00    -0.074 A 
ATOM      3  C2  UNL d   1      -0.290  -1.200  -0.534  0.00  0.00    -0.005 A 
ATOM      4  C3  UNL d   1      -1.655  -0.972  -0.363  0.00  0.00     0.006 A 
ATOM      5  C4  UNL d   1      -2.104  -0.118   0.645  0.00  0.00    -0.005 A 
ATOM      6  C5  UNL d   1      -1.189   0.516   1.492  0.00  0.00    -0.074 A 
ATOM      7  C6  UNL d   1      -1.655   1.430   2.586  0.00  0.00     0.077 C 
ATOM      8  C7  UNL d   1       0.181   0.277   1.318  0.00  0.00    -0.001 A 
ENDROOT
TORSDOF 0
ENDMDL
