MODEL 1
REMARK minimizedAffinity 0.521103799
REMARK minimizedRMSD -1
REMARK  1 active torsions:
REMARK  status: ('A' for Active; 'I' for Inactive)
REMARK    1  A    between atoms: C1_2  and  C2_3 
ROOT
ATOM      1  C2  UNL d   1      -0.366   0.199   0.318  0.00  0.00    -0.076 A 
ATOM      2  C3  UNL d   1      -0.120  -1.066   0.881  0.00  0.00     0.004 A 
ATOM      3  C4  UNL d   1       0.963  -1.838   0.464  0.00  0.00    -0.003 A 
ATOM      4  C5  UNL d   1       1.817  -1.359  -0.523  0.00  0.00     0.000 A 
ATOM      5  C6  UNL d   1       1.598  -0.099  -1.080  0.00  0.00     0.000 A 
ATOM      6  C7  UNL d   1       0.521   0.699  -0.659  0.00  0.00    -0.073 A 
ATOM      7  C8  UNL d   1       0.328   2.047  -1.298  0.00  0.00     0.078 C 
ENDROOT
BRANCH   1   8
ATOM      8  C1  UNL d   1      -1.571   0.979   0.791  0.00  0.00     0.053 C 
ATOM      9  C   UNL d   1      -2.328   0.267   1.901  0.00  0.00     0.018 C 
ENDBRANCH   1   8
TORSDOF 1
ENDMDL
