MODEL 1
REMARK minimizedAffinity -2.13400459
REMARK minimizedRMSD -1
REMARK  1 active torsions:
REMARK  status: ('A' for Active; 'I' for Inactive)
REMARK    1  A    between atoms: C1_2  and  C2_3 
ROOT
ATOM      1  C2  UNL d   1      -0.126  -0.293  -0.133  0.00  0.00    -0.076 A 
ATOM      2  C3  UNL d   1       0.565  -1.120  -1.037  0.00  0.00     0.004 A 
ATOM      3  C4  UNL d   1       0.357  -2.498  -1.052  0.00  0.00    -0.003 A 
ATOM      4  C5  UNL d   1      -0.546  -3.072  -0.164  0.00  0.00     0.000 A 
ATOM      5  C6  UNL d   1      -1.253  -2.266   0.728  0.00  0.00     0.000 A 
ATOM      6  C7  UNL d   1      -1.067  -0.873   0.745  0.00  0.00    -0.073 A 
ATOM      7  C8  UNL d   1      -1.851  -0.052   1.731  0.00  0.00     0.078 C 
ENDROOT
BRANCH   1   8
ATOM      8  C1  UNL d   1       0.161   1.191  -0.144  0.00  0.00     0.053 C 
ATOM      9  C   UNL d   1      -0.236   1.851  -1.456  0.00  0.00     0.018 C 
ENDBRANCH   1   8
TORSDOF 1
ENDMDL
