MODEL 1
REMARK minimizedAffinity -2.88887596
REMARK minimizedRMSD -1
REMARK  1 active torsions:
REMARK  status: ('A' for Active; 'I' for Inactive)
REMARK    1  A    between atoms: C1_2  and  C2_3 
ROOT
ATOM      1  C2  UNL d   1       0.576   0.692  -0.623  0.00  0.00    -0.076 A 
ATOM      2  C3  UNL d   1       1.038  -0.583  -0.254  0.00  0.00     0.004 A 
ATOM      3  C4  UNL d   1       2.121  -1.170  -0.905  0.00  0.00    -0.003 A 
ATOM      4  C5  UNL d   1       2.761  -0.491  -1.936  0.00  0.00     0.000 A 
ATOM      5  C6  UNL d   1       2.328   0.782  -2.304  0.00  0.00     0.000 A 
ATOM      6  C7  UNL d   1       1.247   1.395  -1.646  0.00  0.00    -0.073 A 
ATOM      7  C8  UNL d   1       0.818   2.768  -2.088  0.00  0.00     0.078 C 
ENDROOT
BRANCH   1   8
ATOM      8  C1  UNL d   1      -0.621   1.267   0.101  0.00  0.00     0.053 C 
ATOM      9  C   UNL d   1      -1.241   0.279   1.077  0.00  0.00     0.018 C 
ENDBRANCH   1   8
TORSDOF 1
ENDMDL
