MODEL 1
REMARK minimizedAffinity -1.69082212
REMARK minimizedRMSD -1
REMARK  1 active torsions:
REMARK  status: ('A' for Active; 'I' for Inactive)
REMARK    1  A    between atoms: C1_2  and  C2_3 
ROOT
ATOM      1  C2  UNL d   1       1.391  -0.042  -1.000  0.00  0.00    -0.076 A 
ATOM      2  C3  UNL d   1       0.873  -0.901  -0.015  0.00  0.00     0.004 A 
ATOM      3  C4  UNL d   1      -0.304  -0.586   0.663  0.00  0.00    -0.003 A 
ATOM      4  C5  UNL d   1      -0.981   0.592   0.367  0.00  0.00     0.000 A 
ATOM      5  C6  UNL d   1      -0.490   1.446  -0.620  0.00  0.00     0.000 A 
ATOM      6  C7  UNL d   1       0.686   1.136  -1.325  0.00  0.00    -0.073 A 
ATOM      7  C8  UNL d   1       1.173   2.096  -2.375  0.00  0.00     0.078 C 
ENDROOT
BRANCH   1   8
ATOM      8  C1  UNL d   1       2.686  -0.423  -1.683  0.00  0.00     0.053 C 
ATOM      9  C   UNL d   1       2.461  -1.253  -2.937  0.00  0.00     0.018 C 
ENDBRANCH   1   8
TORSDOF 1
ENDMDL
