MODEL 1
REMARK minimizedAffinity -1.80587208
REMARK minimizedRMSD -1
REMARK  1 active torsions:
REMARK  status: ('A' for Active; 'I' for Inactive)
REMARK    1  A    between atoms: C1_2  and  C2_3 
ROOT
ATOM      1  C2  UNL d   1      -0.281  -0.021   0.739  0.00  0.00    -0.076 A 
ATOM      2  C3  UNL d   1      -0.436   0.633  -0.496  0.00  0.00     0.004 A 
ATOM      3  C4  UNL d   1      -1.590   1.360  -0.783  0.00  0.00    -0.003 A 
ATOM      4  C5  UNL d   1      -2.608   1.446   0.161  0.00  0.00     0.000 A 
ATOM      5  C6  UNL d   1      -2.463   0.819   1.398  0.00  0.00     0.000 A 
ATOM      6  C7  UNL d   1      -1.299   0.095   1.709  0.00  0.00    -0.073 A 
ATOM      7  C8  UNL d   1      -1.200  -0.566   3.057  0.00  0.00     0.078 C 
ENDROOT
BRANCH   1   8
ATOM      8  C1  UNL d   1       0.980  -0.818   0.984  0.00  0.00     0.053 C 
ATOM      9  C   UNL d   1       1.435  -1.582  -0.250  0.00  0.00     0.018 C 
ENDBRANCH   1   8
TORSDOF 1
ENDMDL
