MODEL 1
REMARK minimizedAffinity -4.9314146
REMARK minimizedRMSD -1
REMARK  1 active torsions:
REMARK  status: ('A' for Active; 'I' for Inactive)
REMARK    1  A    between atoms: C1_2  and  C2_3 
ROOT
ATOM      1  C2  UNL d   1       0.993   0.021  -0.890  0.00  0.00    -0.076 A 
ATOM      2  C3  UNL d   1       2.252  -0.408  -1.346  0.00  0.00     0.004 A 
ATOM      3  C4  UNL d   1       2.834   0.153  -2.481  0.00  0.00    -0.003 A 
ATOM      4  C5  UNL d   1       2.166   1.153  -3.179  0.00  0.00     0.000 A 
ATOM      5  C6  UNL d   1       0.925   1.604  -2.732  0.00  0.00     0.000 A 
ATOM      6  C7  UNL d   1       0.332   1.060  -1.579  0.00  0.00    -0.073 A 
ATOM      7  C8  UNL d   1      -1.011   1.580  -1.145  0.00  0.00     0.078 C 
ENDROOT
BRANCH   1   8
ATOM      8  C1  UNL d   1       0.400  -0.643   0.332  0.00  0.00     0.053 C 
ATOM      9  C   UNL d   1      -0.560  -1.768  -0.024  0.00  0.00     0.018 C 
ENDBRANCH   1   8
TORSDOF 1
ENDMDL
