MODEL 1
REMARK minimizedAffinity -6.27730799
REMARK minimizedRMSD -1
REMARK  1 active torsions:
REMARK  status: ('A' for Active; 'I' for Inactive)
REMARK    1  A    between atoms: C1_2  and  C2_3 
ROOT
ATOM      1  C2  UNL d   1       1.260  -0.734  -0.525  0.00  0.00    -0.076 A 
ATOM      2  C3  UNL d   1       2.309  -0.771  -1.461  0.00  0.00     0.004 A 
ATOM      3  C4  UNL d   1       2.360   0.136  -2.518  0.00  0.00    -0.003 A 
ATOM      4  C5  UNL d   1       1.363   1.096  -2.656  0.00  0.00     0.000 A 
ATOM      5  C6  UNL d   1       0.325   1.158  -1.727  0.00  0.00     0.000 A 
ATOM      6  C7  UNL d   1       0.268   0.261  -0.647  0.00  0.00    -0.073 A 
ATOM      7  C8  UNL d   1      -0.878   0.370   0.322  0.00  0.00     0.078 C 
ENDROOT
BRANCH   1   8
ATOM      8  C1  UNL d   1       1.243  -1.761   0.584  0.00  0.00     0.053 C 
ATOM      9  C   UNL d   1       0.496  -3.027   0.195  0.00  0.00     0.018 C 
ENDBRANCH   1   8
TORSDOF 1
ENDMDL
