MODEL 1
REMARK minimizedAffinity -1.94366765
REMARK minimizedRMSD -1
REMARK  1 active torsions:
REMARK  status: ('A' for Active; 'I' for Inactive)
REMARK    1  A    between atoms: C1_2  and  C2_3 
ROOT
ATOM      1  C2  UNL d   1       0.364   0.115  -0.972  0.00  0.00    -0.076 A 
ATOM      2  C3  UNL d   1       0.693  -1.133  -0.415  0.00  0.00     0.004 A 
ATOM      3  C4  UNL d   1       1.760  -1.881  -0.909  0.00  0.00    -0.003 A 
ATOM      4  C5  UNL d   1       2.517  -1.393  -1.968  0.00  0.00     0.000 A 
ATOM      5  C6  UNL d   1       2.216  -0.149  -2.522  0.00  0.00     0.000 A 
ATOM      6  C7  UNL d   1       1.154   0.625  -2.025  0.00  0.00    -0.073 A 
ATOM      7  C8  UNL d   1       0.870   1.957  -2.664  0.00  0.00     0.078 C 
ENDROOT
BRANCH   1   8
ATOM      8  C1  UNL d   1      -0.821   0.868  -0.413  0.00  0.00     0.053 C 
ATOM      9  C   UNL d   1      -1.983  -0.049  -0.064  0.00  0.00     0.018 C 
ENDBRANCH   1   8
TORSDOF 1
ENDMDL
