MODEL 1
REMARK minimizedAffinity -5.11495686
REMARK minimizedRMSD -1
REMARK  1 active torsions:
REMARK  status: ('A' for Active; 'I' for Inactive)
REMARK    1  A    between atoms: C1_2  and  C2_3 
ROOT
ATOM      1  C2  UNL d   1       0.915   0.233  -0.722  0.00  0.00    -0.076 A 
ATOM      2  C3  UNL d   1       0.710   1.470  -1.358  0.00  0.00     0.004 A 
ATOM      3  C4  UNL d   1       1.566   1.909  -2.367  0.00  0.00    -0.003 A 
ATOM      4  C5  UNL d   1       2.642   1.117  -2.756  0.00  0.00     0.000 A 
ATOM      5  C6  UNL d   1       2.850  -0.120  -2.148  0.00  0.00     0.000 A 
ATOM      6  C7  UNL d   1       1.986  -0.585  -1.141  0.00  0.00    -0.073 A 
ATOM      7  C8  UNL d   1       2.262  -1.925  -0.515  0.00  0.00     0.078 C 
ENDROOT
BRANCH   1   8
ATOM      8  C1  UNL d   1      -0.031  -0.178   0.384  0.00  0.00     0.053 C 
ATOM      9  C   UNL d   1      -1.483   0.125   0.051  0.00  0.00     0.018 C 
ENDBRANCH   1   8
TORSDOF 1
ENDMDL
