MODEL 1
REMARK minimizedAffinity -4.14843941
REMARK minimizedRMSD -1
REMARK  1 active torsions:
REMARK  status: ('A' for Active; 'I' for Inactive)
REMARK    1  A    between atoms: C1_2  and  C2_3 
ROOT
ATOM      1  C2  UNL d   1      -0.211  -0.128   0.023  0.00  0.00    -0.076 A 
ATOM      2  C3  UNL d   1       0.654   0.932  -0.299  0.00  0.00     0.004 A 
ATOM      3  C4  UNL d   1       1.972   0.693  -0.681  0.00  0.00    -0.003 A 
ATOM      4  C5  UNL d   1       2.448  -0.612  -0.748  0.00  0.00     0.000 A 
ATOM      5  C6  UNL d   1       1.599  -1.678  -0.450  0.00  0.00     0.000 A 
ATOM      6  C7  UNL d   1       0.262  -1.454  -0.079  0.00  0.00    -0.073 A 
ATOM      7  C8  UNL d   1      -0.607  -2.640   0.237  0.00  0.00     0.078 C 
ENDROOT
BRANCH   1   8
ATOM      8  C1  UNL d   1      -1.623   0.194   0.457  0.00  0.00     0.053 C 
ATOM      9  C   UNL d   1      -1.683   0.771   1.862  0.00  0.00     0.018 C 
ENDBRANCH   1   8
TORSDOF 1
ENDMDL
