MODEL 1
REMARK minimizedAffinity 5.10907602
REMARK minimizedRMSD -1
REMARK  0 active torsions:
REMARK  status: ('A' for Active; 'I' for Inactive)
ROOT
ATOM      1  C   UNL d   1      -3.890   0.845   1.660  0.00  0.00     0.124 A 
ATOM      2  C1  UNL d   1      -2.648   1.333   2.043  0.00  0.00     0.062 A 
ATOM      3  C2  UNL d   1      -1.532   1.110   1.243  0.00  0.00     0.162 A 
ATOM      4  C3  UNL d   1      -1.651   0.398   0.050  0.00  0.00    -0.034 A 
ATOM      5  C4  UNL d   1      -2.903  -0.090  -0.329  0.00  0.00     0.162 A 
ATOM      6  C5  UNL d   1      -4.016   0.135   0.475  0.00  0.00     0.062 A 
ATOM      7  F   UNL d   1      -5.215  -0.337   0.103  0.00  0.00    -0.097 F 
ATOM      8  F1  UNL d   1      -3.054  -0.779  -1.469  0.00  0.00    -0.096 F 
ATOM      9  I   UNL d   1       0.016   0.064  -1.150  0.00  0.00    -0.060 I 
ATOM     10  F2  UNL d   1      -0.344   1.593   1.638  0.00  0.00    -0.096 F 
ATOM     11  F3  UNL d   1      -2.523   2.019   3.189  0.00  0.00    -0.097 F 
ATOM     12  F4  UNL d   1      -4.963   1.060   2.433  0.00  0.00    -0.092 F 
ENDROOT
TORSDOF 0
ENDMDL
