MODEL 1
REMARK minimizedAffinity 5.97035503
REMARK minimizedRMSD -1
REMARK  0 active torsions:
REMARK  status: ('A' for Active; 'I' for Inactive)
ROOT
ATOM      1  C   UNL d   1       2.216   2.294   3.694  0.00  0.00     0.124 A 
ATOM      2  C1  UNL d   1       3.466   2.242   3.092  0.00  0.00     0.062 A 
ATOM      3  C2  UNL d   1       4.461   3.140   3.465  0.00  0.00     0.162 A 
ATOM      4  C3  UNL d   1       4.212   4.098   4.448  0.00  0.00    -0.034 A 
ATOM      5  C4  UNL d   1       2.953   4.145   5.048  0.00  0.00     0.162 A 
ATOM      6  C5  UNL d   1       1.961   3.246   4.672  0.00  0.00     0.062 A 
ATOM      7  F   UNL d   1       0.755   3.298   5.255  0.00  0.00    -0.097 F 
ATOM      8  F1  UNL d   1       2.680   5.054   5.997  0.00  0.00    -0.096 F 
ATOM      9  I   UNL d   1       5.698   5.443   5.009  0.00  0.00    -0.060 I 
ATOM     10  F2  UNL d   1       5.659   3.066   2.866  0.00  0.00    -0.096 F 
ATOM     11  F3  UNL d   1       3.714   1.324   2.146  0.00  0.00    -0.097 F 
ATOM     12  F4  UNL d   1       1.260   1.430   3.332  0.00  0.00    -0.092 F 
ENDROOT
TORSDOF 0
ENDMDL
