MODEL 1
REMARK minimizedAffinity 9.51631546
REMARK minimizedRMSD -1
REMARK  0 active torsions:
REMARK  status: ('A' for Active; 'I' for Inactive)
ROOT
ATOM      1  C   UNL d   1       2.563  -0.547   0.262  0.00  0.00     0.124 A 
ATOM      2  C1  UNL d   1       2.621  -1.928   0.391  0.00  0.00     0.062 A 
ATOM      3  C2  UNL d   1       1.645  -2.728  -0.198  0.00  0.00     0.162 A 
ATOM      4  C3  UNL d   1       0.603  -2.148  -0.922  0.00  0.00    -0.034 A 
ATOM      5  C4  UNL d   1       0.551  -0.759  -1.046  0.00  0.00     0.162 A 
ATOM      6  C5  UNL d   1       1.528   0.036  -0.456  0.00  0.00     0.062 A 
ATOM      7  F   UNL d   1       1.470   1.370  -0.582  0.00  0.00    -0.097 F 
ATOM      8  F1  UNL d   1      -0.437  -0.169  -1.735  0.00  0.00    -0.096 F 
ATOM      9  I   UNL d   1      -0.858  -3.341  -1.803  0.00  0.00    -0.060 I 
ATOM     10  F2  UNL d   1       1.726  -4.059  -0.057  0.00  0.00    -0.096 F 
ATOM     11  F3  UNL d   1       3.619  -2.494   1.085  0.00  0.00    -0.097 F 
ATOM     12  F4  UNL d   1       3.502   0.220   0.830  0.00  0.00    -0.092 F 
ENDROOT
TORSDOF 0
ENDMDL
