MODEL 1
REMARK minimizedAffinity 3.98518229
REMARK minimizedRMSD -1
REMARK  0 active torsions:
REMARK  status: ('A' for Active; 'I' for Inactive)
ROOT
ATOM      1  C   UNL d   1       2.074  -0.749  -0.440  0.00  0.00     0.124 A 
ATOM      2  C1  UNL d   1       0.762  -0.531  -0.836  0.00  0.00     0.062 A 
ATOM      3  C2  UNL d   1       0.142   0.686  -0.567  0.00  0.00     0.162 A 
ATOM      4  C3  UNL d   1       0.835   1.696   0.101  0.00  0.00    -0.034 A 
ATOM      5  C4  UNL d   1       2.154   1.469   0.497  0.00  0.00     0.162 A 
ATOM      6  C5  UNL d   1       2.769   0.251   0.226  0.00  0.00     0.062 A 
ATOM      7  F   UNL d   1       4.037   0.043   0.609  0.00  0.00    -0.097 F 
ATOM      8  F1  UNL d   1       2.849   2.419   1.141  0.00  0.00    -0.096 F 
ATOM      9  I   UNL d   1      -0.089   3.517   0.505  0.00  0.00    -0.060 I 
ATOM     10  F2  UNL d   1      -1.127   0.868  -0.961  0.00  0.00    -0.096 F 
ATOM     11  F3  UNL d   1       0.088  -1.496  -1.478  0.00  0.00    -0.097 F 
ATOM     12  F4  UNL d   1       2.668  -1.921  -0.699  0.00  0.00    -0.092 F 
ENDROOT
TORSDOF 0
ENDMDL
