MODEL 1
REMARK minimizedAffinity 8.74395752
REMARK minimizedRMSD -1
REMARK  0 active torsions:
REMARK  status: ('A' for Active; 'I' for Inactive)
ROOT
ATOM      1  C   UNL d   1       0.690  -2.214  -1.222  0.00  0.00     0.124 A 
ATOM      2  C1  UNL d   1       1.879  -2.620  -1.812  0.00  0.00     0.062 A 
ATOM      3  C2  UNL d   1       2.970  -1.756  -1.856  0.00  0.00     0.162 A 
ATOM      4  C3  UNL d   1       2.877  -0.477  -1.308  0.00  0.00    -0.034 A 
ATOM      5  C4  UNL d   1       1.678  -0.075  -0.717  0.00  0.00     0.162 A 
ATOM      6  C5  UNL d   1       0.591  -0.942  -0.675  0.00  0.00     0.062 A 
ATOM      7  F   UNL d   1      -0.557  -0.548  -0.105  0.00  0.00    -0.097 F 
ATOM      8  F1  UNL d   1       1.554   1.148  -0.180  0.00  0.00    -0.096 F 
ATOM      9  I   UNL d   1       4.505   0.818  -1.372  0.00  0.00    -0.060 I 
ATOM     10  F2  UNL d   1       4.106  -2.175  -2.432  0.00  0.00    -0.096 F 
ATOM     11  F3  UNL d   1       1.978  -3.848  -2.342  0.00  0.00    -0.097 F 
ATOM     12  F4  UNL d   1      -0.358  -3.046  -1.182  0.00  0.00    -0.092 F 
ENDROOT
TORSDOF 0
ENDMDL
