MODEL 1
REMARK minimizedAffinity 5.76452112
REMARK minimizedRMSD -1
REMARK  0 active torsions:
REMARK  status: ('A' for Active; 'I' for Inactive)
ROOT
ATOM      1  C   UNL d   1       0.397   4.778   2.547  0.00  0.00     0.124 A 
ATOM      2  C1  UNL d   1      -0.724   4.041   2.190  0.00  0.00     0.062 A 
ATOM      3  C2  UNL d   1      -0.581   2.777   1.626  0.00  0.00     0.162 A 
ATOM      4  C3  UNL d   1       0.689   2.240   1.417  0.00  0.00    -0.034 A 
ATOM      5  C4  UNL d   1       1.812   2.986   1.777  0.00  0.00     0.162 A 
ATOM      6  C5  UNL d   1       1.663   4.250   2.340  0.00  0.00     0.062 A 
ATOM      7  F   UNL d   1       2.748   4.960   2.684  0.00  0.00    -0.097 F 
ATOM      8  F1  UNL d   1       3.048   2.500   1.590  0.00  0.00    -0.096 F 
ATOM      9  I   UNL d   1       0.907   0.349   0.574  0.00  0.00    -0.060 I 
ATOM     10  F2  UNL d   1      -1.682   2.088   1.291  0.00  0.00    -0.096 F 
ATOM     11  F3  UNL d   1      -1.949   4.550   2.388  0.00  0.00    -0.097 F 
ATOM     12  F4  UNL d   1       0.256   5.995   3.088  0.00  0.00    -0.092 F 
ENDROOT
TORSDOF 0
ENDMDL
