MODEL 1
REMARK minimizedAffinity 4.44745016
REMARK minimizedRMSD -1
REMARK  0 active torsions:
REMARK  status: ('A' for Active; 'I' for Inactive)
ROOT
ATOM      1  C   UNL d   1       1.553  -1.402  -1.155  0.00  0.00     0.124 A 
ATOM      2  C1  UNL d   1       2.365  -0.323  -0.834  0.00  0.00     0.062 A 
ATOM      3  C2  UNL d   1       1.845   0.759  -0.129  0.00  0.00     0.162 A 
ATOM      4  C3  UNL d   1       0.506   0.768   0.260  0.00  0.00    -0.034 A 
ATOM      5  C4  UNL d   1      -0.305  -0.320  -0.068  0.00  0.00     0.162 A 
ATOM      6  C5  UNL d   1       0.219  -1.399  -0.772  0.00  0.00     0.062 A 
ATOM      7  F   UNL d   1      -0.567  -2.441  -1.081  0.00  0.00    -0.097 F 
ATOM      8  F1  UNL d   1      -1.597  -0.345   0.291  0.00  0.00    -0.096 F 
ATOM      9  I   UNL d   1      -0.275   2.384   1.313  0.00  0.00    -0.060 I 
ATOM     10  F2  UNL d   1       2.653   1.788   0.167  0.00  0.00    -0.096 F 
ATOM     11  F3  UNL d   1       3.654  -0.322  -1.204  0.00  0.00    -0.097 F 
ATOM     12  F4  UNL d   1       2.055  -2.441  -1.833  0.00  0.00    -0.092 F 
ENDROOT
TORSDOF 0
ENDMDL
