MODEL 1
REMARK minimizedAffinity 20.1497822
REMARK minimizedRMSD -1
REMARK  0 active torsions:
REMARK  status: ('A' for Active; 'I' for Inactive)
ROOT
ATOM      1  C   UNL d   1       1.117  -0.618   0.314  0.00  0.00     0.124 A 
ATOM      2  C1  UNL d   1       0.102  -0.004  -0.406  0.00  0.00     0.062 A 
ATOM      3  C2  UNL d   1      -0.467  -0.647  -1.502  0.00  0.00     0.162 A 
ATOM      4  C3  UNL d   1      -0.023  -1.913  -1.883  0.00  0.00    -0.034 A 
ATOM      5  C4  UNL d   1       0.999  -2.524  -1.155  0.00  0.00     0.162 A 
ATOM      6  C5  UNL d   1       1.564  -1.877  -0.061  0.00  0.00     0.062 A 
ATOM      7  F   UNL d   1       2.545  -2.472   0.634  0.00  0.00    -0.097 F 
ATOM      8  F1  UNL d   1       1.449  -3.740  -1.495  0.00  0.00    -0.096 F 
ATOM      9  I   UNL d   1      -0.872  -2.877  -3.521  0.00  0.00    -0.060 I 
ATOM     10  F2  UNL d   1      -1.447  -0.029  -2.179  0.00  0.00    -0.096 F 
ATOM     11  F3  UNL d   1      -0.332   1.213  -0.047  0.00  0.00    -0.097 F 
ATOM     12  F4  UNL d   1       1.663   0.003   1.367  0.00  0.00    -0.092 F 
ENDROOT
TORSDOF 0
ENDMDL
