MODEL 1
REMARK minimizedAffinity -4.95055676
REMARK minimizedRMSD -1
REMARK  0 active torsions:
REMARK  status: ('A' for Active; 'I' for Inactive)
ROOT
ATOM      1  C1  BNZ d   1      -1.083   0.736   1.275  0.00  0.00     0.000 A 
ATOM      2  C2  BNZ d   1      -1.265   1.331   2.495  0.00  0.00     0.000 A 
ATOM      3  C3  BNZ d   1      -0.271   1.320   3.433  0.00  0.00     0.000 A 
ATOM      4  C4  BNZ d   1       0.886   0.680   3.167  0.00  0.00     0.000 A 
ATOM      5  C5  BNZ d   1       1.080   0.067   1.945  0.00  0.00     0.000 A 
ATOM      6  C6  BNZ d   1       0.093   0.114   0.988  0.00  0.00     0.000 A 
ENDROOT
TORSDOF 0
ENDMDL
