MODEL 1
REMARK minimizedAffinity 0.425299883
REMARK minimizedRMSD -1
REMARK  0 active torsions:
REMARK  status: ('A' for Active; 'I' for Inactive)
ROOT
ATOM      1  C1  BNZ d   1      -0.100   1.838   1.706  0.00  0.00     0.000 A 
ATOM      2  C2  BNZ d   1      -0.172   1.329   0.437  0.00  0.00     0.000 A 
ATOM      3  C3  BNZ d   1       0.225   0.048   0.174  0.00  0.00     0.000 A 
ATOM      4  C4  BNZ d   1       0.730  -0.708   1.170  0.00  0.00     0.000 A 
ATOM      5  C5  BNZ d   1       0.816  -0.206   2.453  0.00  0.00     0.000 A 
ATOM      6  C6  BNZ d   1       0.380   1.071   2.723  0.00  0.00     0.000 A 
ENDROOT
TORSDOF 0
ENDMDL
