MODEL 1
REMARK minimizedAffinity -1.77564025
REMARK minimizedRMSD -1
REMARK  0 active torsions:
REMARK  status: ('A' for Active; 'I' for Inactive)
ROOT
ATOM      1  C1  BNZ d   1       1.214  -0.264   1.939  0.00  0.00     0.000 A 
ATOM      2  C2  BNZ d   1       2.036  -0.503   0.870  0.00  0.00     0.000 A 
ATOM      3  C3  BNZ d   1       1.561  -0.421  -0.409  0.00  0.00     0.000 A 
ATOM      4  C4  BNZ d   1       0.258  -0.142  -0.617  0.00  0.00     0.000 A 
ATOM      5  C5  BNZ d   1      -0.585   0.092   0.451  0.00  0.00     0.000 A 
ATOM      6  C6  BNZ d   1      -0.095   0.047   1.736  0.00  0.00     0.000 A 
ENDROOT
TORSDOF 0
ENDMDL
