MODEL 1
REMARK minimizedAffinity -0.565252483
REMARK minimizedRMSD -1
REMARK  0 active torsions:
REMARK  status: ('A' for Active; 'I' for Inactive)
ROOT
ATOM      1  C1  BNZ d   1       2.009  -0.843  -0.235  0.00  0.00     0.000 A 
ATOM      2  C2  BNZ d   1       2.162  -0.349   1.033  0.00  0.00     0.000 A 
ATOM      3  C3  BNZ d   1       1.078   0.052   1.763  0.00  0.00     0.000 A 
ATOM      4  C4  BNZ d   1      -0.151  -0.002   1.209  0.00  0.00     0.000 A 
ATOM      5  C5  BNZ d   1      -0.320  -0.488  -0.072  0.00  0.00     0.000 A 
ATOM      6  C6  BNZ d   1       0.769  -0.928  -0.789  0.00  0.00     0.000 A 
ENDROOT
TORSDOF 0
ENDMDL
