MODEL 1
REMARK minimizedAffinity -3.65310287
REMARK minimizedRMSD -1
REMARK  0 active torsions:
REMARK  status: ('A' for Active; 'I' for Inactive)
ROOT
ATOM      1  C1  BNZ d   1       2.152  -1.110   0.453  0.00  0.00     0.000 A 
ATOM      2  C2  BNZ d   1       1.730  -0.955  -0.840  0.00  0.00     0.000 A 
ATOM      3  C3  BNZ d   1       1.026   0.155  -1.218  0.00  0.00     0.000 A 
ATOM      4  C4  BNZ d   1       0.711   1.086  -0.295  0.00  0.00     0.000 A 
ATOM      5  C5  BNZ d   1       1.121   0.939   1.015  0.00  0.00     0.000 A 
ATOM      6  C6  BNZ d   1       1.863  -0.160   1.384  0.00  0.00     0.000 A 
ENDROOT
TORSDOF 0
ENDMDL
