MODEL 1
REMARK minimizedAffinity -1.93534851
REMARK minimizedRMSD -1
REMARK  0 active torsions:
REMARK  status: ('A' for Active; 'I' for Inactive)
ROOT
ATOM      1  C1  BNZ d   1       0.580   1.063  -3.867  0.00  0.00     0.000 A 
ATOM      2  C2  BNZ d   1       1.899   1.130  -4.229  0.00  0.00     0.000 A 
ATOM      3  C3  BNZ d   1       2.812   0.254  -3.711  0.00  0.00     0.000 A 
ATOM      4  C4  BNZ d   1       2.413  -0.661  -2.804  0.00  0.00     0.000 A 
ATOM      5  C5  BNZ d   1       1.088  -0.735  -2.423  0.00  0.00     0.000 A 
ATOM      6  C6  BNZ d   1       0.165   0.123  -2.975  0.00  0.00     0.000 A 
ENDROOT
TORSDOF 0
ENDMDL
