MODEL 1
REMARK minimizedAffinity -4.59495211
REMARK minimizedRMSD -1
REMARK  0 active torsions:
REMARK  status: ('A' for Active; 'I' for Inactive)
ROOT
ATOM      1  C1  BNZ d   1       0.910   1.191   1.774  0.00  0.00     0.000 A 
ATOM      2  C2  BNZ d   1       0.029   1.226   2.821  0.00  0.00     0.000 A 
ATOM      3  C3  BNZ d   1      -1.187   0.609   2.733  0.00  0.00     0.000 A 
ATOM      4  C4  BNZ d   1      -1.537  -0.007   1.586  0.00  0.00     0.000 A 
ATOM      5  C5  BNZ d   1      -0.663  -0.043   0.517  0.00  0.00     0.000 A 
ATOM      6  C6  BNZ d   1       0.576   0.546   0.623  0.00  0.00     0.000 A 
ENDROOT
TORSDOF 0
ENDMDL
