MODEL 1
REMARK minimizedAffinity -1.24678421
REMARK minimizedRMSD -1
REMARK  0 active torsions:
REMARK  status: ('A' for Active; 'I' for Inactive)
ROOT
ATOM      1  C1  BNZ d   1       0.371  -0.990   5.316  0.00  0.00     0.000 A 
ATOM      2  C2  BNZ d   1       1.407  -0.607   4.506  0.00  0.00     0.000 A 
ATOM      3  C3  BNZ d   1       1.684   0.716   4.303  0.00  0.00     0.000 A 
ATOM      4  C4  BNZ d   1       0.903   1.653   4.878  0.00  0.00     0.000 A 
ATOM      5  C5  BNZ d   1      -0.151   1.283   5.690  0.00  0.00     0.000 A 
ATOM      6  C6  BNZ d   1      -0.403  -0.050   5.923  0.00  0.00     0.000 A 
ENDROOT
TORSDOF 0
ENDMDL
