MODEL 1
REMARK minimizedAffinity -3.77239156
REMARK minimizedRMSD -1
REMARK  0 active torsions:
REMARK  status: ('A' for Active; 'I' for Inactive)
ROOT
ATOM      1  C1  BNZ d   1      -0.342   0.781  -5.358  0.00  0.00     0.000 A 
ATOM      2  C2  BNZ d   1       0.891   1.374  -5.321  0.00  0.00     0.000 A 
ATOM      3  C3  BNZ d   1       1.814   1.013  -4.380  0.00  0.00     0.000 A 
ATOM      4  C4  BNZ d   1       1.489   0.088  -3.454  0.00  0.00     0.000 A 
ATOM      5  C5  BNZ d   1       0.246  -0.513  -3.472  0.00  0.00     0.000 A 
ATOM      6  C6  BNZ d   1      -0.666  -0.174  -4.444  0.00  0.00     0.000 A 
ENDROOT
TORSDOF 0
ENDMDL
