MODEL 1
REMARK minimizedAffinity -1.43861377
REMARK minimizedRMSD -1
REMARK  1 active torsions:
REMARK  status: ('A' for Active; 'I' for Inactive)
REMARK    1  A    between atoms: C1_2  and  C2_3 
ROOT
ATOM      1  C2  UNL d   1       4.490   4.468  -3.023  0.00  0.00    -0.077 A 
ATOM      2  C3  UNL d   1       5.243   5.650  -3.045  0.00  0.00     0.002 A 
ATOM      3  C4  UNL d   1       5.996   5.986  -4.172  0.00  0.00     0.002 A 
ATOM      4  C5  UNL d   1       6.000   5.148  -5.285  0.00  0.00    -0.004 A 
ATOM      5  C6  UNL d   1       5.255   3.969  -5.272  0.00  0.00     0.002 A 
ATOM      6  C7  UNL d   1       4.503   3.631  -4.146  0.00  0.00     0.002 A 
ENDROOT
BRANCH   1   7
ATOM      7  C1  UNL d   1       3.638   4.128  -1.828  0.00  0.00     0.055 C 
ATOM      8  C   UNL d   1       2.186   4.523  -2.053  0.00  0.00     0.019 C 
ENDBRANCH   1   7
TORSDOF 1
ENDMDL
