MODEL 1
REMARK minimizedAffinity 4.24070978
REMARK minimizedRMSD -1
REMARK  1 active torsions:
REMARK  status: ('A' for Active; 'I' for Inactive)
REMARK    1  A    between atoms: C1_2  and  C2_3 
ROOT
ATOM      1  C2  UNL d   1       4.518   5.223  -4.076  0.00  0.00    -0.077 A 
ATOM      2  C3  UNL d   1       5.641   5.955  -3.664  0.00  0.00     0.002 A 
ATOM      3  C4  UNL d   1       6.000   5.998  -2.316  0.00  0.00     0.002 A 
ATOM      4  C5  UNL d   1       5.244   5.309  -1.369  0.00  0.00    -0.004 A 
ATOM      5  C6  UNL d   1       4.124   4.581  -1.769  0.00  0.00     0.002 A 
ATOM      6  C7  UNL d   1       3.764   4.537  -3.116  0.00  0.00     0.002 A 
ENDROOT
BRANCH   1   7
ATOM      7  C1  UNL d   1       4.158   5.135  -5.536  0.00  0.00     0.055 C 
ATOM      8  C   UNL d   1       2.950   6.000  -5.862  0.00  0.00     0.019 C 
ENDBRANCH   1   7
TORSDOF 1
ENDMDL
