MODEL 1
REMARK minimizedAffinity 1.05337107
REMARK minimizedRMSD -1
REMARK  1 active torsions:
REMARK  status: ('A' for Active; 'I' for Inactive)
REMARK    1  A    between atoms: C1_2  and  C2_3 
ROOT
ATOM      1  C2  UNL d   1       3.422   4.863  -2.916  0.00  0.00    -0.077 A 
ATOM      2  C3  UNL d   1       4.469   4.735  -1.992  0.00  0.00     0.002 A 
ATOM      3  C4  UNL d   1       5.748   5.201  -2.305  0.00  0.00     0.002 A 
ATOM      4  C5  UNL d   1       5.990   5.801  -3.539  0.00  0.00    -0.004 A 
ATOM      5  C6  UNL d   1       4.956   5.931  -4.465  0.00  0.00     0.002 A 
ATOM      6  C7  UNL d   1       3.678   5.465  -4.155  0.00  0.00     0.002 A 
ENDROOT
BRANCH   1   7
ATOM      7  C1  UNL d   1       2.031   4.405  -2.562  0.00  0.00     0.055 C 
ATOM      8  C   UNL d   1       1.901   4.133  -1.070  0.00  0.00     0.019 C 
ENDBRANCH   1   7
TORSDOF 1
ENDMDL
