MODEL 1
REMARK minimizedAffinity -0.268223643
REMARK minimizedRMSD -1
REMARK  1 active torsions:
REMARK  status: ('A' for Active; 'I' for Inactive)
REMARK    1  A    between atoms: C1_2  and  C2_3 
ROOT
ATOM      1  C2  UNL d   1       3.610   5.261  -2.267  0.00  0.00    -0.077 A 
ATOM      2  C3  UNL d   1       4.734   5.982  -1.842  0.00  0.00     0.002 A 
ATOM      3  C4  UNL d   1       5.923   5.933  -2.574  0.00  0.00     0.002 A 
ATOM      4  C5  UNL d   1       5.997   5.168  -3.736  0.00  0.00    -0.004 A 
ATOM      5  C6  UNL d   1       4.884   4.446  -4.166  0.00  0.00     0.002 A 
ATOM      6  C7  UNL d   1       3.696   4.492  -3.435  0.00  0.00     0.002 A 
ENDROOT
BRANCH   1   7
ATOM      7  C1  UNL d   1       2.313   5.351  -1.507  0.00  0.00     0.055 C 
ATOM      8  C   UNL d   1       2.187   4.226  -0.491  0.00  0.00     0.019 C 
ENDBRANCH   1   7
TORSDOF 1
ENDMDL
