MODEL 1
REMARK minimizedAffinity -0.914697945
REMARK minimizedRMSD -1
REMARK  1 active torsions:
REMARK  status: ('A' for Active; 'I' for Inactive)
REMARK    1  A    between atoms: C1_2  and  C2_3 
ROOT
ATOM      1  C2  UNL d   1       4.647   5.105  -3.833  0.00  0.00    -0.077 A 
ATOM      2  C3  UNL d   1       3.606   4.850  -2.930  0.00  0.00     0.002 A 
ATOM      3  C4  UNL d   1       3.763   5.137  -1.572  0.00  0.00     0.002 A 
ATOM      4  C5  UNL d   1       4.957   5.683  -1.107  0.00  0.00    -0.004 A 
ATOM      5  C6  UNL d   1       6.000   5.938  -1.997  0.00  0.00     0.002 A 
ATOM      6  C7  UNL d   1       5.845   5.651  -3.354  0.00  0.00     0.002 A 
ENDROOT
BRANCH   1   7
ATOM      7  C1  UNL d   1       4.462   4.843  -5.305  0.00  0.00     0.055 C 
ATOM      8  C   UNL d   1       3.747   5.999  -5.988  0.00  0.00     0.019 C 
ENDBRANCH   1   7
TORSDOF 1
ENDMDL
