MODEL 1
REMARK minimizedAffinity -1.68562841
REMARK minimizedRMSD -1
REMARK  1 active torsions:
REMARK  status: ('A' for Active; 'I' for Inactive)
REMARK    1  A    between atoms: C1_2  and  C2_3 
ROOT
ATOM      1  C2  UNL d   1       4.927   4.815  -4.416  0.00  0.00    -0.077 A 
ATOM      2  C3  UNL d   1       3.834   4.528  -3.586  0.00  0.00     0.002 A 
ATOM      3  C4  UNL d   1       3.818   4.972  -2.262  0.00  0.00     0.002 A 
ATOM      4  C5  UNL d   1       4.889   5.707  -1.758  0.00  0.00    -0.004 A 
ATOM      5  C6  UNL d   1       5.981   5.996  -2.576  0.00  0.00     0.002 A 
ATOM      6  C7  UNL d   1       6.000   5.552  -3.899  0.00  0.00     0.002 A 
ENDROOT
BRANCH   1   7
ATOM      7  C1  UNL d   1       4.924   4.380  -5.858  0.00  0.00     0.055 C 
ATOM      8  C   UNL d   1       5.364   2.930  -6.000  0.00  0.00     0.019 C 
ENDBRANCH   1   7
TORSDOF 1
ENDMDL
