MODEL 1
REMARK minimizedAffinity 2.12478971
REMARK minimizedRMSD -1
REMARK  1 active torsions:
REMARK  status: ('A' for Active; 'I' for Inactive)
REMARK    1  A    between atoms: C1_2  and  C2_3 
ROOT
ATOM      1  C2  UNL d   1       3.782   4.430  -2.699  0.00  0.00    -0.077 A 
ATOM      2  C3  UNL d   1       4.593   5.175  -1.831  0.00  0.00     0.002 A 
ATOM      3  C4  UNL d   1       5.698   5.874  -2.322  0.00  0.00     0.002 A 
ATOM      4  C5  UNL d   1       6.000   5.837  -3.682  0.00  0.00    -0.004 A 
ATOM      5  C6  UNL d   1       5.201   5.097  -4.553  0.00  0.00     0.002 A 
ATOM      6  C7  UNL d   1       4.097   4.397  -4.064  0.00  0.00     0.002 A 
ENDROOT
BRANCH   1   7
ATOM      7  C1  UNL d   1       2.562   3.717  -2.180  0.00  0.00     0.055 C 
ATOM      8  C   UNL d   1       2.220   4.162  -0.765  0.00  0.00     0.019 C 
ENDBRANCH   1   7
TORSDOF 1
ENDMDL
