MODEL 1
REMARK minimizedAffinity -0.0612193346
REMARK minimizedRMSD -1
REMARK  1 active torsions:
REMARK  status: ('A' for Active; 'I' for Inactive)
REMARK    1  A    between atoms: C1_2  and  C2_3 
ROOT
ATOM      1  C2  UNL d   1       3.400   4.455  -2.892  0.00  0.00    -0.077 A 
ATOM      2  C3  UNL d   1       4.362   5.246  -2.249  0.00  0.00     0.002 A 
ATOM      3  C4  UNL d   1       5.657   5.339  -2.764  0.00  0.00     0.002 A 
ATOM      4  C5  UNL d   1       5.999   4.648  -3.924  0.00  0.00    -0.004 A 
ATOM      5  C6  UNL d   1       5.049   3.857  -4.569  0.00  0.00     0.002 A 
ATOM      6  C7  UNL d   1       3.755   3.762  -4.056  0.00  0.00     0.002 A 
ENDROOT
BRANCH   1   7
ATOM      7  C1  UNL d   1       1.989   4.392  -2.367  0.00  0.00     0.055 C 
ATOM      8  C   UNL d   1       1.954   3.884  -0.933  0.00  0.00     0.019 C 
ENDBRANCH   1   7
TORSDOF 1
ENDMDL
