MODEL 1
REMARK minimizedAffinity 7.3547554
REMARK minimizedRMSD -1
REMARK  1 active torsions:
REMARK  status: ('A' for Active; 'I' for Inactive)
REMARK    1  A    between atoms: C1_2  and  C2_3 
ROOT
ATOM      1  C2  UNL d   1       3.926   5.429  -3.396  0.00  0.00    -0.077 A 
ATOM      2  C3  UNL d   1       4.040   5.924  -2.089  0.00  0.00     0.002 A 
ATOM      3  C4  UNL d   1       5.072   5.487  -1.256  0.00  0.00     0.002 A 
ATOM      4  C5  UNL d   1       5.999   4.557  -1.721  0.00  0.00    -0.004 A 
ATOM      5  C6  UNL d   1       5.893   4.057  -3.018  0.00  0.00     0.002 A 
ATOM      6  C7  UNL d   1       4.862   4.492  -3.852  0.00  0.00     0.002 A 
ENDROOT
BRANCH   1   7
ATOM      7  C1  UNL d   1       2.843   5.936  -4.313  0.00  0.00     0.055 C 
ATOM      8  C   UNL d   1       3.324   6.000  -5.755  0.00  0.00     0.019 C 
ENDBRANCH   1   7
TORSDOF 1
ENDMDL
