MODEL 1
REMARK minimizedAffinity 5.17141581
REMARK minimizedRMSD -1
REMARK  1 active torsions:
REMARK  status: ('A' for Active; 'I' for Inactive)
REMARK    1  A    between atoms: C1_2  and  C2_3 
ROOT
ATOM      1  C2  UNL d   1       3.581   5.416  -3.023  0.00  0.00    -0.077 A 
ATOM      2  C3  UNL d   1       3.582   5.868  -4.350  0.00  0.00     0.002 A 
ATOM      3  C4  UNL d   1       4.782   6.000  -5.051  0.00  0.00     0.002 A 
ATOM      4  C5  UNL d   1       5.990   5.679  -4.434  0.00  0.00    -0.004 A 
ATOM      5  C6  UNL d   1       6.000   5.231  -3.114  0.00  0.00     0.002 A 
ATOM      6  C7  UNL d   1       4.801   5.099  -2.412  0.00  0.00     0.002 A 
ENDROOT
BRANCH   1   7
ATOM      7  C1  UNL d   1       2.284   5.226  -2.282  0.00  0.00     0.055 C 
ATOM      8  C   UNL d   1       2.276   3.917  -1.506  0.00  0.00     0.019 C 
ENDBRANCH   1   7
TORSDOF 1
ENDMDL
