MODEL 1
REMARK minimizedAffinity -2.64588404
REMARK minimizedRMSD -1
REMARK  1 active torsions:
REMARK  status: ('A' for Active; 'I' for Inactive)
REMARK    1  A    between atoms: C1_2  and  C2_3 
ROOT
ATOM      1  C2  UNL d   1       4.530   4.709  -3.205  0.00  0.00    -0.077 A 
ATOM      2  C3  UNL d   1       4.088   5.697  -4.096  0.00  0.00     0.002 A 
ATOM      3  C4  UNL d   1       4.587   5.746  -5.400  0.00  0.00     0.002 A 
ATOM      4  C5  UNL d   1       5.526   4.809  -5.824  0.00  0.00    -0.004 A 
ATOM      5  C6  UNL d   1       5.973   3.824  -4.944  0.00  0.00     0.002 A 
ATOM      6  C7  UNL d   1       5.477   3.773  -3.641  0.00  0.00     0.002 A 
ENDROOT
BRANCH   1   7
ATOM      7  C1  UNL d   1       3.957   4.624  -1.814  0.00  0.00     0.055 C 
ATOM      8  C   UNL d   1       2.501   4.181  -1.842  0.00  0.00     0.019 C 
ENDBRANCH   1   7
TORSDOF 1
ENDMDL
