MODEL 1
REMARK minimizedAffinity -0.766285837
REMARK minimizedRMSD -1
REMARK  1 active torsions:
REMARK  status: ('A' for Active; 'I' for Inactive)
REMARK    1  A    between atoms: C1_2  and  C2_3 
ROOT
ATOM      1  C2  UNL d   1       3.535   4.390  -2.411  0.00  0.00    -0.077 A 
ATOM      2  C3  UNL d   1       3.610   3.648  -3.598  0.00  0.00     0.002 A 
ATOM      3  C4  UNL d   1       4.836   3.465  -4.240  0.00  0.00     0.002 A 
ATOM      4  C5  UNL d   1       5.996   4.017  -3.701  0.00  0.00    -0.004 A 
ATOM      5  C6  UNL d   1       5.931   4.759  -2.522  0.00  0.00     0.002 A 
ATOM      6  C7  UNL d   1       4.706   4.944  -1.879  0.00  0.00     0.002 A 
ENDROOT
BRANCH   1   7
ATOM      7  C1  UNL d   1       2.221   4.547  -1.690  0.00  0.00     0.055 C 
ATOM      8  C   UNL d   1       2.251   3.865  -0.330  0.00  0.00     0.019 C 
ENDBRANCH   1   7
TORSDOF 1
ENDMDL
