MODEL 1
REMARK minimizedAffinity -1.16351163
REMARK minimizedRMSD -1
REMARK  1 active torsions:
REMARK  status: ('A' for Active; 'I' for Inactive)
REMARK    1  A    between atoms: C1_2  and  C2_3 
ROOT
ATOM      1  C2  UNL d   1       5.364   5.243  -3.423  0.00  0.00    -0.077 A 
ATOM      2  C3  UNL d   1       4.155   5.681  -3.981  0.00  0.00     0.002 A 
ATOM      3  C4  UNL d   1       3.544   4.953  -5.004  0.00  0.00     0.002 A 
ATOM      4  C5  UNL d   1       4.132   3.781  -5.474  0.00  0.00    -0.004 A 
ATOM      5  C6  UNL d   1       5.336   3.338  -4.927  0.00  0.00     0.002 A 
ATOM      6  C7  UNL d   1       5.948   4.065  -3.905  0.00  0.00     0.002 A 
ENDROOT
BRANCH   1   7
ATOM      7  C1  UNL d   1       5.999   6.000  -2.286  0.00  0.00     0.055 C 
ATOM      8  C   UNL d   1       5.110   5.992  -1.050  0.00  0.00     0.019 C 
ENDBRANCH   1   7
TORSDOF 1
ENDMDL
