MODEL 1
REMARK minimizedAffinity 5.42319632
REMARK minimizedRMSD -1
REMARK  1 active torsions:
REMARK  status: ('A' for Active; 'I' for Inactive)
REMARK    1  A    between atoms: C1_2  and  C2_3 
ROOT
ATOM      1  C2  UNL d   1       4.782   4.853  -4.110  0.00  0.00    -0.077 A 
ATOM      2  C3  UNL d   1       3.626   4.865  -3.317  0.00  0.00     0.002 A 
ATOM      3  C4  UNL d   1       3.658   5.406  -2.030  0.00  0.00     0.002 A 
ATOM      4  C5  UNL d   1       4.842   5.940  -1.526  0.00  0.00    -0.004 A 
ATOM      5  C6  UNL d   1       5.997   5.931  -2.306  0.00  0.00     0.002 A 
ATOM      6  C7  UNL d   1       5.968   5.390  -3.592  0.00  0.00     0.002 A 
ENDROOT
BRANCH   1   7
ATOM      7  C1  UNL d   1       4.738   4.315  -5.516  0.00  0.00     0.055 C 
ATOM      8  C   UNL d   1       5.931   3.415  -5.803  0.00  0.00     0.019 C 
ENDBRANCH   1   7
TORSDOF 1
ENDMDL
