MODEL 1
REMARK minimizedAffinity -3.08257532
REMARK minimizedRMSD -1
REMARK  1 active torsions:
REMARK  status: ('A' for Active; 'I' for Inactive)
REMARK    1  A    between atoms: C1_2  and  C2_3 
ROOT
ATOM      1  C2  UNL d   1      -1.551   0.782   0.237  0.00  0.00    -0.077 A 
ATOM      2  C3  UNL d   1      -1.766   1.639   1.326  0.00  0.00     0.002 A 
ATOM      3  C4  UNL d   1      -3.063   1.905   1.769  0.00  0.00     0.002 A 
ATOM      4  C5  UNL d   1      -4.153   1.315   1.133  0.00  0.00    -0.004 A 
ATOM      5  C6  UNL d   1      -3.950   0.463   0.049  0.00  0.00     0.002 A 
ATOM      6  C7  UNL d   1      -2.654   0.197  -0.397  0.00  0.00     0.002 A 
ENDROOT
BRANCH   1   7
ATOM      7  C1  UNL d   1      -0.150   0.455  -0.212  0.00  0.00     0.055 C 
ATOM      8  C   UNL d   1       0.067  -1.049  -0.296  0.00  0.00     0.019 C 
ENDBRANCH   1   7
TORSDOF 1
ENDMDL
