MODEL 1
REMARK minimizedAffinity -3.8658309
REMARK minimizedRMSD -1
REMARK  1 active torsions:
REMARK  status: ('A' for Active; 'I' for Inactive)
REMARK    1  A    between atoms: C1_2  and  C2_3 
ROOT
ATOM      1  C2  UNL d   1       0.861   0.005  -0.163  0.00  0.00    -0.077 A 
ATOM      2  C3  UNL d   1       1.797  -1.039  -0.144  0.00  0.00     0.002 A 
ATOM      3  C4  UNL d   1       3.037  -0.864   0.474  0.00  0.00     0.002 A 
ATOM      4  C5  UNL d   1       3.350   0.350   1.081  0.00  0.00    -0.004 A 
ATOM      5  C6  UNL d   1       2.427   1.394   1.066  0.00  0.00     0.002 A 
ATOM      6  C7  UNL d   1       1.188   1.223   0.448  0.00  0.00     0.002 A 
ENDROOT
BRANCH   1   7
ATOM      7  C1  UNL d   1      -0.495  -0.197  -0.786  0.00  0.00     0.055 C 
ATOM      8  C   UNL d   1      -1.586   0.483   0.029  0.00  0.00     0.019 C 
ENDBRANCH   1   7
TORSDOF 1
ENDMDL
