MODEL 1
REMARK minimizedAffinity -5.9661603
REMARK minimizedRMSD -1
REMARK  1 active torsions:
REMARK  status: ('A' for Active; 'I' for Inactive)
REMARK    1  A    between atoms: C1_2  and  C2_3 
ROOT
ATOM      1  C2  UNL d   1       3.185   0.003   0.333  0.00  0.00    -0.077 A 
ATOM      2  C3  UNL d   1       3.243   1.201   1.059  0.00  0.00     0.002 A 
ATOM      3  C4  UNL d   1       4.008   2.272   0.594  0.00  0.00     0.002 A 
ATOM      4  C5  UNL d   1       4.717   2.158  -0.600  0.00  0.00    -0.004 A 
ATOM      5  C6  UNL d   1       4.668   0.970  -1.328  0.00  0.00     0.002 A 
ATOM      6  C7  UNL d   1       3.904  -0.102  -0.864  0.00  0.00     0.002 A 
ENDROOT
BRANCH   1   7
ATOM      7  C1  UNL d   1       2.321  -1.136   0.808  0.00  0.00     0.055 C 
ATOM      8  C   UNL d   1       0.850  -0.746   0.824  0.00  0.00     0.019 C 
ENDBRANCH   1   7
TORSDOF 1
ENDMDL
