MODEL 1
REMARK minimizedAffinity -5.50733423
REMARK minimizedRMSD -1
REMARK  1 active torsions:
REMARK  status: ('A' for Active; 'I' for Inactive)
REMARK    1  A    between atoms: C1_2  and  C2_3 
ROOT
ATOM      1  C2  UNL d   1       0.556  -0.034  -0.164  0.00  0.00    -0.077 A 
ATOM      2  C3  UNL d   1       0.394   1.354  -0.049  0.00  0.00     0.002 A 
ATOM      3  C4  UNL d   1       1.503   2.181   0.139  0.00  0.00     0.002 A 
ATOM      4  C5  UNL d   1       2.781   1.631   0.210  0.00  0.00    -0.004 A 
ATOM      5  C6  UNL d   1       2.952   0.252   0.099  0.00  0.00     0.002 A 
ATOM      6  C7  UNL d   1       1.845  -0.577  -0.088  0.00  0.00     0.002 A 
ENDROOT
BRANCH   1   7
ATOM      7  C1  UNL d   1      -0.634  -0.923  -0.416  0.00  0.00     0.055 C 
ATOM      8  C   UNL d   1      -0.203  -2.346  -0.739  0.00  0.00     0.019 C 
ENDBRANCH   1   7
TORSDOF 1
ENDMDL
