MODEL 1
REMARK minimizedAffinity -5.90922832
REMARK minimizedRMSD -1
REMARK  1 active torsions:
REMARK  status: ('A' for Active; 'I' for Inactive)
REMARK    1  A    between atoms: C1_2  and  C2_3 
ROOT
ATOM      1  C2  UNL d   1       1.854  -0.413   0.009  0.00  0.00    -0.077 A 
ATOM      2  C3  UNL d   1       1.400  -1.546  -0.682  0.00  0.00     0.002 A 
ATOM      3  C4  UNL d   1       0.122  -1.564  -1.245  0.00  0.00     0.002 A 
ATOM      4  C5  UNL d   1      -0.709  -0.453  -1.126  0.00  0.00    -0.004 A 
ATOM      5  C6  UNL d   1      -0.268   0.678  -0.439  0.00  0.00     0.002 A 
ATOM      6  C7  UNL d   1       1.008   0.697   0.125  0.00  0.00     0.002 A 
ENDROOT
BRANCH   1   7
ATOM      7  C1  UNL d   1       3.249  -0.373   0.575  0.00  0.00     0.055 C 
ATOM      8  C   UNL d   1       4.006   0.857   0.094  0.00  0.00     0.019 C 
ENDBRANCH   1   7
TORSDOF 1
ENDMDL
