MODEL 1
REMARK minimizedAffinity -3.55246115
REMARK minimizedRMSD -1
REMARK  0 active torsions:
REMARK  status: ('A' for Active; 'I' for Inactive)
ROOT
ATOM      1  C   UNL d   1       1.474   1.080  -3.105  0.00  0.00     0.077 C 
ATOM      2  C1  UNL d   1       1.272   0.212  -1.899  0.00  0.00    -0.074 A 
ATOM      3  C2  UNL d   1       2.114  -0.876  -1.648  0.00  0.00    -0.005 A 
ATOM      4  C3  UNL d   1       1.920  -1.669  -0.517  0.00  0.00     0.006 A 
ATOM      5  C4  UNL d   1       0.885  -1.382   0.373  0.00  0.00    -0.005 A 
ATOM      6  C5  UNL d   1       0.034  -0.297   0.140  0.00  0.00    -0.074 A 
ATOM      7  C6  UNL d   1      -1.077   0.032   1.092  0.00  0.00     0.077 C 
ATOM      8  C7  UNL d   1       0.239   0.499  -0.996  0.00  0.00    -0.001 A 
ENDROOT
TORSDOF 0
ENDMDL
