MODEL 1
REMARK minimizedAffinity -3.65117884
REMARK minimizedRMSD -1
REMARK  0 active torsions:
REMARK  status: ('A' for Active; 'I' for Inactive)
ROOT
ATOM      1  C   UNL d   1      -1.286   0.275   1.271  0.00  0.00     0.077 C 
ATOM      2  C1  UNL d   1      -0.162  -0.154   0.375  0.00  0.00    -0.074 A 
ATOM      3  C2  UNL d   1       0.578  -1.308   0.652  0.00  0.00    -0.005 A 
ATOM      4  C3  UNL d   1       1.614  -1.699  -0.196  0.00  0.00     0.006 A 
ATOM      5  C4  UNL d   1       1.920  -0.941  -1.327  0.00  0.00    -0.005 A 
ATOM      6  C5  UNL d   1       1.191   0.215  -1.620  0.00  0.00    -0.074 A 
ATOM      7  C6  UNL d   1       1.500   1.036  -2.837  0.00  0.00     0.077 C 
ATOM      8  C7  UNL d   1       0.146   0.598  -0.767  0.00  0.00    -0.001 A 
ENDROOT
TORSDOF 0
ENDMDL
