MODEL 1
REMARK minimizedAffinity -5.01857615
REMARK minimizedRMSD -1
REMARK  0 active torsions:
REMARK  status: ('A' for Active; 'I' for Inactive)
ROOT
ATOM      1  C   UNL d   1      -1.504   0.013   1.096  0.00  0.00     0.077 C 
ATOM      2  C1  UNL d   1      -0.339  -0.261   0.192  0.00  0.00    -0.074 A 
ATOM      3  C2  UNL d   1       0.346  -1.479   0.252  0.00  0.00    -0.005 A 
ATOM      4  C3  UNL d   1       1.422  -1.724  -0.602  0.00  0.00     0.006 A 
ATOM      5  C4  UNL d   1       1.822  -0.755  -1.523  0.00  0.00    -0.005 A 
ATOM      6  C5  UNL d   1       1.149   0.468  -1.598  0.00  0.00    -0.074 A 
ATOM      7  C6  UNL d   1       1.560   1.517  -2.589  0.00  0.00     0.077 C 
ATOM      8  C7  UNL d   1       0.065   0.704  -0.742  0.00  0.00    -0.001 A 
ENDROOT
TORSDOF 0
ENDMDL
