MODEL 1
REMARK minimizedAffinity -0.771420777
REMARK minimizedRMSD -1
REMARK  0 active torsions:
REMARK  status: ('A' for Active; 'I' for Inactive)
ROOT
ATOM      1  C   UNL d   1      -3.366  -1.175   4.228  0.00  0.00     0.077 C 
ATOM      2  C1  UNL d   1      -2.755  -0.056   3.437  0.00  0.00    -0.074 A 
ATOM      3  C2  UNL d   1      -2.377   1.139   4.057  0.00  0.00    -0.005 A 
ATOM      4  C3  UNL d   1      -1.801   2.167   3.310  0.00  0.00     0.006 A 
ATOM      5  C4  UNL d   1      -1.597   2.010   1.939  0.00  0.00    -0.005 A 
ATOM      6  C5  UNL d   1      -1.967   0.821   1.302  0.00  0.00    -0.074 A 
ATOM      7  C6  UNL d   1      -1.746   0.632  -0.169  0.00  0.00     0.077 C 
ATOM      8  C7  UNL d   1      -2.539  -0.210   2.060  0.00  0.00    -0.001 A 
ENDROOT
TORSDOF 0
ENDMDL
