MODEL 1
REMARK minimizedAffinity -3.52516079
REMARK minimizedRMSD -1
REMARK  0 active torsions:
REMARK  status: ('A' for Active; 'I' for Inactive)
ROOT
ATOM      1  C   UNL d   1       2.526  -1.563  -0.045  0.00  0.00     0.077 C 
ATOM      2  C1  UNL d   1       1.085  -1.148  -0.005  0.00  0.00    -0.074 A 
ATOM      3  C2  UNL d   1       0.137  -1.758  -0.833  0.00  0.00    -0.005 A 
ATOM      4  C3  UNL d   1      -1.201  -1.368  -0.777  0.00  0.00     0.006 A 
ATOM      5  C4  UNL d   1      -1.604  -0.365   0.106  0.00  0.00    -0.005 A 
ATOM      6  C5  UNL d   1      -0.671   0.256   0.942  0.00  0.00    -0.074 A 
ATOM      7  C6  UNL d   1      -1.090   1.328   1.904  0.00  0.00     0.077 C 
ATOM      8  C7  UNL d   1       0.670  -0.147   0.885  0.00  0.00    -0.001 A 
ENDROOT
TORSDOF 0
ENDMDL
