MODEL 1
REMARK minimizedAffinity 1.78604376
REMARK minimizedRMSD -1
REMARK  0 active torsions:
REMARK  status: ('A' for Active; 'I' for Inactive)
ROOT
ATOM      1  C   UNL d   1      -0.516   1.030  -1.321  0.00  0.00     0.077 C 
ATOM      2  C1  UNL d   1      -0.032   0.130  -0.223  0.00  0.00    -0.074 A 
ATOM      3  C2  UNL d   1       0.171   0.620   1.071  0.00  0.00    -0.005 A 
ATOM      4  C3  UNL d   1       0.613  -0.231   2.084  0.00  0.00     0.006 A 
ATOM      5  C4  UNL d   1       0.855  -1.578   1.814  0.00  0.00    -0.005 A 
ATOM      6  C5  UNL d   1       0.656  -2.086   0.526  0.00  0.00    -0.074 A 
ATOM      7  C6  UNL d   1       0.902  -3.534   0.221  0.00  0.00     0.077 C 
ATOM      8  C7  UNL d   1       0.206  -1.226  -0.485  0.00  0.00    -0.001 A 
ENDROOT
TORSDOF 0
ENDMDL
