MODEL 1
REMARK minimizedAffinity -3.07955122
REMARK minimizedRMSD -1
REMARK  0 active torsions:
REMARK  status: ('A' for Active; 'I' for Inactive)
ROOT
ATOM      1  C   UNL d   1      -1.384   0.296   1.118  0.00  0.00     0.077 C 
ATOM      2  C1  UNL d   1      -0.238   0.085   0.174  0.00  0.00    -0.074 A 
ATOM      3  C2  UNL d   1       0.560  -1.060   0.257  0.00  0.00    -0.005 A 
ATOM      4  C3  UNL d   1       1.617  -1.247  -0.634  0.00  0.00     0.006 A 
ATOM      5  C4  UNL d   1       1.885  -0.293  -1.616  0.00  0.00    -0.005 A 
ATOM      6  C5  UNL d   1       1.097   0.858  -1.716  0.00  0.00    -0.074 A 
ATOM      7  C6  UNL d   1       1.365   1.889  -2.771  0.00  0.00     0.077 C 
ATOM      8  C7  UNL d   1       0.033   1.035  -0.821  0.00  0.00    -0.001 A 
ENDROOT
TORSDOF 0
ENDMDL
