MODEL 1
REMARK minimizedAffinity -0.533167541
REMARK minimizedRMSD -1
REMARK  0 active torsions:
REMARK  status: ('A' for Active; 'I' for Inactive)
ROOT
ATOM      1  C   UNL d   1      -2.542   0.444   2.876  0.00  0.00     0.077 C 
ATOM      2  C1  UNL d   1      -1.819   0.446   1.562  0.00  0.00    -0.074 A 
ATOM      3  C2  UNL d   1      -2.250   1.256   0.506  0.00  0.00    -0.005 A 
ATOM      4  C3  UNL d   1      -1.561   1.254  -0.707  0.00  0.00     0.006 A 
ATOM      5  C4  UNL d   1      -0.438   0.444  -0.876  0.00  0.00    -0.005 A 
ATOM      6  C5  UNL d   1       0.008  -0.371   0.169  0.00  0.00    -0.074 A 
ATOM      7  C6  UNL d   1       1.219  -1.241   0.007  0.00  0.00     0.077 C 
ATOM      8  C7  UNL d   1      -0.685  -0.359   1.387  0.00  0.00    -0.001 A 
ENDROOT
TORSDOF 0
ENDMDL
