MODEL 1
REMARK minimizedAffinity -4.40614891
REMARK minimizedRMSD -1
REMARK  0 active torsions:
REMARK  status: ('A' for Active; 'I' for Inactive)
ROOT
ATOM      1  C   UNL d   1      -0.075   0.413   1.501  0.00  0.00     0.077 C 
ATOM      2  C1  UNL d   1       0.643   0.018   0.245  0.00  0.00    -0.074 A 
ATOM      3  C2  UNL d   1       1.090  -1.294   0.055  0.00  0.00    -0.005 A 
ATOM      4  C3  UNL d   1       1.748  -1.648  -1.123  0.00  0.00     0.006 A 
ATOM      5  C4  UNL d   1       1.965  -0.697  -2.120  0.00  0.00    -0.005 A 
ATOM      6  C5  UNL d   1       1.525   0.619  -1.948  0.00  0.00    -0.074 A 
ATOM      7  C6  UNL d   1       1.742   1.652  -3.014  0.00  0.00     0.077 C 
ATOM      8  C7  UNL d   1       0.859   0.966  -0.765  0.00  0.00    -0.001 A 
ENDROOT
TORSDOF 0
ENDMDL
