MODEL 1
REMARK minimizedAffinity -1.45911562
REMARK minimizedRMSD -1
REMARK  0 active torsions:
REMARK  status: ('A' for Active; 'I' for Inactive)
ROOT
ATOM      1  C   UNL d   1      -2.496   0.511  -1.323  0.00  0.00     0.077 C 
ATOM      2  C1  UNL d   1      -1.729   0.395  -0.039  0.00  0.00    -0.074 A 
ATOM      3  C2  UNL d   1      -0.402  -0.049  -0.032  0.00  0.00    -0.005 A 
ATOM      4  C3  UNL d   1       0.301  -0.143   1.168  0.00  0.00     0.006 A 
ATOM      5  C4  UNL d   1      -0.313   0.206   2.372  0.00  0.00    -0.005 A 
ATOM      6  C5  UNL d   1      -1.638   0.653   2.384  0.00  0.00    -0.074 A 
ATOM      7  C6  UNL d   1      -2.310   1.041   3.668  0.00  0.00     0.077 C 
ATOM      8  C7  UNL d   1      -2.336   0.751   1.173  0.00  0.00    -0.001 A 
ENDROOT
TORSDOF 0
ENDMDL
