MODEL 1
REMARK minimizedAffinity -5.01125431
REMARK minimizedRMSD -1
REMARK  0 active torsions:
REMARK  status: ('A' for Active; 'I' for Inactive)
ROOT
ATOM      1  C   UNL d   1      -1.313   0.073   0.898  0.00  0.00     0.077 C 
ATOM      2  C1  UNL d   1      -0.289  -0.149  -0.174  0.00  0.00    -0.074 A 
ATOM      3  C2  UNL d   1       0.452  -1.334  -0.227  0.00  0.00    -0.005 A 
ATOM      4  C3  UNL d   1       1.395  -1.530  -1.236  0.00  0.00     0.006 A 
ATOM      5  C4  UNL d   1       1.607  -0.544  -2.201  0.00  0.00    -0.005 A 
ATOM      6  C5  UNL d   1       0.875   0.647  -2.165  0.00  0.00    -0.074 A 
ATOM      7  C6  UNL d   1       1.083   1.712  -3.200  0.00  0.00     0.077 C 
ATOM      8  C7  UNL d   1      -0.076   0.833  -1.152  0.00  0.00    -0.001 A 
ENDROOT
TORSDOF 0
ENDMDL
