MODEL 1
REMARK minimizedAffinity -2.88038731
REMARK minimizedRMSD -1
REMARK  0 active torsions:
REMARK  status: ('A' for Active; 'I' for Inactive)
ROOT
ATOM      1  C   UNL d   1      -1.142   0.365   0.987  0.00  0.00     0.077 C 
ATOM      2  C1  UNL d   1      -0.187  -0.147  -0.049  0.00  0.00    -0.074 A 
ATOM      3  C2  UNL d   1       0.350  -1.436   0.041  0.00  0.00    -0.005 A 
ATOM      4  C3  UNL d   1       1.229  -1.902  -0.936  0.00  0.00     0.006 A 
ATOM      5  C4  UNL d   1       1.581  -1.085  -2.011  0.00  0.00    -0.005 A 
ATOM      6  C5  UNL d   1       1.054   0.206  -2.119  0.00  0.00    -0.074 A 
ATOM      7  C6  UNL d   1       1.414   1.092  -3.274  0.00  0.00     0.077 C 
ATOM      8  C7  UNL d   1       0.165   0.664  -1.137  0.00  0.00    -0.001 A 
ENDROOT
TORSDOF 0
ENDMDL
