MODEL 1
REMARK minimizedAffinity 5.00564384
REMARK minimizedRMSD -1
REMARK  0 active torsions:
REMARK  status: ('A' for Active; 'I' for Inactive)
ROOT
ATOM      1  C   UNL d   1       4.106  -1.416  -0.216  0.00  0.00     0.077 C 
ATOM      2  C1  UNL d   1       2.702  -1.913  -0.389  0.00  0.00    -0.074 A 
ATOM      3  C2  UNL d   1       1.881  -1.408  -1.403  0.00  0.00    -0.005 A 
ATOM      4  C3  UNL d   1       0.579  -1.887  -1.557  0.00  0.00     0.006 A 
ATOM      5  C4  UNL d   1       0.087  -2.873  -0.701  0.00  0.00    -0.005 A 
ATOM      6  C5  UNL d   1       0.894  -3.390   0.317  0.00  0.00    -0.074 A 
ATOM      7  C6  UNL d   1       0.384  -4.457   1.239  0.00  0.00     0.077 C 
ATOM      8  C7  UNL d   1       2.202  -2.909   0.462  0.00  0.00    -0.001 A 
ENDROOT
TORSDOF 0
ENDMDL
