MODEL 1
REMARK minimizedAffinity 0.751424134
REMARK minimizedRMSD -1
REMARK  0 active torsions:
REMARK  status: ('A' for Active; 'I' for Inactive)
ROOT
ATOM      1  O1  BZF d   1       0.211   2.807  -1.301  0.00  0.00    -0.204 OA
ATOM      2  C2  BZF d   1       0.478   4.153  -1.461  0.00  0.00     0.174 A 
ATOM      3  C3  BZF d   1       0.794   4.722  -0.280  0.00  0.00    -0.012 A 
ATOM      4  C3A BZF d   1       0.810   3.647   0.663  0.00  0.00    -0.107 A 
ATOM      5  C4  BZF d   1       1.072   3.575   2.002  0.00  0.00     0.055 A 
ATOM      6  C5  BZF d   1       0.930   2.384   2.640  0.00  0.00    -0.016 A 
ATOM      7  C6  BZF d   1       0.522   1.248   1.974  0.00  0.00     0.022 A 
ATOM      8  C7  BZF d   1       0.255   1.268   0.645  0.00  0.00     0.029 A 
ATOM      9  C7A BZF d   1       0.430   2.462  -0.010  0.00  0.00     0.058 A 
ENDROOT
TORSDOF 0
ENDMDL
