MODEL 1
REMARK minimizedAffinity -0.167179525
REMARK minimizedRMSD -1
REMARK  0 active torsions:
REMARK  status: ('A' for Active; 'I' for Inactive)
ROOT
ATOM      1  O1  BZF d   1       0.321   2.869  -1.552  0.00  0.00    -0.204 OA
ATOM      2  C2  BZF d   1       0.433   4.217  -1.269  0.00  0.00     0.174 A 
ATOM      3  C3  BZF d   1       0.480   4.424   0.063  0.00  0.00    -0.012 A 
ATOM      4  C3A BZF d   1       0.486   3.118   0.647  0.00  0.00    -0.107 A 
ATOM      5  C4  BZF d   1       0.539   2.665   1.934  0.00  0.00     0.055 A 
ATOM      6  C5  BZF d   1       0.453   1.329   2.168  0.00  0.00    -0.016 A 
ATOM      7  C6  BZF d   1       0.307   0.420   1.142  0.00  0.00     0.022 A 
ATOM      8  C7  BZF d   1       0.254   0.821  -0.152  0.00  0.00     0.029 A 
ATOM      9  C7A BZF d   1       0.374   2.167  -0.394  0.00  0.00     0.058 A 
ENDROOT
TORSDOF 0
ENDMDL
