MODEL 1
REMARK minimizedAffinity 5.80732441
REMARK minimizedRMSD -1
REMARK  0 active torsions:
REMARK  status: ('A' for Active; 'I' for Inactive)
ROOT
ATOM      1  O1  BZF d   1       1.093  -0.032  -1.000  0.00  0.00    -0.204 OA
ATOM      2  C2  BZF d   1       0.509   1.103  -1.530  0.00  0.00     0.174 A 
ATOM      3  C3  BZF d   1       0.076   1.921  -0.550  0.00  0.00    -0.012 A 
ATOM      4  C3A BZF d   1       0.492   1.299   0.670  0.00  0.00    -0.107 A 
ATOM      5  C4  BZF d   1       0.369   1.640   1.987  0.00  0.00     0.055 A 
ATOM      6  C5  BZF d   1       0.820   0.779   2.937  0.00  0.00    -0.016 A 
ATOM      7  C6  BZF d   1       1.394  -0.431   2.606  0.00  0.00     0.022 A 
ATOM      8  C7  BZF d   1       1.542  -0.810   1.313  0.00  0.00     0.029 A 
ATOM      9  C7A BZF d   1       1.117   0.072   0.350  0.00  0.00     0.058 A 
ENDROOT
TORSDOF 0
ENDMDL
