MODEL 1
REMARK minimizedAffinity 2.1638031
REMARK minimizedRMSD -1
REMARK  0 active torsions:
REMARK  status: ('A' for Active; 'I' for Inactive)
ROOT
ATOM      1  O1  BZF d   1       0.147   1.045  -1.254  0.00  0.00    -0.204 OA
ATOM      2  C2  BZF d   1      -0.218   2.370  -1.393  0.00  0.00     0.174 A 
ATOM      3  C3  BZF d   1      -0.277   2.979  -0.191  0.00  0.00    -0.012 A 
ATOM      4  C3A BZF d   1       0.163   1.996   0.750  0.00  0.00    -0.107 A 
ATOM      5  C4  BZF d   1       0.338   2.006   2.105  0.00  0.00     0.055 A 
ATOM      6  C5  BZF d   1       0.711   0.858   2.731  0.00  0.00    -0.016 A 
ATOM      7  C6  BZF d   1       0.912  -0.316   2.035  0.00  0.00     0.022 A 
ATOM      8  C7  BZF d   1       0.755  -0.373   0.690  0.00  0.00     0.029 A 
ATOM      9  C7A BZF d   1       0.411   0.793   0.051  0.00  0.00     0.058 A 
ENDROOT
TORSDOF 0
ENDMDL
