MODEL 1
REMARK minimizedAffinity -2.35370922
REMARK minimizedRMSD -1
REMARK  0 active torsions:
REMARK  status: ('A' for Active; 'I' for Inactive)
ROOT
ATOM      1  O1  BZF d   1       0.139   3.128  -1.728  0.00  0.00    -0.204 OA
ATOM      2  C2  BZF d   1       0.400   4.482  -1.653  0.00  0.00     0.174 A 
ATOM      3  C3  BZF d   1       0.762   4.831  -0.402  0.00  0.00    -0.012 A 
ATOM      4  C3A BZF d   1       0.813   3.603   0.331  0.00  0.00    -0.107 A 
ATOM      5  C4  BZF d   1       1.127   3.294   1.623  0.00  0.00     0.055 A 
ATOM      6  C5  BZF d   1       1.009   2.006   2.042  0.00  0.00    -0.016 A 
ATOM      7  C6  BZF d   1       0.575   1.006   1.197  0.00  0.00     0.022 A 
ATOM      8  C7  BZF d   1       0.257   1.263  -0.095  0.00  0.00     0.029 A 
ATOM      9  C7A BZF d   1       0.407   2.557  -0.530  0.00  0.00     0.058 A 
ENDROOT
TORSDOF 0
ENDMDL
