MODEL 1
REMARK minimizedAffinity -5.99673414
REMARK minimizedRMSD -1
REMARK  0 active torsions:
REMARK  status: ('A' for Active; 'I' for Inactive)
ROOT
ATOM      1  O1  BZF d   1      -0.547   1.365  -0.249  0.00  0.00    -0.204 OA
ATOM      2  C2  BZF d   1      -0.290   1.579   1.092  0.00  0.00     0.174 A 
ATOM      3  C3  BZF d   1      -0.097   2.891   1.338  0.00  0.00    -0.012 A 
ATOM      4  C3A BZF d   1      -0.333   3.547   0.088  0.00  0.00    -0.107 A 
ATOM      5  C4  BZF d   1      -0.311   4.855  -0.304  0.00  0.00     0.055 A 
ATOM      6  C5  BZF d   1      -0.516   5.155  -1.614  0.00  0.00    -0.016 A 
ATOM      7  C6  BZF d   1      -0.740   4.174  -2.557  0.00  0.00     0.022 A 
ATOM      8  C7  BZF d   1      -0.776   2.863  -2.214  0.00  0.00     0.029 A 
ATOM      9  C7A BZF d   1      -0.603   2.559  -0.886  0.00  0.00     0.058 A 
ENDROOT
TORSDOF 0
ENDMDL
