MODEL 1
REMARK minimizedAffinity 5.72082758
REMARK minimizedRMSD -1
REMARK  0 active torsions:
REMARK  status: ('A' for Active; 'I' for Inactive)
ROOT
ATOM      1  O1  BZF d   1       2.295   4.935   1.431  0.00  0.00    -0.204 OA
ATOM      2  C2  BZF d   1       1.574   5.270   0.301  0.00  0.00     0.174 A 
ATOM      3  C3  BZF d   1       0.694   4.296  -0.010  0.00  0.00    -0.012 A 
ATOM      4  C3A BZF d   1       0.812   3.332   1.041  0.00  0.00    -0.107 A 
ATOM      5  C4  BZF d   1       0.186   2.147   1.302  0.00  0.00     0.055 A 
ATOM      6  C5  BZF d   1       0.585   1.412   2.373  0.00  0.00    -0.016 A 
ATOM      7  C6  BZF d   1       1.608   1.828   3.200  0.00  0.00     0.022 A 
ATOM      8  C7  BZF d   1       2.255   2.999   2.984  0.00  0.00     0.029 A 
ATOM      9  C7A BZF d   1       1.833   3.760   1.921  0.00  0.00     0.058 A 
ENDROOT
TORSDOF 0
ENDMDL
