MODEL 1
REMARK minimizedAffinity -0.999821484
REMARK minimizedRMSD -1
REMARK  0 active torsions:
REMARK  status: ('A' for Active; 'I' for Inactive)
ROOT
ATOM      1  C   UNL d   1       1.354   1.262   0.776  0.00  0.00     0.023 A 
ATOM      2  C1  UNL d   1       0.790  -0.003   0.944  0.00  0.00     0.003 A 
ATOM      3  C2  UNL d   1      -0.571  -0.200   0.702  0.00  0.00     0.048 A 
ATOM      4  C3  UNL d   1      -1.362   0.872   0.291  0.00  0.00     0.023 A 
ATOM      5  C4  UNL d   1      -0.802   2.140   0.120  0.00  0.00     0.048 A 
ATOM      6  C5  UNL d   1       0.559   2.332   0.364  0.00  0.00     0.003 A 
ATOM      7  I   UNL d   1      -3.388   0.582  -0.070  0.00  0.00    -0.146 I 
ENDROOT
TORSDOF 0
ENDMDL
