MODEL 1
REMARK minimizedAffinity -4.05084515
REMARK minimizedRMSD -1
REMARK  0 active torsions:
REMARK  status: ('A' for Active; 'I' for Inactive)
ROOT
ATOM      1  C   UNL d   1       2.312  -2.158   1.095  0.00  0.00     0.023 A 
ATOM      2  C1  UNL d   1       1.988  -1.042   1.866  0.00  0.00     0.003 A 
ATOM      3  C2  UNL d   1       1.066  -0.108   1.391  0.00  0.00     0.048 A 
ATOM      4  C3  UNL d   1       0.471  -0.296   0.144  0.00  0.00     0.023 A 
ATOM      5  C4  UNL d   1       0.792  -1.411  -0.631  0.00  0.00     0.048 A 
ATOM      6  C5  UNL d   1       1.715  -2.343  -0.152  0.00  0.00     0.003 A 
ATOM      7  I   UNL d   1      -0.902   1.094  -0.566  0.00  0.00    -0.146 I 
ENDROOT
TORSDOF 0
ENDMDL
