MODEL 1
REMARK minimizedAffinity -3.29143906
REMARK minimizedRMSD -1
REMARK  0 active torsions:
REMARK  status: ('A' for Active; 'I' for Inactive)
ROOT
ATOM      1  C   UNL d   1       2.777  -1.912   0.464  0.00  0.00     0.023 A 
ATOM      2  C1  UNL d   1       2.420  -0.803   1.231  0.00  0.00     0.003 A 
ATOM      3  C2  UNL d   1       1.166  -0.211   1.063  0.00  0.00     0.048 A 
ATOM      4  C3  UNL d   1       0.274  -0.735   0.128  0.00  0.00     0.023 A 
ATOM      5  C4  UNL d   1       0.627  -1.845  -0.641  0.00  0.00     0.048 A 
ATOM      6  C5  UNL d   1       1.882  -2.432  -0.471  0.00  0.00     0.003 A 
ATOM      7  I   UNL d   1      -1.593   0.144  -0.123  0.00  0.00    -0.146 I 
ENDROOT
TORSDOF 0
ENDMDL
