MODEL 1
REMARK minimizedAffinity -2.45372009
REMARK minimizedRMSD -1
REMARK  0 active torsions:
REMARK  status: ('A' for Active; 'I' for Inactive)
ROOT
ATOM      1  C   UNL d   1      -0.201   2.089  -0.634  0.00  0.00     0.023 A 
ATOM      2  C1  UNL d   1       1.024   2.141   0.031  0.00  0.00     0.003 A 
ATOM      3  C2  UNL d   1       1.653   0.960   0.433  0.00  0.00     0.048 A 
ATOM      4  C3  UNL d   1       1.050  -0.269   0.166  0.00  0.00     0.023 A 
ATOM      5  C4  UNL d   1      -0.175  -0.326  -0.499  0.00  0.00     0.048 A 
ATOM      6  C5  UNL d   1      -0.800   0.857  -0.898  0.00  0.00     0.003 A 
ATOM      7  I   UNL d   1       1.984  -2.027   0.763  0.00  0.00    -0.146 I 
ENDROOT
TORSDOF 0
ENDMDL
