MODEL 1
REMARK minimizedAffinity -2.30986142
REMARK minimizedRMSD -1
REMARK  0 active torsions:
REMARK  status: ('A' for Active; 'I' for Inactive)
ROOT
ATOM      1  C   UNL d   1      -1.127   1.216  -0.709  0.00  0.00     0.023 A 
ATOM      2  C1  UNL d   1      -0.037   2.047  -0.453  0.00  0.00     0.003 A 
ATOM      3  C2  UNL d   1       1.182   1.498  -0.047  0.00  0.00     0.048 A 
ATOM      4  C3  UNL d   1       1.302   0.117   0.100  0.00  0.00     0.023 A 
ATOM      5  C4  UNL d   1       0.214  -0.719  -0.156  0.00  0.00     0.048 A 
ATOM      6  C5  UNL d   1      -1.002  -0.165  -0.561  0.00  0.00     0.003 A 
ATOM      7  I   UNL d   1       3.114  -0.703   0.703  0.00  0.00    -0.146 I 
ENDROOT
TORSDOF 0
ENDMDL
