MODEL 1
REMARK minimizedAffinity -3.20276093
REMARK minimizedRMSD -1
REMARK  0 active torsions:
REMARK  status: ('A' for Active; 'I' for Inactive)
ROOT
ATOM      1  C   UNL d   1       2.285  -1.862  -0.072  0.00  0.00     0.023 A 
ATOM      2  C1  UNL d   1       2.084  -0.975   0.986  0.00  0.00     0.003 A 
ATOM      3  C2  UNL d   1       0.943  -0.170   1.016  0.00  0.00     0.048 A 
ATOM      4  C3  UNL d   1       0.007  -0.258  -0.013  0.00  0.00     0.023 A 
ATOM      5  C4  UNL d   1       0.203  -1.145  -1.073  0.00  0.00     0.048 A 
ATOM      6  C5  UNL d   1       1.346  -1.947  -1.100  0.00  0.00     0.003 A 
ATOM      7  I   UNL d   1      -1.692   0.938   0.030  0.00  0.00    -0.146 I 
ENDROOT
TORSDOF 0
ENDMDL
