MODEL 1
REMARK minimizedAffinity -3.74902844
REMARK minimizedRMSD -1
REMARK  0 active torsions:
REMARK  status: ('A' for Active; 'I' for Inactive)
ROOT
ATOM      1  C   UNL d   1      -0.938   0.969  -0.655  0.00  0.00     0.023 A 
ATOM      2  C1  UNL d   1      -0.957  -0.424  -0.729  0.00  0.00     0.003 A 
ATOM      3  C2  UNL d   1       0.198  -1.155  -0.444  0.00  0.00     0.048 A 
ATOM      4  C3  UNL d   1       1.368  -0.488  -0.084  0.00  0.00     0.023 A 
ATOM      5  C4  UNL d   1       1.391   0.906  -0.007  0.00  0.00     0.048 A 
ATOM      6  C5  UNL d   1       0.235   1.633  -0.294  0.00  0.00     0.003 A 
ATOM      7  I   UNL d   1       3.088  -1.574   0.342  0.00  0.00    -0.146 I 
ENDROOT
TORSDOF 0
ENDMDL
