MODEL 1
REMARK minimizedAffinity -4.45105839
REMARK minimizedRMSD -1
REMARK  0 active torsions:
REMARK  status: ('A' for Active; 'I' for Inactive)
ROOT
ATOM      1  C   UNL d   1       2.469  -1.097   0.516  0.00  0.00     0.023 A 
ATOM      2  C1  UNL d   1       1.558  -1.864  -0.210  0.00  0.00     0.003 A 
ATOM      3  C2  UNL d   1       0.271  -1.379  -0.452  0.00  0.00     0.048 A 
ATOM      4  C3  UNL d   1      -0.097  -0.124   0.033  0.00  0.00     0.023 A 
ATOM      5  C4  UNL d   1       0.812   0.648   0.759  0.00  0.00     0.048 A 
ATOM      6  C5  UNL d   1       2.097   0.157   0.999  0.00  0.00     0.003 A 
ATOM      7  I   UNL d   1      -2.011   0.601  -0.326  0.00  0.00    -0.146 I 
ENDROOT
TORSDOF 0
ENDMDL
