MODEL 1
REMARK minimizedAffinity 3.22936082
REMARK minimizedRMSD -1
REMARK  0 active torsions:
REMARK  status: ('A' for Active; 'I' for Inactive)
ROOT
ATOM      1  C   UNL d   1      -1.086  -0.030  -0.397  0.00  0.00    -0.002 A 
ATOM      2  C1  UNL d   1      -1.096   1.168   0.303  0.00  0.00     0.010 A 
ATOM      3  C2  UNL d   1       0.044   1.602   0.984  0.00  0.00     0.041 A 
ATOM      4  C3  UNL d   1       1.204   0.805   0.947  0.00  0.00    -0.075 A 
ATOM      5  S   UNL d   1       2.717   1.135   1.706  0.00  0.00     0.015 SA
ATOM      6  C4  UNL d   1       3.412  -0.306   1.117  0.00  0.00     0.022 A 
ATOM      7  C5  UNL d   1       2.525  -1.033   0.359  0.00  0.00     0.026 A 
ATOM      8  C6  UNL d   1       1.239  -0.405   0.248  0.00  0.00    -0.082 A 
ATOM      9  C7  UNL d   1       0.067  -0.818  -0.431  0.00  0.00     0.045 A 
ENDROOT
TORSDOF 0
ENDMDL
