MODEL 1
REMARK minimizedAffinity -4.35141087
REMARK minimizedRMSD -1
REMARK  0 active torsions:
REMARK  status: ('A' for Active; 'I' for Inactive)
ROOT
ATOM      1  C   UNL d   1       3.068  -1.567   2.626  0.00  0.00    -0.002 A 
ATOM      2  C1  UNL d   1       1.780  -2.067   2.748  0.00  0.00     0.010 A 
ATOM      3  C2  UNL d   1       0.740  -1.548   1.974  0.00  0.00     0.041 A 
ATOM      4  C3  UNL d   1       1.020  -0.508   1.065  0.00  0.00    -0.075 A 
ATOM      5  S   UNL d   1      -0.094   0.281   0.013  0.00  0.00     0.015 SA
ATOM      6  C4  UNL d   1       1.114   1.301  -0.623  0.00  0.00     0.022 A 
ATOM      7  C5  UNL d   1       2.344   1.059  -0.057  0.00  0.00     0.026 A 
ATOM      8  C6  UNL d   1       2.310   0.012   0.924  0.00  0.00    -0.082 A 
ATOM      9  C7  UNL d   1       3.342  -0.535   1.724  0.00  0.00     0.045 A 
ENDROOT
TORSDOF 0
ENDMDL
