MODEL 1
REMARK minimizedAffinity -4.23218584
REMARK minimizedRMSD -1
REMARK  0 active torsions:
REMARK  status: ('A' for Active; 'I' for Inactive)
ROOT
ATOM      1  C   UNL d   1       3.199   0.347   0.278  0.00  0.00    -0.002 A 
ATOM      2  C1  UNL d   1       2.858  -0.871   0.849  0.00  0.00     0.010 A 
ATOM      3  C2  UNL d   1       1.519  -1.248   0.972  0.00  0.00     0.041 A 
ATOM      4  C3  UNL d   1       0.519  -0.372   0.505  0.00  0.00    -0.075 A 
ATOM      5  S   UNL d   1      -1.186  -0.623   0.551  0.00  0.00     0.015 SA
ATOM      6  C4  UNL d   1      -1.502   0.881  -0.187  0.00  0.00     0.022 A 
ATOM      7  C5  UNL d   1      -0.346   1.571  -0.468  0.00  0.00     0.026 A 
ATOM      8  C6  UNL d   1       0.837   0.860  -0.074  0.00  0.00    -0.082 A 
ATOM      9  C7  UNL d   1       2.204   1.213  -0.183  0.00  0.00     0.045 A 
ENDROOT
TORSDOF 0
ENDMDL
