MODEL 1
REMARK minimizedAffinity -4.0312562
REMARK minimizedRMSD -1
REMARK  0 active torsions:
REMARK  status: ('A' for Active; 'I' for Inactive)
ROOT
ATOM      1  C   UNL d   1       3.382  -0.465   0.826  0.00  0.00    -0.002 A 
ATOM      2  C1  UNL d   1       2.631  -1.628   0.927  0.00  0.00     0.010 A 
ATOM      3  C2  UNL d   1       1.243  -1.592   0.773  0.00  0.00     0.041 A 
ATOM      4  C3  UNL d   1       0.618  -0.357   0.512  0.00  0.00    -0.075 A 
ATOM      5  S   UNL d   1      -1.068  -0.073   0.286  0.00  0.00     0.015 SA
ATOM      6  C4  UNL d   1      -0.830   1.598   0.050  0.00  0.00     0.022 A 
ATOM      7  C5  UNL d   1       0.497   1.948   0.138  0.00  0.00     0.026 A 
ATOM      8  C6  UNL d   1       1.353   0.827   0.405  0.00  0.00    -0.082 A 
ATOM      9  C7  UNL d   1       2.758   0.758   0.567  0.00  0.00     0.045 A 
ENDROOT
TORSDOF 0
ENDMDL
