MODEL 1
REMARK minimizedAffinity 2.86505699
REMARK minimizedRMSD -1
REMARK  1 active torsions:
REMARK  status: ('A' for Active; 'I' for Inactive)
REMARK    1  A    between atoms: N_2  and  C1_3 
ROOT
ATOM      1  C1  UNL d   1      -3.967   3.959   0.825  0.00  0.00     0.143 A 
ATOM      2  C2  UNL d   1      -5.138   3.894   0.062  0.00  0.00    -0.057 A 
ATOM      3  C3  UNL d   1      -5.989   2.783   0.131  0.00  0.00     0.033 A 
ATOM      4  C4  UNL d   1      -5.667   1.702   0.945  0.00  0.00    -0.042 A 
ATOM      5  C5  UNL d   1      -4.495   1.735   1.693  0.00  0.00     0.033 A 
ATOM      6  C6  UNL d   1      -3.654   2.849   1.625  0.00  0.00    -0.057 A 
ENDROOT
BRANCH   1   7
ATOM      7  N   UNL d   1      -3.031   4.991   0.726  0.00  0.00    -0.732 N 
ATOM      8  C   UNL d   1      -2.260   5.400   1.880  0.00  0.00     0.284 C 
ATOM      9  H3  UNL d   1      -2.496   4.948  -0.138  0.00  0.00     0.395 HD
ENDBRANCH   1   7
TORSDOF 1
ENDMDL
