MODEL 1
REMARK minimizedAffinity 7.9001255
REMARK minimizedRMSD -1
REMARK  1 active torsions:
REMARK  status: ('A' for Active; 'I' for Inactive)
REMARK    1  A    between atoms: N_2  and  C1_3 
ROOT
ATOM      1  C1  UNL d   1       4.858   2.640   3.330  0.00  0.00     0.143 A 
ATOM      2  C2  UNL d   1       4.972   1.709   4.368  0.00  0.00    -0.057 A 
ATOM      3  C3  UNL d   1       4.659   2.052   5.689  0.00  0.00     0.033 A 
ATOM      4  C4  UNL d   1       4.253   3.346   6.000  0.00  0.00    -0.042 A 
ATOM      5  C5  UNL d   1       4.157   4.295   4.988  0.00  0.00     0.033 A 
ATOM      6  C6  UNL d   1       4.465   3.944   3.670  0.00  0.00    -0.057 A 
ENDROOT
BRANCH   1   7
ATOM      7  N   UNL d   1       5.248   2.388   2.012  0.00  0.00    -0.732 N 
ATOM      8  C   UNL d   1       4.402   2.778   0.905  0.00  0.00     0.284 C 
ATOM      9  H3  UNL d   1       6.239   2.563   1.861  0.00  0.00     0.395 HD
ENDBRANCH   1   7
TORSDOF 1
ENDMDL
