MODEL 1
REMARK minimizedAffinity -3.20561957
REMARK minimizedRMSD -1
REMARK  1 active torsions:
REMARK  status: ('A' for Active; 'I' for Inactive)
REMARK    1  A    between atoms: N_2  and  C1_3 
ROOT
ATOM      1  C1  UNL d   1       3.375   4.299   5.658  0.00  0.00     0.143 A 
ATOM      2  C2  UNL d   1       4.669   4.334   5.128  0.00  0.00    -0.057 A 
ATOM      3  C3  UNL d   1       5.392   3.156   4.902  0.00  0.00     0.033 A 
ATOM      4  C4  UNL d   1       4.843   1.921   5.230  0.00  0.00    -0.042 A 
ATOM      5  C5  UNL d   1       3.567   1.865   5.781  0.00  0.00     0.033 A 
ATOM      6  C6  UNL d   1       2.848   3.044   5.999  0.00  0.00    -0.057 A 
ENDROOT
BRANCH   1   7
ATOM      7  N   UNL d   1       2.643   5.440   5.998  0.00  0.00    -0.732 N 
ATOM      8  C   UNL d   1       1.196   5.415   5.996  0.00  0.00     0.284 C 
ATOM      9  H3  UNL d   1       3.049   5.942   6.784  0.00  0.00     0.395 HD
ENDBRANCH   1   7
TORSDOF 1
ENDMDL
