MODEL 1
REMARK minimizedAffinity -1.49771118
REMARK minimizedRMSD -1
REMARK  1 active torsions:
REMARK  status: ('A' for Active; 'I' for Inactive)
REMARK    1  A    between atoms: N_2  and  C1_3 
ROOT
ATOM      1  C1  UNL d   1       3.661   3.960   5.689  0.00  0.00     0.143 A 
ATOM      2  C2  UNL d   1       5.025   3.870   5.389  0.00  0.00    -0.057 A 
ATOM      3  C3  UNL d   1       5.680   2.633   5.353  0.00  0.00     0.033 A 
ATOM      4  C4  UNL d   1       4.987   1.464   5.646  0.00  0.00    -0.042 A 
ATOM      5  C5  UNL d   1       3.637   1.532   5.972  0.00  0.00     0.033 A 
ATOM      6  C6  UNL d   1       2.987   2.769   5.999  0.00  0.00    -0.057 A 
ENDROOT
BRANCH   1   7
ATOM      7  N   UNL d   1       2.976   5.169   5.836  0.00  0.00    -0.732 N 
ATOM      8  C   UNL d   1       1.538   5.185   6.000  0.00  0.00     0.284 C 
ATOM      9  H3  UNL d   1       3.470   5.825   6.437  0.00  0.00     0.395 HD
ENDBRANCH   1   7
TORSDOF 1
ENDMDL
