MODEL 1
REMARK minimizedAffinity -1.70591724
REMARK minimizedRMSD -1
REMARK  0 active torsions:
REMARK  status: ('A' for Active; 'I' for Inactive)
ROOT
ATOM      1  C   UNL d   1       2.896   1.054   1.103  0.00  0.00    -0.002 A 
ATOM      2  C1  UNL d   1       2.826  -0.307   1.363  0.00  0.00     0.010 A 
ATOM      3  C2  UNL d   1       1.686  -1.038   1.022  0.00  0.00     0.041 A 
ATOM      4  C3  UNL d   1       0.607  -0.371   0.409  0.00  0.00    -0.075 A 
ATOM      5  S   UNL d   1      -0.889  -1.062  -0.097  0.00  0.00     0.015 SA
ATOM      6  C4  UNL d   1      -1.471   0.434  -0.670  0.00  0.00     0.022 A 
ATOM      7  C5  UNL d   1      -0.559   1.446  -0.488  0.00  0.00     0.026 A 
ATOM      8  C6  UNL d   1       0.654   0.999   0.136  0.00  0.00    -0.082 A 
ATOM      9  C7  UNL d   1       1.823   1.712   0.494  0.00  0.00     0.045 A 
ENDROOT
TORSDOF 0
ENDMDL
