MODEL 1
REMARK minimizedAffinity -2.95983434
REMARK minimizedRMSD -1
REMARK  0 active torsions:
REMARK  status: ('A' for Active; 'I' for Inactive)
ROOT
ATOM      1  C   UNL d   1       2.419  -1.168   3.091  0.00  0.00    -0.002 A 
ATOM      2  C1  UNL d   1       1.347  -2.038   2.948  0.00  0.00     0.010 A 
ATOM      3  C2  UNL d   1       0.375  -1.812   1.971  0.00  0.00     0.041 A 
ATOM      4  C3  UNL d   1       0.501  -0.687   1.131  0.00  0.00    -0.075 A 
ATOM      5  S   UNL d   1      -0.568  -0.210  -0.135  0.00  0.00     0.015 SA
ATOM      6  C4  UNL d   1       0.374   1.158  -0.516  0.00  0.00     0.022 A 
ATOM      7  C5  UNL d   1       1.481   1.264   0.293  0.00  0.00     0.026 A 
ATOM      8  C6  UNL d   1       1.572   0.202   1.256  0.00  0.00    -0.082 A 
ATOM      9  C7  UNL d   1       2.541  -0.054   2.256  0.00  0.00     0.045 A 
ENDROOT
TORSDOF 0
ENDMDL
