MODEL 1
REMARK minimizedAffinity -2.02575135
REMARK minimizedRMSD -1
REMARK  0 active torsions:
REMARK  status: ('A' for Active; 'I' for Inactive)
ROOT
ATOM      1  C   UNL d   1       1.392   1.092   0.595  0.00  0.00    -0.002 A 
ATOM      2  C1  UNL d   1       1.499  -0.290   0.660  0.00  0.00     0.010 A 
ATOM      3  C2  UNL d   1       0.574  -1.105   0.004  0.00  0.00     0.041 A 
ATOM      4  C3  UNL d   1      -0.469  -0.502  -0.726  0.00  0.00    -0.075 A 
ATOM      5  S   UNL d   1      -1.716  -1.301  -1.609  0.00  0.00     0.015 SA
ATOM      6  C4  UNL d   1      -2.420   0.174  -2.093  0.00  0.00     0.022 A 
ATOM      7  C5  UNL d   1      -1.733   1.259  -1.602  0.00  0.00     0.026 A 
ATOM      8  C6  UNL d   1      -0.597   0.887  -0.806  0.00  0.00    -0.082 A 
ATOM      9  C7  UNL d   1       0.356   1.686  -0.130  0.00  0.00     0.045 A 
ENDROOT
TORSDOF 0
ENDMDL
