MODEL 1
REMARK minimizedAffinity -4.55775547
REMARK minimizedRMSD -1
REMARK  0 active torsions:
REMARK  status: ('A' for Active; 'I' for Inactive)
ROOT
ATOM      1  C   UNL d   1       2.592   0.139   1.481  0.00  0.00    -0.002 A 
ATOM      2  C1  UNL d   1       2.276  -0.967   2.257  0.00  0.00     0.010 A 
ATOM      3  C2  UNL d   1       0.998  -1.528   2.206  0.00  0.00     0.041 A 
ATOM      4  C3  UNL d   1       0.035  -0.954   1.353  0.00  0.00    -0.075 A 
ATOM      5  S   UNL d   1      -1.593  -1.473   1.126  0.00  0.00     0.015 SA
ATOM      6  C4  UNL d   1      -1.907  -0.238  -0.007  0.00  0.00     0.022 A 
ATOM      7  C5  UNL d   1      -0.807   0.559  -0.219  0.00  0.00     0.026 A 
ATOM      8  C6  UNL d   1       0.331   0.159   0.561  0.00  0.00    -0.082 A 
ATOM      9  C7  UNL d   1       1.634   0.705   0.636  0.00  0.00     0.045 A 
ENDROOT
TORSDOF 0
ENDMDL
