MODEL 1
REMARK minimizedAffinity 0.614328921
REMARK minimizedRMSD -1
REMARK  0 active torsions:
REMARK  status: ('A' for Active; 'I' for Inactive)
ROOT
ATOM      1  C   UNL d   1       2.331   1.541   0.797  0.00  0.00    -0.002 A 
ATOM      2  C1  UNL d   1       2.478   0.381   1.544  0.00  0.00     0.010 A 
ATOM      3  C2  UNL d   1       1.452  -0.565   1.597  0.00  0.00     0.041 A 
ATOM      4  C3  UNL d   1       0.265  -0.323   0.877  0.00  0.00    -0.075 A 
ATOM      5  S   UNL d   1      -1.125  -1.340   0.793  0.00  0.00     0.015 SA
ATOM      6  C4  UNL d   1      -1.946  -0.259  -0.238  0.00  0.00     0.022 A 
ATOM      7  C5  UNL d   1      -1.193   0.856  -0.520  0.00  0.00     0.026 A 
ATOM      8  C6  UNL d   1       0.094   0.837   0.117  0.00  0.00    -0.082 A 
ATOM      9  C7  UNL d   1       1.152   1.777   0.085  0.00  0.00     0.045 A 
ENDROOT
TORSDOF 0
ENDMDL
