MODEL 1
REMARK minimizedAffinity 7.7220273
REMARK minimizedRMSD -1
REMARK  0 active torsions:
REMARK  status: ('A' for Active; 'I' for Inactive)
ROOT
ATOM      1  C1  DEN d   1       0.540  -0.305  -1.304  0.00  0.00     0.130 A 
ATOM      2  C2  DEN d   1       1.763   0.245  -0.724  0.00  0.00    -0.031 A 
ATOM      3  C3  DEN d   1       2.392  -0.808   0.098  0.00  0.00     0.027 A 
ATOM      4  C4  DEN d   1       1.599  -3.225   0.523  0.00  0.00     0.027 A 
ATOM      5  C5  DEN d   1       0.610  -4.146   0.255  0.00  0.00    -0.003 A 
ATOM      6  C6  DEN d   1      -0.479  -3.843  -0.518  0.00  0.00     0.001 A 
ATOM      7  C7  DEN d   1      -0.584  -2.601  -1.087  0.00  0.00     0.017 A 
ATOM      8  C8  DEN d   1       0.405  -1.665  -0.815  0.00  0.00    -0.094 A 
ATOM      9  C9  DEN d   1       1.505  -1.995  -0.041  0.00  0.00    -0.072 A 
ENDROOT
TORSDOF 0
ENDMDL
