MODEL 1
REMARK minimizedAffinity 2.68173385
REMARK minimizedRMSD -1
REMARK  0 active torsions:
REMARK  status: ('A' for Active; 'I' for Inactive)
ROOT
ATOM      1  C1  DEN d   1       1.341  -2.828   4.349  0.00  0.00     0.130 A 
ATOM      2  C2  DEN d   1       0.035  -3.425   4.612  0.00  0.00    -0.031 A 
ATOM      3  C3  DEN d   1      -0.505  -3.925   3.332  0.00  0.00     0.027 A 
ATOM      4  C4  DEN d   1       0.552  -3.836   0.981  0.00  0.00     0.027 A 
ATOM      5  C5  DEN d   1       1.645  -3.415   0.257  0.00  0.00    -0.003 A 
ATOM      6  C6  DEN d   1       2.690  -2.744   0.835  0.00  0.00     0.001 A 
ATOM      7  C7  DEN d   1       2.684  -2.514   2.186  0.00  0.00     0.017 A 
ATOM      8  C8  DEN d   1       1.582  -2.929   2.921  0.00  0.00    -0.094 A 
ATOM      9  C9  DEN d   1       0.541  -3.616   2.320  0.00  0.00    -0.072 A 
ENDROOT
TORSDOF 0
ENDMDL
