MODEL 1
REMARK minimizedAffinity 10.7540264
REMARK minimizedRMSD -1
REMARK  0 active torsions:
REMARK  status: ('A' for Active; 'I' for Inactive)
ROOT
ATOM      1  C1  DEN d   1      -0.148  -2.282  -1.820  0.00  0.00     0.130 A 
ATOM      2  C2  DEN d   1      -0.713  -3.438  -1.129  0.00  0.00    -0.031 A 
ATOM      3  C3  DEN d   1       0.132  -3.722   0.049  0.00  0.00     0.027 A 
ATOM      4  C4  DEN d   1       2.245  -2.490   0.867  0.00  0.00     0.027 A 
ATOM      5  C5  DEN d   1       3.115  -1.455   0.601  0.00  0.00    -0.003 A 
ATOM      6  C6  DEN d   1       2.979  -0.652  -0.500  0.00  0.00     0.001 A 
ATOM      7  C7  DEN d   1       1.923  -0.841  -1.353  0.00  0.00     0.017 A 
ATOM      8  C8  DEN d   1       1.046  -1.887  -1.095  0.00  0.00    -0.094 A 
ATOM      9  C9  DEN d   1       1.194  -2.680   0.030  0.00  0.00    -0.072 A 
ENDROOT
TORSDOF 0
ENDMDL
