MODEL 1
REMARK minimizedAffinity 12.8051186
REMARK minimizedRMSD -1
REMARK  0 active torsions:
REMARK  status: ('A' for Active; 'I' for Inactive)
ROOT
ATOM      1  C1  DEN d   1      -2.794  -0.256  -3.263  0.00  0.00     0.130 A 
ATOM      2  C2  DEN d   1      -1.968  -0.751  -4.360  0.00  0.00    -0.031 A 
ATOM      3  C3  DEN d   1      -2.621  -0.373  -5.630  0.00  0.00     0.027 A 
ATOM      4  C4  DEN d   1      -4.818   0.926  -6.000  0.00  0.00     0.027 A 
ATOM      5  C5  DEN d   1      -5.877   1.543  -5.371  0.00  0.00    -0.003 A 
ATOM      6  C6  DEN d   1      -6.000   1.573  -4.007  0.00  0.00     0.001 A 
ATOM      7  C7  DEN d   1      -5.023   1.015  -3.226  0.00  0.00     0.017 A 
ATOM      8  C8  DEN d   1      -3.956   0.385  -3.852  0.00  0.00    -0.094 A 
ATOM      9  C9  DEN d   1      -3.844   0.376  -5.232  0.00  0.00    -0.072 A 
ENDROOT
TORSDOF 0
ENDMDL
