MODEL 1
REMARK minimizedAffinity 10.6547031
REMARK minimizedRMSD -1
REMARK  0 active torsions:
REMARK  status: ('A' for Active; 'I' for Inactive)
ROOT
ATOM      1  C1  DEN d   1       2.357   1.534   1.761  0.00  0.00     0.130 A 
ATOM      2  C2  DEN d   1       1.216   2.039   1.003  0.00  0.00    -0.031 A 
ATOM      3  C3  DEN d   1       0.806   0.994   0.043  0.00  0.00     0.027 A 
ATOM      4  C4  DEN d   1       1.819  -1.347  -0.336  0.00  0.00     0.027 A 
ATOM      5  C5  DEN d   1       2.808  -2.220   0.061  0.00  0.00    -0.003 A 
ATOM      6  C6  DEN d   1       3.729  -1.893   1.020  0.00  0.00     0.001 A 
ATOM      7  C7  DEN d   1       3.653  -0.678   1.648  0.00  0.00     0.017 A 
ATOM      8  C8  DEN d   1       2.663   0.211   1.248  0.00  0.00    -0.094 A 
ATOM      9  C9  DEN d   1       1.734  -0.144   0.285  0.00  0.00    -0.072 A 
ENDROOT
TORSDOF 0
ENDMDL
