MODEL 1
REMARK minimizedAffinity 8.18482876
REMARK minimizedRMSD -1
REMARK  0 active torsions:
REMARK  status: ('A' for Active; 'I' for Inactive)
ROOT
ATOM      1  C1  DEN d   1      -4.499   1.417  -5.622  0.00  0.00     0.130 A 
ATOM      2  C2  DEN d   1      -3.348   1.982  -4.922  0.00  0.00    -0.031 A 
ATOM      3  C3  DEN d   1      -2.985   1.062  -3.825  0.00  0.00     0.027 A 
ATOM      4  C4  DEN d   1      -4.083  -1.172  -3.150  0.00  0.00     0.027 A 
ATOM      5  C5  DEN d   1      -5.098  -2.057  -3.441  0.00  0.00    -0.003 A 
ATOM      6  C6  DEN d   1      -5.997  -1.832  -4.449  0.00  0.00     0.001 A 
ATOM      7  C7  DEN d   1      -5.872  -0.715  -5.233  0.00  0.00     0.017 A 
ATOM      8  C8  DEN d   1      -4.856   0.186  -4.941  0.00  0.00    -0.094 A 
ATOM      9  C9  DEN d   1      -3.950  -0.066  -3.925  0.00  0.00    -0.072 A 
ENDROOT
TORSDOF 0
ENDMDL
