MODEL 1
REMARK minimizedAffinity 9.70731926
REMARK minimizedRMSD -1
REMARK  0 active torsions:
REMARK  status: ('A' for Active; 'I' for Inactive)
ROOT
ATOM      1  C1  DEN d   1       0.761   1.918  -0.190  0.00  0.00     0.130 A 
ATOM      2  C2  DEN d   1       1.663   0.772  -0.102  0.00  0.00    -0.031 A 
ATOM      3  C3  DEN d   1       1.576   0.226   1.267  0.00  0.00     0.027 A 
ATOM      4  C4  DEN d   1       0.135   1.035   3.248  0.00  0.00     0.027 A 
ATOM      5  C5  DEN d   1      -0.781   1.978   3.658  0.00  0.00    -0.003 A 
ATOM      6  C6  DEN d   1      -1.218   2.979   2.832  0.00  0.00     0.001 A 
ATOM      7  C7  DEN d   1      -0.773   3.034   1.538  0.00  0.00     0.017 A 
ATOM      8  C8  DEN d   1       0.156   2.091   1.119  0.00  0.00    -0.094 A 
ATOM      9  C9  DEN d   1       0.577   1.079   1.965  0.00  0.00    -0.072 A 
ENDROOT
TORSDOF 0
ENDMDL
