MODEL 1
REMARK minimizedAffinity 8.13731194
REMARK minimizedRMSD -1
REMARK  0 active torsions:
REMARK  status: ('A' for Active; 'I' for Inactive)
ROOT
ATOM      1  C1  DEN d   1       2.646  -1.849   0.629  0.00  0.00     0.130 A 
ATOM      2  C2  DEN d   1       1.793  -2.925   0.133  0.00  0.00    -0.031 A 
ATOM      3  C3  DEN d   1       0.617  -2.313  -0.518  0.00  0.00     0.027 A 
ATOM      4  C4  DEN d   1       0.041   0.185  -0.808  0.00  0.00     0.027 A 
ATOM      5  C5  DEN d   1       0.456   1.471  -0.541  0.00  0.00    -0.003 A 
ATOM      6  C6  DEN d   1       1.603   1.738   0.157  0.00  0.00     0.001 A 
ATOM      7  C7  DEN d   1       2.399   0.704   0.575  0.00  0.00     0.017 A 
ATOM      8  C8  DEN d   1       1.984  -0.595   0.317  0.00  0.00    -0.094 A 
ATOM      9  C9  DEN d   1       0.827  -0.844  -0.402  0.00  0.00    -0.072 A 
ENDROOT
TORSDOF 0
ENDMDL
