MODEL 1
REMARK minimizedAffinity 6.94796276
REMARK minimizedRMSD -1
REMARK  0 active torsions:
REMARK  status: ('A' for Active; 'I' for Inactive)
ROOT
ATOM      1  C1  DEN d   1       0.521   1.528  -0.377  0.00  0.00     0.130 A 
ATOM      2  C2  DEN d   1       1.082   2.706   0.280  0.00  0.00    -0.031 A 
ATOM      3  C3  DEN d   1       2.349   2.308   0.927  0.00  0.00     0.027 A 
ATOM      4  C4  DEN d   1       3.492  -0.004   0.972  0.00  0.00     0.027 A 
ATOM      5  C5  DEN d   1       3.388  -1.315   0.565  0.00  0.00    -0.003 A 
ATOM      6  C6  DEN d   1       2.313  -1.775  -0.150  0.00  0.00     0.001 A 
ATOM      7  C7  DEN d   1       1.321  -0.906  -0.518  0.00  0.00     0.017 A 
ATOM      8  C8  DEN d   1       1.415   0.417  -0.105  0.00  0.00    -0.094 A 
ATOM      9  C9  DEN d   1       2.515   0.865   0.606  0.00  0.00    -0.072 A 
ENDROOT
TORSDOF 0
ENDMDL
