MODEL 1
REMARK minimizedAffinity 8.08114815
REMARK minimizedRMSD -1
REMARK  1 active torsions:
REMARK  status: ('A' for Active; 'I' for Inactive)
REMARK    1  A    between atoms: C1_2  and  C2_3 
ROOT
ATOM      1  C2  UNL d   1       4.284  -3.194   3.356  0.00  0.00    -0.081 A 
ATOM      2  C3  UNL d   1       5.018  -4.209   2.731  0.00  0.00     0.006 A 
ATOM      3  C4  UNL d   1       4.776  -4.538   1.395  0.00  0.00     0.002 A 
ATOM      4  C5  UNL d   1       3.802  -3.852   0.660  0.00  0.00    -0.080 A 
ATOM      5  C6  UNL d   1       3.553  -4.174  -0.783  0.00  0.00     0.076 C 
ATOM      6  C7  UNL d   1       3.057  -2.849   1.290  0.00  0.00     0.002 A 
ATOM      7  C8  UNL d   1       3.298  -2.521   2.626  0.00  0.00     0.006 A 
ENDROOT
BRANCH   1   8
ATOM      8  C1  UNL d   1       4.588  -2.793   4.777  0.00  0.00     0.054 C 
ATOM      9  C   UNL d   1       5.791  -1.863   4.845  0.00  0.00     0.018 C 
ENDBRANCH   1   8
TORSDOF 1
ENDMDL
