MODEL 1
REMARK minimizedAffinity 7.754251
REMARK minimizedRMSD -1
REMARK  1 active torsions:
REMARK  status: ('A' for Active; 'I' for Inactive)
REMARK    1  A    between atoms: C1_2  and  C2_3 
ROOT
ATOM      1  C2  UNL d   1      -4.551   2.159  -5.096  0.00  0.00    -0.081 A 
ATOM      2  C3  UNL d   1      -5.291   1.027  -4.732  0.00  0.00     0.006 A 
ATOM      3  C4  UNL d   1      -4.695  -0.236  -4.726  0.00  0.00     0.002 A 
ATOM      4  C5  UNL d   1      -3.349  -0.388  -5.077  0.00  0.00    -0.080 A 
ATOM      5  C6  UNL d   1      -2.690  -1.735  -5.046  0.00  0.00     0.076 C 
ATOM      6  C7  UNL d   1      -2.615   0.740  -5.458  0.00  0.00     0.002 A 
ATOM      7  C8  UNL d   1      -3.210   2.003  -5.464  0.00  0.00     0.006 A 
ENDROOT
BRANCH   1   8
ATOM      8  C1  UNL d   1      -5.172   3.531  -5.040  0.00  0.00     0.054 C 
ATOM      9  C   UNL d   1      -4.383   4.459  -4.128  0.00  0.00     0.018 C 
ENDBRANCH   1   8
TORSDOF 1
ENDMDL
