MODEL 1
REMARK minimizedAffinity -4.1679039
REMARK minimizedRMSD -1
REMARK  1 active torsions:
REMARK  status: ('A' for Active; 'I' for Inactive)
REMARK    1  A    between atoms: C1_2  and  C2_3 
ROOT
ATOM      1  C2  UNL d   1      -2.540   1.020  -3.606  0.00  0.00    -0.081 A 
ATOM      2  C3  UNL d   1      -2.909   0.342  -4.774  0.00  0.00     0.006 A 
ATOM      3  C4  UNL d   1      -3.564  -0.890  -4.701  0.00  0.00     0.002 A 
ATOM      4  C5  UNL d   1      -3.867  -1.460  -3.460  0.00  0.00    -0.080 A 
ATOM      5  C6  UNL d   1      -4.597  -2.767  -3.367  0.00  0.00     0.076 C 
ATOM      6  C7  UNL d   1      -3.484  -0.790  -2.293  0.00  0.00     0.002 A 
ATOM      7  C8  UNL d   1      -2.829   0.441  -2.365  0.00  0.00     0.006 A 
ENDROOT
BRANCH   1   8
ATOM      8  C1  UNL d   1      -1.892   2.379  -3.680  0.00  0.00     0.054 C 
ATOM      9  C   UNL d   1      -1.042   2.518  -4.935  0.00  0.00     0.018 C 
ENDBRANCH   1   8
TORSDOF 1
ENDMDL
