MODEL 1
REMARK minimizedAffinity -4.33719301
REMARK minimizedRMSD -1
REMARK  1 active torsions:
REMARK  status: ('A' for Active; 'I' for Inactive)
REMARK    1  A    between atoms: C1_2  and  C2_3 
ROOT
ATOM      1  C2  UNL d   1      -2.303   0.891  -4.665  0.00  0.00    -0.081 A 
ATOM      2  C3  UNL d   1      -3.474   0.871  -5.431  0.00  0.00     0.006 A 
ATOM      3  C4  UNL d   1      -4.481  -0.060  -5.163  0.00  0.00     0.002 A 
ATOM      4  C5  UNL d   1      -4.336  -0.980  -4.120  0.00  0.00    -0.080 A 
ATOM      5  C6  UNL d   1      -5.422  -1.965  -3.801  0.00  0.00     0.076 C 
ATOM      6  C7  UNL d   1      -3.158  -0.972  -3.365  0.00  0.00     0.002 A 
ATOM      7  C8  UNL d   1      -2.151  -0.042  -3.633  0.00  0.00     0.006 A 
ENDROOT
BRANCH   1   8
ATOM      8  C1  UNL d   1      -1.244   1.935  -4.910  0.00  0.00     0.054 C 
ATOM      9  C   UNL d   1      -1.166   2.925  -3.757  0.00  0.00     0.018 C 
ENDBRANCH   1   8
TORSDOF 1
ENDMDL
