MODEL 1
REMARK minimizedAffinity 4.75842619
REMARK minimizedRMSD -1
REMARK  1 active torsions:
REMARK  status: ('A' for Active; 'I' for Inactive)
REMARK    1  A    between atoms: C1_2  and  C2_3 
ROOT
ATOM      1  C2  UNL d   1      -3.614   1.043  -4.727  0.00  0.00    -0.081 A 
ATOM      2  C3  UNL d   1      -3.578   0.078  -5.740  0.00  0.00     0.006 A 
ATOM      3  C4  UNL d   1      -4.100  -1.199  -5.521  0.00  0.00     0.002 A 
ATOM      4  C5  UNL d   1      -4.673  -1.530  -4.288  0.00  0.00    -0.080 A 
ATOM      5  C6  UNL d   1      -5.264  -2.887  -4.049  0.00  0.00     0.076 C 
ATOM      6  C7  UNL d   1      -4.693  -0.571  -3.270  0.00  0.00     0.002 A 
ATOM      7  C8  UNL d   1      -4.171   0.706  -3.488  0.00  0.00     0.006 A 
ENDROOT
BRANCH   1   8
ATOM      8  C1  UNL d   1      -3.110   2.441  -4.981  0.00  0.00     0.054 C 
ATOM      9  C   UNL d   1      -3.075   3.259  -3.698  0.00  0.00     0.018 C 
ENDBRANCH   1   8
TORSDOF 1
ENDMDL
