MODEL 1
REMARK minimizedAffinity 4.33831215
REMARK minimizedRMSD -1
REMARK  1 active torsions:
REMARK  status: ('A' for Active; 'I' for Inactive)
REMARK    1  A    between atoms: C1_2  and  C2_3 
ROOT
ATOM      1  C2  UNL d   1       4.657   3.375  -5.349  0.00  0.00    -0.081 A 
ATOM      2  C3  UNL d   1       4.195   3.045  -4.069  0.00  0.00     0.006 A 
ATOM      3  C4  UNL d   1       4.617   1.868  -3.446  0.00  0.00     0.002 A 
ATOM      4  C5  UNL d   1       5.514   1.008  -4.087  0.00  0.00    -0.080 A 
ATOM      5  C6  UNL d   1       5.999  -0.243  -3.417  0.00  0.00     0.076 C 
ATOM      6  C7  UNL d   1       5.963   1.329  -5.373  0.00  0.00     0.002 A 
ATOM      7  C8  UNL d   1       5.540   2.505  -5.997  0.00  0.00     0.006 A 
ENDROOT
BRANCH   1   8
ATOM      8  C1  UNL d   1       4.254   4.675  -5.998  0.00  0.00     0.054 C 
ATOM      9  C   UNL d   1       2.766   4.944  -5.819  0.00  0.00     0.018 C 
ENDBRANCH   1   8
TORSDOF 1
ENDMDL
