MODEL 1
REMARK minimizedAffinity 0.785975516
REMARK minimizedRMSD -1
REMARK  1 active torsions:
REMARK  status: ('A' for Active; 'I' for Inactive)
REMARK    1  A    between atoms: C1_2  and  C2_3 
ROOT
ATOM      1  C2  UNL d   1      -2.649  -1.197  -4.981  0.00  0.00    -0.081 A 
ATOM      2  C3  UNL d   1      -2.946  -1.514  -3.650  0.00  0.00     0.006 A 
ATOM      3  C4  UNL d   1      -4.022  -0.905  -3.000  0.00  0.00     0.002 A 
ATOM      4  C5  UNL d   1      -4.823   0.025  -3.672  0.00  0.00    -0.080 A 
ATOM      5  C6  UNL d   1      -5.999   0.664  -2.996  0.00  0.00     0.076 C 
ATOM      6  C7  UNL d   1      -4.515   0.355  -4.997  0.00  0.00     0.002 A 
ATOM      7  C8  UNL d   1      -3.439  -0.253  -5.647  0.00  0.00     0.006 A 
ENDROOT
BRANCH   1   8
ATOM      8  C1  UNL d   1      -1.529  -1.900  -5.704  0.00  0.00     0.054 C 
ATOM      9  C   UNL d   1      -1.885  -3.350  -6.000  0.00  0.00     0.018 C 
ENDBRANCH   1   8
TORSDOF 1
ENDMDL
