MODEL 1
REMARK minimizedAffinity 2.50975704
REMARK minimizedRMSD -1
REMARK  1 active torsions:
REMARK  status: ('A' for Active; 'I' for Inactive)
REMARK    1  A    between atoms: C1_2  and  C2_3 
ROOT
ATOM      1  C2  UNL d   1      -3.313   1.522  -3.318  0.00  0.00    -0.081 A 
ATOM      2  C3  UNL d   1      -3.611   2.807  -2.847  0.00  0.00     0.006 A 
ATOM      3  C4  UNL d   1      -3.567   3.905  -3.709  0.00  0.00     0.002 A 
ATOM      4  C5  UNL d   1      -3.233   3.737  -5.057  0.00  0.00    -0.080 A 
ATOM      5  C6  UNL d   1      -3.211   4.903  -6.000  0.00  0.00     0.076 C 
ATOM      6  C7  UNL d   1      -2.919   2.456  -5.524  0.00  0.00     0.002 A 
ATOM      7  C8  UNL d   1      -2.962   1.357  -4.663  0.00  0.00     0.006 A 
ENDROOT
BRANCH   1   8
ATOM      8  C1  UNL d   1      -3.423   0.327  -2.407  0.00  0.00     0.054 C 
ATOM      9  C   UNL d   1      -3.328  -0.976  -3.188  0.00  0.00     0.018 C 
ENDBRANCH   1   8
TORSDOF 1
ENDMDL
