MODEL 1
REMARK minimizedAffinity 4.35783386
REMARK minimizedRMSD -1
REMARK  1 active torsions:
REMARK  status: ('A' for Active; 'I' for Inactive)
REMARK    1  A    between atoms: C1_2  and  C2_3 
ROOT
ATOM      1  C2  UNL d   1      -4.581  -0.665  -4.166  0.00  0.00    -0.081 A 
ATOM      2  C3  UNL d   1      -5.494   0.149  -3.486  0.00  0.00     0.006 A 
ATOM      3  C4  UNL d   1      -5.946   1.340  -4.061  0.00  0.00     0.002 A 
ATOM      4  C5  UNL d   1      -5.499   1.731  -5.327  0.00  0.00    -0.080 A 
ATOM      5  C6  UNL d   1      -5.999   2.991  -5.968  0.00  0.00     0.076 C 
ATOM      6  C7  UNL d   1      -4.572   0.927  -5.999  0.00  0.00     0.002 A 
ATOM      7  C8  UNL d   1      -4.120  -0.263  -5.425  0.00  0.00     0.006 A 
ENDROOT
BRANCH   1   8
ATOM      8  C1  UNL d   1      -4.141  -1.981  -3.577  0.00  0.00     0.054 C 
ATOM      9  C   UNL d   1      -3.683  -1.817  -2.135  0.00  0.00     0.018 C 
ENDBRANCH   1   8
TORSDOF 1
ENDMDL
