MODEL 1
REMARK minimizedAffinity 3.14788675
REMARK minimizedRMSD -1
REMARK  1 active torsions:
REMARK  status: ('A' for Active; 'I' for Inactive)
REMARK    1  A    between atoms: C1_2  and  C2_3 
ROOT
ATOM      1  C2  UNL d   1       4.579   5.445  -2.522  0.00  0.00    -0.077 A 
ATOM      2  C3  UNL d   1       5.802   5.829  -3.091  0.00  0.00     0.002 A 
ATOM      3  C4  UNL d   1       5.997   5.744  -4.470  0.00  0.00     0.002 A 
ATOM      4  C5  UNL d   1       4.973   5.279  -5.293  0.00  0.00    -0.004 A 
ATOM      5  C6  UNL d   1       3.754   4.892  -4.738  0.00  0.00     0.002 A 
ATOM      6  C7  UNL d   1       3.558   4.976  -3.359  0.00  0.00     0.002 A 
ENDROOT
BRANCH   1   7
ATOM      7  C1  UNL d   1       4.349   5.583  -1.040  0.00  0.00     0.055 C 
ATOM      8  C   UNL d   1       5.650   5.863  -0.302  0.00  0.00     0.019 C 
ENDBRANCH   1   7
TORSDOF 1
ENDMDL
