MODEL 1
REMARK minimizedAffinity 1.41019344
REMARK minimizedRMSD -1
REMARK  1 active torsions:
REMARK  status: ('A' for Active; 'I' for Inactive)
REMARK    1  A    between atoms: C1_2  and  C2_3 
ROOT
ATOM      1  C2  UNL d   1       4.030   4.327  -2.650  0.00  0.00    -0.077 A 
ATOM      2  C3  UNL d   1       4.264   4.298  -1.269  0.00  0.00     0.002 A 
ATOM      3  C4  UNL d   1       5.246   5.112  -0.701  0.00  0.00     0.002 A 
ATOM      4  C5  UNL d   1       5.998   5.964  -1.508  0.00  0.00    -0.004 A 
ATOM      5  C6  UNL d   1       5.774   5.999  -2.883  0.00  0.00     0.002 A 
ATOM      6  C7  UNL d   1       4.793   5.184  -3.452  0.00  0.00     0.002 A 
ENDROOT
BRANCH   1   7
ATOM      7  C1  UNL d   1       2.937   3.485  -3.257  0.00  0.00     0.055 C 
ATOM      8  C   UNL d   1       1.580   3.826  -2.660  0.00  0.00     0.019 C 
ENDBRANCH   1   7
TORSDOF 1
ENDMDL
