MODEL 1
REMARK minimizedAffinity 4.28218126
REMARK minimizedRMSD -1
REMARK  1 active torsions:
REMARK  status: ('A' for Active; 'I' for Inactive)
REMARK    1  A    between atoms: C1_2  and  C2_3 
ROOT
ATOM      1  C2  UNL d   1       3.660   5.575  -3.814  0.00  0.00    -0.077 A 
ATOM      2  C3  UNL d   1       3.766   5.756  -5.200  0.00  0.00     0.002 A 
ATOM      3  C4  UNL d   1       4.930   5.382  -5.874  0.00  0.00     0.002 A 
ATOM      4  C5  UNL d   1       5.995   4.821  -5.172  0.00  0.00    -0.004 A 
ATOM      5  C6  UNL d   1       5.900   4.639  -3.793  0.00  0.00     0.002 A 
ATOM      6  C7  UNL d   1       4.738   5.013  -3.117  0.00  0.00     0.002 A 
ENDROOT
BRANCH   1   7
ATOM      7  C1  UNL d   1       2.387   5.932  -3.093  0.00  0.00     0.055 C 
ATOM      8  C   UNL d   1       2.259   5.166  -1.784  0.00  0.00     0.019 C 
ENDBRANCH   1   7
TORSDOF 1
ENDMDL
