MODEL 1
REMARK minimizedAffinity 3.22873116
REMARK minimizedRMSD -1
REMARK  1 active torsions:
REMARK  status: ('A' for Active; 'I' for Inactive)
REMARK    1  A    between atoms: C1_2  and  C2_3 
ROOT
ATOM      1  C2  UNL d   1       5.315   4.589  -4.306  0.00  0.00    -0.077 A 
ATOM      2  C3  UNL d   1       4.109   5.275  -4.503  0.00  0.00     0.002 A 
ATOM      3  C4  UNL d   1       3.510   5.967  -3.448  0.00  0.00     0.002 A 
ATOM      4  C5  UNL d   1       4.112   5.983  -2.192  0.00  0.00    -0.004 A 
ATOM      5  C6  UNL d   1       5.311   5.302  -1.986  0.00  0.00     0.002 A 
ATOM      6  C7  UNL d   1       5.910   4.608  -3.038  0.00  0.00     0.002 A 
ENDROOT
BRANCH   1   7
ATOM      7  C1  UNL d   1       5.988   3.883  -5.454  0.00  0.00     0.055 C 
ATOM      8  C   UNL d   1       5.405   2.494  -5.669  0.00  0.00     0.019 C 
ENDBRANCH   1   7
TORSDOF 1
ENDMDL
