MODEL 1
REMARK minimizedAffinity 9.47476101
REMARK minimizedRMSD -1
REMARK  1 active torsions:
REMARK  status: ('A' for Active; 'I' for Inactive)
REMARK    1  A    between atoms: C1_2  and  C2_3 
ROOT
ATOM      1  C2  UNL d   1       1.500  -2.214  -2.716  0.00  0.00    -0.077 A 
ATOM      2  C3  UNL d   1       0.368  -1.790  -3.427  0.00  0.00     0.002 A 
ATOM      3  C4  UNL d   1      -0.910  -1.987  -2.902  0.00  0.00     0.002 A 
ATOM      4  C5  UNL d   1      -1.069  -2.605  -1.664  0.00  0.00    -0.004 A 
ATOM      5  C6  UNL d   1       0.050  -3.033  -0.950  0.00  0.00     0.002 A 
ATOM      6  C7  UNL d   1       1.328  -2.837  -1.474  0.00  0.00     0.002 A 
ENDROOT
BRANCH   1   7
ATOM      7  C1  UNL d   1       2.882  -1.958  -3.258  0.00  0.00     0.055 C 
ATOM      8  C   UNL d   1       3.216  -2.911  -4.397  0.00  0.00     0.019 C 
ENDBRANCH   1   7
TORSDOF 1
ENDMDL
