MODEL 1
REMARK minimizedAffinity -4.61388779
REMARK minimizedRMSD -1
REMARK  1 active torsions:
REMARK  status: ('A' for Active; 'I' for Inactive)
REMARK    1  A    between atoms: C1_2  and  C2_3 
ROOT
ATOM      1  C2  UNL d   1       4.822   4.618  -3.979  0.00  0.00    -0.077 A 
ATOM      2  C3  UNL d   1       3.589   4.123  -4.424  0.00  0.00     0.002 A 
ATOM      3  C4  UNL d   1       3.536   3.010  -5.265  0.00  0.00     0.002 A 
ATOM      4  C5  UNL d   1       4.714   2.381  -5.665  0.00  0.00    -0.004 A 
ATOM      5  C6  UNL d   1       5.946   2.867  -5.229  0.00  0.00     0.002 A 
ATOM      6  C7  UNL d   1       6.000   3.980  -4.389  0.00  0.00     0.002 A 
ENDROOT
BRANCH   1   7
ATOM      7  C1  UNL d   1       4.878   5.788  -3.032  0.00  0.00     0.055 C 
ATOM      8  C   UNL d   1       6.000   5.625  -2.016  0.00  0.00     0.019 C 
ENDBRANCH   1   7
TORSDOF 1
ENDMDL
