MODEL 1
REMARK minimizedAffinity -3.6375854
REMARK minimizedRMSD -1
REMARK  1 active torsions:
REMARK  status: ('A' for Active; 'I' for Inactive)
REMARK    1  A    between atoms: C1_2  and  C2_3 
ROOT
ATOM      1  C2  UNL d   1       5.256   3.954  -4.863  0.00  0.00    -0.077 A 
ATOM      2  C3  UNL d   1       3.945   4.420  -5.035  0.00  0.00     0.002 A 
ATOM      3  C4  UNL d   1       3.384   5.307  -4.114  0.00  0.00     0.002 A 
ATOM      4  C5  UNL d   1       4.128   5.740  -3.019  0.00  0.00    -0.004 A 
ATOM      5  C6  UNL d   1       5.433   5.282  -2.838  0.00  0.00     0.002 A 
ATOM      6  C7  UNL d   1       5.994   4.394  -3.757  0.00  0.00     0.002 A 
ENDROOT
BRANCH   1   7
ATOM      7  C1  UNL d   1       5.880   3.035  -5.881  0.00  0.00     0.055 C 
ATOM      8  C   UNL d   1       5.999   1.616  -5.345  0.00  0.00     0.019 C 
ENDBRANCH   1   7
TORSDOF 1
ENDMDL
