MODEL 1
REMARK minimizedAffinity 15.9461985
REMARK minimizedRMSD -1
REMARK  1 active torsions:
REMARK  status: ('A' for Active; 'I' for Inactive)
REMARK    1  A    between atoms: C1_2  and  C2_3 
ROOT
ATOM      1  C2  UNL d   1      -3.530   0.205   5.249  0.00  0.00    -0.077 A 
ATOM      2  C3  UNL d   1      -3.620   1.552   5.628  0.00  0.00     0.002 A 
ATOM      3  C4  UNL d   1      -4.849   2.100   6.000  0.00  0.00     0.002 A 
ATOM      4  C5  UNL d   1      -5.996   1.308   6.000  0.00  0.00    -0.004 A 
ATOM      5  C6  UNL d   1      -5.917  -0.032   5.623  0.00  0.00     0.002 A 
ATOM      6  C7  UNL d   1      -4.689  -0.581   5.250  0.00  0.00     0.002 A 
ENDROOT
BRANCH   1   7
ATOM      7  C1  UNL d   1      -2.197  -0.401   4.896  0.00  0.00     0.055 C 
ATOM      8  C   UNL d   1      -2.103  -1.846   5.365  0.00  0.00     0.019 C 
ENDBRANCH   1   7
TORSDOF 1
ENDMDL
