MODEL 1
REMARK minimizedAffinity -3.88461614
REMARK minimizedRMSD -1
REMARK  1 active torsions:
REMARK  status: ('A' for Active; 'I' for Inactive)
REMARK    1  A    between atoms: C1_2  and  C2_3 
ROOT
ATOM      1  C2  UNL d   1       3.810  -1.902   3.296  0.00  0.00    -0.077 A 
ATOM      2  C3  UNL d   1       4.556  -3.021   3.691  0.00  0.00     0.002 A 
ATOM      3  C4  UNL d   1       4.862  -3.226   5.038  0.00  0.00     0.002 A 
ATOM      4  C5  UNL d   1       4.423  -2.320   6.000  0.00  0.00    -0.004 A 
ATOM      5  C6  UNL d   1       3.682  -1.202   5.617  0.00  0.00     0.002 A 
ATOM      6  C7  UNL d   1       3.376  -0.995   4.271  0.00  0.00     0.002 A 
ENDROOT
BRANCH   1   7
ATOM      7  C1  UNL d   1       3.436  -1.704   1.850  0.00  0.00     0.055 C 
ATOM      8  C   UNL d   1       4.550  -2.167   0.923  0.00  0.00     0.019 C 
ENDBRANCH   1   7
TORSDOF 1
ENDMDL
