MODEL 1
REMARK minimizedAffinity -4.27869987
REMARK minimizedRMSD -1
REMARK  1 active torsions:
REMARK  status: ('A' for Active; 'I' for Inactive)
REMARK    1  A    between atoms: C1_2  and  C2_3 
ROOT
ATOM      1  C2  UNL d   1       4.818   3.391  -4.861  0.00  0.00    -0.077 A 
ATOM      2  C3  UNL d   1       5.994   3.682  -4.155  0.00  0.00     0.002 A 
ATOM      3  C4  UNL d   1       5.981   4.615  -3.116  0.00  0.00     0.002 A 
ATOM      4  C5  UNL d   1       4.796   5.260  -2.771  0.00  0.00    -0.004 A 
ATOM      5  C6  UNL d   1       3.621   4.979  -3.468  0.00  0.00     0.002 A 
ATOM      6  C7  UNL d   1       3.632   4.048  -4.508  0.00  0.00     0.002 A 
ENDROOT
BRANCH   1   7
ATOM      7  C1  UNL d   1       4.819   2.350  -5.950  0.00  0.00     0.055 C 
ATOM      8  C   UNL d   1       5.477   1.060  -5.482  0.00  0.00     0.019 C 
ENDBRANCH   1   7
TORSDOF 1
ENDMDL
