MODEL 1
REMARK minimizedAffinity -4.37619305
REMARK minimizedRMSD -1
REMARK  1 active torsions:
REMARK  status: ('A' for Active; 'I' for Inactive)
REMARK    1  A    between atoms: C1_2  and  C2_3 
ROOT
ATOM      1  C2  UNL d   1       5.192   3.388  -5.274  0.00  0.00    -0.077 A 
ATOM      2  C3  UNL d   1       4.389   4.279  -6.000  0.00  0.00     0.002 A 
ATOM      3  C4  UNL d   1       3.676   5.284  -5.342  0.00  0.00     0.002 A 
ATOM      4  C5  UNL d   1       3.763   5.409  -3.957  0.00  0.00    -0.004 A 
ATOM      5  C6  UNL d   1       4.558   4.526  -3.226  0.00  0.00     0.002 A 
ATOM      6  C7  UNL d   1       5.269   3.521  -3.882  0.00  0.00     0.002 A 
ENDROOT
BRANCH   1   7
ATOM      7  C1  UNL d   1       6.000   2.335  -5.987  0.00  0.00     0.055 C 
ATOM      8  C   UNL d   1       5.643   0.939  -5.499  0.00  0.00     0.019 C 
ENDBRANCH   1   7
TORSDOF 1
ENDMDL
