MODEL 1
REMARK minimizedAffinity -2.41675019
REMARK minimizedRMSD -1
REMARK  1 active torsions:
REMARK  status: ('A' for Active; 'I' for Inactive)
REMARK    1  A    between atoms: C1_2  and  C2_3 
ROOT
ATOM      1  C2  UNL d   1       5.359   3.736  -3.752  0.00  0.00    -0.077 A 
ATOM      2  C3  UNL d   1       5.999   4.479  -2.749  0.00  0.00     0.002 A 
ATOM      3  C4  UNL d   1       5.383   5.607  -2.204  0.00  0.00     0.002 A 
ATOM      4  C5  UNL d   1       4.124   6.000  -2.651  0.00  0.00    -0.004 A 
ATOM      5  C6  UNL d   1       3.479   5.269  -3.648  0.00  0.00     0.002 A 
ATOM      6  C7  UNL d   1       4.094   4.142  -4.196  0.00  0.00     0.002 A 
ENDROOT
BRANCH   1   7
ATOM      7  C1  UNL d   1       5.999   2.491  -4.307  0.00  0.00     0.055 C 
ATOM      8  C   UNL d   1       5.961   2.480  -5.828  0.00  0.00     0.019 C 
ENDBRANCH   1   7
TORSDOF 1
ENDMDL
