MODEL 1
REMARK minimizedAffinity -1.95502031
REMARK minimizedRMSD -1
REMARK  1 active torsions:
REMARK  status: ('A' for Active; 'I' for Inactive)
REMARK    1  A    between atoms: C1_2  and  C2_3 
ROOT
ATOM      1  C2  UNL d   1       5.362   2.741  -5.422  0.00  0.00    -0.077 A 
ATOM      2  C3  UNL d   1       4.302   2.826  -4.509  0.00  0.00     0.002 A 
ATOM      3  C4  UNL d   1       3.888   4.067  -4.020  0.00  0.00     0.002 A 
ATOM      4  C5  UNL d   1       4.526   5.231  -4.441  0.00  0.00    -0.004 A 
ATOM      5  C6  UNL d   1       5.584   5.157  -5.347  0.00  0.00     0.002 A 
ATOM      6  C7  UNL d   1       5.999   3.918  -5.836  0.00  0.00     0.002 A 
ENDROOT
BRANCH   1   7
ATOM      7  C1  UNL d   1       5.778   1.408  -5.988  0.00  0.00     0.055 C 
ATOM      8  C   UNL d   1       5.160   0.258  -5.206  0.00  0.00     0.019 C 
ENDBRANCH   1   7
TORSDOF 1
ENDMDL
