MODEL 1
REMARK minimizedAffinity -0.0397015549
REMARK minimizedRMSD -1
REMARK  1 active torsions:
REMARK  status: ('A' for Active; 'I' for Inactive)
REMARK    1  A    between atoms: C1_2  and  C2_3 
ROOT
ATOM      1  C2  UNL d   1       5.943   5.123  -3.388  0.00  0.00    -0.077 A 
ATOM      2  C3  UNL d   1       5.977   3.739  -3.608  0.00  0.00     0.002 A 
ATOM      3  C4  UNL d   1       5.999   3.230  -4.908  0.00  0.00     0.002 A 
ATOM      4  C5  UNL d   1       5.991   4.099  -5.998  0.00  0.00    -0.004 A 
ATOM      5  C6  UNL d   1       5.956   5.477  -5.789  0.00  0.00     0.002 A 
ATOM      6  C7  UNL d   1       5.933   5.987  -4.490  0.00  0.00     0.002 A 
ENDROOT
BRANCH   1   7
ATOM      7  C1  UNL d   1       5.969   5.674  -1.986  0.00  0.00     0.055 C 
ATOM      8  C   UNL d   1       4.782   5.177  -1.174  0.00  0.00     0.019 C 
ENDBRANCH   1   7
TORSDOF 1
ENDMDL
