MODEL 1
REMARK minimizedAffinity 11.1622219
REMARK minimizedRMSD -1
REMARK  1 active torsions:
REMARK  status: ('A' for Active; 'I' for Inactive)
REMARK    1  A    between atoms: C1_2  and  C2_3 
ROOT
ATOM      1  C2  UNL d   1       5.153   3.817  -1.340  0.00  0.00    -0.077 A 
ATOM      2  C3  UNL d   1       3.805   3.506  -1.114  0.00  0.00     0.002 A 
ATOM      3  C4  UNL d   1       3.315   2.232  -1.408  0.00  0.00     0.002 A 
ATOM      4  C5  UNL d   1       4.167   1.259  -1.927  0.00  0.00    -0.004 A 
ATOM      5  C6  UNL d   1       5.508   1.559  -2.158  0.00  0.00     0.002 A 
ATOM      6  C7  UNL d   1       6.000   2.832  -1.865  0.00  0.00     0.002 A 
ENDROOT
BRANCH   1   7
ATOM      7  C1  UNL d   1       5.695   5.175  -0.977  0.00  0.00     0.055 C 
ATOM      8  C   UNL d   1       5.999   6.000  -2.219  0.00  0.00     0.019 C 
ENDBRANCH   1   7
TORSDOF 1
ENDMDL
