MODEL 1
REMARK minimizedAffinity -1.04829288
REMARK minimizedRMSD -1
REMARK  1 active torsions:
REMARK  status: ('A' for Active; 'I' for Inactive)
REMARK    1  A    between atoms: C1_2  and  C2_3 
ROOT
ATOM      1  C2  UNL d   1      -4.010   2.119  -2.996  0.00  0.00    -0.077 A 
ATOM      2  C3  UNL d   1      -4.497   2.126  -4.311  0.00  0.00     0.002 A 
ATOM      3  C4  UNL d   1      -3.772   1.515  -5.336  0.00  0.00     0.002 A 
ATOM      4  C5  UNL d   1      -2.559   0.890  -5.056  0.00  0.00    -0.004 A 
ATOM      5  C6  UNL d   1      -2.065   0.880  -3.752  0.00  0.00     0.002 A 
ATOM      6  C7  UNL d   1      -2.788   1.491  -2.727  0.00  0.00     0.002 A 
ENDROOT
BRANCH   1   7
ATOM      7  C1  UNL d   1      -4.815   2.734  -1.881  0.00  0.00     0.055 C 
ATOM      8  C   UNL d   1      -5.999   1.857  -1.503  0.00  0.00     0.019 C 
ENDBRANCH   1   7
TORSDOF 1
ENDMDL
