MODEL 1
REMARK minimizedAffinity 7.6738472
REMARK minimizedRMSD -1
REMARK  1 active torsions:
REMARK  status: ('A' for Active; 'I' for Inactive)
REMARK    1  A    between atoms: C1_2  and  C2_3 
ROOT
ATOM      1  C2  UNL d   1       0.318   1.845   0.316  0.00  0.00    -0.077 A 
ATOM      2  C3  UNL d   1       0.583   1.160   1.510  0.00  0.00     0.002 A 
ATOM      3  C4  UNL d   1      -0.026   1.558   2.702  0.00  0.00     0.002 A 
ATOM      4  C5  UNL d   1      -0.906   2.638   2.711  0.00  0.00    -0.004 A 
ATOM      5  C6  UNL d   1      -1.174   3.327   1.528  0.00  0.00     0.002 A 
ATOM      6  C7  UNL d   1      -0.566   2.931   0.336  0.00  0.00     0.002 A 
ENDROOT
BRANCH   1   7
ATOM      7  C1  UNL d   1       0.935   1.387  -0.980  0.00  0.00     0.055 C 
ATOM      8  C   UNL d   1       1.456  -0.039  -0.872  0.00  0.00     0.019 C 
ENDBRANCH   1   7
TORSDOF 1
ENDMDL
