MODEL 1
REMARK minimizedAffinity 0.15583615
REMARK minimizedRMSD -1
REMARK  1 active torsions:
REMARK  status: ('A' for Active; 'I' for Inactive)
REMARK    1  A    between atoms: C1_2  and  C2_3 
ROOT
ATOM      1  C2  UNL d   1       2.157   0.768   0.313  0.00  0.00    -0.077 A 
ATOM      2  C3  UNL d   1       0.823   0.750  -0.117  0.00  0.00     0.002 A 
ATOM      3  C4  UNL d   1       0.105   1.941  -0.242  0.00  0.00     0.002 A 
ATOM      4  C5  UNL d   1       0.714   3.158   0.056  0.00  0.00    -0.004 A 
ATOM      5  C6  UNL d   1       2.040   3.186   0.487  0.00  0.00     0.002 A 
ATOM      6  C7  UNL d   1       2.759   1.997   0.614  0.00  0.00     0.002 A 
ENDROOT
BRANCH   1   7
ATOM      7  C1  UNL d   1       2.948  -0.511   0.402  0.00  0.00     0.055 C 
ATOM      8  C   UNL d   1       2.141  -1.697  -0.106  0.00  0.00     0.019 C 
ENDBRANCH   1   7
TORSDOF 1
ENDMDL
