MODEL 1
REMARK minimizedAffinity 7.40014124
REMARK minimizedRMSD -1
REMARK  1 active torsions:
REMARK  status: ('A' for Active; 'I' for Inactive)
REMARK    1  A    between atoms: C1_2  and  C2_3 
ROOT
ATOM      1  C2  UNL d   1       4.778   5.172   3.613  0.00  0.00    -0.077 A 
ATOM      2  C3  UNL d   1       4.345   3.839   3.651  0.00  0.00     0.002 A 
ATOM      3  C4  UNL d   1       4.407   3.111   4.840  0.00  0.00     0.002 A 
ATOM      4  C5  UNL d   1       4.897   3.707   6.000  0.00  0.00    -0.004 A 
ATOM      5  C6  UNL d   1       5.332   5.031   5.972  0.00  0.00     0.002 A 
ATOM      6  C7  UNL d   1       5.272   5.761   4.784  0.00  0.00     0.002 A 
ENDROOT
BRANCH   1   7
ATOM      7  C1  UNL d   1       4.667   5.975   2.343  0.00  0.00     0.055 C 
ATOM      8  C   UNL d   1       5.987   6.000   1.586  0.00  0.00     0.019 C 
ENDBRANCH   1   7
TORSDOF 1
ENDMDL
