MODEL 1
REMARK minimizedAffinity 3.92884922
REMARK minimizedRMSD -1
REMARK  1 active torsions:
REMARK  status: ('A' for Active; 'I' for Inactive)
REMARK    1  A    between atoms: C1_2  and  C2_3 
ROOT
ATOM      1  C2  UNL d   1       1.976   0.146   0.804  0.00  0.00    -0.077 A 
ATOM      2  C3  UNL d   1       2.335  -0.628   1.917  0.00  0.00     0.002 A 
ATOM      3  C4  UNL d   1       2.903  -1.892   1.744  0.00  0.00     0.002 A 
ATOM      4  C5  UNL d   1       3.121  -2.390   0.461  0.00  0.00    -0.004 A 
ATOM      5  C6  UNL d   1       2.766  -1.628  -0.651  0.00  0.00     0.002 A 
ATOM      6  C7  UNL d   1       2.197  -0.365  -0.481  0.00  0.00     0.002 A 
ENDROOT
BRANCH   1   7
ATOM      7  C1  UNL d   1       1.409   1.530   0.988  0.00  0.00     0.055 C 
ATOM      8  C   UNL d   1       0.420   1.874  -0.116  0.00  0.00     0.019 C 
ENDBRANCH   1   7
TORSDOF 1
ENDMDL
