MODEL 1
REMARK minimizedAffinity 8.95120811
REMARK minimizedRMSD -1
REMARK  1 active torsions:
REMARK  status: ('A' for Active; 'I' for Inactive)
REMARK    1  A    between atoms: C1_2  and  C2_3 
ROOT
ATOM      1  C2  UNL d   1      -0.470   1.578  -0.336  0.00  0.00    -0.077 A 
ATOM      2  C3  UNL d   1       0.918   1.477  -0.167  0.00  0.00     0.002 A 
ATOM      3  C4  UNL d   1       1.463   1.285   1.104  0.00  0.00     0.002 A 
ATOM      4  C5  UNL d   1       0.627   1.190   2.215  0.00  0.00    -0.004 A 
ATOM      5  C6  UNL d   1      -0.754   1.292   2.058  0.00  0.00     0.002 A 
ATOM      6  C7  UNL d   1      -1.301   1.484   0.788  0.00  0.00     0.002 A 
ENDROOT
BRANCH   1   7
ATOM      7  C1  UNL d   1      -1.063   1.735  -1.712  0.00  0.00     0.055 C 
ATOM      8  C   UNL d   1      -2.002   0.585  -2.044  0.00  0.00     0.019 C 
ENDBRANCH   1   7
TORSDOF 1
ENDMDL
