MODEL 1
REMARK minimizedAffinity 3.44126439
REMARK minimizedRMSD -1
REMARK  1 active torsions:
REMARK  status: ('A' for Active; 'I' for Inactive)
REMARK    1  A    between atoms: C1_2  and  C2_3 
ROOT
ATOM      1  C2  UNL d   1      -0.638   1.603  -0.485  0.00  0.00    -0.077 A 
ATOM      2  C3  UNL d   1      -0.911   1.199  -1.800  0.00  0.00     0.002 A 
ATOM      3  C4  UNL d   1      -2.152   0.649  -2.126  0.00  0.00     0.002 A 
ATOM      4  C5  UNL d   1      -3.131   0.502  -1.145  0.00  0.00    -0.004 A 
ATOM      5  C6  UNL d   1      -2.868   0.899   0.165  0.00  0.00     0.002 A 
ATOM      6  C7  UNL d   1      -1.628   1.448   0.494  0.00  0.00     0.002 A 
ENDROOT
BRANCH   1   7
ATOM      7  C1  UNL d   1       0.682   2.241  -0.142  0.00  0.00     0.055 C 
ATOM      8  C   UNL d   1       1.728   1.194   0.214  0.00  0.00     0.019 C 
ENDBRANCH   1   7
TORSDOF 1
ENDMDL
