MODEL 1
REMARK minimizedAffinity 2.46833158
REMARK minimizedRMSD -1
REMARK  1 active torsions:
REMARK  status: ('A' for Active; 'I' for Inactive)
REMARK    1  A    between atoms: C1_2  and  C2_3 
ROOT
ATOM      1  C2  UNL d   1      -4.874   1.125  -1.172  0.00  0.00    -0.077 A 
ATOM      2  C3  UNL d   1      -5.624   2.271  -0.870  0.00  0.00     0.002 A 
ATOM      3  C4  UNL d   1      -6.000   3.156  -1.883  0.00  0.00     0.002 A 
ATOM      4  C5  UNL d   1      -5.634   2.902  -3.203  0.00  0.00    -0.004 A 
ATOM      5  C6  UNL d   1      -4.886   1.766  -3.513  0.00  0.00     0.002 A 
ATOM      6  C7  UNL d   1      -4.509   0.881  -2.502  0.00  0.00     0.002 A 
ENDROOT
BRANCH   1   7
ATOM      7  C1  UNL d   1      -4.511   0.144  -0.088  0.00  0.00     0.055 C 
ATOM      8  C   UNL d   1      -5.733  -0.619   0.401  0.00  0.00     0.019 C 
ENDBRANCH   1   7
TORSDOF 1
ENDMDL
