MODEL 1
REMARK minimizedAffinity 0.314731628
REMARK minimizedRMSD -1
REMARK  0 active torsions:
REMARK  status: ('A' for Active; 'I' for Inactive)
ROOT
ATOM      1  C   UNL d   1       3.901  -0.450   0.986  0.00  0.00     0.172 C 
ATOM      2  N   UNL d   1       3.305  -0.713  -0.303  0.00  0.00    -0.070 N 
ATOM      3  C1  UNL d   1       2.885  -1.936  -0.754  0.00  0.00    -0.004 A 
ATOM      4  C2  UNL d   1       2.377  -1.766  -2.024  0.00  0.00    -0.047 A 
ATOM      5  C3  UNL d   1       2.497  -0.394  -2.348  0.00  0.00    -0.047 A 
ATOM      6  C4  UNL d   1       3.075   0.235  -1.265  0.00  0.00    -0.004 A 
ENDROOT
TORSDOF 0
ENDMDL
