MODEL 1
REMARK minimizedAffinity 1.61345983
REMARK minimizedRMSD -1
REMARK  0 active torsions:
REMARK  status: ('A' for Active; 'I' for Inactive)
ROOT
ATOM      1  C   UNL d   1      -5.645   3.155   4.125  0.00  0.00     0.172 C 
ATOM      2  N   UNL d   1      -5.741   1.777   4.545  0.00  0.00    -0.070 N 
ATOM      3  C1  UNL d   1      -5.624   1.325   5.832  0.00  0.00    -0.004 A 
ATOM      4  C2  UNL d   1      -5.775  -0.044   5.815  0.00  0.00    -0.047 A 
ATOM      5  C3  UNL d   1      -5.990  -0.429   4.470  0.00  0.00    -0.047 A 
ATOM      6  C4  UNL d   1      -5.963   0.718   3.705  0.00  0.00    -0.004 A 
ENDROOT
TORSDOF 0
ENDMDL
