MODEL 1
REMARK minimizedAffinity 6.86320877
REMARK minimizedRMSD -1
REMARK  0 active torsions:
REMARK  status: ('A' for Active; 'I' for Inactive)
ROOT
ATOM      1  C   UNL d   1      -6.000  -1.719   2.293  0.00  0.00     0.172 C 
ATOM      2  N   UNL d   1      -5.537  -0.935   3.414  0.00  0.00    -0.070 N 
ATOM      3  C1  UNL d   1      -4.577   0.040   3.364  0.00  0.00    -0.004 A 
ATOM      4  C2  UNL d   1      -4.424   0.547   4.636  0.00  0.00    -0.047 A 
ATOM      5  C3  UNL d   1      -5.323  -0.148   5.480  0.00  0.00    -0.047 A 
ATOM      6  C4  UNL d   1      -6.000  -1.060   4.697  0.00  0.00    -0.004 A 
ENDROOT
TORSDOF 0
ENDMDL
