MODEL 1
REMARK minimizedAffinity 5.71006775
REMARK minimizedRMSD -1
REMARK  0 active torsions:
REMARK  status: ('A' for Active; 'I' for Inactive)
ROOT
ATOM      1  C   UNL d   1       0.778   0.267  -1.579  0.00  0.00     0.172 C 
ATOM      2  N   UNL d   1       1.021   1.412  -2.425  0.00  0.00    -0.070 N 
ATOM      3  C1  UNL d   1       0.982   2.721  -2.027  0.00  0.00    -0.004 A 
ATOM      4  C2  UNL d   1       1.269   3.505  -3.124  0.00  0.00    -0.047 A 
ATOM      5  C3  UNL d   1       1.487   2.636  -4.220  0.00  0.00    -0.047 A 
ATOM      6  C4  UNL d   1       1.327   1.346  -3.759  0.00  0.00    -0.004 A 
ENDROOT
TORSDOF 0
ENDMDL
