MODEL 1
REMARK minimizedAffinity -0.310834944
REMARK minimizedRMSD -1
REMARK  0 active torsions:
REMARK  status: ('A' for Active; 'I' for Inactive)
ROOT
ATOM      1  C   UNL d   1       2.292   0.918  -2.517  0.00  0.00     0.172 C 
ATOM      2  N   UNL d   1       2.193  -0.336  -1.807  0.00  0.00    -0.070 N 
ATOM      3  C1  UNL d   1       3.195  -0.924  -1.082  0.00  0.00    -0.004 A 
ATOM      4  C2  UNL d   1       2.704  -2.103  -0.563  0.00  0.00    -0.047 A 
ATOM      5  C3  UNL d   1       1.361  -2.227  -0.990  0.00  0.00    -0.047 A 
ATOM      6  C4  UNL d   1       1.070  -1.120  -1.759  0.00  0.00    -0.004 A 
ENDROOT
TORSDOF 0
ENDMDL
