MODEL 1
REMARK minimizedAffinity 0.707339704
REMARK minimizedRMSD -1
REMARK  0 active torsions:
REMARK  status: ('A' for Active; 'I' for Inactive)
ROOT
ATOM      1  C   UNL d   1       1.905   0.893  -2.293  0.00  0.00     0.172 C 
ATOM      2  N   UNL d   1       1.905  -0.374  -1.600  0.00  0.00    -0.070 N 
ATOM      3  C1  UNL d   1       2.994  -1.184  -1.418  0.00  0.00    -0.004 A 
ATOM      4  C2  UNL d   1       2.582  -2.293  -0.710  0.00  0.00    -0.047 A 
ATOM      5  C3  UNL d   1       1.197  -2.144  -0.459  0.00  0.00    -0.047 A 
ATOM      6  C4  UNL d   1       0.804  -0.947  -1.020  0.00  0.00    -0.004 A 
ENDROOT
TORSDOF 0
ENDMDL
