MODEL 1
REMARK minimizedAffinity 2.41197586
REMARK minimizedRMSD -1
REMARK  0 active torsions:
REMARK  status: ('A' for Active; 'I' for Inactive)
ROOT
ATOM      1  C   UNL d   1       0.350  -2.683  -2.637  0.00  0.00     0.172 C 
ATOM      2  N   UNL d   1       1.369  -1.976  -1.897  0.00  0.00    -0.070 N 
ATOM      3  C1  UNL d   1       2.128  -2.498  -0.885  0.00  0.00    -0.004 A 
ATOM      4  C2  UNL d   1       2.979  -1.509  -0.442  0.00  0.00    -0.047 A 
ATOM      5  C3  UNL d   1       2.722  -0.351  -1.215  0.00  0.00    -0.047 A 
ATOM      6  C4  UNL d   1       1.720  -0.668  -2.108  0.00  0.00    -0.004 A 
ENDROOT
TORSDOF 0
ENDMDL
