MODEL 1
REMARK minimizedAffinity 0.943394601
REMARK minimizedRMSD -1
REMARK  0 active torsions:
REMARK  status: ('A' for Active; 'I' for Inactive)
ROOT
ATOM      1  C   UNL d   1       0.931   1.795   0.975  0.00  0.00     0.172 C 
ATOM      2  N   UNL d   1       1.399   1.417  -0.337  0.00  0.00    -0.070 N 
ATOM      3  C1  UNL d   1       0.610   1.014  -1.382  0.00  0.00    -0.004 A 
ATOM      4  C2  UNL d   1       1.433   0.744  -2.453  0.00  0.00    -0.047 A 
ATOM      5  C3  UNL d   1       2.764   0.991  -2.038  0.00  0.00    -0.047 A 
ATOM      6  C4  UNL d   1       2.713   1.406  -0.724  0.00  0.00    -0.004 A 
ENDROOT
TORSDOF 0
ENDMDL
