MODEL 1
REMARK minimizedAffinity -0.0627602711
REMARK minimizedRMSD -1
REMARK  0 active torsions:
REMARK  status: ('A' for Active; 'I' for Inactive)
ROOT
ATOM      1  C   UNL d   1       1.869   0.498  -1.398  0.00  0.00     0.172 C 
ATOM      2  N   UNL d   1       1.003   1.286  -0.553  0.00  0.00    -0.070 N 
ATOM      3  C1  UNL d   1      -0.281   1.656  -0.851  0.00  0.00    -0.004 A 
ATOM      4  C2  UNL d   1      -0.763   2.397   0.207  0.00  0.00    -0.047 A 
ATOM      5  C3  UNL d   1       0.268   2.477   1.173  0.00  0.00    -0.047 A 
ATOM      6  C4  UNL d   1       1.350   1.780   0.677  0.00  0.00    -0.004 A 
ENDROOT
TORSDOF 0
ENDMDL
