MODEL 1
REMARK minimizedAffinity -0.479531109
REMARK minimizedRMSD -1
REMARK  0 active torsions:
REMARK  status: ('A' for Active; 'I' for Inactive)
ROOT
ATOM      1  C   UNL d   1       1.350   1.844  -2.285  0.00  0.00     0.172 C 
ATOM      2  N   UNL d   1       2.214   0.723  -2.002  0.00  0.00    -0.070 N 
ATOM      3  C1  UNL d   1       1.936  -0.589  -2.278  0.00  0.00    -0.004 A 
ATOM      4  C2  UNL d   1       3.009  -1.346  -1.857  0.00  0.00    -0.047 A 
ATOM      5  C3  UNL d   1       3.964  -0.458  -1.309  0.00  0.00    -0.047 A 
ATOM      6  C4  UNL d   1       3.447   0.816  -1.411  0.00  0.00    -0.004 A 
ENDROOT
TORSDOF 0
ENDMDL
