MODEL 1
REMARK minimizedAffinity 7.02148676
REMARK minimizedRMSD -1
REMARK  0 active torsions:
REMARK  status: ('A' for Active; 'I' for Inactive)
ROOT
ATOM      1  C   UNL d   1       0.032   1.669  -1.152  0.00  0.00     0.172 C 
ATOM      2  N   UNL d   1       0.368   2.091   0.188  0.00  0.00    -0.070 N 
ATOM      3  C1  UNL d   1       1.634   2.192   0.699  0.00  0.00    -0.004 A 
ATOM      4  C2  UNL d   1       1.529   2.626   2.003  0.00  0.00    -0.047 A 
ATOM      5  C3  UNL d   1       0.152   2.790   2.285  0.00  0.00    -0.047 A 
ATOM      6  C4  UNL d   1      -0.544   2.451   1.144  0.00  0.00    -0.004 A 
ENDROOT
TORSDOF 0
ENDMDL
