MODEL 1
REMARK minimizedAffinity 7.20999432
REMARK minimizedRMSD -1
REMARK  0 active torsions:
REMARK  status: ('A' for Active; 'I' for Inactive)
ROOT
ATOM      1  C   UNL d   1       0.282   2.133  -1.940  0.00  0.00     0.172 C 
ATOM      2  N   UNL d   1       1.239   1.051  -1.937  0.00  0.00    -0.070 N 
ATOM      3  C1  UNL d   1       2.600   1.189  -1.968  0.00  0.00    -0.004 A 
ATOM      4  C2  UNL d   1       3.153  -0.073  -1.952  0.00  0.00    -0.047 A 
ATOM      5  C3  UNL d   1       2.087  -1.002  -1.910  0.00  0.00    -0.047 A 
ATOM      6  C4  UNL d   1       0.913  -0.279  -1.902  0.00  0.00    -0.004 A 
ENDROOT
TORSDOF 0
ENDMDL
