MODEL 1
REMARK minimizedAffinity -1.1837852
REMARK minimizedRMSD -1
REMARK  0 active torsions:
REMARK  status: ('A' for Active; 'I' for Inactive)
ROOT
ATOM      1  C   UNL d   1       1.050   2.254   2.260  0.00  0.00     0.172 C 
ATOM      2  N   UNL d   1       0.498   2.564   0.962  0.00  0.00    -0.070 N 
ATOM      3  C1  UNL d   1      -0.253   3.668   0.657  0.00  0.00    -0.004 A 
ATOM      4  C2  UNL d   1      -0.584   3.597  -0.678  0.00  0.00    -0.047 A 
ATOM      5  C3  UNL d   1      -0.015   2.408  -1.194  0.00  0.00    -0.047 A 
ATOM      6  C4  UNL d   1       0.650   1.788  -0.156  0.00  0.00    -0.004 A 
ENDROOT
TORSDOF 0
ENDMDL
