MODEL 1
REMARK minimizedAffinity 3.96337414
REMARK minimizedRMSD -1
REMARK  2 active torsions:
REMARK  status: ('A' for Active; 'I' for Inactive)
REMARK    1  A    between atoms: C2'_3  and  C1'_4 
REMARK    2  A    between atoms: C1'_4  and  C1_5 
ROOT
ATOM      1  C1  I4B d   1      -1.506  -1.913   0.507  0.00  0.00    -0.075 A 
ATOM      2  C2  I4B d   1      -2.516  -2.833   0.636  0.00  0.00     0.003 A 
ATOM      3  C3  I4B d   1      -2.228  -4.219   0.590  0.00  0.00     0.002 A 
ATOM      4  C4  I4B d   1      -0.932  -4.636   0.366  0.00  0.00    -0.004 A 
ATOM      5  C5  I4B d   1       0.094  -3.702   0.258  0.00  0.00     0.002 A 
ATOM      6  C6  I4B d   1      -0.192  -2.332   0.342  0.00  0.00     0.003 A 
ENDROOT
BRANCH   1   7
ATOM      7  C1' I4B d   1      -1.850  -0.457   0.526  0.00  0.00     0.060 C 
BRANCH   7   8
ATOM      8  C2' I4B d   1      -1.205   0.191  -0.682  0.00  0.00    -0.013 C 
ATOM      9  C4' I4B d   1      -2.236   0.571  -1.712  0.00  0.00     0.013 C 
ATOM     10  C3' I4B d   1      -0.443   1.393  -0.211  0.00  0.00     0.013 C 
ENDBRANCH   7   8
ENDBRANCH   1   7
TORSDOF 2
ENDMDL
