MODEL 1
REMARK minimizedAffinity 10.7628851
REMARK minimizedRMSD -1
REMARK  2 active torsions:
REMARK  status: ('A' for Active; 'I' for Inactive)
REMARK    1  A    between atoms: C2'_3  and  C1'_4 
REMARK    2  A    between atoms: C1'_4  and  C1_5 
ROOT
ATOM      1  C1  I4B d   1      -3.625   2.137  -3.072  0.00  0.00    -0.075 A 
ATOM      2  C2  I4B d   1      -4.163   3.066  -2.216  0.00  0.00     0.003 A 
ATOM      3  C3  I4B d   1      -4.534   4.346  -2.695  0.00  0.00     0.002 A 
ATOM      4  C4  I4B d   1      -4.304   4.670  -4.016  0.00  0.00    -0.004 A 
ATOM      5  C5  I4B d   1      -3.780   3.720  -4.888  0.00  0.00     0.002 A 
ATOM      6  C6  I4B d   1      -3.449   2.441  -4.416  0.00  0.00     0.003 A 
ENDROOT
BRANCH   1   7
ATOM      7  C1' I4B d   1      -3.214   0.806  -2.527  0.00  0.00     0.060 C 
BRANCH   7   8
ATOM      8  C2' I4B d   1      -2.551   1.037  -1.184  0.00  0.00    -0.013 C 
ATOM      9  C4' I4B d   1      -2.564  -0.215  -0.347  0.00  0.00     0.013 C 
ATOM     10  C3' I4B d   1      -1.149   1.506  -1.435  0.00  0.00     0.013 C 
ENDBRANCH   7   8
ENDBRANCH   1   7
TORSDOF 2
ENDMDL
