MODEL 1
REMARK minimizedAffinity 10.4996634
REMARK minimizedRMSD -1
REMARK  2 active torsions:
REMARK  status: ('A' for Active; 'I' for Inactive)
REMARK    1  A    between atoms: C2'_3  and  C1'_4 
REMARK    2  A    between atoms: C1'_4  and  C1_5 
ROOT
ATOM      1  C1  I4B d   1       1.211  -3.377   1.085  0.00  0.00    -0.075 A 
ATOM      2  C2  I4B d   1       2.156  -3.876   0.224  0.00  0.00     0.003 A 
ATOM      3  C3  I4B d   1       1.777  -4.333  -1.062  0.00  0.00     0.002 A 
ATOM      4  C4  I4B d   1       0.445  -4.319  -1.423  0.00  0.00    -0.004 A 
ATOM      5  C5  I4B d   1      -0.508  -3.791  -0.557  0.00  0.00     0.002 A 
ATOM      6  C6  I4B d   1      -0.121  -3.305   0.700  0.00  0.00     0.003 A 
ENDROOT
BRANCH   1   7
ATOM      7  C1' I4B d   1       1.641  -2.933   2.448  0.00  0.00     0.060 C 
BRANCH   7   8
ATOM      8  C2' I4B d   1       0.663  -1.879   2.926  0.00  0.00    -0.013 C 
ATOM      9  C4' I4B d   1       0.520  -1.909   4.425  0.00  0.00     0.013 C 
ATOM     10  C3' I4B d   1       1.155  -0.544   2.455  0.00  0.00     0.013 C 
ENDBRANCH   7   8
ENDBRANCH   1   7
TORSDOF 2
ENDMDL
