MODEL 1
REMARK minimizedAffinity 10.6058111
REMARK minimizedRMSD -1
REMARK  2 active torsions:
REMARK  status: ('A' for Active; 'I' for Inactive)
REMARK    1  A    between atoms: C2'_3  and  C1'_4 
REMARK    2  A    between atoms: C1'_4  and  C1_5 
ROOT
ATOM      1  C1  I4B d   1      -0.095  -3.739   1.277  0.00  0.00    -0.075 A 
ATOM      2  C2  I4B d   1      -0.101  -4.919   0.575  0.00  0.00     0.003 A 
ATOM      3  C3  I4B d   1      -1.285  -5.363  -0.061  0.00  0.00     0.002 A 
ATOM      4  C4  I4B d   1      -2.445  -4.628   0.071  0.00  0.00    -0.004 A 
ATOM      5  C5  I4B d   1      -2.431  -3.421   0.764  0.00  0.00     0.002 A 
ATOM      6  C6  I4B d   1      -1.246  -2.967   1.360  0.00  0.00     0.003 A 
ENDROOT
BRANCH   1   7
ATOM      7  C1' I4B d   1       1.164  -3.316   1.964  0.00  0.00     0.060 C 
BRANCH   7   8
ATOM      8  C2' I4B d   1       0.886  -2.015   2.689  0.00  0.00    -0.013 C 
ATOM      9  C4' I4B d   1       1.097  -2.161   4.173  0.00  0.00     0.013 C 
ATOM     10  C3' I4B d   1       1.788  -0.963   2.116  0.00  0.00     0.013 C 
ENDBRANCH   7   8
ENDBRANCH   1   7
TORSDOF 2
ENDMDL
