MODEL 1
REMARK minimizedAffinity 9.83330727
REMARK minimizedRMSD -1
REMARK  2 active torsions:
REMARK  status: ('A' for Active; 'I' for Inactive)
REMARK    1  A    between atoms: C2'_3  and  C1'_4 
REMARK    2  A    between atoms: C1'_4  and  C1_5 
ROOT
ATOM      1  C1  I4B d   1       1.232  -2.059   3.420  0.00  0.00    -0.075 A 
ATOM      2  C2  I4B d   1       0.775  -1.563   4.616  0.00  0.00     0.003 A 
ATOM      3  C3  I4B d   1       1.212  -2.130   5.837  0.00  0.00     0.002 A 
ATOM      4  C4  I4B d   1       2.061  -3.218   5.816  0.00  0.00    -0.004 A 
ATOM      5  C5  I4B d   1       2.542  -3.706   4.603  0.00  0.00     0.002 A 
ATOM      6  C6  I4B d   1       2.134  -3.115   3.398  0.00  0.00     0.003 A 
ENDROOT
BRANCH   1   7
ATOM      7  C1' I4B d   1       0.725  -1.457   2.148  0.00  0.00     0.060 C 
BRANCH   7   8
ATOM      8  C2' I4B d   1       1.911  -0.893   1.393  0.00  0.00    -0.013 C 
ATOM      9  C4' I4B d   1       2.490  -1.913   0.448  0.00  0.00     0.013 C 
ATOM     10  C3' I4B d   1       1.451   0.329   0.655  0.00  0.00     0.013 C 
ENDBRANCH   7   8
ENDBRANCH   1   7
TORSDOF 2
ENDMDL
