MODEL 1
REMARK minimizedAffinity -5.15778351
REMARK minimizedRMSD -1
REMARK  0 active torsions:
REMARK  status: ('A' for Active; 'I' for Inactive)
ROOT
ATOM      1  O1  BZF d   1       0.530   0.564  -0.226  0.00  0.00    -0.204 OA
ATOM      2  C2  BZF d   1      -0.457   1.203   0.499  0.00  0.00     0.174 A 
ATOM      3  C3  BZF d   1      -1.343   0.312   0.990  0.00  0.00    -0.012 A 
ATOM      4  C3A BZF d   1      -0.830  -0.971   0.621  0.00  0.00    -0.107 A 
ATOM      5  C4  BZF d   1      -1.258  -2.250   0.835  0.00  0.00     0.055 A 
ATOM      6  C5  BZF d   1      -0.567  -3.280   0.278  0.00  0.00    -0.016 A 
ATOM      7  C6  BZF d   1       0.551  -3.067  -0.502  0.00  0.00     0.022 A 
ATOM      8  C7  BZF d   1       1.016  -1.816  -0.738  0.00  0.00     0.029 A 
ATOM      9  C7A BZF d   1       0.340  -0.775  -0.150  0.00  0.00     0.058 A 
ENDROOT
TORSDOF 0
ENDMDL
