MODEL 1
REMARK minimizedAffinity -3.6957612
REMARK minimizedRMSD -1
REMARK  0 active torsions:
REMARK  status: ('A' for Active; 'I' for Inactive)
ROOT
ATOM      1  O1  BZF d   1      -1.717   0.205   0.270  0.00  0.00    -0.204 OA
ATOM      2  C2  BZF d   1      -0.914   1.244  -0.160  0.00  0.00     0.174 A 
ATOM      3  C3  BZF d   1       0.356   0.825  -0.337  0.00  0.00    -0.012 A 
ATOM      4  C3A BZF d   1       0.326  -0.583  -0.086  0.00  0.00    -0.107 A 
ATOM      5  C4  BZF d   1       1.277  -1.563  -0.118  0.00  0.00     0.055 A 
ATOM      6  C5  BZF d   1       0.937  -2.826   0.252  0.00  0.00    -0.016 A 
ATOM      7  C6  BZF d   1      -0.341  -3.143   0.663  0.00  0.00     0.022 A 
ATOM      8  C7  BZF d   1      -1.319  -2.206   0.706  0.00  0.00     0.029 A 
ATOM      9  C7A BZF d   1      -0.987  -0.936   0.302  0.00  0.00     0.058 A 
ENDROOT
TORSDOF 0
ENDMDL
