MODEL 1
REMARK minimizedAffinity -3.52959633
REMARK minimizedRMSD -1
REMARK  0 active torsions:
REMARK  status: ('A' for Active; 'I' for Inactive)
ROOT
ATOM      1  O1  BZF d   1      -1.040   0.322   0.394  0.00  0.00    -0.204 OA
ATOM      2  C2  BZF d   1      -0.354   1.093  -0.525  0.00  0.00     0.174 A 
ATOM      3  C3  BZF d   1       0.733   0.438  -0.982  0.00  0.00    -0.012 A 
ATOM      4  C3A BZF d   1       0.675  -0.856  -0.375  0.00  0.00    -0.107 A 
ATOM      5  C4  BZF d   1       1.469  -1.965  -0.451  0.00  0.00     0.055 A 
ATOM      6  C5  BZF d   1       1.175  -3.042   0.324  0.00  0.00    -0.016 A 
ATOM      7  C6  BZF d   1       0.101  -3.042   1.189  0.00  0.00     0.022 A 
ATOM      8  C7  BZF d   1      -0.718  -1.968   1.295  0.00  0.00     0.029 A 
ATOM      9  C7A BZF d   1      -0.444  -0.890   0.489  0.00  0.00     0.058 A 
ENDROOT
TORSDOF 0
ENDMDL
