MODEL 1
REMARK minimizedAffinity -3.12380099
REMARK minimizedRMSD -1
REMARK  0 active torsions:
REMARK  status: ('A' for Active; 'I' for Inactive)
ROOT
ATOM      1  O1  BZF d   1       1.614   0.457  -0.398  0.00  0.00    -0.204 OA
ATOM      2  C2  BZF d   1       0.881   1.624  -0.306  0.00  0.00     0.174 A 
ATOM      3  C3  BZF d   1      -0.392   1.363   0.055  0.00  0.00    -0.012 A 
ATOM      4  C3A BZF d   1      -0.435  -0.048   0.287  0.00  0.00    -0.107 A 
ATOM      5  C4  BZF d   1      -1.422  -0.905   0.685  0.00  0.00     0.055 A 
ATOM      6  C5  BZF d   1      -1.156  -2.236   0.744  0.00  0.00    -0.016 A 
ATOM      7  C6  BZF d   1       0.081  -2.745   0.409  0.00  0.00     0.022 A 
ATOM      8  C7  BZF d   1       1.092  -1.935   0.013  0.00  0.00     0.029 A 
ATOM      9  C7A BZF d   1       0.837  -0.586  -0.016  0.00  0.00     0.058 A 
ENDROOT
TORSDOF 0
ENDMDL
