MODEL 1
REMARK minimizedAffinity -3.40323019
REMARK minimizedRMSD -1
REMARK  0 active torsions:
REMARK  status: ('A' for Active; 'I' for Inactive)
ROOT
ATOM      1  O1  BZF d   1       1.379   0.747   0.045  0.00  0.00    -0.204 OA
ATOM      2  C2  BZF d   1       0.468   1.785  -0.013  0.00  0.00     0.174 A 
ATOM      3  C3  BZF d   1      -0.792   1.324   0.127  0.00  0.00    -0.012 A 
ATOM      4  C3A BZF d   1      -0.654  -0.078   0.375  0.00  0.00    -0.107 A 
ATOM      5  C4  BZF d   1      -1.549  -1.082   0.612  0.00  0.00     0.055 A 
ATOM      6  C5  BZF d   1      -1.094  -2.356   0.740  0.00  0.00    -0.016 A 
ATOM      7  C6  BZF d   1       0.246  -2.663   0.633  0.00  0.00     0.022 A 
ATOM      8  C7  BZF d   1       1.172  -1.700   0.403  0.00  0.00     0.029 A 
ATOM      9  C7A BZF d   1       0.719  -0.407   0.305  0.00  0.00     0.058 A 
ENDROOT
TORSDOF 0
ENDMDL
