MODEL 1
REMARK minimizedAffinity -2.90367436
REMARK minimizedRMSD -1
REMARK  0 active torsions:
REMARK  status: ('A' for Active; 'I' for Inactive)
ROOT
ATOM      1  O1  BZF d   1      -0.653  -2.382   0.967  0.00  0.00    -0.204 OA
ATOM      2  C2  BZF d   1       0.194  -3.123   0.165  0.00  0.00     0.174 A 
ATOM      3  C3  BZF d   1       0.758  -2.345  -0.782  0.00  0.00    -0.012 A 
ATOM      4  C3A BZF d   1       0.302  -1.019  -0.499  0.00  0.00    -0.107 A 
ATOM      5  C4  BZF d   1       0.531   0.196  -1.080  0.00  0.00     0.055 A 
ATOM      6  C5  BZF d   1      -0.124   1.288  -0.607  0.00  0.00    -0.016 A 
ATOM      7  C6  BZF d   1      -1.018   1.202   0.441  0.00  0.00     0.022 A 
ATOM      8  C7  BZF d   1      -1.274   0.019   1.052  0.00  0.00     0.029 A 
ATOM      9  C7A BZF d   1      -0.588  -1.081   0.598  0.00  0.00     0.058 A 
ENDROOT
TORSDOF 0
ENDMDL
