MODEL 1
REMARK minimizedAffinity -5.47101593
REMARK minimizedRMSD -1
REMARK  0 active torsions:
REMARK  status: ('A' for Active; 'I' for Inactive)
ROOT
ATOM      1  O1  BZF d   1       0.639   0.751  -1.098  0.00  0.00    -0.204 OA
ATOM      2  C2  BZF d   1      -0.099   1.568  -0.264  0.00  0.00     0.174 A 
ATOM      3  C3  BZF d   1      -0.736   0.841   0.677  0.00  0.00    -0.012 A 
ATOM      4  C3A BZF d   1      -0.300  -0.506   0.470  0.00  0.00    -0.107 A 
ATOM      5  C4  BZF d   1      -0.571  -1.687   1.100  0.00  0.00     0.055 A 
ATOM      6  C5  BZF d   1      -0.040  -2.836   0.605  0.00  0.00    -0.016 A 
ATOM      7  C6  BZF d   1       0.761  -2.841  -0.518  0.00  0.00     0.022 A 
ATOM      8  C7  BZF d   1       1.062  -1.694  -1.174  0.00  0.00     0.029 A 
ATOM      9  C7A BZF d   1       0.553  -0.527  -0.657  0.00  0.00     0.058 A 
ENDROOT
TORSDOF 0
ENDMDL
