MODEL 1
REMARK minimizedAffinity -2.83585906
REMARK minimizedRMSD -1
REMARK  0 active torsions:
REMARK  status: ('A' for Active; 'I' for Inactive)
ROOT
ATOM      1  O1  BZF d   1      -0.984   0.818   0.254  0.00  0.00    -0.204 OA
ATOM      2  C2  BZF d   1      -0.257   1.633  -0.592  0.00  0.00     0.174 A 
ATOM      3  C3  BZF d   1       0.725   0.936  -1.199  0.00  0.00    -0.012 A 
ATOM      4  C3A BZF d   1       0.546  -0.418  -0.772  0.00  0.00    -0.107 A 
ATOM      5  C4  BZF d   1       1.202  -1.584  -1.046  0.00  0.00     0.055 A 
ATOM      6  C5  BZF d   1       0.821  -2.721  -0.408  0.00  0.00    -0.016 A 
ATOM      7  C6  BZF d   1      -0.205  -2.728   0.513  0.00  0.00     0.022 A 
ATOM      8  C7  BZF d   1      -0.889  -1.598   0.815  0.00  0.00     0.029 A 
ATOM      9  C7A BZF d   1      -0.529  -0.453   0.147  0.00  0.00     0.058 A 
ENDROOT
TORSDOF 0
ENDMDL
