MODEL 1
REMARK minimizedAffinity -6.1610074
REMARK minimizedRMSD -1
REMARK  0 active torsions:
REMARK  status: ('A' for Active; 'I' for Inactive)
ROOT
ATOM      1  O1  BZF d   1       0.068   0.416  -1.382  0.00  0.00    -0.204 OA
ATOM      2  C2  BZF d   1      -0.488   0.815  -0.182  0.00  0.00     0.174 A 
ATOM      3  C3  BZF d   1      -0.729  -0.249   0.611  0.00  0.00    -0.012 A 
ATOM      4  C3A BZF d   1      -0.212  -1.375  -0.103  0.00  0.00    -0.107 A 
ATOM      5  C4  BZF d   1      -0.140  -2.711   0.174  0.00  0.00     0.055 A 
ATOM      6  C5  BZF d   1       0.360  -3.555  -0.766  0.00  0.00    -0.016 A 
ATOM      7  C6  BZF d   1       0.793  -3.099  -1.994  0.00  0.00     0.022 A 
ATOM      8  C7  BZF d   1       0.746  -1.782  -2.313  0.00  0.00     0.029 A 
ATOM      9  C7A BZF d   1       0.272  -0.923  -1.352  0.00  0.00     0.058 A 
ENDROOT
TORSDOF 0
ENDMDL
