MODEL 1
REMARK minimizedAffinity -3.70169234
REMARK minimizedRMSD -1
REMARK  0 active torsions:
REMARK  status: ('A' for Active; 'I' for Inactive)
ROOT
ATOM      1  O1  BZF d   1      -0.706  -1.453  -1.701  0.00  0.00    -0.204 OA
ATOM      2  C2  BZF d   1      -0.682  -2.474  -0.771  0.00  0.00     0.174 A 
ATOM      3  C3  BZF d   1      -0.307  -2.011   0.439  0.00  0.00    -0.012 A 
ATOM      4  C3A BZF d   1      -0.172  -0.596   0.275  0.00  0.00    -0.107 A 
ATOM      5  C4  BZF d   1       0.162   0.420   1.125  0.00  0.00     0.055 A 
ATOM      6  C5  BZF d   1       0.274   1.682   0.633  0.00  0.00    -0.016 A 
ATOM      7  C6  BZF d   1       0.065   1.962  -0.701  0.00  0.00     0.022 A 
ATOM      8  C7  BZF d   1      -0.273   0.989  -1.581  0.00  0.00     0.029 A 
ATOM      9  C7A BZF d   1      -0.420  -0.282  -1.081  0.00  0.00     0.058 A 
ENDROOT
TORSDOF 0
ENDMDL
