MODEL 1
REMARK minimizedAffinity -4.4017663
REMARK minimizedRMSD -1
REMARK  0 active torsions:
REMARK  status: ('A' for Active; 'I' for Inactive)
ROOT
ATOM      1  O1  BZF d   1       0.215  -3.280   1.026  0.00  0.00    -0.204 OA
ATOM      2  C2  BZF d   1       1.321  -3.389   0.206  0.00  0.00     0.174 A 
ATOM      3  C3  BZF d   1       1.442  -2.301  -0.582  0.00  0.00    -0.012 A 
ATOM      4  C3A BZF d   1       0.395  -1.418  -0.168  0.00  0.00    -0.107 A 
ATOM      5  C4  BZF d   1       0.006  -0.171  -0.564  0.00  0.00     0.055 A 
ATOM      6  C5  BZF d   1      -1.103   0.384  -0.008  0.00  0.00    -0.016 A 
ATOM      7  C6  BZF d   1      -1.849  -0.282   0.942  0.00  0.00     0.022 A 
ATOM      8  C7  BZF d   1      -1.500  -1.519   1.371  0.00  0.00     0.029 A 
ATOM      9  C7A BZF d   1      -0.361  -2.069   0.835  0.00  0.00     0.058 A 
ENDROOT
TORSDOF 0
ENDMDL
