MODEL 1
REMARK minimizedAffinity -2.86885953
REMARK minimizedRMSD -1
REMARK  0 active torsions:
REMARK  status: ('A' for Active; 'I' for Inactive)
ROOT
ATOM      1  O1  BZF d   1      -0.233   0.499  -0.494  0.00  0.00    -0.204 OA
ATOM      2  C2  BZF d   1       0.471   0.219  -1.650  0.00  0.00     0.174 A 
ATOM      3  C3  BZF d   1       0.868  -1.069  -1.668  0.00  0.00    -0.012 A 
ATOM      4  C3A BZF d   1       0.303  -1.654  -0.491  0.00  0.00    -0.107 A 
ATOM      5  C4  BZF d   1       0.330  -2.913   0.038  0.00  0.00     0.055 A 
ATOM      6  C5  BZF d   1      -0.261  -3.137   1.240  0.00  0.00    -0.016 A 
ATOM      7  C6  BZF d   1      -0.884  -2.127   1.943  0.00  0.00     0.022 A 
ATOM      8  C7  BZF d   1      -0.940  -0.863   1.457  0.00  0.00     0.029 A 
ATOM      9  C7A BZF d   1      -0.372  -0.640   0.227  0.00  0.00     0.058 A 
ENDROOT
TORSDOF 0
ENDMDL
