MODEL 1
REMARK minimizedAffinity -4.02607584
REMARK minimizedRMSD -1
REMARK  0 active torsions:
REMARK  status: ('A' for Active; 'I' for Inactive)
ROOT
ATOM      1  O1  BZF d   1      -0.397  -1.620   1.398  0.00  0.00    -0.204 OA
ATOM      2  C2  BZF d   1      -0.293  -2.960   1.080  0.00  0.00     0.174 A 
ATOM      3  C3  BZF d   1      -0.069  -3.123  -0.239  0.00  0.00    -0.012 A 
ATOM      4  C3A BZF d   1       0.061  -1.799  -0.765  0.00  0.00    -0.107 A 
ATOM      5  C4  BZF d   1       0.307  -1.305  -2.014  0.00  0.00     0.055 A 
ATOM      6  C5  BZF d   1       0.300   0.040  -2.206  0.00  0.00    -0.016 A 
ATOM      7  C6  BZF d   1       0.045   0.919  -1.173  0.00  0.00     0.022 A 
ATOM      8  C7  BZF d   1      -0.199   0.476   0.084  0.00  0.00     0.029 A 
ATOM      9  C7A BZF d   1      -0.160  -0.881   0.287  0.00  0.00     0.058 A 
ENDROOT
TORSDOF 0
ENDMDL
