MODEL 1
REMARK minimizedAffinity -6.12802982
REMARK minimizedRMSD -1
REMARK  0 active torsions:
REMARK  status: ('A' for Active; 'I' for Inactive)
ROOT
ATOM      1  O1  BZF d   1       0.241   0.455  -1.307  0.00  0.00    -0.204 OA
ATOM      2  C2  BZF d   1       0.045   1.019  -0.061  0.00  0.00     0.174 A 
ATOM      3  C3  BZF d   1      -0.099   0.063   0.880  0.00  0.00    -0.012 A 
ATOM      4  C3A BZF d   1       0.106  -1.175   0.192  0.00  0.00    -0.107 A 
ATOM      5  C4  BZF d   1       0.106  -2.481   0.591  0.00  0.00     0.055 A 
ATOM      6  C5  BZF d   1       0.266  -3.457  -0.342  0.00  0.00    -0.016 A 
ATOM      7  C6  BZF d   1       0.424  -3.162  -1.680  0.00  0.00     0.022 A 
ATOM      8  C7  BZF d   1       0.435  -1.881  -2.123  0.00  0.00     0.029 A 
ATOM      9  C7A BZF d   1       0.306  -0.892  -1.178  0.00  0.00     0.058 A 
ENDROOT
TORSDOF 0
ENDMDL
