MODEL 1
REMARK minimizedAffinity -3.667346
REMARK minimizedRMSD -1
REMARK  0 active torsions:
REMARK  status: ('A' for Active; 'I' for Inactive)
ROOT
ATOM      1  O1  BZF d   1      -1.421   0.122   0.693  0.00  0.00    -0.204 OA
ATOM      2  C2  BZF d   1      -0.545   1.182   0.562  0.00  0.00     0.174 A 
ATOM      3  C3  BZF d   1       0.712   0.740   0.350  0.00  0.00    -0.012 A 
ATOM      4  C3A BZF d   1       0.599  -0.683   0.256  0.00  0.00    -0.107 A 
ATOM      5  C4  BZF d   1       1.502  -1.684   0.036  0.00  0.00     0.055 A 
ATOM      6  C5  BZF d   1       1.080  -2.975   0.076  0.00  0.00    -0.016 A 
ATOM      7  C6  BZF d   1      -0.234  -3.301   0.339  0.00  0.00     0.022 A 
ATOM      8  C7  BZF d   1      -1.167  -2.343   0.559  0.00  0.00     0.029 A 
ATOM      9  C7A BZF d   1      -0.751  -1.037   0.486  0.00  0.00     0.058 A 
ENDROOT
TORSDOF 0
ENDMDL
