MODEL 1
REMARK minimizedAffinity -2.79541492
REMARK minimizedRMSD -1
REMARK  0 active torsions:
REMARK  status: ('A' for Active; 'I' for Inactive)
ROOT
ATOM      1  O1  BZF d   1       0.670   0.428  -0.981  0.00  0.00    -0.204 OA
ATOM      2  C2  BZF d   1      -0.005   1.561  -0.569  0.00  0.00     0.174 A 
ATOM      3  C3  BZF d   1      -0.946   1.251   0.346  0.00  0.00    -0.012 A 
ATOM      4  C3A BZF d   1      -0.792  -0.151   0.584  0.00  0.00    -0.107 A 
ATOM      5  C4  BZF d   1      -1.427  -1.040   1.404  0.00  0.00     0.055 A 
ATOM      6  C5  BZF d   1      -1.086  -2.354   1.345  0.00  0.00    -0.016 A 
ATOM      7  C6  BZF d   1      -0.118  -2.814   0.476  0.00  0.00     0.022 A 
ATOM      8  C7  BZF d   1       0.544  -1.970  -0.353  0.00  0.00     0.029 A 
ATOM      9  C7A BZF d   1       0.224  -0.637  -0.272  0.00  0.00     0.058 A 
ENDROOT
TORSDOF 0
ENDMDL
