MODEL 1
REMARK minimizedAffinity -3.28736806
REMARK minimizedRMSD -1
REMARK  0 active torsions:
REMARK  status: ('A' for Active; 'I' for Inactive)
ROOT
ATOM      1  O1  BZF d   1      -0.707   1.251  -0.404  0.00  0.00    -0.204 OA
ATOM      2  C2  BZF d   1       0.160   1.510  -1.447  0.00  0.00     0.174 A 
ATOM      3  C3  BZF d   1       0.938   0.437  -1.701  0.00  0.00    -0.012 A 
ATOM      4  C3A BZF d   1       0.468  -0.585  -0.817  0.00  0.00    -0.107 A 
ATOM      5  C4  BZF d   1       0.831  -1.885  -0.608  0.00  0.00     0.055 A 
ATOM      6  C5  BZF d   1       0.221  -2.591   0.380  0.00  0.00    -0.016 A 
ATOM      7  C6  BZF d   1      -0.751  -2.027   1.181  0.00  0.00     0.022 A 
ATOM      8  C7  BZF d   1      -1.148  -0.743   1.008  0.00  0.00     0.029 A 
ATOM      9  C7A BZF d   1      -0.557  -0.038  -0.012  0.00  0.00     0.058 A 
ENDROOT
TORSDOF 0
ENDMDL
