MODEL 1
REMARK minimizedAffinity -2.282933
REMARK minimizedRMSD -1
REMARK  0 active torsions:
REMARK  status: ('A' for Active; 'I' for Inactive)
ROOT
ATOM      1  O1  BZF d   1       1.422   1.175  -0.844  0.00  0.00    -0.204 OA
ATOM      2  C2  BZF d   1       0.085   0.902  -1.062  0.00  0.00     0.174 A 
ATOM      3  C3  BZF d   1      -0.696   1.712  -0.318  0.00  0.00    -0.012 A 
ATOM      4  C3A BZF d   1       0.207   2.605   0.341  0.00  0.00    -0.107 A 
ATOM      5  C4  BZF d   1       0.033   3.648   1.204  0.00  0.00     0.055 A 
ATOM      6  C5  BZF d   1       1.127   4.267   1.721  0.00  0.00    -0.016 A 
ATOM      7  C6  BZF d   1       2.407   3.866   1.402  0.00  0.00     0.022 A 
ATOM      8  C7  BZF d   1       2.630   2.839   0.546  0.00  0.00     0.029 A 
ATOM      9  C7A BZF d   1       1.527   2.233  -0.004  0.00  0.00     0.058 A 
ENDROOT
TORSDOF 0
ENDMDL
