MODEL 1
REMARK minimizedAffinity -1.42114031
REMARK minimizedRMSD -1
REMARK  0 active torsions:
REMARK  status: ('A' for Active; 'I' for Inactive)
ROOT
ATOM      1  O1  BZF d   1       1.587   0.456  -0.445  0.00  0.00    -0.204 OA
ATOM      2  C2  BZF d   1       0.868   1.613  -0.214  0.00  0.00     0.174 A 
ATOM      3  C3  BZF d   1      -0.347   1.326   0.298  0.00  0.00    -0.012 A 
ATOM      4  C3A BZF d   1      -0.353  -0.093   0.479  0.00  0.00    -0.107 A 
ATOM      5  C4  BZF d   1      -1.277  -0.973   0.968  0.00  0.00     0.055 A 
ATOM      6  C5  BZF d   1      -1.000  -2.304   0.940  0.00  0.00    -0.016 A 
ATOM      7  C6  BZF d   1       0.185  -2.788   0.428  0.00  0.00     0.022 A 
ATOM      8  C7  BZF d   1       1.134  -1.954  -0.063  0.00  0.00     0.029 A 
ATOM      9  C7A BZF d   1       0.871  -0.607  -0.007  0.00  0.00     0.058 A 
ENDROOT
TORSDOF 0
ENDMDL
