MODEL 1
REMARK minimizedAffinity -3.62735391
REMARK minimizedRMSD -1
REMARK  0 active torsions:
REMARK  status: ('A' for Active; 'I' for Inactive)
ROOT
ATOM      1  O1  BZF d   1       1.327   1.129   0.363  0.00  0.00    -0.204 OA
ATOM      2  C2  BZF d   1       0.459   2.191   0.202  0.00  0.00     0.174 A 
ATOM      3  C3  BZF d   1      -0.821   1.767   0.204  0.00  0.00    -0.012 A 
ATOM      4  C3A BZF d   1      -0.752   0.363   0.470  0.00  0.00    -0.107 A 
ATOM      5  C4  BZF d   1      -1.696  -0.614   0.610  0.00  0.00     0.055 A 
ATOM      6  C5  BZF d   1      -1.294  -1.899   0.792  0.00  0.00    -0.016 A 
ATOM      7  C6  BZF d   1       0.041  -2.244   0.833  0.00  0.00     0.022 A 
ATOM      8  C7  BZF d   1       1.014  -1.309   0.704  0.00  0.00     0.029 A 
ATOM      9  C7A BZF d   1       0.611  -0.005   0.553  0.00  0.00     0.058 A 
ENDROOT
TORSDOF 0
ENDMDL
