MODEL 1
REMARK minimizedAffinity -2.07715249
REMARK minimizedRMSD -1
REMARK  2 active torsions:
REMARK  status: ('A' for Active; 'I' for Inactive)
REMARK    1  A    between atoms: C2'_3  and  C1'_4 
REMARK    2  A    between atoms: C1'_4  and  C1_5 
ROOT
ATOM      1  C1  I4B d   1      -3.989  -5.054  -5.231  0.00  0.00    -0.075 A 
ATOM      2  C2  I4B d   1      -3.217  -4.219  -5.999  0.00  0.00     0.003 A 
ATOM      3  C3  I4B d   1      -1.808  -4.217  -5.855  0.00  0.00     0.002 A 
ATOM      4  C4  I4B d   1      -1.221  -5.024  -4.902  0.00  0.00    -0.004 A 
ATOM      5  C5  I4B d   1      -2.003  -5.887  -4.140  0.00  0.00     0.002 A 
ATOM      6  C6  I4B d   1      -3.395  -5.912  -4.314  0.00  0.00     0.003 A 
ENDROOT
BRANCH   1   7
ATOM      7  C1' I4B d   1      -5.476  -5.007  -5.386  0.00  0.00     0.060 C 
BRANCH   7   8
ATOM      8  C2' I4B d   1      -5.999  -3.874  -4.528  0.00  0.00    -0.013 C 
ATOM      9  C4' I4B d   1      -5.170  -3.706  -3.282  0.00  0.00     0.013 C 
ATOM     10  C3' I4B d   1      -5.990  -2.623  -5.356  0.00  0.00     0.013 C 
ENDBRANCH   7   8
ENDBRANCH   1   7
TORSDOF 2
ENDMDL
