MODEL 1
REMARK minimizedAffinity -1.4189235
REMARK minimizedRMSD -1
REMARK  2 active torsions:
REMARK  status: ('A' for Active; 'I' for Inactive)
REMARK    1  A    between atoms: C2'_3  and  C1'_4 
REMARK    2  A    between atoms: C1'_4  and  C1_5 
ROOT
ATOM      1  C1  I4B d   1      -3.838  -4.636  -4.229  0.00  0.00    -0.075 A 
ATOM      2  C2  I4B d   1      -3.990  -5.641  -5.152  0.00  0.00     0.003 A 
ATOM      3  C3  I4B d   1      -2.913  -6.000  -5.999  0.00  0.00     0.002 A 
ATOM      4  C4  I4B d   1      -1.726  -5.299  -5.923  0.00  0.00    -0.004 A 
ATOM      5  C5  I4B d   1      -1.566  -4.297  -4.971  0.00  0.00     0.002 A 
ATOM      6  C6  I4B d   1      -2.625  -3.971  -4.110  0.00  0.00     0.003 A 
ENDROOT
BRANCH   1   7
ATOM      7  C1' I4B d   1      -5.006  -4.261  -3.374  0.00  0.00     0.060 C 
BRANCH   7   8
ATOM      8  C2' I4B d   1      -5.997  -3.510  -4.241  0.00  0.00    -0.013 C 
ATOM      9  C4' I4B d   1      -5.648  -2.048  -4.326  0.00  0.00     0.013 C 
ATOM     10  C3' I4B d   1      -5.999  -4.147  -5.598  0.00  0.00     0.013 C 
ENDBRANCH   7   8
ENDBRANCH   1   7
TORSDOF 2
ENDMDL
