MODEL 1
REMARK minimizedAffinity 0.49059549
REMARK minimizedRMSD -1
REMARK  2 active torsions:
REMARK  status: ('A' for Active; 'I' for Inactive)
REMARK    1  A    between atoms: C2'_3  and  C1'_4 
REMARK    2  A    between atoms: C1'_4  and  C1_5 
ROOT
ATOM      1  C1  I4B d   1      -4.512  -4.553  -4.929  0.00  0.00    -0.075 A 
ATOM      2  C2  I4B d   1      -5.058  -3.754  -5.902  0.00  0.00     0.003 A 
ATOM      3  C3  I4B d   1      -5.567  -2.475  -5.571  0.00  0.00     0.002 A 
ATOM      4  C4  I4B d   1      -5.556  -2.059  -4.255  0.00  0.00    -0.004 A 
ATOM      5  C5  I4B d   1      -4.981  -2.861  -3.274  0.00  0.00     0.002 A 
ATOM      6  C6  I4B d   1      -4.444  -4.111  -3.615  0.00  0.00     0.003 A 
ENDROOT
BRANCH   1   7
ATOM      7  C1' I4B d   1      -4.014  -5.912  -5.309  0.00  0.00     0.060 C 
BRANCH   7   8
ATOM      8  C2' I4B d   1      -2.501  -5.853  -5.373  0.00  0.00    -0.013 C 
ATOM      9  C4' I4B d   1      -2.031  -4.567  -6.000  0.00  0.00     0.013 C 
ATOM     10  C3' I4B d   1      -1.973  -5.999  -3.977  0.00  0.00     0.013 C 
ENDBRANCH   7   8
ENDBRANCH   1   7
TORSDOF 2
ENDMDL
