MODEL 1
REMARK minimizedAffinity -1.68965757
REMARK minimizedRMSD -1
REMARK  2 active torsions:
REMARK  status: ('A' for Active; 'I' for Inactive)
REMARK    1  A    between atoms: C2'_3  and  C1'_4 
REMARK    2  A    between atoms: C1'_4  and  C1_5 
ROOT
ATOM      1  C1  I4B d   1      -4.795  -4.242  -4.950  0.00  0.00    -0.075 A 
ATOM      2  C2  I4B d   1      -3.978  -4.204  -3.847  0.00  0.00     0.003 A 
ATOM      3  C3  I4B d   1      -2.851  -5.057  -3.765  0.00  0.00     0.002 A 
ATOM      4  C4  I4B d   1      -2.609  -5.963  -4.778  0.00  0.00    -0.004 A 
ATOM      5  C5  I4B d   1      -3.425  -5.984  -5.905  0.00  0.00     0.002 A 
ATOM      6  C6  I4B d   1      -4.518  -5.110  -5.998  0.00  0.00     0.003 A 
ENDROOT
BRANCH   1   7
ATOM      7  C1' I4B d   1      -5.995  -3.349  -4.989  0.00  0.00     0.060 C 
BRANCH   7   8
ATOM      8  C2' I4B d   1      -5.584  -2.043  -5.638  0.00  0.00    -0.013 C 
ATOM      9  C4' I4B d   1      -5.972  -0.865  -4.784  0.00  0.00     0.013 C 
ATOM     10  C3' I4B d   1      -4.102  -2.084  -5.863  0.00  0.00     0.013 C 
ENDBRANCH   7   8
ENDBRANCH   1   7
TORSDOF 2
ENDMDL
