MODEL 1
REMARK minimizedAffinity -1.00967634
REMARK minimizedRMSD -1
REMARK  2 active torsions:
REMARK  status: ('A' for Active; 'I' for Inactive)
REMARK    1  A    between atoms: C2'_3  and  C1'_4 
REMARK    2  A    between atoms: C1'_4  and  C1_5 
ROOT
ATOM      1  C1  I4B d   1      -4.126  -4.441  -4.787  0.00  0.00    -0.075 A 
ATOM      2  C2  I4B d   1      -3.798  -5.221  -5.868  0.00  0.00     0.003 A 
ATOM      3  C3  I4B d   1      -2.499  -5.773  -5.981  0.00  0.00     0.002 A 
ATOM      4  C4  I4B d   1      -1.550  -5.481  -5.023  0.00  0.00    -0.004 A 
ATOM      5  C5  I4B d   1      -1.891  -4.709  -3.915  0.00  0.00     0.002 A 
ATOM      6  C6  I4B d   1      -3.190  -4.196  -3.790  0.00  0.00     0.003 A 
ENDROOT
BRANCH   1   7
ATOM      7  C1' I4B d   1      -5.497  -3.847  -4.715  0.00  0.00     0.060 C 
BRANCH   7   8
ATOM      8  C2' I4B d   1      -5.348  -2.347  -4.560  0.00  0.00    -0.013 C 
ATOM      9  C4' I4B d   1      -5.993  -1.614  -5.706  0.00  0.00     0.013 C 
ATOM     10  C3' I4B d   1      -5.963  -1.954  -3.250  0.00  0.00     0.013 C 
ENDBRANCH   7   8
ENDBRANCH   1   7
TORSDOF 2
ENDMDL
