MODEL 1
REMARK minimizedAffinity -3.01528478
REMARK minimizedRMSD -1
REMARK  2 active torsions:
REMARK  status: ('A' for Active; 'I' for Inactive)
REMARK    1  A    between atoms: C2'_3  and  C1'_4 
REMARK    2  A    between atoms: C1'_4  and  C1_5 
ROOT
ATOM      1  C1  I4B d   1      -4.082  -4.578  -4.343  0.00  0.00    -0.075 A 
ATOM      2  C2  I4B d   1      -3.044  -3.683  -4.413  0.00  0.00     0.003 A 
ATOM      3  C3  I4B d   1      -1.944  -3.931  -5.271  0.00  0.00     0.002 A 
ATOM      4  C4  I4B d   1      -1.900  -5.104  -5.996  0.00  0.00    -0.004 A 
ATOM      5  C5  I4B d   1      -2.964  -6.000  -5.942  0.00  0.00     0.002 A 
ATOM      6  C6  I4B d   1      -4.068  -5.730  -5.119  0.00  0.00     0.003 A 
ENDROOT
BRANCH   1   7
ATOM      7  C1' I4B d   1      -5.211  -4.300  -3.403  0.00  0.00     0.060 C 
BRANCH   7   8
ATOM      8  C2' I4B d   1      -6.000  -3.129  -3.954  0.00  0.00    -0.013 C 
ATOM      9  C4' I4B d   1      -5.490  -1.822  -3.406  0.00  0.00     0.013 C 
ATOM     10  C3' I4B d   1      -5.898  -3.166  -5.450  0.00  0.00     0.013 C 
ENDBRANCH   7   8
ENDBRANCH   1   7
TORSDOF 2
ENDMDL
