MODEL 1
REMARK minimizedAffinity -2.95961285
REMARK minimizedRMSD -1
REMARK  2 active torsions:
REMARK  status: ('A' for Active; 'I' for Inactive)
REMARK    1  A    between atoms: C2'_3  and  C1'_4 
REMARK    2  A    between atoms: C1'_4  and  C1_5 
ROOT
ATOM      1  C1  I4B d   1      -4.725  -4.105  -4.620  0.00  0.00    -0.075 A 
ATOM      2  C2  I4B d   1      -4.915  -5.112  -5.533  0.00  0.00     0.003 A 
ATOM      3  C3  I4B d   1      -3.828  -5.926  -5.934  0.00  0.00     0.002 A 
ATOM      4  C4  I4B d   1      -2.566  -5.667  -5.438  0.00  0.00    -0.004 A 
ATOM      5  C5  I4B d   1      -2.379  -4.660  -4.496  0.00  0.00     0.002 A 
ATOM      6  C6  I4B d   1      -3.467  -3.882  -4.075  0.00  0.00     0.003 A 
ENDROOT
BRANCH   1   7
ATOM      7  C1' I4B d   1      -5.888  -3.243  -4.245  0.00  0.00     0.060 C 
BRANCH   7   8
ATOM      8  C2' I4B d   1      -5.477  -1.797  -4.430  0.00  0.00    -0.013 C 
ATOM      9  C4' I4B d   1      -5.999  -1.245  -5.731  0.00  0.00     0.013 C 
ATOM     10  C3' I4B d   1      -5.998  -1.014  -3.262  0.00  0.00     0.013 C 
ENDBRANCH   7   8
ENDBRANCH   1   7
TORSDOF 2
ENDMDL
