MODEL 1
REMARK minimizedAffinity -1.5359509
REMARK minimizedRMSD -1
REMARK  2 active torsions:
REMARK  status: ('A' for Active; 'I' for Inactive)
REMARK    1  A    between atoms: C2'_3  and  C1'_4 
REMARK    2  A    between atoms: C1'_4  and  C1_5 
ROOT
ATOM      1  C1  I4B d   1      -4.792  -3.807  -4.913  0.00  0.00    -0.075 A 
ATOM      2  C2  I4B d   1      -5.024  -4.986  -5.578  0.00  0.00     0.003 A 
ATOM      3  C3  I4B d   1      -3.940  -5.799  -5.987  0.00  0.00     0.002 A 
ATOM      4  C4  I4B d   1      -2.647  -5.374  -5.758  0.00  0.00    -0.004 A 
ATOM      5  C5  I4B d   1      -2.414  -4.190  -5.064  0.00  0.00     0.002 A 
ATOM      6  C6  I4B d   1      -3.493  -3.408  -4.628  0.00  0.00     0.003 A 
ENDROOT
BRANCH   1   7
ATOM      7  C1' I4B d   1      -5.959  -2.957  -4.525  0.00  0.00     0.060 C 
BRANCH   7   8
ATOM      8  C2' I4B d   1      -5.500  -1.513  -4.508  0.00  0.00    -0.013 C 
ATOM      9  C4' I4B d   1      -5.997  -0.769  -5.719  0.00  0.00     0.013 C 
ATOM     10  C3' I4B d   1      -5.999  -0.882  -3.243  0.00  0.00     0.013 C 
ENDBRANCH   7   8
ENDBRANCH   1   7
TORSDOF 2
ENDMDL
