MODEL 1
REMARK minimizedAffinity -3.24570751
REMARK minimizedRMSD -1
REMARK  2 active torsions:
REMARK  status: ('A' for Active; 'I' for Inactive)
REMARK    1  A    between atoms: C2'_3  and  C1'_4 
REMARK    2  A    between atoms: C1'_4  and  C1_5 
ROOT
ATOM      1  C1  I4B d   1      -4.805  -3.550  -5.265  0.00  0.00    -0.075 A 
ATOM      2  C2  I4B d   1      -5.664  -3.359  -4.212  0.00  0.00     0.003 A 
ATOM      3  C3  I4B d   1      -5.999  -2.048  -3.794  0.00  0.00     0.002 A 
ATOM      4  C4  I4B d   1      -5.417  -0.966  -4.420  0.00  0.00    -0.004 A 
ATOM      5  C5  I4B d   1      -4.564  -1.160  -5.503  0.00  0.00     0.002 A 
ATOM      6  C6  I4B d   1      -4.265  -2.460  -5.936  0.00  0.00     0.003 A 
ENDROOT
BRANCH   1   7
ATOM      7  C1' I4B d   1      -4.448  -4.948  -5.660  0.00  0.00     0.060 C 
BRANCH   7   8
ATOM      8  C2' I4B d   1      -3.238  -5.367  -4.848  0.00  0.00    -0.013 C 
ATOM      9  C4' I4B d   1      -1.976  -5.273  -5.663  0.00  0.00     0.013 C 
ATOM     10  C3' I4B d   1      -3.167  -4.487  -3.636  0.00  0.00     0.013 C 
ENDBRANCH   7   8
ENDBRANCH   1   7
TORSDOF 2
ENDMDL
