MODEL 1
REMARK minimizedAffinity -2.79678011
REMARK minimizedRMSD -1
REMARK  2 active torsions:
REMARK  status: ('A' for Active; 'I' for Inactive)
REMARK    1  A    between atoms: C2'_3  and  C1'_4 
REMARK    2  A    between atoms: C1'_4  and  C1_5 
ROOT
ATOM      1  C1  I4B d   1      -4.776  -4.248  -5.151  0.00  0.00    -0.075 A 
ATOM      2  C2  I4B d   1      -4.603  -3.174  -5.988  0.00  0.00     0.003 A 
ATOM      3  C3  I4B d   1      -5.122  -1.905  -5.635  0.00  0.00     0.002 A 
ATOM      4  C4  I4B d   1      -5.845  -1.766  -4.469  0.00  0.00    -0.004 A 
ATOM      5  C5  I4B d   1      -6.000  -2.851  -3.610  0.00  0.00     0.002 A 
ATOM      6  C6  I4B d   1      -5.452  -4.097  -3.947  0.00  0.00     0.003 A 
ENDROOT
BRANCH   1   7
ATOM      7  C1' I4B d   1      -4.244  -5.582  -5.570  0.00  0.00     0.060 C 
BRANCH   7   8
ATOM      8  C2' I4B d   1      -2.871  -5.751  -4.953  0.00  0.00    -0.013 C 
ATOM      9  C4' I4B d   1      -1.790  -5.665  -5.998  0.00  0.00     0.013 C 
ATOM     10  C3' I4B d   1      -2.699  -4.690  -3.907  0.00  0.00     0.013 C 
ENDBRANCH   7   8
ENDBRANCH   1   7
TORSDOF 2
ENDMDL
