MODEL 1
REMARK minimizedAffinity -2.95980716
REMARK minimizedRMSD -1
REMARK  1 active torsions:
REMARK  status: ('A' for Active; 'I' for Inactive)
REMARK    1  A    between atoms: C3_4  and  O_7 
ROOT
ATOM      1  C   UNL d   1       0.367  -0.678   0.840  0.00  0.00    -0.033 A 
ATOM      2  C1  UNL d   1       1.419  -0.367  -0.023  0.00  0.00     0.039 A 
ATOM      3  C2  UNL d   1       1.448   0.866  -0.675  0.00  0.00    -0.080 A 
ATOM      4  C3  UNL d   1       0.420   1.779  -0.456  0.00  0.00     0.150 A 
ATOM      5  C4  UNL d   1      -0.630   1.478   0.405  0.00  0.00    -0.007 A 
ATOM      6  C5  UNL d   1      -0.657   0.245   1.056  0.00  0.00     0.039 A 
ENDROOT
BRANCH   4   7
ATOM      7  O   UNL d   1       0.402   2.994  -1.075  0.00  0.00    -0.526 OA
ATOM      8  H5  UNL d   1       1.174   3.052  -1.662  0.00  0.00     0.418 HD
ENDBRANCH   4   7
TORSDOF 1
ENDMDL
