MODEL 1
REMARK minimizedAffinity -3.5938313
REMARK minimizedRMSD -1
REMARK  1 active torsions:
REMARK  status: ('A' for Active; 'I' for Inactive)
REMARK    1  A    between atoms: C3_4  and  O_7 
ROOT
ATOM      1  C   UNL d   1      -1.538   0.823   1.102  0.00  0.00    -0.033 A 
ATOM      2  C1  UNL d   1      -1.758   1.870   2.000  0.00  0.00     0.039 A 
ATOM      3  C2  UNL d   1      -1.101   3.090   1.827  0.00  0.00    -0.080 A 
ATOM      4  C3  UNL d   1      -0.230   3.250   0.754  0.00  0.00     0.150 A 
ATOM      5  C4  UNL d   1      -0.009   2.213  -0.147  0.00  0.00    -0.007 A 
ATOM      6  C5  UNL d   1      -0.665   0.995   0.028  0.00  0.00     0.039 A 
ENDROOT
BRANCH   4   7
ATOM      7  O   UNL d   1       0.438   4.421   0.547  0.00  0.00    -0.526 OA
ATOM      8  H5  UNL d   1       0.209   5.036   1.263  0.00  0.00     0.418 HD
ENDBRANCH   4   7
TORSDOF 1
ENDMDL
