MODEL 1
REMARK minimizedAffinity -3.03683281
REMARK minimizedRMSD -1
REMARK  1 active torsions:
REMARK  status: ('A' for Active; 'I' for Inactive)
REMARK    1  A    between atoms: C3_4  and  O_7 
ROOT
ATOM      1  C   UNL d   1       1.118   0.468   0.523  0.00  0.00    -0.033 A 
ATOM      2  C1  UNL d   1       1.395   1.782   0.904  0.00  0.00     0.039 A 
ATOM      3  C2  UNL d   1       0.353   2.695   1.081  0.00  0.00    -0.080 A 
ATOM      4  C3  UNL d   1      -0.960   2.281   0.875  0.00  0.00     0.150 A 
ATOM      5  C4  UNL d   1      -1.244   0.972   0.499  0.00  0.00    -0.007 A 
ATOM      6  C5  UNL d   1      -0.202   0.062   0.322  0.00  0.00     0.039 A 
ENDROOT
BRANCH   4   7
ATOM      7  O   UNL d   1      -2.010   3.136   1.031  0.00  0.00    -0.526 OA
ATOM      8  H5  UNL d   1      -1.660   4.013   1.264  0.00  0.00     0.418 HD
ENDBRANCH   4   7
TORSDOF 1
ENDMDL
