MODEL 1
REMARK minimizedAffinity -4.60416794
REMARK minimizedRMSD -1
REMARK  1 active torsions:
REMARK  status: ('A' for Active; 'I' for Inactive)
REMARK    1  A    between atoms: C3_4  and  O_7 
ROOT
ATOM      1  C   UNL d   1       1.077  -0.993   0.795  0.00  0.00    -0.033 A 
ATOM      2  C1  UNL d   1      -0.228  -0.807   0.335  0.00  0.00     0.039 A 
ATOM      3  C2  UNL d   1      -0.639   0.449  -0.115  0.00  0.00    -0.080 A 
ATOM      4  C3  UNL d   1       0.263   1.509  -0.101  0.00  0.00     0.150 A 
ATOM      5  C4  UNL d   1       1.566   1.330   0.352  0.00  0.00    -0.007 A 
ATOM      6  C5  UNL d   1       1.974   0.076   0.802  0.00  0.00     0.039 A 
ENDROOT
BRANCH   4   7
ATOM      7  O   UNL d   1      -0.094   2.755  -0.526  0.00  0.00    -0.526 OA
ATOM      8  H5  UNL d   1      -1.031   2.735  -0.783  0.00  0.00     0.418 HD
ENDBRANCH   4   7
TORSDOF 1
ENDMDL
