MODEL 1
REMARK minimizedAffinity -3.12149668
REMARK minimizedRMSD -1
REMARK  1 active torsions:
REMARK  status: ('A' for Active; 'I' for Inactive)
REMARK    1  A    between atoms: C3_4  and  O_7 
ROOT
ATOM      1  C   UNL d   1       0.004  -1.363   0.614  0.00  0.00    -0.033 A 
ATOM      2  C1  UNL d   1       1.152  -0.760   0.095  0.00  0.00     0.039 A 
ATOM      3  C2  UNL d   1       1.171   0.615  -0.149  0.00  0.00    -0.080 A 
ATOM      4  C3  UNL d   1       0.039   1.374   0.131  0.00  0.00     0.150 A 
ATOM      5  C4  UNL d   1      -1.106   0.781   0.653  0.00  0.00    -0.007 A 
ATOM      6  C5  UNL d   1      -1.124  -0.592   0.894  0.00  0.00     0.039 A 
ENDROOT
BRANCH   4   7
ATOM      7  O   UNL d   1       0.009   2.718  -0.094  0.00  0.00    -0.526 OA
ATOM      8  H5  UNL d   1       0.859   2.984  -0.482  0.00  0.00     0.418 HD
ENDBRANCH   4   7
TORSDOF 1
ENDMDL
