MODEL 1
REMARK minimizedAffinity -5.11781693
REMARK minimizedRMSD -1
REMARK  1 active torsions:
REMARK  status: ('A' for Active; 'I' for Inactive)
REMARK    1  A    between atoms: C3_4  and  O_7 
ROOT
ATOM      1  C   UNL d   1      -0.221   3.131   0.610  0.00  0.00    -0.033 A 
ATOM      2  C1  UNL d   1      -1.342   2.346   0.887  0.00  0.00     0.039 A 
ATOM      3  C2  UNL d   1      -1.472   1.082   0.309  0.00  0.00    -0.080 A 
ATOM      4  C3  UNL d   1      -0.475   0.615  -0.543  0.00  0.00     0.150 A 
ATOM      5  C4  UNL d   1       0.647   1.389  -0.820  0.00  0.00    -0.007 A 
ATOM      6  C5  UNL d   1       0.774   2.652  -0.242  0.00  0.00     0.039 A 
ENDROOT
BRANCH   4   7
ATOM      7  O   UNL d   1      -0.560  -0.611  -1.135  0.00  0.00    -0.526 OA
ATOM      8  H5  UNL d   1      -1.402  -1.020  -0.874  0.00  0.00     0.418 HD
ENDBRANCH   4   7
TORSDOF 1
ENDMDL
