MODEL 1
REMARK minimizedAffinity -3.07414865
REMARK minimizedRMSD -1
REMARK  1 active torsions:
REMARK  status: ('A' for Active; 'I' for Inactive)
REMARK    1  A    between atoms: C3_4  and  O_7 
ROOT
ATOM      1  C   UNL d   1      -0.700   2.656   0.920  0.00  0.00    -0.033 A 
ATOM      2  C1  UNL d   1       0.463   2.335   0.216  0.00  0.00     0.039 A 
ATOM      3  C2  UNL d   1       0.651   1.040  -0.270  0.00  0.00    -0.080 A 
ATOM      4  C3  UNL d   1      -0.329   0.077  -0.048  0.00  0.00     0.150 A 
ATOM      5  C4  UNL d   1      -1.492   0.391   0.648  0.00  0.00    -0.007 A 
ATOM      6  C5  UNL d   1      -1.678   1.685   1.134  0.00  0.00     0.039 A 
ENDROOT
BRANCH   4   7
ATOM      7  O   UNL d   1      -0.188  -1.201  -0.499  0.00  0.00    -0.526 OA
ATOM      8  H5  UNL d   1       0.676  -1.279  -0.937  0.00  0.00     0.418 HD
ENDBRANCH   4   7
TORSDOF 1
ENDMDL
