MODEL 1
REMARK minimizedAffinity -5.2943449
REMARK minimizedRMSD -1
REMARK  1 active torsions:
REMARK  status: ('A' for Active; 'I' for Inactive)
REMARK    1  A    between atoms: C3_4  and  O_7 
ROOT
ATOM      1  C   UNL d   1      -0.005   0.447   0.251  0.00  0.00    -0.033 A 
ATOM      2  C1  UNL d   1      -1.054   1.247   0.711  0.00  0.00     0.039 A 
ATOM      3  C2  UNL d   1      -1.017   2.629   0.517  0.00  0.00    -0.080 A 
ATOM      4  C3  UNL d   1       0.071   3.198  -0.138  0.00  0.00     0.150 A 
ATOM      5  C4  UNL d   1       1.117   2.408  -0.603  0.00  0.00    -0.007 A 
ATOM      6  C5  UNL d   1       1.079   1.028  -0.407  0.00  0.00     0.039 A 
ENDROOT
BRANCH   4   7
ATOM      7  O   UNL d   1       0.154   4.543  -0.346  0.00  0.00    -0.526 OA
ATOM      8  H5  UNL d   1      -0.625   4.965   0.053  0.00  0.00     0.418 HD
ENDBRANCH   4   7
TORSDOF 1
ENDMDL
