MODEL 1
REMARK minimizedAffinity -3.5920558
REMARK minimizedRMSD -1
REMARK  1 active torsions:
REMARK  status: ('A' for Active; 'I' for Inactive)
REMARK    1  A    between atoms: C3_4  and  O_7 
ROOT
ATOM      1  C   UNL d   1      -0.276  -0.583  -0.702  0.00  0.00    -0.033 A 
ATOM      2  C1  UNL d   1       0.362   0.608  -1.055  0.00  0.00     0.039 A 
ATOM      3  C2  UNL d   1       0.187   1.752  -0.275  0.00  0.00    -0.080 A 
ATOM      4  C3  UNL d   1      -0.626   1.693   0.854  0.00  0.00     0.150 A 
ATOM      5  C4  UNL d   1      -1.262   0.509   1.213  0.00  0.00    -0.007 A 
ATOM      6  C5  UNL d   1      -1.086  -0.633   0.432  0.00  0.00     0.039 A 
ENDROOT
BRANCH   4   7
ATOM      7  O   UNL d   1      -0.831   2.785   1.643  0.00  0.00    -0.526 OA
ATOM      8  H5  UNL d   1      -0.353   3.538   1.257  0.00  0.00     0.418 HD
ENDBRANCH   4   7
TORSDOF 1
ENDMDL
