MODEL 1
REMARK minimizedAffinity -2.61761665
REMARK minimizedRMSD -1
REMARK  1 active torsions:
REMARK  status: ('A' for Active; 'I' for Inactive)
REMARK    1  A    between atoms: C3_4  and  O_7 
ROOT
ATOM      1  C   UNL d   1      -0.802   0.439   1.085  0.00  0.00    -0.033 A 
ATOM      2  C1  UNL d   1      -1.620   1.464   1.564  0.00  0.00     0.039 A 
ATOM      3  C2  UNL d   1      -1.319   2.795   1.269  0.00  0.00    -0.080 A 
ATOM      4  C3  UNL d   1      -0.200   3.087   0.495  0.00  0.00     0.150 A 
ATOM      5  C4  UNL d   1       0.617   2.071   0.011  0.00  0.00    -0.007 A 
ATOM      6  C5  UNL d   1       0.316   0.742   0.307  0.00  0.00     0.039 A 
ENDROOT
BRANCH   4   7
ATOM      7  O   UNL d   1       0.137   4.371   0.185  0.00  0.00    -0.526 OA
ATOM      8  H5  UNL d   1      -0.501   4.968   0.611  0.00  0.00     0.418 HD
ENDBRANCH   4   7
TORSDOF 1
ENDMDL
