MODEL 1
REMARK minimizedAffinity -5.45745897
REMARK minimizedRMSD -1
REMARK  1 active torsions:
REMARK  status: ('A' for Active; 'I' for Inactive)
REMARK    1  A    between atoms: C3_4  and  O_7 
ROOT
ATOM      1  C   UNL d   1       0.107   3.144   0.470  0.00  0.00    -0.033 A 
ATOM      2  C1  UNL d   1      -1.019   2.498   0.982  0.00  0.00     0.039 A 
ATOM      3  C2  UNL d   1      -1.136   1.110   0.881  0.00  0.00    -0.080 A 
ATOM      4  C3  UNL d   1      -0.121   0.382   0.267  0.00  0.00     0.150 A 
ATOM      5  C4  UNL d   1       1.005   1.019  -0.242  0.00  0.00    -0.007 A 
ATOM      6  C5  UNL d   1       1.120   2.405  -0.141  0.00  0.00     0.039 A 
ENDROOT
BRANCH   4   7
ATOM      7  O   UNL d   1      -0.193  -0.974   0.140  0.00  0.00    -0.526 OA
ATOM      8  H5  UNL d   1      -1.040  -1.273   0.511  0.00  0.00     0.418 HD
ENDBRANCH   4   7
TORSDOF 1
ENDMDL
