MODEL 1
REMARK minimizedAffinity -4.13617754
REMARK minimizedRMSD -1
REMARK  1 active torsions:
REMARK  status: ('A' for Active; 'I' for Inactive)
REMARK    1  A    between atoms: C3_4  and  O_7 
ROOT
ATOM      1  C   UNL d   1       0.033   0.952  -0.528  0.00  0.00    -0.033 A 
ATOM      2  C1  UNL d   1      -1.117   0.402   0.042  0.00  0.00     0.039 A 
ATOM      3  C2  UNL d   1      -1.750   1.051   1.104  0.00  0.00    -0.080 A 
ATOM      4  C3  UNL d   1      -1.225   2.246   1.586  0.00  0.00     0.150 A 
ATOM      5  C4  UNL d   1      -0.081   2.801   1.021  0.00  0.00    -0.007 A 
ATOM      6  C5  UNL d   1       0.550   2.152  -0.039  0.00  0.00     0.039 A 
ENDROOT
BRANCH   4   7
ATOM      7  O   UNL d   1      -1.805   2.913   2.624  0.00  0.00    -0.526 OA
ATOM      8  H5  UNL d   1      -2.569   2.397   2.933  0.00  0.00     0.418 HD
ENDBRANCH   4   7
TORSDOF 1
ENDMDL
