MODEL 1
REMARK minimizedAffinity -4.55161095
REMARK minimizedRMSD -1
REMARK  1 active torsions:
REMARK  status: ('A' for Active; 'I' for Inactive)
REMARK    1  A    between atoms: C3_4  and  O_7 
ROOT
ATOM      1  C   UNL d   1      -0.301  -0.075   0.286  0.00  0.00    -0.033 A 
ATOM      2  C1  UNL d   1      -1.137   0.747   1.045  0.00  0.00     0.039 A 
ATOM      3  C2  UNL d   1      -0.962   2.132   1.025  0.00  0.00    -0.080 A 
ATOM      4  C3  UNL d   1       0.049   2.682   0.242  0.00  0.00     0.150 A 
ATOM      5  C4  UNL d   1       0.883   1.870  -0.519  0.00  0.00    -0.007 A 
ATOM      6  C5  UNL d   1       0.708   0.487  -0.497  0.00  0.00     0.039 A 
ENDROOT
BRANCH   4   7
ATOM      7  O   UNL d   1       0.261   4.028   0.194  0.00  0.00    -0.526 OA
ATOM      8  H5  UNL d   1      -0.371   4.461   0.793  0.00  0.00     0.418 HD
ENDBRANCH   4   7
TORSDOF 1
ENDMDL
