MODEL 1
REMARK minimizedAffinity -4.02743244
REMARK minimizedRMSD -1
REMARK  1 active torsions:
REMARK  status: ('A' for Active; 'I' for Inactive)
REMARK    1  A    between atoms: C3_4  and  O_7 
ROOT
ATOM      1  C   UNL d   1       2.020   0.976   0.231  0.00  0.00    -0.033 A 
ATOM      2  C1  UNL d   1       2.352  -0.170   0.957  0.00  0.00     0.039 A 
ATOM      3  C2  UNL d   1       1.434  -1.215   1.075  0.00  0.00    -0.080 A 
ATOM      4  C3  UNL d   1       0.189  -1.103   0.461  0.00  0.00     0.150 A 
ATOM      5  C4  UNL d   1      -0.147   0.034  -0.268  0.00  0.00    -0.007 A 
ATOM      6  C5  UNL d   1       0.771   1.077  -0.383  0.00  0.00     0.039 A 
ENDROOT
BRANCH   4   7
ATOM      7  O   UNL d   1      -0.742  -2.094   0.551  0.00  0.00    -0.526 OA
ATOM      8  H5  UNL d   1      -0.382  -2.805   1.109  0.00  0.00     0.418 HD
ENDBRANCH   4   7
TORSDOF 1
ENDMDL
