MODEL 1
REMARK minimizedAffinity -3.39208817
REMARK minimizedRMSD -1
REMARK  1 active torsions:
REMARK  status: ('A' for Active; 'I' for Inactive)
REMARK    1  A    between atoms: C3_4  and  O_7 
ROOT
ATOM      1  C   UNL d   1      -0.729   1.354   0.325  0.00  0.00    -0.033 A 
ATOM      2  C1  UNL d   1      -0.746  -0.028   0.128  0.00  0.00     0.039 A 
ATOM      3  C2  UNL d   1       0.426  -0.772   0.280  0.00  0.00    -0.080 A 
ATOM      4  C3  UNL d   1       1.606  -0.122   0.630  0.00  0.00     0.150 A 
ATOM      5  C4  UNL d   1       1.629   1.254   0.832  0.00  0.00    -0.007 A 
ATOM      6  C5  UNL d   1       0.458   1.995   0.678  0.00  0.00     0.039 A 
ENDROOT
BRANCH   4   7
ATOM      7  O   UNL d   1       2.776  -0.804   0.786  0.00  0.00    -0.526 OA
ATOM      8  H5  UNL d   1       2.615  -1.741   0.587  0.00  0.00     0.418 HD
ENDBRANCH   4   7
TORSDOF 1
ENDMDL
