MODEL 1
REMARK minimizedAffinity -5.0840373
REMARK minimizedRMSD -1
REMARK  0 active torsions:
REMARK  status: ('A' for Active; 'I' for Inactive)
ROOT
ATOM      1  C   UNL d   1       1.326  -0.816   2.028  0.00  0.00     0.077 C 
ATOM      2  C1  UNL d   1       0.422   0.150   1.322  0.00  0.00    -0.074 A 
ATOM      3  C2  UNL d   1       0.047  -0.057  -0.009  0.00  0.00    -0.005 A 
ATOM      4  C3  UNL d   1      -0.803   0.845  -0.649  0.00  0.00     0.006 A 
ATOM      5  C4  UNL d   1      -1.285   1.962   0.034  0.00  0.00    -0.005 A 
ATOM      6  C5  UNL d   1      -0.922   2.185   1.366  0.00  0.00    -0.074 A 
ATOM      7  C6  UNL d   1      -1.439   3.375   2.118  0.00  0.00     0.077 C 
ATOM      8  C7  UNL d   1      -0.074   1.270   2.005  0.00  0.00    -0.001 A 
ENDROOT
TORSDOF 0
ENDMDL
