MODEL 1
REMARK minimizedAffinity -3.91036129
REMARK minimizedRMSD -1
REMARK  0 active torsions:
REMARK  status: ('A' for Active; 'I' for Inactive)
ROOT
ATOM      1  C   UNL d   1      -0.464   3.280  -0.888  0.00  0.00     0.077 C 
ATOM      2  C1  UNL d   1      -0.233   2.015  -0.117  0.00  0.00    -0.074 A 
ATOM      3  C2  UNL d   1      -0.323   1.997   1.278  0.00  0.00    -0.005 A 
ATOM      4  C3  UNL d   1      -0.115   0.810   1.981  0.00  0.00     0.006 A 
ATOM      5  C4  UNL d   1       0.186  -0.368   1.297  0.00  0.00    -0.005 A 
ATOM      6  C5  UNL d   1       0.279  -0.370  -0.098  0.00  0.00    -0.074 A 
ATOM      7  C6  UNL d   1       0.591  -1.630  -0.850  0.00  0.00     0.077 C 
ATOM      8  C7  UNL d   1       0.062   0.825  -0.798  0.00  0.00    -0.001 A 
ENDROOT
TORSDOF 0
ENDMDL
