MODEL 1
REMARK minimizedAffinity -4.11382055
REMARK minimizedRMSD -1
REMARK  0 active torsions:
REMARK  status: ('A' for Active; 'I' for Inactive)
ROOT
ATOM      1  C   UNL d   1      -1.165   4.370   0.662  0.00  0.00     0.077 C 
ATOM      2  C1  UNL d   1      -0.730   3.050   0.099  0.00  0.00    -0.074 A 
ATOM      3  C2  UNL d   1      -0.793   2.798  -1.275  0.00  0.00    -0.005 A 
ATOM      4  C3  UNL d   1      -0.376   1.569  -1.785  0.00  0.00     0.006 A 
ATOM      5  C4  UNL d   1       0.107   0.580  -0.927  0.00  0.00    -0.005 A 
ATOM      6  C5  UNL d   1       0.178   0.814   0.450  0.00  0.00    -0.074 A 
ATOM      7  C6  UNL d   1       0.704  -0.235   1.384  0.00  0.00     0.077 C 
ATOM      8  C7  UNL d   1      -0.236   2.054   0.953  0.00  0.00    -0.001 A 
ENDROOT
TORSDOF 0
ENDMDL
