MODEL 1
REMARK minimizedAffinity -2.09533906
REMARK minimizedRMSD -1
REMARK  0 active torsions:
REMARK  status: ('A' for Active; 'I' for Inactive)
ROOT
ATOM      1  C   UNL d   1      -1.790   2.708   1.073  0.00  0.00     0.077 C 
ATOM      2  C1  UNL d   1      -1.075   1.928   0.010  0.00  0.00    -0.074 A 
ATOM      3  C2  UNL d   1      -0.988   2.411  -1.300  0.00  0.00    -0.005 A 
ATOM      4  C3  UNL d   1      -0.311   1.679  -2.276  0.00  0.00     0.006 A 
ATOM      5  C4  UNL d   1       0.284   0.459  -1.953  0.00  0.00    -0.005 A 
ATOM      6  C5  UNL d   1       0.208  -0.039  -0.648  0.00  0.00    -0.074 A 
ATOM      7  C6  UNL d   1       0.850  -1.344  -0.281  0.00  0.00     0.077 C 
ATOM      8  C7  UNL d   1      -0.468   0.705   0.328  0.00  0.00    -0.001 A 
ENDROOT
TORSDOF 0
ENDMDL
