MODEL 1
REMARK minimizedAffinity -1.11389995
REMARK minimizedRMSD -1
REMARK  0 active torsions:
REMARK  status: ('A' for Active; 'I' for Inactive)
ROOT
ATOM      1  C   UNL d   1      -0.290   0.539  -2.400  0.00  0.00     0.077 C 
ATOM      2  C1  UNL d   1       0.051   0.410  -0.945  0.00  0.00    -0.074 A 
ATOM      3  C2  UNL d   1       0.731  -0.713  -0.463  0.00  0.00    -0.005 A 
ATOM      4  C3  UNL d   1       1.049  -0.815   0.891  0.00  0.00     0.006 A 
ATOM      5  C4  UNL d   1       0.691   0.203   1.775  0.00  0.00    -0.005 A 
ATOM      6  C5  UNL d   1       0.012   1.334   1.312  0.00  0.00    -0.074 A 
ATOM      7  C6  UNL d   1      -0.372   2.442   2.247  0.00  0.00     0.077 C 
ATOM      8  C7  UNL d   1      -0.299   1.432  -0.052  0.00  0.00    -0.001 A 
ENDROOT
TORSDOF 0
ENDMDL
