MODEL 1
REMARK minimizedAffinity -0.969368517
REMARK minimizedRMSD -1
REMARK  0 active torsions:
REMARK  status: ('A' for Active; 'I' for Inactive)
ROOT
ATOM      1  C   UNL d   1       0.474  -2.240  -0.609  0.00  0.00     0.077 C 
ATOM      2  C1  UNL d   1       0.233  -0.761  -0.652  0.00  0.00    -0.074 A 
ATOM      3  C2  UNL d   1       0.022  -0.102  -1.868  0.00  0.00    -0.005 A 
ATOM      4  C3  UNL d   1      -0.210   1.273  -1.892  0.00  0.00     0.006 A 
ATOM      5  C4  UNL d   1      -0.233   2.002  -0.702  0.00  0.00    -0.005 A 
ATOM      6  C5  UNL d   1      -0.025   1.361   0.523  0.00  0.00    -0.074 A 
ATOM      7  C6  UNL d   1      -0.056   2.129   1.811  0.00  0.00     0.077 C 
ATOM      8  C7  UNL d   1       0.201  -0.022   0.539  0.00  0.00    -0.001 A 
ENDROOT
TORSDOF 0
ENDMDL
