MODEL 1
REMARK minimizedAffinity -3.31359148
REMARK minimizedRMSD -1
REMARK  0 active torsions:
REMARK  status: ('A' for Active; 'I' for Inactive)
ROOT
ATOM      1  C   UNL d   1       0.142   1.102   2.248  0.00  0.00     0.077 C 
ATOM      2  C1  UNL d   1       0.235   0.524   0.868  0.00  0.00    -0.074 A 
ATOM      3  C2  UNL d   1      -0.156   1.266  -0.251  0.00  0.00    -0.005 A 
ATOM      4  C3  UNL d   1      -0.055   0.719  -1.530  0.00  0.00     0.006 A 
ATOM      5  C4  UNL d   1       0.438  -0.575  -1.703  0.00  0.00    -0.005 A 
ATOM      6  C5  UNL d   1       0.835  -1.333  -0.596  0.00  0.00    -0.074 A 
ATOM      7  C6  UNL d   1       1.375  -2.722  -0.765  0.00  0.00     0.077 C 
ATOM      8  C7  UNL d   1       0.736  -0.773   0.685  0.00  0.00    -0.001 A 
ENDROOT
TORSDOF 0
ENDMDL
