MODEL 1
REMARK minimizedAffinity -3.09770989
REMARK minimizedRMSD -1
REMARK  0 active torsions:
REMARK  status: ('A' for Active; 'I' for Inactive)
ROOT
ATOM      1  C   UNL d   1       0.083  -1.334  -0.775  0.00  0.00     0.077 C 
ATOM      2  C1  UNL d   1      -0.004   0.015  -0.124  0.00  0.00    -0.074 A 
ATOM      3  C2  UNL d   1       0.062   0.147   1.266  0.00  0.00    -0.005 A 
ATOM      4  C3  UNL d   1      -0.010   1.409   1.857  0.00  0.00     0.006 A 
ATOM      5  C4  UNL d   1      -0.149   2.549   1.064  0.00  0.00    -0.005 A 
ATOM      6  C5  UNL d   1      -0.216   2.436  -0.329  0.00  0.00    -0.074 A 
ATOM      7  C6  UNL d   1      -0.355   3.652  -1.196  0.00  0.00     0.077 C 
ATOM      8  C7  UNL d   1      -0.135   1.165  -0.915  0.00  0.00    -0.001 A 
ENDROOT
TORSDOF 0
ENDMDL
