MODEL 1
REMARK minimizedAffinity -4.0553894
REMARK minimizedRMSD -1
REMARK  0 active torsions:
REMARK  status: ('A' for Active; 'I' for Inactive)
ROOT
ATOM      1  C   UNL d   1       0.031   4.051  -0.001  0.00  0.00     0.077 C 
ATOM      2  C1  UNL d   1       0.055   2.568   0.222  0.00  0.00    -0.074 A 
ATOM      3  C2  UNL d   1       0.138   2.037   1.513  0.00  0.00    -0.005 A 
ATOM      4  C3  UNL d   1       0.150   0.655   1.705  0.00  0.00     0.006 A 
ATOM      5  C4  UNL d   1       0.080  -0.207   0.610  0.00  0.00    -0.005 A 
ATOM      6  C5  UNL d   1      -0.004   0.306  -0.688  0.00  0.00    -0.074 A 
ATOM      7  C6  UNL d   1      -0.090  -0.607  -1.875  0.00  0.00     0.077 C 
ATOM      8  C7  UNL d   1      -0.023   1.696  -0.872  0.00  0.00    -0.001 A 
ENDROOT
TORSDOF 0
ENDMDL
