MODEL 1
REMARK minimizedAffinity -5.5952363
REMARK minimizedRMSD -1
REMARK  0 active torsions:
REMARK  status: ('A' for Active; 'I' for Inactive)
ROOT
ATOM      1  C   UNL d   1       0.810  -0.984  -0.823  0.00  0.00     0.077 C 
ATOM      2  C1  UNL d   1       0.147   0.355  -0.693  0.00  0.00    -0.074 A 
ATOM      3  C2  UNL d   1      -0.009   1.191  -1.804  0.00  0.00    -0.005 A 
ATOM      4  C3  UNL d   1      -0.636   2.429  -1.669  0.00  0.00     0.006 A 
ATOM      5  C4  UNL d   1      -1.113   2.844  -0.425  0.00  0.00    -0.005 A 
ATOM      6  C5  UNL d   1      -0.966   2.022   0.697  0.00  0.00    -0.074 A 
ATOM      7  C6  UNL d   1      -1.481   2.449   2.039  0.00  0.00     0.077 C 
ATOM      8  C7  UNL d   1      -0.341   0.776   0.552  0.00  0.00    -0.001 A 
ENDROOT
TORSDOF 0
ENDMDL
