MODEL 1
REMARK minimizedAffinity -5.3684144
REMARK minimizedRMSD -1
REMARK  0 active torsions:
REMARK  status: ('A' for Active; 'I' for Inactive)
ROOT
ATOM      1  C   UNL d   1      -0.475   3.614  -1.433  0.00  0.00     0.077 C 
ATOM      2  C1  UNL d   1      -0.468   2.619  -0.311  0.00  0.00    -0.074 A 
ATOM      3  C2  UNL d   1      -0.872   2.984   0.977  0.00  0.00    -0.005 A 
ATOM      4  C3  UNL d   1      -0.869   2.045   2.008  0.00  0.00     0.006 A 
ATOM      5  C4  UNL d   1      -0.462   0.733   1.763  0.00  0.00    -0.005 A 
ATOM      6  C5  UNL d   1      -0.056   0.349   0.481  0.00  0.00    -0.074 A 
ATOM      7  C6  UNL d   1       0.374  -1.060   0.197  0.00  0.00     0.077 C 
ATOM      8  C7  UNL d   1      -0.069   1.296  -0.552  0.00  0.00    -0.001 A 
ENDROOT
TORSDOF 0
ENDMDL
