MODEL 1
REMARK minimizedAffinity 4.92801571
REMARK minimizedRMSD -1
REMARK  1 active torsions:
REMARK  status: ('A' for Active; 'I' for Inactive)
REMARK    1  A    between atoms: C1_2  and  C2_3 
ROOT
ATOM      1  C2  UNL d   1      -0.711  -0.209  -1.452  0.00  0.00    -0.081 A 
ATOM      2  C3  UNL d   1      -2.073  -0.033  -1.180  0.00  0.00     0.006 A 
ATOM      3  C4  UNL d   1      -2.533  -0.001   0.138  0.00  0.00     0.002 A 
ATOM      4  C5  UNL d   1      -1.640  -0.136   1.206  0.00  0.00    -0.080 A 
ATOM      5  C6  UNL d   1      -2.117  -0.073   2.626  0.00  0.00     0.076 C 
ATOM      6  C7  UNL d   1      -0.281  -0.330   0.934  0.00  0.00     0.002 A 
ATOM      7  C8  UNL d   1       0.180  -0.363  -0.384  0.00  0.00     0.006 A 
ENDROOT
BRANCH   1   8
ATOM      8  C1  UNL d   1      -0.203  -0.180  -2.871  0.00  0.00     0.054 C 
ATOM      9  C   UNL d   1       1.151   0.510  -2.960  0.00  0.00     0.018 C 
ENDBRANCH   1   8
TORSDOF 1
ENDMDL
