MODEL 1
REMARK minimizedAffinity -3.00811982
REMARK minimizedRMSD -1
REMARK  1 active torsions:
REMARK  status: ('A' for Active; 'I' for Inactive)
REMARK    1  A    between atoms: C1_2  and  C2_3 
ROOT
ATOM      1  C2  UNL d   1      -0.146  -0.609   3.714  0.00  0.00    -0.081 A 
ATOM      2  C3  UNL d   1      -1.471  -0.206   3.504  0.00  0.00     0.006 A 
ATOM      3  C4  UNL d   1      -2.002  -0.165   2.213  0.00  0.00     0.002 A 
ATOM      4  C5  UNL d   1      -1.221  -0.532   1.112  0.00  0.00    -0.080 A 
ATOM      5  C6  UNL d   1      -1.789  -0.521  -0.276  0.00  0.00     0.076 C 
ATOM      6  C7  UNL d   1       0.107  -0.918   1.320  0.00  0.00     0.002 A 
ATOM      7  C8  UNL d   1       0.639  -0.959   2.611  0.00  0.00     0.006 A 
ENDROOT
BRANCH   1   8
ATOM      8  C1  UNL d   1       0.409  -0.717   5.111  0.00  0.00     0.054 C 
ATOM      9  C   UNL d   1       0.768  -2.156   5.454  0.00  0.00     0.018 C 
ENDBRANCH   1   8
TORSDOF 1
ENDMDL
