MODEL 1
REMARK minimizedAffinity -1.2763145
REMARK minimizedRMSD -1
REMARK  1 active torsions:
REMARK  status: ('A' for Active; 'I' for Inactive)
REMARK    1  A    between atoms: C1_2  and  C2_3 
ROOT
ATOM      1  C2  UNL d   1      -0.341  -0.737   3.331  0.00  0.00    -0.081 A 
ATOM      2  C3  UNL d   1      -1.649  -0.321   3.055  0.00  0.00     0.006 A 
ATOM      3  C4  UNL d   1      -2.002   0.102   1.771  0.00  0.00     0.002 A 
ATOM      4  C5  UNL d   1      -1.056   0.109   0.741  0.00  0.00    -0.080 A 
ATOM      5  C6  UNL d   1      -1.429   0.532  -0.649  0.00  0.00     0.076 C 
ATOM      6  C7  UNL d   1       0.256  -0.289   1.021  0.00  0.00     0.002 A 
ATOM      7  C8  UNL d   1       0.609  -0.712   2.304  0.00  0.00     0.006 A 
ENDROOT
BRANCH   1   8
ATOM      8  C1  UNL d   1       0.026  -1.255   4.698  0.00  0.00     0.054 C 
ATOM      9  C   UNL d   1       1.489  -1.673   4.757  0.00  0.00     0.018 C 
ENDBRANCH   1   8
TORSDOF 1
ENDMDL
