MODEL 1
REMARK minimizedAffinity -2.09848046
REMARK minimizedRMSD -1
REMARK  0 active torsions:
REMARK  status: ('A' for Active; 'I' for Inactive)
ROOT
ATOM      1  C   UNL d   1      -1.811  -0.068   1.733  0.00  0.00     0.078 C 
ATOM      2  C1  UNL d   1      -0.865  -0.093   0.570  0.00  0.00    -0.077 A 
ATOM      3  C2  UNL d   1      -0.512   1.086  -0.098  0.00  0.00    -0.001 A 
ATOM      4  C3  UNL d   1       0.363   1.046  -1.185  0.00  0.00     0.003 A 
ATOM      5  C4  UNL d   1       0.891  -0.169  -1.615  0.00  0.00    -0.005 A 
ATOM      6  C5  UNL d   1       0.544  -1.348  -0.958  0.00  0.00     0.003 A 
ATOM      7  C6  UNL d   1      -0.331  -1.311   0.130  0.00  0.00    -0.001 A 
ENDROOT
TORSDOF 0
ENDMDL
