MODEL 1
REMARK minimizedAffinity -2.78321624
REMARK minimizedRMSD -1
REMARK  0 active torsions:
REMARK  status: ('A' for Active; 'I' for Inactive)
ROOT
ATOM      1  C   UNL d   1       5.371   5.955  -1.268  0.00  0.00     0.078 C 
ATOM      2  C1  UNL d   1       4.996   5.976  -2.720  0.00  0.00    -0.077 A 
ATOM      3  C2  UNL d   1       3.653   5.971  -3.118  0.00  0.00    -0.001 A 
ATOM      4  C3  UNL d   1       3.319   5.982  -4.473  0.00  0.00     0.003 A 
ATOM      5  C4  UNL d   1       4.321   5.995  -5.441  0.00  0.00    -0.005 A 
ATOM      6  C5  UNL d   1       5.660   5.997  -5.054  0.00  0.00     0.003 A 
ATOM      7  C6  UNL d   1       5.996   5.987  -3.700  0.00  0.00    -0.001 A 
ENDROOT
TORSDOF 0
ENDMDL
