MODEL 1
REMARK minimizedAffinity -4.77462435
REMARK minimizedRMSD -1
REMARK  0 active torsions:
REMARK  status: ('A' for Active; 'I' for Inactive)
ROOT
ATOM      1  C   UNL d   1      -1.060   0.163   3.774  0.00  0.00     0.078 C 
ATOM      2  C1  UNL d   1      -0.772  -0.277   2.369  0.00  0.00    -0.077 A 
ATOM      3  C2  UNL d   1      -1.281   0.431   1.273  0.00  0.00    -0.001 A 
ATOM      4  C3  UNL d   1      -1.013   0.005  -0.029  0.00  0.00     0.003 A 
ATOM      5  C4  UNL d   1      -0.236  -1.131  -0.247  0.00  0.00    -0.005 A 
ATOM      6  C5  UNL d   1       0.274  -1.843   0.837  0.00  0.00     0.003 A 
ATOM      7  C6  UNL d   1       0.007  -1.419   2.140  0.00  0.00    -0.001 A 
ENDROOT
TORSDOF 0
ENDMDL
