MODEL 1
REMARK minimizedAffinity -1.61980832
REMARK minimizedRMSD -1
REMARK  0 active torsions:
REMARK  status: ('A' for Active; 'I' for Inactive)
ROOT
ATOM      1  C   UNL d   1       1.910  -1.169  -1.519  0.00  0.00     0.078 C 
ATOM      2  C1  UNL d   1       0.802  -0.562  -0.712  0.00  0.00    -0.077 A 
ATOM      3  C2  UNL d   1       0.286  -1.219   0.413  0.00  0.00    -0.001 A 
ATOM      4  C3  UNL d   1      -0.753  -0.647   1.149  0.00  0.00     0.003 A 
ATOM      5  C4  UNL d   1      -1.286   0.583   0.769  0.00  0.00    -0.005 A 
ATOM      6  C5  UNL d   1      -0.781   1.243  -0.350  0.00  0.00     0.003 A 
ATOM      7  C6  UNL d   1       0.258   0.672  -1.088  0.00  0.00    -0.001 A 
ENDROOT
TORSDOF 0
ENDMDL
