MODEL 1
REMARK minimizedAffinity -4.23970032
REMARK minimizedRMSD -1
REMARK  0 active torsions:
REMARK  status: ('A' for Active; 'I' for Inactive)
ROOT
ATOM      1  C   UNL d   1       2.072  -1.330  -1.614  0.00  0.00     0.078 C 
ATOM      2  C1  UNL d   1       0.886  -0.781  -0.879  0.00  0.00    -0.077 A 
ATOM      3  C2  UNL d   1       0.261  -1.518   0.135  0.00  0.00    -0.001 A 
ATOM      4  C3  UNL d   1      -0.848  -0.999   0.804  0.00  0.00     0.003 A 
ATOM      5  C4  UNL d   1      -1.343   0.259   0.466  0.00  0.00    -0.005 A 
ATOM      6  C5  UNL d   1      -0.730   0.999  -0.543  0.00  0.00     0.003 A 
ATOM      7  C6  UNL d   1       0.380   0.481  -1.214  0.00  0.00    -0.001 A 
ENDROOT
TORSDOF 0
ENDMDL
