MODEL 1
REMARK minimizedAffinity -2.86757731
REMARK minimizedRMSD -1
REMARK  0 active torsions:
REMARK  status: ('A' for Active; 'I' for Inactive)
ROOT
ATOM      1  C   UNL d   1      -1.411   0.189   1.076  0.00  0.00     0.078 C 
ATOM      2  C1  UNL d   1      -0.303  -0.255   0.168  0.00  0.00    -0.077 A 
ATOM      3  C2  UNL d   1       0.140  -1.584   0.168  0.00  0.00    -0.001 A 
ATOM      4  C3  UNL d   1       1.179  -1.981  -0.676  0.00  0.00     0.003 A 
ATOM      5  C4  UNL d   1       1.784  -1.056  -1.524  0.00  0.00    -0.005 A 
ATOM      6  C5  UNL d   1       1.351   0.269  -1.529  0.00  0.00     0.003 A 
ATOM      7  C6  UNL d   1       0.312   0.668  -0.686  0.00  0.00    -0.001 A 
ENDROOT
TORSDOF 0
ENDMDL
