MODEL 1
REMARK minimizedAffinity -2.42139292
REMARK minimizedRMSD -1
REMARK  0 active torsions:
REMARK  status: ('A' for Active; 'I' for Inactive)
ROOT
ATOM      1  C   UNL d   1       1.548   1.715  -2.731  0.00  0.00     0.078 C 
ATOM      2  C1  UNL d   1       1.350   0.562  -1.793  0.00  0.00    -0.077 A 
ATOM      3  C2  UNL d   1       2.183  -0.563  -1.846  0.00  0.00    -0.001 A 
ATOM      4  C3  UNL d   1       1.981  -1.633  -0.973  0.00  0.00     0.003 A 
ATOM      5  C4  UNL d   1       0.946  -1.590  -0.041  0.00  0.00    -0.005 A 
ATOM      6  C5  UNL d   1       0.111  -0.476   0.018  0.00  0.00     0.003 A 
ATOM      7  C6  UNL d   1       0.311   0.595  -0.854  0.00  0.00    -0.001 A 
ENDROOT
TORSDOF 0
ENDMDL
