MODEL 1
REMARK minimizedAffinity -4.26020432
REMARK minimizedRMSD -1
REMARK  0 active torsions:
REMARK  status: ('A' for Active; 'I' for Inactive)
ROOT
ATOM      1  C   UNL d   1       1.518   1.494  -2.749  0.00  0.00     0.078 C 
ATOM      2  C1  UNL d   1       1.178   0.432  -1.746  0.00  0.00    -0.077 A 
ATOM      3  C2  UNL d   1       2.012  -0.676  -1.557  0.00  0.00    -0.001 A 
ATOM      4  C3  UNL d   1       1.678  -1.661  -0.626  0.00  0.00     0.003 A 
ATOM      5  C4  UNL d   1       0.508  -1.548   0.122  0.00  0.00    -0.005 A 
ATOM      6  C5  UNL d   1      -0.330  -0.450  -0.060  0.00  0.00     0.003 A 
ATOM      7  C6  UNL d   1       0.003   0.536  -0.990  0.00  0.00    -0.001 A 
ENDROOT
TORSDOF 0
ENDMDL
