MODEL 1
REMARK minimizedAffinity -3.61928225
REMARK minimizedRMSD -1
REMARK  0 active torsions:
REMARK  status: ('A' for Active; 'I' for Inactive)
ROOT
ATOM      1  C   UNL d   1      -0.469  -0.525  -0.281  0.00  0.00     0.078 C 
ATOM      2  C1  UNL d   1      -0.966   0.173   0.950  0.00  0.00    -0.077 A 
ATOM      3  C2  UNL d   1      -0.144   0.326   2.074  0.00  0.00    -0.001 A 
ATOM      4  C3  UNL d   1      -0.623   0.969   3.216  0.00  0.00     0.003 A 
ATOM      5  C4  UNL d   1      -1.925   1.463   3.247  0.00  0.00    -0.005 A 
ATOM      6  C5  UNL d   1      -2.751   1.313   2.134  0.00  0.00     0.003 A 
ATOM      7  C6  UNL d   1      -2.274   0.671   0.991  0.00  0.00    -0.001 A 
ENDROOT
TORSDOF 0
ENDMDL
