MODEL 1
REMARK minimizedAffinity -3.15335727
REMARK minimizedRMSD -1
REMARK  0 active torsions:
REMARK  status: ('A' for Active; 'I' for Inactive)
ROOT
ATOM      1  C   UNL d   1      -0.529   1.301  -0.161  0.00  0.00     0.078 C 
ATOM      2  C1  UNL d   1       0.434   0.723  -1.154  0.00  0.00    -0.077 A 
ATOM      3  C2  UNL d   1       0.832   1.452  -2.281  0.00  0.00    -0.001 A 
ATOM      4  C3  UNL d   1       1.722   0.897  -3.202  0.00  0.00     0.003 A 
ATOM      5  C4  UNL d   1       2.219  -0.390  -3.007  0.00  0.00    -0.005 A 
ATOM      6  C5  UNL d   1       1.827  -1.124  -1.890  0.00  0.00     0.003 A 
ATOM      7  C6  UNL d   1       0.937  -0.571  -0.967  0.00  0.00    -0.001 A 
ENDROOT
TORSDOF 0
ENDMDL
