MODEL 1
REMARK minimizedAffinity -3.55631685
REMARK minimizedRMSD -1
REMARK  0 active torsions:
REMARK  status: ('A' for Active; 'I' for Inactive)
ROOT
ATOM      1  C   UNL d   1       1.593  -1.486  -1.820  0.00  0.00     0.078 C 
ATOM      2  C1  UNL d   1       0.605  -1.066  -0.773  0.00  0.00    -0.077 A 
ATOM      3  C2  UNL d   1       0.132   0.251  -0.715  0.00  0.00    -0.001 A 
ATOM      4  C3  UNL d   1      -0.780   0.630   0.271  0.00  0.00     0.003 A 
ATOM      5  C4  UNL d   1      -1.226  -0.301   1.207  0.00  0.00    -0.005 A 
ATOM      6  C5  UNL d   1      -0.760  -1.613   1.158  0.00  0.00     0.003 A 
ATOM      7  C6  UNL d   1       0.153  -1.994   0.173  0.00  0.00    -0.001 A 
ENDROOT
TORSDOF 0
ENDMDL
