MODEL 1
REMARK minimizedAffinity -4.82987738
REMARK minimizedRMSD -1
REMARK  0 active torsions:
REMARK  status: ('A' for Active; 'I' for Inactive)
ROOT
ATOM      1  C   UNL d   1       1.621  -1.827  -0.586  0.00  0.00     0.078 C 
ATOM      2  C1  UNL d   1       0.669  -0.678  -0.724  0.00  0.00    -0.077 A 
ATOM      3  C2  UNL d   1      -0.630  -0.751  -0.206  0.00  0.00    -0.001 A 
ATOM      4  C3  UNL d   1      -1.509   0.324  -0.351  0.00  0.00     0.003 A 
ATOM      5  C4  UNL d   1      -1.099   1.479  -1.014  0.00  0.00    -0.005 A 
ATOM      6  C5  UNL d   1       0.190   1.560  -1.535  0.00  0.00     0.003 A 
ATOM      7  C6  UNL d   1       1.071   0.486  -1.391  0.00  0.00    -0.001 A 
ENDROOT
TORSDOF 0
ENDMDL
