MODEL 1
REMARK minimizedAffinity -0.105342515
REMARK minimizedRMSD -1
REMARK  0 active torsions:
REMARK  status: ('A' for Active; 'I' for Inactive)
ROOT
ATOM      1  C   UNL d   1      -1.693   0.499  -0.237  0.00  0.00     0.078 C 
ATOM      2  C1  UNL d   1      -1.762   0.692   1.249  0.00  0.00    -0.077 A 
ATOM      3  C2  UNL d   1      -2.247  -0.320   2.086  0.00  0.00    -0.001 A 
ATOM      4  C3  UNL d   1      -2.314  -0.123   3.466  0.00  0.00     0.003 A 
ATOM      5  C4  UNL d   1      -1.899   1.086   4.021  0.00  0.00    -0.005 A 
ATOM      6  C5  UNL d   1      -1.416   2.099   3.196  0.00  0.00     0.003 A 
ATOM      7  C6  UNL d   1      -1.348   1.904   1.816  0.00  0.00    -0.001 A 
ENDROOT
TORSDOF 0
ENDMDL
