MODEL 1
REMARK minimizedAffinity -0.0767722204
REMARK minimizedRMSD -1
REMARK  1 active torsions:
REMARK  status: ('A' for Active; 'I' for Inactive)
REMARK    1  A    between atoms: N_2  and  C1_3 
ROOT
ATOM      1  C1  UNL d   1      -3.408   3.605  -5.995  0.00  0.00     0.143 A 
ATOM      2  C2  UNL d   1      -4.786   3.362  -5.984  0.00  0.00    -0.057 A 
ATOM      3  C3  UNL d   1      -5.709   4.415  -6.000  0.00  0.00     0.033 A 
ATOM      4  C4  UNL d   1      -5.269   5.734  -5.999  0.00  0.00    -0.042 A 
ATOM      5  C5  UNL d   1      -3.904   6.000  -5.985  0.00  0.00     0.033 A 
ATOM      6  C6  UNL d   1      -2.987   4.944  -5.976  0.00  0.00    -0.057 A 
ENDROOT
BRANCH   1   7
ATOM      7  N   UNL d   1      -2.441   2.604  -5.881  0.00  0.00    -0.732 N 
ATOM      8  C   UNL d   1      -1.207   2.850  -5.166  0.00  0.00     0.284 C 
ATOM      9  H3  UNL d   1      -2.848   1.689  -5.705  0.00  0.00     0.395 HD
ENDBRANCH   1   7
TORSDOF 1
ENDMDL
