MODEL 1
REMARK minimizedAffinity -0.377822876
REMARK minimizedRMSD -1
REMARK  1 active torsions:
REMARK  status: ('A' for Active; 'I' for Inactive)
REMARK    1  A    between atoms: N_2  and  C1_3 
ROOT
ATOM      1  C1  UNL d   1       1.383   1.604   1.121  0.00  0.00     0.143 A 
ATOM      2  C2  UNL d   1       0.845   0.416   0.615  0.00  0.00    -0.057 A 
ATOM      3  C3  UNL d   1      -0.516   0.310   0.304  0.00  0.00     0.033 A 
ATOM      4  C4  UNL d   1      -1.371   1.385   0.521  0.00  0.00    -0.042 A 
ATOM      5  C5  UNL d   1      -0.863   2.568   1.046  0.00  0.00     0.033 A 
ATOM      6  C6  UNL d   1       0.498   2.670   1.349  0.00  0.00    -0.057 A 
ENDROOT
BRANCH   1   7
ATOM      7  N   UNL d   1       2.708   1.741   1.542  0.00  0.00    -0.732 N 
ATOM      8  C   UNL d   1       3.109   2.864   2.363  0.00  0.00     0.284 C 
ATOM      9  H3  UNL d   1       3.120   0.854   1.822  0.00  0.00     0.395 HD
ENDBRANCH   1   7
TORSDOF 1
ENDMDL
