MODEL 1
REMARK minimizedAffinity -1.13090491
REMARK minimizedRMSD -1
REMARK  1 active torsions:
REMARK  status: ('A' for Active; 'I' for Inactive)
REMARK    1  A    between atoms: N_2  and  C1_3 
ROOT
ATOM      1  C1  UNL d   1       0.241  -0.027   0.114  0.00  0.00     0.143 A 
ATOM      2  C2  UNL d   1       0.309  -0.325  -1.251  0.00  0.00    -0.057 A 
ATOM      3  C3  UNL d   1       1.520  -0.255  -1.950  0.00  0.00     0.033 A 
ATOM      4  C4  UNL d   1       2.683   0.143  -1.300  0.00  0.00    -0.042 A 
ATOM      5  C5  UNL d   1       2.635   0.468   0.051  0.00  0.00     0.033 A 
ATOM      6  C6  UNL d   1       1.424   0.390   0.745  0.00  0.00    -0.057 A 
ENDROOT
BRANCH   1   7
ATOM      7  N   UNL d   1      -0.950   0.018   0.842  0.00  0.00    -0.732 N 
ATOM      8  C   UNL d   1      -1.772   1.209   0.838  0.00  0.00     0.284 C 
ATOM      9  H3  UNL d   1      -1.477  -0.851   0.780  0.00  0.00     0.395 HD
ENDBRANCH   1   7
TORSDOF 1
ENDMDL
