MODEL 1
REMARK minimizedAffinity 2.43555832
REMARK minimizedRMSD -1
REMARK  1 active torsions:
REMARK  status: ('A' for Active; 'I' for Inactive)
REMARK    1  A    between atoms: N_2  and  C1_3 
ROOT
ATOM      1  C1  UNL d   1       0.372   1.230   0.966  0.00  0.00     0.143 A 
ATOM      2  C2  UNL d   1      -0.307   0.007   0.976  0.00  0.00    -0.057 A 
ATOM      3  C3  UNL d   1      -1.706  -0.046   1.028  0.00  0.00     0.033 A 
ATOM      4  C4  UNL d   1      -2.450   1.126   1.100  0.00  0.00    -0.042 A 
ATOM      5  C5  UNL d   1      -1.795   2.352   1.118  0.00  0.00     0.033 A 
ATOM      6  C6  UNL d   1      -0.398   2.399   1.059  0.00  0.00    -0.057 A 
ENDROOT
BRANCH   1   7
ATOM      7  N   UNL d   1       1.764   1.347   1.016  0.00  0.00    -0.732 N 
ATOM      8  C   UNL d   1       2.393   2.284   1.920  0.00  0.00     0.284 C 
ATOM      9  H3  UNL d   1       2.231   0.445   0.960  0.00  0.00     0.395 HD
ENDBRANCH   1   7
TORSDOF 1
ENDMDL
