MODEL 1
REMARK minimizedAffinity 1.16743112
REMARK minimizedRMSD -1
REMARK  1 active torsions:
REMARK  status: ('A' for Active; 'I' for Inactive)
REMARK    1  A    between atoms: N_2  and  C1_3 
ROOT
ATOM      1  C1  UNL d   1       0.276   1.000   0.881  0.00  0.00     0.143 A 
ATOM      2  C2  UNL d   1      -0.497  -0.166   0.833  0.00  0.00    -0.057 A 
ATOM      3  C3  UNL d   1      -1.894  -0.115   0.916  0.00  0.00     0.033 A 
ATOM      4  C4  UNL d   1      -2.543   1.105   1.078  0.00  0.00    -0.042 A 
ATOM      5  C5  UNL d   1      -1.794   2.274   1.152  0.00  0.00     0.033 A 
ATOM      6  C6  UNL d   1      -0.400   2.217   1.062  0.00  0.00    -0.057 A 
ENDROOT
BRANCH   1   7
ATOM      7  N   UNL d   1       1.673   1.007   0.902  0.00  0.00    -0.732 N 
ATOM      8  C   UNL d   1       2.394   2.086   1.542  0.00  0.00     0.284 C 
ATOM      9  H3  UNL d   1       2.063   0.084   1.078  0.00  0.00     0.395 HD
ENDBRANCH   1   7
TORSDOF 1
ENDMDL
