MODEL 1
REMARK minimizedAffinity -0.155223548
REMARK minimizedRMSD -1
REMARK  1 active torsions:
REMARK  status: ('A' for Active; 'I' for Inactive)
REMARK    1  A    between atoms: N_2  and  C1_3 
ROOT
ATOM      1  C1  UNL d   1       0.809   0.510   0.908  0.00  0.00     0.143 A 
ATOM      2  C2  UNL d   1      -0.149  -0.507   0.981  0.00  0.00    -0.057 A 
ATOM      3  C3  UNL d   1      -1.514  -0.212   1.083  0.00  0.00     0.033 A 
ATOM      4  C4  UNL d   1      -1.944   1.109   1.143  0.00  0.00    -0.042 A 
ATOM      5  C5  UNL d   1      -1.008   2.136   1.097  0.00  0.00     0.033 A 
ATOM      6  C6  UNL d   1       0.354   1.835   0.989  0.00  0.00    -0.057 A 
ENDROOT
BRANCH   1   7
ATOM      7  N   UNL d   1       2.187   0.281   0.905  0.00  0.00    -0.732 N 
ATOM      8  C   UNL d   1       2.863  -0.130  -0.306  0.00  0.00     0.284 C 
ATOM      9  H3  UNL d   1       2.696   0.972   1.452  0.00  0.00     0.395 HD
ENDBRANCH   1   7
TORSDOF 1
ENDMDL
