MODEL 1
REMARK minimizedAffinity -0.523559928
REMARK minimizedRMSD -1
REMARK  1 active torsions:
REMARK  status: ('A' for Active; 'I' for Inactive)
REMARK    1  A    between atoms: N_2  and  C1_3 
ROOT
ATOM      1  C1  UNL d   1      -2.439   3.990  -5.253  0.00  0.00     0.143 A 
ATOM      2  C2  UNL d   1      -2.572   5.383  -5.244  0.00  0.00    -0.057 A 
ATOM      3  C3  UNL d   1      -3.785   5.999  -5.571  0.00  0.00     0.033 A 
ATOM      4  C4  UNL d   1      -4.884   5.231  -5.943  0.00  0.00    -0.042 A 
ATOM      5  C5  UNL d   1      -4.769   3.846  -5.983  0.00  0.00     0.033 A 
ATOM      6  C6  UNL d   1      -3.556   3.237  -5.649  0.00  0.00    -0.057 A 
ENDROOT
BRANCH   1   7
ATOM      7  N   UNL d   1      -1.232   3.322  -5.033  0.00  0.00    -0.732 N 
ATOM      8  C   UNL d   1      -0.731   2.369  -6.000  0.00  0.00     0.284 C 
ATOM      9  H3  UNL d   1      -0.518   3.930  -4.639  0.00  0.00     0.395 HD
ENDBRANCH   1   7
TORSDOF 1
ENDMDL
