MODEL 1
REMARK minimizedAffinity 2.81848168
REMARK minimizedRMSD -1
REMARK  1 active torsions:
REMARK  status: ('A' for Active; 'I' for Inactive)
REMARK    1  A    between atoms: N_2  and  C1_3 
ROOT
ATOM      1  C1  UNL d   1      -2.726  -5.088  -1.281  0.00  0.00     0.143 A 
ATOM      2  C2  UNL d   1      -1.439  -5.451  -1.694  0.00  0.00    -0.057 A 
ATOM      3  C3  UNL d   1      -0.465  -4.484  -1.968  0.00  0.00     0.033 A 
ATOM      4  C4  UNL d   1      -0.770  -3.131  -1.861  0.00  0.00    -0.042 A 
ATOM      5  C5  UNL d   1      -2.049  -2.747  -1.477  0.00  0.00     0.033 A 
ATOM      6  C6  UNL d   1      -3.016  -3.717  -1.198  0.00  0.00    -0.057 A 
ENDROOT
BRANCH   1   7
ATOM      7  N   UNL d   1      -3.767  -6.000  -1.089  0.00  0.00    -0.732 N 
ATOM      8  C   UNL d   1      -4.665  -5.866   0.038  0.00  0.00     0.284 C 
ATOM      9  H3  UNL d   1      -4.228  -6.252  -1.960  0.00  0.00     0.395 HD
ENDBRANCH   1   7
TORSDOF 1
ENDMDL
