MODEL 1
REMARK minimizedAffinity 0.834963679
REMARK minimizedRMSD -1
REMARK  1 active torsions:
REMARK  status: ('A' for Active; 'I' for Inactive)
REMARK    1  A    between atoms: N_2  and  C1_3 
ROOT
ATOM      1  C1  UNL d   1       2.155  -0.189  -0.748  0.00  0.00     0.143 A 
ATOM      2  C2  UNL d   1       1.824   0.502  -1.919  0.00  0.00    -0.057 A 
ATOM      3  C3  UNL d   1       2.305   0.088  -3.167  0.00  0.00     0.033 A 
ATOM      4  C4  UNL d   1       3.152  -1.011  -3.263  0.00  0.00    -0.042 A 
ATOM      5  C5  UNL d   1       3.514  -1.698  -2.110  0.00  0.00     0.033 A 
ATOM      6  C6  UNL d   1       3.025  -1.284  -0.867  0.00  0.00    -0.057 A 
ENDROOT
BRANCH   1   7
ATOM      7  N   UNL d   1       1.789   0.231   0.533  0.00  0.00    -0.732 N 
ATOM      8  C   UNL d   1       1.850   1.630   0.895  0.00  0.00     0.284 C 
ATOM      9  H3  UNL d   1       0.962  -0.252   0.878  0.00  0.00     0.395 HD
ENDBRANCH   1   7
TORSDOF 1
ENDMDL
