MODEL 1
REMARK minimizedAffinity 9.7805233
REMARK minimizedRMSD -1
REMARK  1 active torsions:
REMARK  status: ('A' for Active; 'I' for Inactive)
REMARK    1  A    between atoms: N_2  and  C1_3 
ROOT
ATOM      1  C1  UNL d   1       1.734   0.795  -3.427  0.00  0.00     0.143 A 
ATOM      2  C2  UNL d   1       3.032   0.278  -3.365  0.00  0.00    -0.057 A 
ATOM      3  C3  UNL d   1       3.391  -0.667  -2.396  0.00  0.00     0.033 A 
ATOM      4  C4  UNL d   1       2.463  -1.091  -1.451  0.00  0.00    -0.042 A 
ATOM      5  C5  UNL d   1       1.173  -0.571  -1.479  0.00  0.00     0.033 A 
ATOM      6  C6  UNL d   1       0.818   0.367  -2.453  0.00  0.00    -0.057 A 
ENDROOT
BRANCH   1   7
ATOM      7  N   UNL d   1       1.342   1.809  -4.305  0.00  0.00    -0.732 N 
ATOM      8  C   UNL d   1       0.212   2.658  -3.993  0.00  0.00     0.284 C 
ATOM      9  H3  UNL d   1       2.135   2.304  -4.705  0.00  0.00     0.395 HD
ENDBRANCH   1   7
TORSDOF 1
ENDMDL
