MODEL 1
REMARK minimizedAffinity 14.3400316
REMARK minimizedRMSD -1
REMARK  1 active torsions:
REMARK  status: ('A' for Active; 'I' for Inactive)
REMARK    1  A    between atoms: N_2  and  C1_3 
ROOT
ATOM      1  C1  UNL d   1       3.801  -0.353  -2.949  0.00  0.00     0.143 A 
ATOM      2  C2  UNL d   1       2.875   0.329  -3.745  0.00  0.00    -0.057 A 
ATOM      3  C3  UNL d   1       1.523   0.399  -3.389  0.00  0.00     0.033 A 
ATOM      4  C4  UNL d   1       1.066  -0.240  -2.242  0.00  0.00    -0.042 A 
ATOM      5  C5  UNL d   1       1.963  -0.946  -1.448  0.00  0.00     0.033 A 
ATOM      6  C6  UNL d   1       3.314  -1.006  -1.805  0.00  0.00    -0.057 A 
ENDROOT
BRANCH   1   7
ATOM      7  N   UNL d   1       5.140  -0.541  -3.300  0.00  0.00    -0.732 N 
ATOM      8  C   UNL d   1       5.999  -1.389  -2.501  0.00  0.00     0.284 C 
ATOM      9  H3  UNL d   1       5.267  -0.648  -4.303  0.00  0.00     0.395 HD
ENDBRANCH   1   7
TORSDOF 1
ENDMDL
