MODEL 1
REMARK minimizedAffinity 2.39238238
REMARK minimizedRMSD -1
REMARK  0 active torsions:
REMARK  status: ('A' for Active; 'I' for Inactive)
ROOT
ATOM      1  C   UNL d   1      -0.712   1.921  -0.208  0.00  0.00     0.023 A 
ATOM      2  C1  UNL d   1      -1.626   2.479  -1.102  0.00  0.00     0.003 A 
ATOM      3  C2  UNL d   1      -2.987   2.498  -0.791  0.00  0.00     0.048 A 
ATOM      4  C3  UNL d   1      -3.428   1.959   0.417  0.00  0.00     0.023 A 
ATOM      5  C4  UNL d   1      -2.517   1.400   1.316  0.00  0.00     0.048 A 
ATOM      6  C5  UNL d   1      -1.157   1.383   1.000  0.00  0.00     0.003 A 
ATOM      7  I   UNL d   1      -5.453   1.986   0.883  0.00  0.00    -0.146 I 
ENDROOT
TORSDOF 0
ENDMDL
