MODEL 1
REMARK minimizedAffinity -1.20496833
REMARK minimizedRMSD -1
REMARK  0 active torsions:
REMARK  status: ('A' for Active; 'I' for Inactive)
ROOT
ATOM      1  C   UNL d   1       0.224   0.714   0.869  0.00  0.00     0.023 A 
ATOM      2  C1  UNL d   1      -0.005   2.029   0.464  0.00  0.00     0.003 A 
ATOM      3  C2  UNL d   1      -1.309   2.525   0.401  0.00  0.00     0.048 A 
ATOM      4  C3  UNL d   1      -2.380   1.700   0.745  0.00  0.00     0.023 A 
ATOM      5  C4  UNL d   1      -2.156   0.384   1.151  0.00  0.00     0.048 A 
ATOM      6  C5  UNL d   1      -0.850  -0.108   1.212  0.00  0.00     0.003 A 
ATOM      7  I   UNL d   1      -4.321   2.436   0.651  0.00  0.00    -0.146 I 
ENDROOT
TORSDOF 0
ENDMDL
