MODEL 1
REMARK minimizedAffinity -0.407889009
REMARK minimizedRMSD -1
REMARK  0 active torsions:
REMARK  status: ('A' for Active; 'I' for Inactive)
ROOT
ATOM      1  C   UNL d   1      -0.998   1.161   0.421  0.00  0.00     0.023 A 
ATOM      2  C1  UNL d   1      -1.827   0.282   1.119  0.00  0.00     0.003 A 
ATOM      3  C2  UNL d   1      -3.189   0.558   1.247  0.00  0.00     0.048 A 
ATOM      4  C3  UNL d   1      -3.718   1.714   0.674  0.00  0.00     0.023 A 
ATOM      5  C4  UNL d   1      -2.893   2.597  -0.026  0.00  0.00     0.048 A 
ATOM      6  C5  UNL d   1      -1.530   2.317  -0.150  0.00  0.00     0.003 A 
ATOM      7  I   UNL d   1      -5.746   2.127   0.863  0.00  0.00    -0.146 I 
ENDROOT
TORSDOF 0
ENDMDL
