MODEL 1
REMARK minimizedAffinity -2.03969812
REMARK minimizedRMSD -1
REMARK  0 active torsions:
REMARK  status: ('A' for Active; 'I' for Inactive)
ROOT
ATOM      1  C   UNL d   1      -0.419   0.914   0.375  0.00  0.00     0.023 A 
ATOM      2  C1  UNL d   1      -1.365   0.035   0.905  0.00  0.00     0.003 A 
ATOM      3  C2  UNL d   1      -2.712   0.400   0.949  0.00  0.00     0.048 A 
ATOM      4  C3  UNL d   1      -3.107   1.646   0.461  0.00  0.00     0.023 A 
ATOM      5  C4  UNL d   1      -2.164   2.528  -0.070  0.00  0.00     0.048 A 
ATOM      6  C5  UNL d   1      -0.819   2.158  -0.112  0.00  0.00     0.003 A 
ATOM      7  I   UNL d   1      -5.111   2.192   0.527  0.00  0.00    -0.146 I 
ENDROOT
TORSDOF 0
ENDMDL
