MODEL 1
REMARK minimizedAffinity 4.23211336
REMARK minimizedRMSD -1
REMARK  0 active torsions:
REMARK  status: ('A' for Active; 'I' for Inactive)
ROOT
ATOM      1  C   UNL d   1       0.496   2.214   0.478  0.00  0.00     0.023 A 
ATOM      2  C1  UNL d   1      -0.745   2.718   0.867  0.00  0.00     0.003 A 
ATOM      3  C2  UNL d   1      -1.711   1.863   1.400  0.00  0.00     0.048 A 
ATOM      4  C3  UNL d   1      -1.428   0.505   1.543  0.00  0.00     0.023 A 
ATOM      5  C4  UNL d   1      -0.187  -0.004   1.157  0.00  0.00     0.048 A 
ATOM      6  C5  UNL d   1       0.775   0.855   0.623  0.00  0.00     0.003 A 
ATOM      7  I   UNL d   1      -2.865  -0.771   2.338  0.00  0.00    -0.146 I 
ENDROOT
TORSDOF 0
ENDMDL
