MODEL 1
REMARK minimizedAffinity 8.71334267
REMARK minimizedRMSD -1
REMARK  0 active torsions:
REMARK  status: ('A' for Active; 'I' for Inactive)
ROOT
ATOM      1  C   UNL d   1      -0.164   0.400   2.137  0.00  0.00     0.023 A 
ATOM      2  C1  UNL d   1       0.497   1.248   1.248  0.00  0.00     0.003 A 
ATOM      3  C2  UNL d   1      -0.220   1.911   0.250  0.00  0.00     0.048 A 
ATOM      4  C3  UNL d   1      -1.597   1.721   0.146  0.00  0.00     0.023 A 
ATOM      5  C4  UNL d   1      -2.263   0.874   1.033  0.00  0.00     0.048 A 
ATOM      6  C5  UNL d   1      -1.542   0.213   2.029  0.00  0.00     0.003 A 
ATOM      7  I   UNL d   1      -2.667   2.707  -1.339  0.00  0.00    -0.146 I 
ENDROOT
TORSDOF 0
ENDMDL
