MODEL 1
REMARK minimizedAffinity 2.93885541
REMARK minimizedRMSD -1
REMARK  0 active torsions:
REMARK  status: ('A' for Active; 'I' for Inactive)
ROOT
ATOM      1  C   UNL d   1       0.789   0.098   1.467  0.00  0.00     0.023 A 
ATOM      2  C1  UNL d   1      -0.554  -0.027   1.821  0.00  0.00     0.003 A 
ATOM      3  C2  UNL d   1      -1.527   0.715   1.148  0.00  0.00     0.048 A 
ATOM      4  C3  UNL d   1      -1.150   1.579   0.121  0.00  0.00     0.023 A 
ATOM      5  C4  UNL d   1       0.193   1.706  -0.238  0.00  0.00     0.048 A 
ATOM      6  C5  UNL d   1       1.162   0.964   0.438  0.00  0.00     0.003 A 
ATOM      7  I   UNL d   1      -2.597   2.683  -0.883  0.00  0.00    -0.146 I 
ENDROOT
TORSDOF 0
ENDMDL
