MODEL 1
REMARK minimizedAffinity -1.84116125
REMARK minimizedRMSD -1
REMARK  0 active torsions:
REMARK  status: ('A' for Active; 'I' for Inactive)
ROOT
ATOM      1  C   UNL d   1      -4.607   0.669   0.953  0.00  0.00     0.023 A 
ATOM      2  C1  UNL d   1      -3.615  -0.232   1.337  0.00  0.00     0.003 A 
ATOM      3  C2  UNL d   1      -2.273   0.151   1.312  0.00  0.00     0.048 A 
ATOM      4  C3  UNL d   1      -1.929   1.439   0.901  0.00  0.00     0.023 A 
ATOM      5  C4  UNL d   1      -2.919   2.345   0.516  0.00  0.00     0.048 A 
ATOM      6  C5  UNL d   1      -4.259   1.957   0.543  0.00  0.00     0.003 A 
ATOM      7  I   UNL d   1       0.068   2.013   0.862  0.00  0.00    -0.146 I 
ENDROOT
TORSDOF 0
ENDMDL
