MODEL 1
REMARK minimizedAffinity 2.50388026
REMARK minimizedRMSD -1
REMARK  0 active torsions:
REMARK  status: ('A' for Active; 'I' for Inactive)
ROOT
ATOM      1  C   UNL d   1       0.490   0.785   0.760  0.00  0.00     0.023 A 
ATOM      2  C1  UNL d   1       0.420   2.137   0.422  0.00  0.00     0.003 A 
ATOM      3  C2  UNL d   1      -0.823   2.754   0.262  0.00  0.00     0.048 A 
ATOM      4  C3  UNL d   1      -1.991   2.013   0.442  0.00  0.00     0.023 A 
ATOM      5  C4  UNL d   1      -1.925   0.661   0.781  0.00  0.00     0.048 A 
ATOM      6  C5  UNL d   1      -0.680   0.048   0.939  0.00  0.00     0.003 A 
ATOM      7  I   UNL d   1      -3.841   2.929   0.205  0.00  0.00    -0.146 I 
ENDROOT
TORSDOF 0
ENDMDL
