MODEL 1
REMARK minimizedAffinity -2.95043564
REMARK minimizedRMSD -1
REMARK  0 active torsions:
REMARK  status: ('A' for Active; 'I' for Inactive)
ROOT
ATOM      1  C   UNL d   1      -0.245   1.535   0.031  0.00  0.00     0.023 A 
ATOM      2  C1  UNL d   1      -0.990   2.434  -0.733  0.00  0.00     0.003 A 
ATOM      3  C2  UNL d   1      -2.372   2.526  -0.555  0.00  0.00     0.048 A 
ATOM      4  C3  UNL d   1      -3.003   1.716   0.388  0.00  0.00     0.023 A 
ATOM      5  C4  UNL d   1      -2.262   0.815   1.155  0.00  0.00     0.048 A 
ATOM      6  C5  UNL d   1      -0.880   0.726   0.973  0.00  0.00     0.003 A 
ATOM      7  I   UNL d   1      -5.060   1.851   0.654  0.00  0.00    -0.146 I 
ENDROOT
TORSDOF 0
ENDMDL
