MODEL 1
REMARK minimizedAffinity -1.09870303
REMARK minimizedRMSD -1
REMARK  0 active torsions:
REMARK  status: ('A' for Active; 'I' for Inactive)
ROOT
ATOM      1  C   UNL d   1      -0.321   1.491  -0.481  0.00  0.00     0.023 A 
ATOM      2  C1  UNL d   1      -1.045   2.564  -1.001  0.00  0.00     0.003 A 
ATOM      3  C2  UNL d   1      -2.397   2.715  -0.685  0.00  0.00     0.048 A 
ATOM      4  C3  UNL d   1      -3.018   1.789   0.152  0.00  0.00     0.023 A 
ATOM      5  C4  UNL d   1      -2.298   0.714   0.675  0.00  0.00     0.048 A 
ATOM      6  C5  UNL d   1      -0.947   0.567   0.356  0.00  0.00     0.003 A 
ATOM      7  I   UNL d   1      -5.030   2.011   0.623  0.00  0.00    -0.146 I 
ENDROOT
TORSDOF 0
ENDMDL
