MODEL 1
REMARK minimizedAffinity 1.89686036
REMARK minimizedRMSD -1
REMARK  0 active torsions:
REMARK  status: ('A' for Active; 'I' for Inactive)
ROOT
ATOM      1  C   UNL d   1      -0.905   1.532   0.055  0.00  0.00     0.023 A 
ATOM      2  C1  UNL d   1      -1.466   2.645  -0.573  0.00  0.00     0.003 A 
ATOM      3  C2  UNL d   1      -2.812   2.957  -0.372  0.00  0.00     0.048 A 
ATOM      4  C3  UNL d   1      -3.591   2.153   0.459  0.00  0.00     0.023 A 
ATOM      5  C4  UNL d   1      -3.034   1.040   1.090  0.00  0.00     0.048 A 
ATOM      6  C5  UNL d   1      -1.688   0.731   0.885  0.00  0.00     0.003 A 
ATOM      7  I   UNL d   1      -5.595   2.617   0.761  0.00  0.00    -0.146 I 
ENDROOT
TORSDOF 0
ENDMDL
