MODEL 1
REMARK minimizedAffinity -2.68186164
REMARK minimizedRMSD -1
REMARK  0 active torsions:
REMARK  status: ('A' for Active; 'I' for Inactive)
ROOT
ATOM      1  C   UNL d   1       0.160   1.262  -0.028  0.00  0.00     0.023 A 
ATOM      2  C1  UNL d   1      -0.492   2.207  -0.821  0.00  0.00     0.003 A 
ATOM      3  C2  UNL d   1      -1.875   2.373  -0.717  0.00  0.00     0.048 A 
ATOM      4  C3  UNL d   1      -2.599   1.592   0.182  0.00  0.00     0.023 A 
ATOM      5  C4  UNL d   1      -1.951   0.646   0.978  0.00  0.00     0.048 A 
ATOM      6  C5  UNL d   1      -0.569   0.483   0.871  0.00  0.00     0.003 A 
ATOM      7  I   UNL d   1      -4.657   1.837   0.338  0.00  0.00    -0.146 I 
ENDROOT
TORSDOF 0
ENDMDL
