MODEL 1
REMARK minimizedAffinity -4.69710922
REMARK minimizedRMSD -1
REMARK  0 active torsions:
REMARK  status: ('A' for Active; 'I' for Inactive)
ROOT
ATOM      1  C   UNL d   1       3.397  -0.367   1.506  0.00  0.00    -0.002 A 
ATOM      2  C1  UNL d   1       2.905   0.645   0.694  0.00  0.00     0.010 A 
ATOM      3  C2  UNL d   1       1.572   0.638   0.278  0.00  0.00     0.041 A 
ATOM      4  C3  UNL d   1       0.733  -0.413   0.698  0.00  0.00    -0.075 A 
ATOM      5  S   UNL d   1      -0.934  -0.628   0.314  0.00  0.00     0.015 SA
ATOM      6  C4  UNL d   1      -1.033  -2.068   1.220  0.00  0.00     0.022 A 
ATOM      7  C5  UNL d   1       0.167  -2.392   1.808  0.00  0.00     0.026 A 
ATOM      8  C6  UNL d   1       1.204  -1.442   1.517  0.00  0.00    -0.082 A 
ATOM      9  C7  UNL d   1       2.561  -1.407   1.921  0.00  0.00     0.045 A 
ENDROOT
TORSDOF 0
ENDMDL
