MODEL 1
REMARK minimizedAffinity -4.97663879
REMARK minimizedRMSD -1
REMARK  0 active torsions:
REMARK  status: ('A' for Active; 'I' for Inactive)
ROOT
ATOM      1  C   UNL d   1       3.672  -0.744   0.898  0.00  0.00    -0.002 A 
ATOM      2  C1  UNL d   1       3.296  -1.970   1.429  0.00  0.00     0.010 A 
ATOM      3  C2  UNL d   1       1.947  -2.292   1.589  0.00  0.00     0.041 A 
ATOM      4  C3  UNL d   1       0.972  -1.352   1.201  0.00  0.00    -0.075 A 
ATOM      5  S   UNL d   1      -0.740  -1.528   1.303  0.00  0.00     0.015 SA
ATOM      6  C4  UNL d   1      -1.014   0.020   0.644  0.00  0.00     0.022 A 
ATOM      7  C5  UNL d   1       0.161   0.669   0.348  0.00  0.00     0.026 A 
ATOM      8  C6  UNL d   1       1.325  -0.111   0.663  0.00  0.00    -0.082 A 
ATOM      9  C7  UNL d   1       2.701   0.186   0.515  0.00  0.00     0.045 A 
ENDROOT
TORSDOF 0
ENDMDL
