MODEL 1
REMARK minimizedAffinity -4.89471197
REMARK minimizedRMSD -1
REMARK  0 active torsions:
REMARK  status: ('A' for Active; 'I' for Inactive)
ROOT
ATOM      1  C   UNL d   1       0.706   0.230   0.076  0.00  0.00    -0.002 A 
ATOM      2  C1  UNL d   1       1.482  -0.320  -0.935  0.00  0.00     0.010 A 
ATOM      3  C2  UNL d   1       0.925  -0.605  -2.183  0.00  0.00     0.041 A 
ATOM      4  C3  UNL d   1      -0.438  -0.325  -2.401  0.00  0.00    -0.075 A 
ATOM      5  S   UNL d   1      -1.335  -0.590  -3.850  0.00  0.00     0.015 SA
ATOM      6  C4  UNL d   1      -2.769   0.021  -3.162  0.00  0.00     0.022 A 
ATOM      7  C5  UNL d   1      -2.587   0.421  -1.859  0.00  0.00     0.026 A 
ATOM      8  C6  UNL d   1      -1.240   0.229  -1.400  0.00  0.00    -0.082 A 
ATOM      9  C7  UNL d   1      -0.646   0.506  -0.145  0.00  0.00     0.045 A 
ENDROOT
TORSDOF 0
ENDMDL
