MODEL 1
REMARK minimizedAffinity -4.27472305
REMARK minimizedRMSD -1
REMARK  0 active torsions:
REMARK  status: ('A' for Active; 'I' for Inactive)
ROOT
ATOM      1  C   UNL d   1       2.552  -1.617   1.540  0.00  0.00    -0.002 A 
ATOM      2  C1  UNL d   1       2.919  -0.358   1.994  0.00  0.00     0.010 A 
ATOM      3  C2  UNL d   1       2.259   0.783   1.534  0.00  0.00     0.041 A 
ATOM      4  C3  UNL d   1       1.213   0.637   0.603  0.00  0.00    -0.075 A 
ATOM      5  S   UNL d   1       0.262   1.893  -0.099  0.00  0.00     0.015 SA
ATOM      6  C4  UNL d   1      -0.654   0.788  -1.017  0.00  0.00     0.022 A 
ATOM      7  C5  UNL d   1      -0.258  -0.512  -0.806  0.00  0.00     0.026 A 
ATOM      8  C6  UNL d   1       0.824  -0.620   0.131  0.00  0.00    -0.082 A 
ATOM      9  C7  UNL d   1       1.513  -1.758   0.616  0.00  0.00     0.045 A 
ENDROOT
TORSDOF 0
ENDMDL
