MODEL 1
REMARK minimizedAffinity 12.8037472
REMARK minimizedRMSD -1
REMARK  0 active torsions:
REMARK  status: ('A' for Active; 'I' for Inactive)
ROOT
ATOM      1  C   UNL d   1      -2.307  -0.344   1.945  0.00  0.00     0.124 A 
ATOM      2  C1  UNL d   1      -2.258  -0.045   0.590  0.00  0.00     0.062 A 
ATOM      3  C2  UNL d   1      -1.032   0.037  -0.064  0.00  0.00     0.162 A 
ATOM      4  C3  UNL d   1       0.155  -0.181   0.635  0.00  0.00    -0.034 A 
ATOM      5  C4  UNL d   1       0.098  -0.479   1.997  0.00  0.00     0.162 A 
ATOM      6  C5  UNL d   1      -1.130  -0.560   2.647  0.00  0.00     0.062 A 
ATOM      7  F   UNL d   1      -1.175  -0.849   3.956  0.00  0.00    -0.097 F 
ATOM      8  F1  UNL d   1       1.220  -0.694   2.700  0.00  0.00    -0.096 F 
ATOM      9  I   UNL d   1       1.990  -0.059  -0.340  0.00  0.00    -0.060 I 
ATOM     10  F2  UNL d   1      -1.014   0.327  -1.374  0.00  0.00    -0.096 F 
ATOM     11  F3  UNL d   1      -3.394   0.165  -0.090  0.00  0.00    -0.097 F 
ATOM     12  F4  UNL d   1      -3.487  -0.421   2.572  0.00  0.00    -0.092 F 
ENDROOT
TORSDOF 0
ENDMDL
