MODEL 1
REMARK minimizedAffinity 2.97802019
REMARK minimizedRMSD -1
REMARK  0 active torsions:
REMARK  status: ('A' for Active; 'I' for Inactive)
ROOT
ATOM      1  C   UNL d   1       0.490  -0.533   2.462  0.00  0.00     0.124 A 
ATOM      2  C1  UNL d   1       0.647  -0.252   1.112  0.00  0.00     0.062 A 
ATOM      3  C2  UNL d   1      -0.464   0.027   0.321  0.00  0.00     0.162 A 
ATOM      4  C3  UNL d   1      -1.742   0.028   0.879  0.00  0.00    -0.034 A 
ATOM      5  C4  UNL d   1      -1.892  -0.257   2.237  0.00  0.00     0.162 A 
ATOM      6  C5  UNL d   1      -0.779  -0.535   3.023  0.00  0.00     0.062 A 
ATOM      7  F   UNL d   1      -0.932  -0.806   4.328  0.00  0.00    -0.097 F 
ATOM      8  F1  UNL d   1      -3.107  -0.265   2.806  0.00  0.00    -0.096 F 
ATOM      9  I   UNL d   1      -3.406   0.445  -0.300  0.00  0.00    -0.060 I 
ATOM     10  F2  UNL d   1      -0.283   0.295  -0.981  0.00  0.00    -0.096 F 
ATOM     11  F3  UNL d   1       1.872  -0.250   0.567  0.00  0.00    -0.097 F 
ATOM     12  F4  UNL d   1       1.561  -0.802   3.220  0.00  0.00    -0.092 F 
ENDROOT
TORSDOF 0
ENDMDL
