MODEL 1
REMARK minimizedAffinity -2.56964779
REMARK minimizedRMSD -1
REMARK  0 active torsions:
REMARK  status: ('A' for Active; 'I' for Inactive)
ROOT
ATOM      1  C   UNL d   1       0.119   0.659   4.433  0.00  0.00     0.124 A 
ATOM      2  C1  UNL d   1       0.759   0.051   3.362  0.00  0.00     0.062 A 
ATOM      3  C2  UNL d   1       0.111  -0.072   2.136  0.00  0.00     0.162 A 
ATOM      4  C3  UNL d   1      -1.186   0.415   1.974  0.00  0.00    -0.034 A 
ATOM      5  C4  UNL d   1      -1.824   1.025   3.056  0.00  0.00     0.162 A 
ATOM      6  C5  UNL d   1      -1.172   1.145   4.279  0.00  0.00     0.062 A 
ATOM      7  F   UNL d   1      -1.792   1.733   5.312  0.00  0.00    -0.097 F 
ATOM      8  F1  UNL d   1      -3.071   1.505   2.935  0.00  0.00    -0.096 F 
ATOM      9  I   UNL d   1      -2.159   0.234   0.144  0.00  0.00    -0.060 I 
ATOM     10  F2  UNL d   1       0.754  -0.664   1.119  0.00  0.00    -0.096 F 
ATOM     11  F3  UNL d   1       2.006  -0.421   3.508  0.00  0.00    -0.097 F 
ATOM     12  F4  UNL d   1       0.745   0.775   5.611  0.00  0.00    -0.092 F 
ENDROOT
TORSDOF 0
ENDMDL
