MODEL 1
REMARK minimizedAffinity 15.0468187
REMARK minimizedRMSD -1
REMARK  0 active torsions:
REMARK  status: ('A' for Active; 'I' for Inactive)
ROOT
ATOM      1  C   UNL d   1      -2.428  -0.929   3.216  0.00  0.00     0.124 A 
ATOM      2  C1  UNL d   1      -1.199  -1.505   3.507  0.00  0.00     0.062 A 
ATOM      3  C2  UNL d   1      -0.058  -1.105   2.818  0.00  0.00     0.162 A 
ATOM      4  C3  UNL d   1      -0.141  -0.123   1.830  0.00  0.00    -0.034 A 
ATOM      5  C4  UNL d   1      -1.381   0.450   1.542  0.00  0.00     0.162 A 
ATOM      6  C5  UNL d   1      -2.518   0.047   2.235  0.00  0.00     0.062 A 
ATOM      7  F   UNL d   1      -3.705   0.604   1.952  0.00  0.00    -0.097 F 
ATOM      8  F1  UNL d   1      -1.496   1.397   0.599  0.00  0.00    -0.096 F 
ATOM      9  I   UNL d   1       1.563   0.478   0.796  0.00  0.00    -0.060 I 
ATOM     10  F2  UNL d   1       1.117  -1.677   3.120  0.00  0.00    -0.096 F 
ATOM     11  F3  UNL d   1      -1.109  -2.449   4.455  0.00  0.00    -0.097 F 
ATOM     12  F4  UNL d   1      -3.524  -1.317   3.881  0.00  0.00    -0.092 F 
ENDROOT
TORSDOF 0
ENDMDL
