MODEL 1
REMARK minimizedAffinity 8.06609344
REMARK minimizedRMSD -1
REMARK  0 active torsions:
REMARK  status: ('A' for Active; 'I' for Inactive)
ROOT
ATOM      1  C   UNL d   1      -1.756  -0.059   0.660  0.00  0.00     0.124 A 
ATOM      2  C1  UNL d   1      -2.255   0.055   1.950  0.00  0.00     0.062 A 
ATOM      3  C2  UNL d   1      -1.509  -0.404   3.032  0.00  0.00     0.162 A 
ATOM      4  C3  UNL d   1      -0.255  -0.980   2.828  0.00  0.00    -0.034 A 
ATOM      5  C4  UNL d   1       0.239  -1.092   1.528  0.00  0.00     0.162 A 
ATOM      6  C5  UNL d   1      -0.510  -0.632   0.450  0.00  0.00     0.062 A 
ATOM      7  F   UNL d   1      -0.026  -0.743  -0.796  0.00  0.00    -0.097 F 
ATOM      8  F1  UNL d   1       1.441  -1.640   1.297  0.00  0.00    -0.096 F 
ATOM      9  I   UNL d   1       0.863  -1.667   4.444  0.00  0.00    -0.060 I 
ATOM     10  F2  UNL d   1      -2.016  -0.281   4.268  0.00  0.00    -0.096 F 
ATOM     11  F3  UNL d   1      -3.460   0.607   2.155  0.00  0.00    -0.097 F 
ATOM     12  F4  UNL d   1      -2.477   0.382  -0.380  0.00  0.00    -0.092 F 
ENDROOT
TORSDOF 0
ENDMDL
