MODEL 1
REMARK minimizedAffinity 6.05046749
REMARK minimizedRMSD -1
REMARK  0 active torsions:
REMARK  status: ('A' for Active; 'I' for Inactive)
ROOT
ATOM      1  C   UNL d   1      -0.918  -0.579   4.085  0.00  0.00     0.124 A 
ATOM      2  C1  UNL d   1      -2.238  -0.332   3.733  0.00  0.00     0.062 A 
ATOM      3  C2  UNL d   1      -2.554   0.070   2.438  0.00  0.00     0.162 A 
ATOM      4  C3  UNL d   1      -1.547   0.227   1.485  0.00  0.00    -0.034 A 
ATOM      5  C4  UNL d   1      -0.222  -0.022   1.847  0.00  0.00     0.162 A 
ATOM      6  C5  UNL d   1       0.088  -0.424   3.142  0.00  0.00     0.062 A 
ATOM      7  F   UNL d   1       1.364  -0.661   3.480  0.00  0.00    -0.097 F 
ATOM      8  F1  UNL d   1       0.770   0.119   0.955  0.00  0.00    -0.096 F 
ATOM      9  I   UNL d   1      -2.015   0.828  -0.452  0.00  0.00    -0.060 I 
ATOM     10  F2  UNL d   1      -3.837   0.301   2.126  0.00  0.00    -0.096 F 
ATOM     11  F3  UNL d   1      -3.212  -0.481   4.642  0.00  0.00    -0.097 F 
ATOM     12  F4  UNL d   1      -0.617  -0.964   5.332  0.00  0.00    -0.092 F 
ENDROOT
TORSDOF 0
ENDMDL
