MODEL 1
REMARK minimizedAffinity 3.64047337
REMARK minimizedRMSD -1
REMARK  0 active torsions:
REMARK  status: ('A' for Active; 'I' for Inactive)
ROOT
ATOM      1  C   UNL d   1      -2.140   0.022  -0.035  0.00  0.00     0.124 A 
ATOM      2  C1  UNL d   1      -2.622   0.237   1.248  0.00  0.00     0.062 A 
ATOM      3  C2  UNL d   1      -1.858  -0.127   2.353  0.00  0.00     0.162 A 
ATOM      4  C3  UNL d   1      -0.602  -0.709   2.180  0.00  0.00    -0.034 A 
ATOM      5  C4  UNL d   1      -0.124  -0.922   0.886  0.00  0.00     0.162 A 
ATOM      6  C5  UNL d   1      -0.891  -0.557  -0.215  0.00  0.00     0.062 A 
ATOM      7  F   UNL d   1      -0.423  -0.765  -1.455  0.00  0.00    -0.097 F 
ATOM      8  F1  UNL d   1       1.079  -1.479   0.683  0.00  0.00    -0.096 F 
ATOM      9  I   UNL d   1       0.543  -1.254   3.830  0.00  0.00    -0.060 I 
ATOM     10  F2  UNL d   1      -2.350   0.092   3.582  0.00  0.00    -0.096 F 
ATOM     11  F3  UNL d   1      -3.829   0.795   1.425  0.00  0.00    -0.097 F 
ATOM     12  F4  UNL d   1      -2.877   0.372  -1.097  0.00  0.00    -0.092 F 
ENDROOT
TORSDOF 0
ENDMDL
