MODEL 1
REMARK minimizedAffinity 5.99210024
REMARK minimizedRMSD -1
REMARK  2 active torsions:
REMARK  status: ('A' for Active; 'I' for Inactive)
REMARK    1  A    between atoms: C1_2  and  C2_3 
REMARK    2  A    between atoms: C2_3  and  C3_4 
ROOT
ATOM      1  C3  UNL d   1       1.055  -1.361  -4.596  0.00  0.00    -0.075 A 
ATOM      2  C4  UNL d   1       0.214  -2.218  -5.321  0.00  0.00     0.002 A 
ATOM      3  C5  UNL d   1       0.739  -3.323  -5.992  0.00  0.00     0.002 A 
ATOM      4  C6  UNL d   1       2.108  -3.580  -5.955  0.00  0.00    -0.004 A 
ATOM      5  C7  UNL d   1       2.954  -2.725  -5.252  0.00  0.00     0.002 A 
ATOM      6  C8  UNL d   1       2.431  -1.621  -4.576  0.00  0.00     0.002 A 
ENDROOT
BRANCH   1   7
ATOM      7  C2  UNL d   1       0.490  -0.180  -3.843  0.00  0.00     0.056 C 
BRANCH   7   8
ATOM      8  C1  UNL d   1      -0.705  -0.525  -2.948  0.00  0.00     0.007 C 
ATOM      9  C   UNL d   1      -0.520  -1.822  -2.172  0.00  0.00     0.009 C 
ENDBRANCH   7   8
ENDBRANCH   1   7
TORSDOF 2
ENDMDL
