MODEL 1
REMARK minimizedAffinity 6.14695072
REMARK minimizedRMSD -1
REMARK  2 active torsions:
REMARK  status: ('A' for Active; 'I' for Inactive)
REMARK    1  A    between atoms: C1_2  and  C2_3 
REMARK    2  A    between atoms: C2_3  and  C3_4 
ROOT
ATOM      1  C3  UNL d   1       0.182  -1.209   2.297  0.00  0.00    -0.075 A 
ATOM      2  C4  UNL d   1       0.640  -2.361   2.952  0.00  0.00     0.002 A 
ATOM      3  C5  UNL d   1       1.411  -2.258   4.110  0.00  0.00     0.002 A 
ATOM      4  C6  UNL d   1       1.741  -1.005   4.622  0.00  0.00    -0.004 A 
ATOM      5  C7  UNL d   1       1.306   0.146   3.970  0.00  0.00     0.002 A 
ATOM      6  C8  UNL d   1       0.531   0.046   2.813  0.00  0.00     0.002 A 
ENDROOT
BRANCH   1   7
ATOM      7  C2  UNL d   1      -0.677  -1.314   1.059  0.00  0.00     0.056 C 
BRANCH   7   8
ATOM      8  C1  UNL d   1       0.033  -1.949  -0.141  0.00  0.00     0.007 C 
ATOM      9  C   UNL d   1      -0.877  -2.132  -1.349  0.00  0.00     0.009 C 
ENDBRANCH   7   8
ENDBRANCH   1   7
TORSDOF 2
ENDMDL
