MODEL 1
REMARK minimizedAffinity 7.50462341
REMARK minimizedRMSD -1
REMARK  2 active torsions:
REMARK  status: ('A' for Active; 'I' for Inactive)
REMARK    1  A    between atoms: C1_2  and  C2_3 
REMARK    2  A    between atoms: C2_3  and  C3_4 
ROOT
ATOM      1  C3  UNL d   1       3.285  -1.900   4.303  0.00  0.00    -0.075 A 
ATOM      2  C4  UNL d   1       2.564  -2.983   4.829  0.00  0.00     0.002 A 
ATOM      3  C5  UNL d   1       3.184  -3.903   5.674  0.00  0.00     0.002 A 
ATOM      4  C6  UNL d   1       4.532  -3.760   5.996  0.00  0.00    -0.004 A 
ATOM      5  C7  UNL d   1       5.262  -2.698   5.466  0.00  0.00     0.002 A 
ATOM      6  C8  UNL d   1       4.643  -1.773   4.624  0.00  0.00     0.002 A 
ENDROOT
BRANCH   1   7
ATOM      7  C2  UNL d   1       2.612  -0.884   3.412  0.00  0.00     0.056 C 
BRANCH   7   8
ATOM      8  C1  UNL d   1       2.931   0.570   3.773  0.00  0.00     0.007 C 
ATOM      9  C   UNL d   1       2.095   1.099   4.930  0.00  0.00     0.009 C 
ENDBRANCH   7   8
ENDBRANCH   1   7
TORSDOF 2
ENDMDL
