MODEL 1
REMARK minimizedAffinity 10.5152235
REMARK minimizedRMSD -1
REMARK  2 active torsions:
REMARK  status: ('A' for Active; 'I' for Inactive)
REMARK    1  A    between atoms: C1_2  and  C2_3 
REMARK    2  A    between atoms: C2_3  and  C3_4 
ROOT
ATOM      1  C3  UNL d   1      -1.128  -2.432  -3.966  0.00  0.00    -0.075 A 
ATOM      2  C4  UNL d   1      -0.403  -2.037  -5.100  0.00  0.00     0.002 A 
ATOM      3  C5  UNL d   1       0.605  -1.078  -4.997  0.00  0.00     0.002 A 
ATOM      4  C6  UNL d   1       0.894  -0.496  -3.764  0.00  0.00    -0.004 A 
ATOM      5  C7  UNL d   1       0.169  -0.869  -2.635  0.00  0.00     0.002 A 
ATOM      6  C8  UNL d   1      -0.837  -1.832  -2.734  0.00  0.00     0.002 A 
ENDROOT
BRANCH   1   7
ATOM      7  C2  UNL d   1      -2.201  -3.491  -4.066  0.00  0.00     0.056 C 
BRANCH   7   8
ATOM      8  C1  UNL d   1      -1.837  -4.813  -3.381  0.00  0.00     0.007 C 
ATOM      9  C   UNL d   1      -1.827  -6.000  -4.336  0.00  0.00     0.009 C 
ENDBRANCH   7   8
ENDBRANCH   1   7
TORSDOF 2
ENDMDL
