MODEL 1
REMARK minimizedAffinity 13.4343843
REMARK minimizedRMSD -1
REMARK  2 active torsions:
REMARK  status: ('A' for Active; 'I' for Inactive)
REMARK    1  A    between atoms: C1_2  and  C2_3 
REMARK    2  A    between atoms: C2_3  and  C3_4 
ROOT
ATOM      1  C3  UNL d   1       4.725  -0.698   4.166  0.00  0.00    -0.075 A 
ATOM      2  C4  UNL d   1       3.503  -1.190   3.686  0.00  0.00     0.002 A 
ATOM      3  C5  UNL d   1       2.632  -0.358   2.982  0.00  0.00     0.002 A 
ATOM      4  C6  UNL d   1       2.966   0.976   2.759  0.00  0.00    -0.004 A 
ATOM      5  C7  UNL d   1       4.171   1.480   3.246  0.00  0.00     0.002 A 
ATOM      6  C8  UNL d   1       5.046   0.648   3.947  0.00  0.00     0.002 A 
ENDROOT
BRANCH   1   7
ATOM      7  C2  UNL d   1       5.685  -1.601   4.903  0.00  0.00     0.056 C 
BRANCH   7   8
ATOM      8  C1  UNL d   1       5.091  -2.959   5.291  0.00  0.00     0.007 C 
ATOM      9  C   UNL d   1       5.990  -4.134   4.930  0.00  0.00     0.009 C 
ENDBRANCH   7   8
ENDBRANCH   1   7
TORSDOF 2
ENDMDL
