MODEL 1
REMARK minimizedAffinity 11.6840954
REMARK minimizedRMSD -1
REMARK  0 active torsions:
REMARK  status: ('A' for Active; 'I' for Inactive)
ROOT
ATOM      1  O1  BZF d   1      -1.529   2.551  -1.937  0.00  0.00    -0.204 OA
ATOM      2  C2  BZF d   1      -1.321   3.546  -2.872  0.00  0.00     0.174 A 
ATOM      3  C3  BZF d   1      -2.130   3.379  -3.937  0.00  0.00    -0.012 A 
ATOM      4  C3A BZF d   1      -2.957   2.258  -3.609  0.00  0.00    -0.107 A 
ATOM      5  C4  BZF d   1      -3.971   1.616  -4.261  0.00  0.00     0.055 A 
ATOM      6  C5  BZF d   1      -4.522   0.509  -3.698  0.00  0.00    -0.016 A 
ATOM      7  C6  BZF d   1      -4.081   0.014  -2.488  0.00  0.00     0.022 A 
ATOM      8  C7  BZF d   1      -3.082   0.620  -1.801  0.00  0.00     0.029 A 
ATOM      9  C7A BZF d   1      -2.546   1.758  -2.352  0.00  0.00     0.058 A 
ENDROOT
TORSDOF 0
ENDMDL
