MODEL 1
REMARK minimizedAffinity 9.45365715
REMARK minimizedRMSD -1
REMARK  0 active torsions:
REMARK  status: ('A' for Active; 'I' for Inactive)
ROOT
ATOM      1  O1  BZF d   1       4.397  -3.696   2.600  0.00  0.00    -0.204 OA
ATOM      2  C2  BZF d   1       4.147  -4.863   1.905  0.00  0.00     0.174 A 
ATOM      3  C3  BZF d   1       4.562  -5.937   2.607  0.00  0.00    -0.012 A 
ATOM      4  C3A BZF d   1       5.021  -5.414   3.857  0.00  0.00    -0.107 A 
ATOM      5  C4  BZF d   1       5.539  -5.990   4.982  0.00  0.00     0.055 A 
ATOM      6  C5  BZF d   1       5.957  -5.192   6.000  0.00  0.00    -0.016 A 
ATOM      7  C6  BZF d   1       5.877  -3.817   5.924  0.00  0.00     0.022 A 
ATOM      8  C7  BZF d   1       5.366  -3.200   4.831  0.00  0.00     0.029 A 
ATOM      9  C7A BZF d   1       4.913  -4.005   3.814  0.00  0.00     0.058 A 
ENDROOT
TORSDOF 0
ENDMDL
