MODEL 1
REMARK minimizedAffinity 7.44121218
REMARK minimizedRMSD -1
REMARK  0 active torsions:
REMARK  status: ('A' for Active; 'I' for Inactive)
ROOT
ATOM      1  O1  BZF d   1      -2.863   3.002  -2.900  0.00  0.00    -0.204 OA
ATOM      2  C2  BZF d   1      -2.569   1.767  -2.355  0.00  0.00     0.174 A 
ATOM      3  C3  BZF d   1      -3.447   0.835  -2.779  0.00  0.00    -0.012 A 
ATOM      4  C3A BZF d   1      -4.291   1.512  -3.715  0.00  0.00    -0.107 A 
ATOM      5  C4  BZF d   1      -5.346   1.115  -4.486  0.00  0.00     0.055 A 
ATOM      6  C5  BZF d   1      -5.999   2.039  -5.238  0.00  0.00    -0.016 A 
ATOM      7  C6  BZF d   1      -5.629   3.368  -5.239  0.00  0.00     0.022 A 
ATOM      8  C7  BZF d   1      -4.586   3.808  -4.495  0.00  0.00     0.029 A 
ATOM      9  C7A BZF d   1      -3.903   2.871  -3.759  0.00  0.00     0.058 A 
ENDROOT
TORSDOF 0
ENDMDL
