MODEL 1
REMARK minimizedAffinity 13.0831547
REMARK minimizedRMSD -1
REMARK  0 active torsions:
REMARK  status: ('A' for Active; 'I' for Inactive)
ROOT
ATOM      1  O1  BZF d   1       5.999   3.084  -5.886  0.00  0.00    -0.204 OA
ATOM      2  C2  BZF d   1       5.642   1.888  -5.295  0.00  0.00     0.174 A 
ATOM      3  C3  BZF d   1       4.484   2.016  -4.617  0.00  0.00    -0.012 A 
ATOM      4  C3A BZF d   1       4.045   3.354  -4.872  0.00  0.00    -0.107 A 
ATOM      5  C4  BZF d   1       2.949   4.072  -4.487  0.00  0.00     0.055 A 
ATOM      6  C5  BZF d   1       2.855   5.378  -4.848  0.00  0.00    -0.016 A 
ATOM      7  C6  BZF d   1       3.839   5.999  -5.589  0.00  0.00     0.022 A 
ATOM      8  C7  BZF d   1       4.942   5.327  -5.999  0.00  0.00     0.029 A 
ATOM      9  C7A BZF d   1       5.024   3.997  -5.663  0.00  0.00     0.058 A 
ENDROOT
TORSDOF 0
ENDMDL
