MODEL 1
REMARK minimizedAffinity 11.1710958
REMARK minimizedRMSD -1
REMARK  0 active torsions:
REMARK  status: ('A' for Active; 'I' for Inactive)
ROOT
ATOM      1  O1  BZF d   1       1.646   2.654  -5.573  0.00  0.00    -0.204 OA
ATOM      2  C2  BZF d   1       0.403   3.210  -5.801  0.00  0.00     0.174 A 
ATOM      3  C3  BZF d   1       0.492   4.551  -5.914  0.00  0.00    -0.012 A 
ATOM      4  C3A BZF d   1       1.891   4.843  -5.838  0.00  0.00    -0.107 A 
ATOM      5  C4  BZF d   1       2.613   6.000  -5.903  0.00  0.00     0.055 A 
ATOM      6  C5  BZF d   1       3.959   5.949  -5.720  0.00  0.00    -0.016 A 
ATOM      7  C6  BZF d   1       4.613   4.762  -5.466  0.00  0.00     0.022 A 
ATOM      8  C7  BZF d   1       3.939   3.588  -5.397  0.00  0.00     0.029 A 
ATOM      9  C7A BZF d   1       2.584   3.631  -5.614  0.00  0.00     0.058 A 
ENDROOT
TORSDOF 0
ENDMDL
