MODEL 1
REMARK minimizedAffinity 17.2329845
REMARK minimizedRMSD -1
REMARK  0 active torsions:
REMARK  status: ('A' for Active; 'I' for Inactive)
ROOT
ATOM      1  O1  BZF d   1      -3.204   4.124  -3.369  0.00  0.00    -0.204 OA
ATOM      2  C2  BZF d   1      -2.491   2.998  -3.004  0.00  0.00     0.174 A 
ATOM      3  C3  BZF d   1      -3.013   1.895  -3.578  0.00  0.00    -0.012 A 
ATOM      4  C3A BZF d   1      -4.065   2.372  -4.422  0.00  0.00    -0.107 A 
ATOM      5  C4  BZF d   1      -4.945   1.756  -5.265  0.00  0.00     0.055 A 
ATOM      6  C5  BZF d   1      -5.896   2.501  -5.888  0.00  0.00    -0.016 A 
ATOM      7  C6  BZF d   1      -5.999   3.861  -5.686  0.00  0.00     0.022 A 
ATOM      8  C7  BZF d   1      -5.146   4.518  -4.864  0.00  0.00     0.029 A 
ATOM      9  C7A BZF d   1      -4.163   3.773  -4.259  0.00  0.00     0.058 A 
ENDROOT
TORSDOF 0
ENDMDL
