MODEL 1
REMARK minimizedAffinity 7.12916327
REMARK minimizedRMSD -1
REMARK  0 active torsions:
REMARK  status: ('A' for Active; 'I' for Inactive)
ROOT
ATOM      1  O1  BZF d   1       5.778   2.761  -5.891  0.00  0.00    -0.204 OA
ATOM      2  C2  BZF d   1       5.131   1.620  -5.457  0.00  0.00     0.174 A 
ATOM      3  C3  BZF d   1       3.914   1.921  -4.960  0.00  0.00    -0.012 A 
ATOM      4  C3A BZF d   1       3.756   3.327  -5.177  0.00  0.00    -0.107 A 
ATOM      5  C4  BZF d   1       2.749   4.210  -4.912  0.00  0.00     0.055 A 
ATOM      6  C5  BZF d   1       2.939   5.529  -5.182  0.00  0.00    -0.016 A 
ATOM      7  C6  BZF d   1       4.123   5.998  -5.710  0.00  0.00     0.022 A 
ATOM      8  C7  BZF d   1       5.149   5.159  -5.994  0.00  0.00     0.029 A 
ATOM      9  C7A BZF d   1       4.948   3.822  -5.753  0.00  0.00     0.058 A 
ENDROOT
TORSDOF 0
ENDMDL
