MODEL 1
REMARK minimizedAffinity 22.5348816
REMARK minimizedRMSD -1
REMARK  0 active torsions:
REMARK  status: ('A' for Active; 'I' for Inactive)
ROOT
ATOM      1  C   UNL d   1      -2.025   1.459  -1.016  0.00  0.00     0.124 A 
ATOM      2  C1  UNL d   1      -2.829   1.985  -2.018  0.00  0.00     0.062 A 
ATOM      3  C2  UNL d   1      -2.616   3.281  -2.478  0.00  0.00     0.162 A 
ATOM      4  C3  UNL d   1      -1.594   4.061  -1.938  0.00  0.00    -0.034 A 
ATOM      5  C4  UNL d   1      -0.790   3.526  -0.930  0.00  0.00     0.162 A 
ATOM      6  C5  UNL d   1      -1.007   2.230  -0.473  0.00  0.00     0.062 A 
ATOM      7  F   UNL d   1      -0.229   1.724   0.496  0.00  0.00    -0.097 F 
ATOM      8  F1  UNL d   1       0.202   4.248  -0.388  0.00  0.00    -0.096 F 
ATOM      9  I   UNL d   1      -1.272   5.999  -2.623  0.00  0.00    -0.060 I 
ATOM     10  F2  UNL d   1      -3.408   3.763  -3.448  0.00  0.00    -0.096 F 
ATOM     11  F3  UNL d   1      -3.814   1.243  -2.544  0.00  0.00    -0.097 F 
ATOM     12  F4  UNL d   1      -2.233   0.212  -0.574  0.00  0.00    -0.092 F 
ENDROOT
TORSDOF 0
ENDMDL
