MODEL 1
REMARK minimizedAffinity 17.503006
REMARK minimizedRMSD -1
REMARK  0 active torsions:
REMARK  status: ('A' for Active; 'I' for Inactive)
ROOT
ATOM      1  C   UNL d   1      -3.972  -0.680   1.837  0.00  0.00     0.124 A 
ATOM      2  C1  UNL d   1      -4.711   0.182   2.636  0.00  0.00     0.062 A 
ATOM      3  C2  UNL d   1      -5.289  -0.280   3.815  0.00  0.00     0.162 A 
ATOM      4  C3  UNL d   1      -5.131  -1.611   4.202  0.00  0.00    -0.034 A 
ATOM      5  C4  UNL d   1      -4.388  -2.472   3.392  0.00  0.00     0.162 A 
ATOM      6  C5  UNL d   1      -3.812  -2.005   2.215  0.00  0.00     0.062 A 
ATOM      7  F   UNL d   1      -3.099  -2.839   1.444  0.00  0.00    -0.097 F 
ATOM      8  F1  UNL d   1      -4.216  -3.757   3.734  0.00  0.00    -0.096 F 
ATOM      9  I   UNL d   1      -5.995  -2.306   5.963  0.00  0.00    -0.060 I 
ATOM     10  F2  UNL d   1      -5.998   0.574   4.568  0.00  0.00    -0.096 F 
ATOM     11  F3  UNL d   1      -4.868   1.463   2.272  0.00  0.00    -0.097 F 
ATOM     12  F4  UNL d   1      -3.417  -0.232   0.703  0.00  0.00    -0.092 F 
ENDROOT
TORSDOF 0
ENDMDL
