MODEL 1
REMARK minimizedAffinity 11.2520599
REMARK minimizedRMSD -1
REMARK  0 active torsions:
REMARK  status: ('A' for Active; 'I' for Inactive)
ROOT
ATOM      1  C   UNL d   1      -3.243   4.122  -2.602  0.00  0.00     0.124 A 
ATOM      2  C1  UNL d   1      -2.236   4.861  -1.997  0.00  0.00     0.062 A 
ATOM      3  C2  UNL d   1      -1.137   5.286  -2.739  0.00  0.00     0.162 A 
ATOM      4  C3  UNL d   1      -1.041   4.974  -4.096  0.00  0.00    -0.034 A 
ATOM      5  C4  UNL d   1      -2.058   4.229  -4.696  0.00  0.00     0.162 A 
ATOM      6  C5  UNL d   1      -3.153   3.807  -3.950  0.00  0.00     0.062 A 
ATOM      7  F   UNL d   1      -4.126   3.093  -4.536  0.00  0.00    -0.097 F 
ATOM      8  F1  UNL d   1      -1.997   3.911  -5.998  0.00  0.00    -0.096 F 
ATOM      9  I   UNL d   1       0.599   5.607  -5.209  0.00  0.00    -0.060 I 
ATOM     10  F2  UNL d   1      -0.179   5.999  -2.129  0.00  0.00    -0.096 F 
ATOM     11  F3  UNL d   1      -2.319   5.166  -0.694  0.00  0.00    -0.097 F 
ATOM     12  F4  UNL d   1      -4.298   3.714  -1.885  0.00  0.00    -0.092 F 
ENDROOT
TORSDOF 0
ENDMDL
