MODEL 1
REMARK minimizedAffinity 23.059021
REMARK minimizedRMSD -1
REMARK  0 active torsions:
REMARK  status: ('A' for Active; 'I' for Inactive)
ROOT
ATOM      1  C   UNL d   1       0.618   3.257  -0.567  0.00  0.00     0.124 A 
ATOM      2  C1  UNL d   1      -0.499   2.556  -0.134  0.00  0.00     0.062 A 
ATOM      3  C2  UNL d   1      -0.522   1.992   1.139  0.00  0.00     0.162 A 
ATOM      4  C3  UNL d   1       0.575   2.128   1.988  0.00  0.00    -0.034 A 
ATOM      5  C4  UNL d   1       1.696   2.833   1.546  0.00  0.00     0.162 A 
ATOM      6  C5  UNL d   1       1.714   3.395   0.273  0.00  0.00     0.062 A 
ATOM      7  F   UNL d   1       2.794   4.071  -0.144  0.00  0.00    -0.097 F 
ATOM      8  F1  UNL d   1       2.769   2.982   2.337  0.00  0.00    -0.096 F 
ATOM      9  I   UNL d   1       0.545   1.286   3.892  0.00  0.00    -0.060 I 
ATOM     10  F2  UNL d   1      -1.615   1.321   1.531  0.00  0.00    -0.096 F 
ATOM     11  F3  UNL d   1      -1.560   2.421  -0.943  0.00  0.00    -0.097 F 
ATOM     12  F4  UNL d   1       0.638   3.797  -1.792  0.00  0.00    -0.092 F 
ENDROOT
TORSDOF 0
ENDMDL
