MODEL 1
REMARK minimizedAffinity 23.0810699
REMARK minimizedRMSD -1
REMARK  0 active torsions:
REMARK  status: ('A' for Active; 'I' for Inactive)
ROOT
ATOM      1  C   UNL d   1      -1.132   5.061  -1.510  0.00  0.00     0.124 A 
ATOM      2  C1  UNL d   1      -1.760   5.059  -0.273  0.00  0.00     0.062 A 
ATOM      3  C2  UNL d   1      -1.448   4.084   0.670  0.00  0.00     0.162 A 
ATOM      4  C3  UNL d   1      -0.502   3.102   0.379  0.00  0.00    -0.034 A 
ATOM      5  C4  UNL d   1       0.126   3.109  -0.868  0.00  0.00     0.162 A 
ATOM      6  C5  UNL d   1      -0.190   4.086  -1.807  0.00  0.00     0.062 A 
ATOM      7  F   UNL d   1       0.419   4.086  -3.002  0.00  0.00    -0.097 F 
ATOM      8  F1  UNL d   1       1.041   2.179  -1.180  0.00  0.00    -0.096 F 
ATOM      9  I   UNL d   1      -0.032   1.641   1.786  0.00  0.00    -0.060 I 
ATOM     10  F2  UNL d   1      -2.071   4.107   1.858  0.00  0.00    -0.096 F 
ATOM     11  F3  UNL d   1      -2.672   6.000   0.016  0.00  0.00    -0.097 F 
ATOM     12  F4  UNL d   1      -1.435   6.000  -2.415  0.00  0.00    -0.092 F 
ENDROOT
TORSDOF 0
ENDMDL
