MODEL 1
REMARK minimizedAffinity 2.14392948
REMARK minimizedRMSD -1
REMARK  0 active torsions:
REMARK  status: ('A' for Active; 'I' for Inactive)
ROOT
ATOM      1  C   UNL d   1      -2.231  -2.382  -5.968  0.00  0.00     0.124 A 
ATOM      2  C1  UNL d   1      -1.869  -3.721  -5.968  0.00  0.00     0.062 A 
ATOM      3  C2  UNL d   1      -2.847  -4.711  -5.977  0.00  0.00     0.162 A 
ATOM      4  C3  UNL d   1      -4.198  -4.366  -5.986  0.00  0.00    -0.034 A 
ATOM      5  C4  UNL d   1      -4.555  -3.016  -5.985  0.00  0.00     0.162 A 
ATOM      6  C5  UNL d   1      -3.574  -2.030  -5.977  0.00  0.00     0.062 A 
ATOM      7  F   UNL d   1      -3.926  -0.736  -5.977  0.00  0.00    -0.097 F 
ATOM      8  F1  UNL d   1      -5.845  -2.648  -5.995  0.00  0.00    -0.096 F 
ATOM      9  I   UNL d   1      -5.664  -5.843  -5.999  0.00  0.00    -0.060 I 
ATOM     10  F2  UNL d   1      -2.467  -5.998  -5.976  0.00  0.00    -0.096 F 
ATOM     11  F3  UNL d   1      -0.572  -4.063  -5.959  0.00  0.00    -0.097 F 
ATOM     12  F4  UNL d   1      -1.288  -1.431  -5.959  0.00  0.00    -0.092 F 
ENDROOT
TORSDOF 0
ENDMDL
