MODEL 1
REMARK minimizedAffinity 2.45641541
REMARK minimizedRMSD -1
REMARK  0 active torsions:
REMARK  status: ('A' for Active; 'I' for Inactive)
ROOT
ATOM      1  C   UNL d   1      -1.709  -2.375  -5.983  0.00  0.00     0.124 A 
ATOM      2  C1  UNL d   1      -3.067  -2.089  -5.991  0.00  0.00     0.062 A 
ATOM      3  C2  UNL d   1      -3.999  -3.123  -5.992  0.00  0.00     0.162 A 
ATOM      4  C3  UNL d   1      -3.577  -4.452  -5.983  0.00  0.00    -0.034 A 
ATOM      5  C4  UNL d   1      -2.209  -4.731  -5.976  0.00  0.00     0.162 A 
ATOM      6  C5  UNL d   1      -1.281  -3.695  -5.975  0.00  0.00     0.062 A 
ATOM      7  F   UNL d   1       0.031  -3.973  -5.967  0.00  0.00    -0.097 F 
ATOM      8  F1  UNL d   1      -1.768  -5.998  -5.967  0.00  0.00    -0.096 F 
ATOM      9  I   UNL d   1      -4.968  -6.000  -5.984  0.00  0.00    -0.060 I 
ATOM     10  F2  UNL d   1      -5.306  -2.818  -6.000  0.00  0.00    -0.096 F 
ATOM     11  F3  UNL d   1      -3.483  -0.815  -6.000  0.00  0.00    -0.097 F 
ATOM     12  F4  UNL d   1      -0.814  -1.379  -5.984  0.00  0.00    -0.092 F 
ENDROOT
TORSDOF 0
ENDMDL
