MODEL 1
REMARK minimizedAffinity 17.4861336
REMARK minimizedRMSD -1
REMARK  0 active torsions:
REMARK  status: ('A' for Active; 'I' for Inactive)
ROOT
ATOM      1  C   UNL d   1       0.189   2.724  -1.527  0.00  0.00     0.124 A 
ATOM      2  C1  UNL d   1      -0.225   3.918  -2.101  0.00  0.00     0.062 A 
ATOM      3  C2  UNL d   1      -0.922   4.855  -1.344  0.00  0.00     0.162 A 
ATOM      4  C3  UNL d   1      -1.210   4.602  -0.002  0.00  0.00    -0.034 A 
ATOM      5  C4  UNL d   1      -0.791   3.398   0.568  0.00  0.00     0.162 A 
ATOM      6  C5  UNL d   1      -0.095   2.465  -0.193  0.00  0.00     0.062 A 
ATOM      7  F   UNL d   1       0.304   1.312   0.364  0.00  0.00    -0.097 F 
ATOM      8  F1  UNL d   1      -1.051   3.123   1.855  0.00  0.00    -0.096 F 
ATOM      9  I   UNL d   1      -2.252   6.000   1.134  0.00  0.00    -0.060 I 
ATOM     10  F2  UNL d   1      -1.310   6.000  -1.925  0.00  0.00    -0.096 F 
ATOM     11  F3  UNL d   1       0.047   4.170  -3.390  0.00  0.00    -0.097 F 
ATOM     12  F4  UNL d   1       0.859   1.824  -2.258  0.00  0.00    -0.092 F 
ENDROOT
TORSDOF 0
ENDMDL
