MODEL 1
REMARK minimizedAffinity 11.7447348
REMARK minimizedRMSD -1
REMARK  0 active torsions:
REMARK  status: ('A' for Active; 'I' for Inactive)
ROOT
ATOM      1  C   UNL d   1      -0.750   3.010   1.371  0.00  0.00     0.124 A 
ATOM      2  C1  UNL d   1      -1.606   4.099   1.287  0.00  0.00     0.062 A 
ATOM      3  C2  UNL d   1      -1.545   4.955   0.191  0.00  0.00     0.162 A 
ATOM      4  C3  UNL d   1      -0.625   4.723  -0.832  0.00  0.00    -0.034 A 
ATOM      5  C4  UNL d   1       0.233   3.626  -0.741  0.00  0.00     0.162 A 
ATOM      6  C5  UNL d   1       0.168   2.774   0.357  0.00  0.00     0.062 A 
ATOM      7  F   UNL d   1       0.996   1.722   0.436  0.00  0.00    -0.097 F 
ATOM      8  F1  UNL d   1       1.129   3.374  -1.706  0.00  0.00    -0.096 F 
ATOM      9  I   UNL d   1      -0.531   6.000  -2.473  0.00  0.00    -0.060 I 
ATOM     10  F2  UNL d   1      -2.384   6.000   0.136  0.00  0.00    -0.096 F 
ATOM     11  F3  UNL d   1      -2.493   4.330   2.265  0.00  0.00    -0.097 F 
ATOM     12  F4  UNL d   1      -0.810   2.189   2.427  0.00  0.00    -0.092 F 
ENDROOT
TORSDOF 0
ENDMDL
