MODEL 1
REMARK minimizedAffinity 12.1850576
REMARK minimizedRMSD -1
REMARK  0 active torsions:
REMARK  status: ('A' for Active; 'I' for Inactive)
ROOT
ATOM      1  C1  BNZ d   1      -4.372  -1.931   0.698  0.00  0.00     0.000 A 
ATOM      2  C2  BNZ d   1      -4.319  -0.782   1.441  0.00  0.00     0.000 A 
ATOM      3  C3  BNZ d   1      -3.119  -0.257   1.832  0.00  0.00     0.000 A 
ATOM      4  C4  BNZ d   1      -1.978  -0.901   1.515  0.00  0.00     0.000 A 
ATOM      5  C5  BNZ d   1      -2.015  -2.066   0.774  0.00  0.00     0.000 A 
ATOM      6  C6  BNZ d   1      -3.222  -2.571   0.349  0.00  0.00     0.000 A 
ENDROOT
TORSDOF 0
ENDMDL
