MODEL 1
REMARK minimizedAffinity 3.61316276
REMARK minimizedRMSD -1
REMARK  0 active torsions:
REMARK  status: ('A' for Active; 'I' for Inactive)
ROOT
ATOM      1  C1  BNZ d   1      -5.850  -3.868   1.767  0.00  0.00     0.000 A 
ATOM      2  C2  BNZ d   1      -4.873  -3.878   0.808  0.00  0.00     0.000 A 
ATOM      3  C3  BNZ d   1      -4.041  -4.954   0.668  0.00  0.00     0.000 A 
ATOM      4  C4  BNZ d   1      -4.162  -5.999   1.512  0.00  0.00     0.000 A 
ATOM      5  C5  BNZ d   1      -5.136  -6.000   2.490  0.00  0.00     0.000 A 
ATOM      6  C6  BNZ d   1      -5.997  -4.932   2.603  0.00  0.00     0.000 A 
ENDROOT
TORSDOF 0
ENDMDL
