MODEL 1
REMARK minimizedAffinity 6.9305954
REMARK minimizedRMSD -1
REMARK  0 active torsions:
REMARK  status: ('A' for Active; 'I' for Inactive)
ROOT
ATOM      1  C1  BNZ d   1      -1.099  -0.144   1.905  0.00  0.00     0.000 A 
ATOM      2  C2  BNZ d   1      -0.780   1.188   1.918  0.00  0.00     0.000 A 
ATOM      3  C3  BNZ d   1      -1.752   2.141   1.795  0.00  0.00     0.000 A 
ATOM      4  C4  BNZ d   1      -3.034   1.762   1.619  0.00  0.00     0.000 A 
ATOM      5  C5  BNZ d   1      -3.370   0.423   1.594  0.00  0.00     0.000 A 
ATOM      6  C6  BNZ d   1      -2.394  -0.533   1.757  0.00  0.00     0.000 A 
ENDROOT
TORSDOF 0
ENDMDL
