MODEL 1
REMARK minimizedAffinity 2.72943115
REMARK minimizedRMSD -1
REMARK  0 active torsions:
REMARK  status: ('A' for Active; 'I' for Inactive)
ROOT
ATOM      1  C1  BNZ d   1      -2.438  -0.255   2.089  0.00  0.00     0.000 A 
ATOM      2  C2  BNZ d   1      -2.620  -1.608   1.985  0.00  0.00     0.000 A 
ATOM      3  C3  BNZ d   1      -1.923  -2.340   1.065  0.00  0.00     0.000 A 
ATOM      4  C4  BNZ d   1      -1.076  -1.713   0.223  0.00  0.00     0.000 A 
ATOM      5  C5  BNZ d   1      -0.888  -0.347   0.309  0.00  0.00     0.000 A 
ATOM      6  C6  BNZ d   1      -1.563   0.380   1.263  0.00  0.00     0.000 A 
ENDROOT
TORSDOF 0
ENDMDL
