MODEL 1
REMARK minimizedAffinity 9.75176048
REMARK minimizedRMSD -1
REMARK  0 active torsions:
REMARK  status: ('A' for Active; 'I' for Inactive)
ROOT
ATOM      1  C1  BNZ d   1       5.969  -5.640   3.774  0.00  0.00     0.000 A 
ATOM      2  C2  BNZ d   1       5.993  -4.355   3.304  0.00  0.00     0.000 A 
ATOM      3  C3  BNZ d   1       5.999  -3.294   4.166  0.00  0.00     0.000 A 
ATOM      4  C4  BNZ d   1       5.942  -3.519   5.495  0.00  0.00     0.000 A 
ATOM      5  C5  BNZ d   1       5.909  -4.809   5.984  0.00  0.00     0.000 A 
ATOM      6  C6  BNZ d   1       5.942  -5.875   5.115  0.00  0.00     0.000 A 
ENDROOT
TORSDOF 0
ENDMDL
