MODEL 1
REMARK minimizedAffinity 2.48297429
REMARK minimizedRMSD -1
REMARK  0 active torsions:
REMARK  status: ('A' for Active; 'I' for Inactive)
ROOT
ATOM      1  C1  BNZ d   1      -3.636  -4.301  -6.000  0.00  0.00     0.000 A 
ATOM      2  C2  BNZ d   1      -4.822  -4.986  -6.000  0.00  0.00     0.000 A 
ATOM      3  C3  BNZ d   1      -5.993  -4.357  -5.683  0.00  0.00     0.000 A 
ATOM      4  C4  BNZ d   1      -5.973  -3.056  -5.329  0.00  0.00     0.000 A 
ATOM      5  C5  BNZ d   1      -4.784  -2.354  -5.315  0.00  0.00     0.000 A 
ATOM      6  C6  BNZ d   1      -3.612  -2.980  -5.672  0.00  0.00     0.000 A 
ENDROOT
TORSDOF 0
ENDMDL
