MODEL 1
REMARK minimizedAffinity 5.92590523
REMARK minimizedRMSD -1
REMARK  0 active torsions:
REMARK  status: ('A' for Active; 'I' for Inactive)
ROOT
ATOM      1  C1  BNZ d   1      -0.904   0.930   1.963  0.00  0.00     0.000 A 
ATOM      2  C2  BNZ d   1      -1.611   2.045   1.599  0.00  0.00     0.000 A 
ATOM      3  C3  BNZ d   1      -2.948   2.144   1.865  0.00  0.00     0.000 A 
ATOM      4  C4  BNZ d   1      -3.584   1.113   2.457  0.00  0.00     0.000 A 
ATOM      5  C5  BNZ d   1      -2.888  -0.022   2.821  0.00  0.00     0.000 A 
ATOM      6  C6  BNZ d   1      -1.534  -0.102   2.587  0.00  0.00     0.000 A 
ENDROOT
TORSDOF 0
ENDMDL
