MODEL 1
REMARK minimizedAffinity 7.01941586
REMARK minimizedRMSD -1
REMARK  0 active torsions:
REMARK  status: ('A' for Active; 'I' for Inactive)
ROOT
ATOM      1  C1  BNZ d   1       4.630   3.891  -4.463  0.00  0.00     0.000 A 
ATOM      2  C2  BNZ d   1       4.186   5.007  -3.806  0.00  0.00     0.000 A 
ATOM      3  C3  BNZ d   1       3.032   5.632  -4.188  0.00  0.00     0.000 A 
ATOM      4  C4  BNZ d   1       2.345   5.164  -5.250  0.00  0.00     0.000 A 
ATOM      5  C5  BNZ d   1       2.784   4.045  -5.929  0.00  0.00     0.000 A 
ATOM      6  C6  BNZ d   1       3.925   3.395  -5.517  0.00  0.00     0.000 A 
ENDROOT
TORSDOF 0
ENDMDL
