MODEL 1
REMARK minimizedAffinity 7.81991005
REMARK minimizedRMSD -1
REMARK  0 active torsions:
REMARK  status: ('A' for Active; 'I' for Inactive)
ROOT
ATOM      1  C1  BNZ d   1      -0.951   0.108   2.008  0.00  0.00     0.000 A 
ATOM      2  C2  BNZ d   1      -1.209   1.453   2.006  0.00  0.00     0.000 A 
ATOM      3  C3  BNZ d   1      -2.453   1.927   2.318  0.00  0.00     0.000 A 
ATOM      4  C4  BNZ d   1      -3.445   1.055   2.591  0.00  0.00     0.000 A 
ATOM      5  C5  BNZ d   1      -3.202  -0.304   2.588  0.00  0.00     0.000 A 
ATOM      6  C6  BNZ d   1      -1.940  -0.776   2.312  0.00  0.00     0.000 A 
ENDROOT
TORSDOF 0
ENDMDL
