MODEL 1
REMARK minimizedAffinity 3.73947239
REMARK minimizedRMSD -1
REMARK  0 active torsions:
REMARK  status: ('A' for Active; 'I' for Inactive)
ROOT
ATOM      1  C1  BNZ d   1      -0.592   0.482   1.621  0.00  0.00     0.000 A 
ATOM      2  C2  BNZ d   1      -1.307   1.517   1.078  0.00  0.00     0.000 A 
ATOM      3  C3  BNZ d   1      -2.673   1.494   1.068  0.00  0.00     0.000 A 
ATOM      4  C4  BNZ d   1      -3.323   0.421   1.563  0.00  0.00     0.000 A 
ATOM      5  C5  BNZ d   1      -2.616  -0.635   2.105  0.00  0.00     0.000 A 
ATOM      6  C6  BNZ d   1      -1.242  -0.591   2.149  0.00  0.00     0.000 A 
ENDROOT
TORSDOF 0
ENDMDL
