MODEL 1
REMARK minimizedAffinity 7.45059633
REMARK minimizedRMSD -1
REMARK  0 active torsions:
REMARK  status: ('A' for Active; 'I' for Inactive)
ROOT
ATOM      1  C1  BNZ d   1      -3.539  -1.286   0.423  0.00  0.00     0.000 A 
ATOM      2  C2  BNZ d   1      -3.587  -2.519  -0.171  0.00  0.00     0.000 A 
ATOM      3  C3  BNZ d   1      -2.498  -3.344  -0.158  0.00  0.00     0.000 A 
ATOM      4  C4  BNZ d   1      -1.351  -2.921   0.413  0.00  0.00     0.000 A 
ATOM      5  C5  BNZ d   1      -1.285  -1.677   1.007  0.00  0.00     0.000 A 
ATOM      6  C6  BNZ d   1      -2.395  -0.864   1.026  0.00  0.00     0.000 A 
ENDROOT
TORSDOF 0
ENDMDL
