MODEL 1
REMARK minimizedAffinity 6.12173223
REMARK minimizedRMSD -1
REMARK  0 active torsions:
REMARK  status: ('A' for Active; 'I' for Inactive)
ROOT
ATOM      1  C1  BNZ d   1      -0.553   0.263   0.737  0.00  0.00     0.000 A 
ATOM      2  C2  BNZ d   1      -1.657   0.916   0.256  0.00  0.00     0.000 A 
ATOM      3  C3  BNZ d   1      -2.684   1.261   1.089  0.00  0.00     0.000 A 
ATOM      4  C4  BNZ d   1      -2.626   0.916   2.392  0.00  0.00     0.000 A 
ATOM      5  C5  BNZ d   1      -1.524   0.249   2.890  0.00  0.00     0.000 A 
ATOM      6  C6  BNZ d   1      -0.474  -0.061   2.056  0.00  0.00     0.000 A 
ENDROOT
TORSDOF 0
ENDMDL
