MODEL 1
REMARK minimizedAffinity -1.59736001
REMARK minimizedRMSD -1
REMARK  0 active torsions:
REMARK  status: ('A' for Active; 'I' for Inactive)
ROOT
ATOM      1  C1  BNZ d   1      -2.984   2.143   2.146  0.00  0.00     0.000 A 
ATOM      2  C2  BNZ d   1      -1.798   2.780   2.395  0.00  0.00     0.000 A 
ATOM      3  C3  BNZ d   1      -0.641   2.069   2.549  0.00  0.00     0.000 A 
ATOM      4  C4  BNZ d   1      -0.678   0.722   2.495  0.00  0.00     0.000 A 
ATOM      5  C5  BNZ d   1      -1.869   0.065   2.254  0.00  0.00     0.000 A 
ATOM      6  C6  BNZ d   1      -3.024   0.786   2.061  0.00  0.00     0.000 A 
ENDROOT
TORSDOF 0
ENDMDL
