MODEL 1
REMARK minimizedAffinity 1.14092696
REMARK minimizedRMSD -1
REMARK  0 active torsions:
REMARK  status: ('A' for Active; 'I' for Inactive)
ROOT
ATOM      1  C1  BNZ d   1       4.504   1.064  -6.000  0.00  0.00     0.000 A 
ATOM      2  C2  BNZ d   1       3.511   1.580  -5.210  0.00  0.00     0.000 A 
ATOM      3  C3  BNZ d   1       2.762   0.768  -4.406  0.00  0.00     0.000 A 
ATOM      4  C4  BNZ d   1       2.979  -0.563  -4.422  0.00  0.00     0.000 A 
ATOM      5  C5  BNZ d   1       3.970  -1.100  -5.220  0.00  0.00     0.000 A 
ATOM      6  C6  BNZ d   1       4.748  -0.275  -5.999  0.00  0.00     0.000 A 
ENDROOT
TORSDOF 0
ENDMDL
