MODEL 1
REMARK minimizedAffinity -4.38314629
REMARK minimizedRMSD -1
REMARK  1 active torsions:
REMARK  status: ('A' for Active; 'I' for Inactive)
REMARK    1  A    between atoms: N_2  and  C1_3 
ROOT
ATOM      1  C1  UNL d   1      -0.204   0.182   0.082  0.00  0.00     0.143 A 
ATOM      2  C2  UNL d   1       0.514   1.369  -0.106  0.00  0.00    -0.057 A 
ATOM      3  C3  UNL d   1       1.368   1.535  -1.203  0.00  0.00     0.033 A 
ATOM      4  C4  UNL d   1       1.542   0.503  -2.119  0.00  0.00    -0.042 A 
ATOM      5  C5  UNL d   1       0.858  -0.694  -1.939  0.00  0.00     0.033 A 
ATOM      6  C6  UNL d   1       0.002  -0.852  -0.845  0.00  0.00    -0.057 A 
ENDROOT
BRANCH   1   7
ATOM      7  N   UNL d   1      -0.992  -0.081   1.205  0.00  0.00    -0.732 N 
ATOM      8  C   UNL d   1      -2.403   0.241   1.206  0.00  0.00     0.284 C 
ATOM      9  H3  UNL d   1      -0.769  -0.975   1.635  0.00  0.00     0.395 HD
ENDBRANCH   1   7
TORSDOF 1
ENDMDL
