MODEL 1
REMARK minimizedAffinity -4.28462744
REMARK minimizedRMSD -1
REMARK  1 active torsions:
REMARK  status: ('A' for Active; 'I' for Inactive)
REMARK    1  A    between atoms: N_2  and  C1_3 
ROOT
ATOM      1  C1  UNL d   1       0.469  -0.969  -0.757  0.00  0.00     0.143 A 
ATOM      2  C2  UNL d   1       0.638   0.247  -1.428  0.00  0.00    -0.057 A 
ATOM      3  C3  UNL d   1       1.499   0.357  -2.527  0.00  0.00     0.033 A 
ATOM      4  C4  UNL d   1       2.231  -0.745  -2.957  0.00  0.00    -0.042 A 
ATOM      5  C5  UNL d   1       2.097  -1.957  -2.290  0.00  0.00     0.033 A 
ATOM      6  C6  UNL d   1       1.231  -2.062  -1.198  0.00  0.00    -0.057 A 
ENDROOT
BRANCH   1   7
ATOM      7  N   UNL d   1      -0.296  -1.117   0.402  0.00  0.00    -0.732 N 
ATOM      8  C   UNL d   1      -0.846   0.039   1.076  0.00  0.00     0.284 C 
ATOM      9  H3  UNL d   1      -0.934  -1.909   0.347  0.00  0.00     0.395 HD
ENDBRANCH   1   7
TORSDOF 1
ENDMDL
