MODEL 1
REMARK minimizedAffinity -3.83910203
REMARK minimizedRMSD -1
REMARK  1 active torsions:
REMARK  status: ('A' for Active; 'I' for Inactive)
REMARK    1  A    between atoms: N_2  and  C1_3 
ROOT
ATOM      1  C1  UNL d   1       0.472   0.265  -0.573  0.00  0.00     0.143 A 
ATOM      2  C2  UNL d   1       1.511   1.142  -0.902  0.00  0.00    -0.057 A 
ATOM      3  C3  UNL d   1       2.455   0.813  -1.883  0.00  0.00     0.033 A 
ATOM      4  C4  UNL d   1       2.392  -0.414  -2.534  0.00  0.00    -0.042 A 
ATOM      5  C5  UNL d   1       1.382  -1.312  -2.205  0.00  0.00     0.033 A 
ATOM      6  C6  UNL d   1       0.439  -0.975  -1.229  0.00  0.00    -0.057 A 
ENDROOT
BRANCH   1   7
ATOM      7  N   UNL d   1      -0.439   0.492   0.462  0.00  0.00    -0.732 N 
ATOM      8  C   UNL d   1      -0.692  -0.527   1.458  0.00  0.00     0.284 C 
ATOM      9  H3  UNL d   1      -0.370   1.434   0.840  0.00  0.00     0.395 HD
ENDBRANCH   1   7
TORSDOF 1
ENDMDL
