MODEL 1
REMARK minimizedAffinity 3.98098159
REMARK minimizedRMSD -1
REMARK  1 active torsions:
REMARK  status: ('A' for Active; 'I' for Inactive)
REMARK    1  A    between atoms: N_2  and  C1_3 
ROOT
ATOM      1  C1  UNL d   1      -0.000   0.010   3.583  0.00  0.00     0.143 A 
ATOM      2  C2  UNL d   1      -1.354   0.363   3.564  0.00  0.00    -0.057 A 
ATOM      3  C3  UNL d   1      -2.021   0.746   4.734  0.00  0.00     0.033 A 
ATOM      4  C4  UNL d   1      -1.351   0.753   5.953  0.00  0.00    -0.042 A 
ATOM      5  C5  UNL d   1      -0.012   0.381   6.000  0.00  0.00     0.033 A 
ATOM      6  C6  UNL d   1       0.650   0.007   4.827  0.00  0.00    -0.057 A 
ENDROOT
BRANCH   1   7
ATOM      7  N   UNL d   1       0.693  -0.473   2.470  0.00  0.00    -0.732 N 
ATOM      8  C   UNL d   1       0.164  -1.573   1.692  0.00  0.00     0.284 C 
ATOM      9  H3  UNL d   1       1.100   0.273   1.912  0.00  0.00     0.395 HD
ENDBRANCH   1   7
TORSDOF 1
ENDMDL
