MODEL 1
REMARK minimizedAffinity -3.8821857
REMARK minimizedRMSD -1
REMARK  1 active torsions:
REMARK  status: ('A' for Active; 'I' for Inactive)
REMARK    1  A    between atoms: N_2  and  C1_3 
ROOT
ATOM      1  C1  UNL d   1       1.284  -0.484  -1.415  0.00  0.00     0.143 A 
ATOM      2  C2  UNL d   1       0.412  -0.437  -0.322  0.00  0.00    -0.057 A 
ATOM      3  C3  UNL d   1       0.130   0.769   0.330  0.00  0.00     0.033 A 
ATOM      4  C4  UNL d   1       0.740   1.949  -0.082  0.00  0.00    -0.042 A 
ATOM      5  C5  UNL d   1       1.630   1.922  -1.150  0.00  0.00     0.033 A 
ATOM      6  C6  UNL d   1       1.903   0.715  -1.801  0.00  0.00    -0.057 A 
ENDROOT
BRANCH   1   7
ATOM      7  N   UNL d   1       1.681  -1.667  -2.043  0.00  0.00    -0.732 N 
ATOM      8  C   UNL d   1       1.235  -2.951  -1.546  0.00  0.00     0.284 C 
ATOM      9  H3  UNL d   1       1.675  -1.589  -3.058  0.00  0.00     0.395 HD
ENDBRANCH   1   7
TORSDOF 1
ENDMDL
