MODEL 1
REMARK minimizedAffinity -5.6669631
REMARK minimizedRMSD -1
REMARK  1 active torsions:
REMARK  status: ('A' for Active; 'I' for Inactive)
REMARK    1  A    between atoms: N_2  and  C1_3 
ROOT
ATOM      1  C1  UNL d   1       0.336  -0.374  -0.474  0.00  0.00     0.143 A 
ATOM      2  C2  UNL d   1       0.588   0.777  -1.228  0.00  0.00    -0.057 A 
ATOM      3  C3  UNL d   1       1.400   0.735  -2.368  0.00  0.00     0.033 A 
ATOM      4  C4  UNL d   1       1.999  -0.458  -2.759  0.00  0.00    -0.042 A 
ATOM      5  C5  UNL d   1       1.782  -1.610  -2.010  0.00  0.00     0.033 A 
ATOM      6  C6  UNL d   1       0.965  -1.562  -0.876  0.00  0.00    -0.057 A 
ENDROOT
BRANCH   1   7
ATOM      7  N   UNL d   1      -0.382  -0.376   0.725  0.00  0.00    -0.732 N 
ATOM      8  C   UNL d   1      -1.789  -0.039   0.742  0.00  0.00     0.284 C 
ATOM      9  H3  UNL d   1      -0.135  -1.161   1.323  0.00  0.00     0.395 HD
ENDBRANCH   1   7
TORSDOF 1
ENDMDL
