MODEL 1
REMARK minimizedAffinity -2.54484963
REMARK minimizedRMSD -1
REMARK  1 active torsions:
REMARK  status: ('A' for Active; 'I' for Inactive)
REMARK    1  A    between atoms: N_2  and  C1_3 
ROOT
ATOM      1  C1  UNL d   1       0.195  -0.140   0.048  0.00  0.00     0.143 A 
ATOM      2  C2  UNL d   1       0.203  -1.114  -0.956  0.00  0.00    -0.057 A 
ATOM      3  C3  UNL d   1       0.777  -0.861  -2.208  0.00  0.00     0.033 A 
ATOM      4  C4  UNL d   1       1.329   0.385  -2.488  0.00  0.00    -0.042 A 
ATOM      5  C5  UNL d   1       1.310   1.376  -1.513  0.00  0.00     0.033 A 
ATOM      6  C6  UNL d   1       0.741   1.115  -0.263  0.00  0.00    -0.057 A 
ENDROOT
BRANCH   1   7
ATOM      7  N   UNL d   1      -0.447  -0.298   1.279  0.00  0.00    -0.732 N 
ATOM      8  C   UNL d   1      -1.849   0.030   1.426  0.00  0.00     0.284 C 
ATOM      9  H3  UNL d   1      -0.167  -1.151   1.757  0.00  0.00     0.395 HD
ENDBRANCH   1   7
TORSDOF 1
ENDMDL
