MODEL 1
REMARK minimizedAffinity -3.53255367
REMARK minimizedRMSD -1
REMARK  1 active torsions:
REMARK  status: ('A' for Active; 'I' for Inactive)
REMARK    1  A    between atoms: N_2  and  C1_3 
ROOT
ATOM      1  C1  UNL d   1       1.291  -1.094  -1.548  0.00  0.00     0.143 A 
ATOM      2  C2  UNL d   1       0.302  -0.951  -0.569  0.00  0.00    -0.057 A 
ATOM      3  C3  UNL d   1      -0.046   0.309  -0.067  0.00  0.00     0.033 A 
ATOM      4  C4  UNL d   1       0.612   1.450  -0.516  0.00  0.00    -0.042 A 
ATOM      5  C5  UNL d   1       1.616   1.329  -1.470  0.00  0.00     0.033 A 
ATOM      6  C6  UNL d   1       1.954   0.069  -1.972  0.00  0.00    -0.057 A 
ENDROOT
BRANCH   1   7
ATOM      7  N   UNL d   1       1.751  -2.327  -2.015  0.00  0.00    -0.732 N 
ATOM      8  C   UNL d   1       1.130  -3.559  -1.576  0.00  0.00     0.284 C 
ATOM      9  H3  UNL d   1       1.979  -2.307  -3.006  0.00  0.00     0.395 HD
ENDBRANCH   1   7
TORSDOF 1
ENDMDL
