MODEL 1
REMARK minimizedAffinity -4.58835983
REMARK minimizedRMSD -1
REMARK  1 active torsions:
REMARK  status: ('A' for Active; 'I' for Inactive)
REMARK    1  A    between atoms: N_2  and  C1_3 
ROOT
ATOM      1  C1  UNL d   1      -0.948   0.327   0.323  0.00  0.00     0.143 A 
ATOM      2  C2  UNL d   1      -2.151   0.911  -0.088  0.00  0.00    -0.057 A 
ATOM      3  C3  UNL d   1      -3.189   1.150   0.821  0.00  0.00     0.033 A 
ATOM      4  C4  UNL d   1      -3.053   0.781   2.155  0.00  0.00    -0.042 A 
ATOM      5  C5  UNL d   1      -1.876   0.175   2.580  0.00  0.00     0.033 A 
ATOM      6  C6  UNL d   1      -0.840  -0.055   1.669  0.00  0.00    -0.057 A 
ENDROOT
BRANCH   1   7
ATOM      7  N   UNL d   1       0.083  -0.027  -0.551  0.00  0.00    -0.732 N 
ATOM      8  C   UNL d   1       0.994   0.976  -1.061  0.00  0.00     0.284 C 
ATOM      9  H3  UNL d   1       0.533  -0.901  -0.288  0.00  0.00     0.395 HD
ENDBRANCH   1   7
TORSDOF 1
ENDMDL
