MODEL 1
REMARK minimizedAffinity 0.214908496
REMARK minimizedRMSD -1
REMARK  1 active torsions:
REMARK  status: ('A' for Active; 'I' for Inactive)
REMARK    1  A    between atoms: N_2  and  C1_3 
ROOT
ATOM      1  C1  UNL d   1      -1.651   0.086   1.060  0.00  0.00     0.143 A 
ATOM      2  C2  UNL d   1      -2.759  -0.020   0.213  0.00  0.00    -0.057 A 
ATOM      3  C3  UNL d   1      -4.038   0.354   0.641  0.00  0.00     0.033 A 
ATOM      4  C4  UNL d   1      -4.238   0.814   1.938  0.00  0.00    -0.042 A 
ATOM      5  C5  UNL d   1      -3.155   0.904   2.806  0.00  0.00     0.033 A 
ATOM      6  C6  UNL d   1      -1.878   0.536   2.370  0.00  0.00    -0.057 A 
ENDROOT
BRANCH   1   7
ATOM      7  N   UNL d   1      -0.370  -0.362   0.726  0.00  0.00    -0.732 N 
ATOM      8  C   UNL d   1       0.489   0.432  -0.125  0.00  0.00     0.284 C 
ATOM      9  H3  UNL d   1       0.108  -0.793   1.513  0.00  0.00     0.395 HD
ENDBRANCH   1   7
TORSDOF 1
ENDMDL
