MODEL 1
REMARK minimizedAffinity -4.83601761
REMARK minimizedRMSD -1
REMARK  1 active torsions:
REMARK  status: ('A' for Active; 'I' for Inactive)
REMARK    1  A    between atoms: N_2  and  C1_3 
ROOT
ATOM      1  C1  UNL d   1      -0.111   0.388   0.044  0.00  0.00     0.143 A 
ATOM      2  C2  UNL d   1       0.947   1.258  -0.243  0.00  0.00    -0.057 A 
ATOM      3  C3  UNL d   1       1.756   1.069  -1.370  0.00  0.00     0.033 A 
ATOM      4  C4  UNL d   1       1.538  -0.013  -2.217  0.00  0.00    -0.042 A 
ATOM      5  C5  UNL d   1       0.508  -0.904  -1.937  0.00  0.00     0.033 A 
ATOM      6  C6  UNL d   1      -0.300  -0.707  -0.813  0.00  0.00    -0.057 A 
ENDROOT
BRANCH   1   7
ATOM      7  N   UNL d   1      -0.888   0.465   1.203  0.00  0.00    -0.732 N 
ATOM      8  C   UNL d   1      -2.333   0.432   1.124  0.00  0.00     0.284 C 
ATOM      9  H3  UNL d   1      -0.501  -0.082   1.968  0.00  0.00     0.395 HD
ENDBRANCH   1   7
TORSDOF 1
ENDMDL
