MODEL 1
REMARK minimizedAffinity -4.59289837
REMARK minimizedRMSD -1
REMARK  1 active torsions:
REMARK  status: ('A' for Active; 'I' for Inactive)
REMARK    1  A    between atoms: N_2  and  C1_3 
ROOT
ATOM      1  C1  UNL d   1      -1.937   0.425  -0.084  0.00  0.00     0.143 A 
ATOM      2  C2  UNL d   1      -1.130   1.127  -0.986  0.00  0.00    -0.057 A 
ATOM      3  C3  UNL d   1       0.243   1.285  -0.761  0.00  0.00     0.033 A 
ATOM      4  C4  UNL d   1       0.829   0.767   0.389  0.00  0.00    -0.042 A 
ATOM      5  C5  UNL d   1       0.042   0.087   1.312  0.00  0.00     0.033 A 
ATOM      6  C6  UNL d   1      -1.327  -0.073   1.078  0.00  0.00    -0.057 A 
ENDROOT
BRANCH   1   7
ATOM      7  N   UNL d   1      -3.325   0.318  -0.203  0.00  0.00    -0.732 N 
ATOM      8  C   UNL d   1      -4.199   1.066   0.675  0.00  0.00     0.284 C 
ATOM      9  H3  UNL d   1      -3.631   0.294  -1.173  0.00  0.00     0.395 HD
ENDBRANCH   1   7
TORSDOF 1
ENDMDL
