MODEL 1
REMARK minimizedAffinity -4.43392754
REMARK minimizedRMSD -1
REMARK  1 active torsions:
REMARK  status: ('A' for Active; 'I' for Inactive)
REMARK    1  A    between atoms: N_2  and  C1_3 
ROOT
ATOM      1  C1  UNL d   1      -0.072   0.191  -0.374  0.00  0.00     0.143 A 
ATOM      2  C2  UNL d   1       0.384  -1.095  -0.685  0.00  0.00    -0.057 A 
ATOM      3  C3  UNL d   1       1.487  -1.291  -1.525  0.00  0.00     0.033 A 
ATOM      4  C4  UNL d   1       2.138  -0.201  -2.094  0.00  0.00    -0.042 A 
ATOM      5  C5  UNL d   1       1.687   1.085  -1.819  0.00  0.00     0.033 A 
ATOM      6  C6  UNL d   1       0.589   1.274  -0.974  0.00  0.00    -0.057 A 
ENDROOT
BRANCH   1   7
ATOM      7  N   UNL d   1      -1.223   0.449   0.375  0.00  0.00    -0.732 N 
ATOM      8  C   UNL d   1      -1.430  -0.197   1.653  0.00  0.00     0.284 C 
ATOM      9  H3  UNL d   1      -1.485   1.432   0.358  0.00  0.00     0.395 HD
ENDBRANCH   1   7
TORSDOF 1
ENDMDL
