MODEL 1
REMARK minimizedAffinity 7.91940212
REMARK minimizedRMSD -1
REMARK  0 active torsions:
REMARK  status: ('A' for Active; 'I' for Inactive)
ROOT
ATOM      1  C   UNL d   1      -1.142   0.727   5.378  0.00  0.00    -0.002 A 
ATOM      2  C1  UNL d   1      -1.726   1.822   6.000  0.00  0.00     0.010 A 
ATOM      3  C2  UNL d   1      -2.636   2.627   5.313  0.00  0.00     0.041 A 
ATOM      4  C3  UNL d   1      -2.955   2.309   3.978  0.00  0.00    -0.075 A 
ATOM      5  S   UNL d   1      -4.044   3.152   2.940  0.00  0.00     0.015 SA
ATOM      6  C4  UNL d   1      -3.761   2.078   1.648  0.00  0.00     0.022 A 
ATOM      7  C5  UNL d   1      -2.860   1.094   1.982  0.00  0.00     0.026 A 
ATOM      8  C6  UNL d   1      -2.381   1.211   3.331  0.00  0.00    -0.082 A 
ATOM      9  C7  UNL d   1      -1.461   0.415   4.054  0.00  0.00     0.045 A 
ENDROOT
TORSDOF 0
ENDMDL
