MODEL 1
REMARK minimizedAffinity 3.79428649
REMARK minimizedRMSD -1
REMARK  0 active torsions:
REMARK  status: ('A' for Active; 'I' for Inactive)
ROOT
ATOM      1  C   UNL d   1       1.128  -0.698  -1.235  0.00  0.00    -0.002 A 
ATOM      2  C1  UNL d   1       1.189  -0.546   0.143  0.00  0.00     0.010 A 
ATOM      3  C2  UNL d   1       1.137   0.724   0.721  0.00  0.00     0.041 A 
ATOM      4  C3  UNL d   1       1.020   1.850  -0.118  0.00  0.00    -0.075 A 
ATOM      5  S   UNL d   1       0.938   3.503   0.366  0.00  0.00     0.015 SA
ATOM      6  C4  UNL d   1       0.820   4.046  -1.245  0.00  0.00     0.022 A 
ATOM      7  C5  UNL d   1       0.841   3.006  -2.143  0.00  0.00     0.026 A 
ATOM      8  C6  UNL d   1       0.956   1.723  -1.509  0.00  0.00    -0.082 A 
ATOM      9  C7  UNL d   1       1.012   0.422  -2.064  0.00  0.00     0.045 A 
ENDROOT
TORSDOF 0
ENDMDL
