MODEL 1
REMARK minimizedAffinity 2.81283736
REMARK minimizedRMSD -1
REMARK  0 active torsions:
REMARK  status: ('A' for Active; 'I' for Inactive)
ROOT
ATOM      1  C   UNL d   1       0.668   1.525  -2.021  0.00  0.00    -0.002 A 
ATOM      2  C1  UNL d   1       1.218   0.337  -1.562  0.00  0.00     0.010 A 
ATOM      3  C2  UNL d   1       1.689   0.231  -0.251  0.00  0.00     0.041 A 
ATOM      4  C3  UNL d   1       1.594   1.351   0.599  0.00  0.00    -0.075 A 
ATOM      5  S   UNL d   1       2.104   1.453   2.243  0.00  0.00     0.015 SA
ATOM      6  C4  UNL d   1       1.602   3.077   2.375  0.00  0.00     0.022 A 
ATOM      7  C5  UNL d   1       1.057   3.545   1.203  0.00  0.00     0.026 A 
ATOM      8  C6  UNL d   1       1.043   2.558   0.160  0.00  0.00    -0.082 A 
ATOM      9  C7  UNL d   1       0.575   2.633  -1.174  0.00  0.00     0.045 A 
ENDROOT
TORSDOF 0
ENDMDL
