MODEL 1
REMARK minimizedAffinity -0.506532907
REMARK minimizedRMSD -1
REMARK  0 active torsions:
REMARK  status: ('A' for Active; 'I' for Inactive)
ROOT
ATOM      1  C   UNL d   1       1.052  -0.275  -1.011  0.00  0.00    -0.002 A 
ATOM      2  C1  UNL d   1       1.060  -0.260   0.376  0.00  0.00     0.010 A 
ATOM      3  C2  UNL d   1       1.050   0.950   1.073  0.00  0.00     0.041 A 
ATOM      4  C3  UNL d   1       1.030   2.156   0.345  0.00  0.00    -0.075 A 
ATOM      5  S   UNL d   1       1.014   3.757   0.985  0.00  0.00     0.015 SA
ATOM      6  C4  UNL d   1       0.996   4.458  -0.568  0.00  0.00     0.022 A 
ATOM      7  C5  UNL d   1       1.002   3.509  -1.562  0.00  0.00     0.026 A 
ATOM      8  C6  UNL d   1       1.021   2.166  -1.053  0.00  0.00    -0.082 A 
ATOM      9  C7  UNL d   1       1.033   0.923  -1.730  0.00  0.00     0.045 A 
ENDROOT
TORSDOF 0
ENDMDL
