MODEL 1
REMARK minimizedAffinity 7.28886652
REMARK minimizedRMSD -1
REMARK  0 active torsions:
REMARK  status: ('A' for Active; 'I' for Inactive)
ROOT
ATOM      1  C   UNL d   1       0.848   4.154  -0.375  0.00  0.00    -0.002 A 
ATOM      2  C1  UNL d   1       1.228   3.694   0.878  0.00  0.00     0.010 A 
ATOM      3  C2  UNL d   1       1.535   2.346   1.077  0.00  0.00     0.041 A 
ATOM      4  C3  UNL d   1       1.454   1.461  -0.016  0.00  0.00    -0.075 A 
ATOM      5  S   UNL d   1       1.784  -0.232  -0.009  0.00  0.00     0.015 SA
ATOM      6  C4  UNL d   1       1.429  -0.383  -1.669  0.00  0.00     0.022 A 
ATOM      7  C5  UNL d   1       1.065   0.818  -2.231  0.00  0.00     0.026 A 
ATOM      8  C6  UNL d   1       1.074   1.900  -1.287  0.00  0.00    -0.082 A 
ATOM      9  C7  UNL d   1       0.769   3.272  -1.456  0.00  0.00     0.045 A 
ENDROOT
TORSDOF 0
ENDMDL
