MODEL 1
REMARK minimizedAffinity 7.22205019
REMARK minimizedRMSD -1
REMARK  0 active torsions:
REMARK  status: ('A' for Active; 'I' for Inactive)
ROOT
ATOM      1  C   UNL d   1       0.582  -1.296  -0.168  0.00  0.00    -0.002 A 
ATOM      2  C1  UNL d   1       0.804  -0.704   1.068  0.00  0.00     0.010 A 
ATOM      3  C2  UNL d   1       1.038   0.669   1.166  0.00  0.00     0.041 A 
ATOM      4  C3  UNL d   1       1.044   1.445  -0.010  0.00  0.00    -0.075 A 
ATOM      5  S   UNL d   1       1.308   3.144  -0.132  0.00  0.00     0.015 SA
ATOM      6  C4  UNL d   1       1.132   3.125  -1.827  0.00  0.00     0.022 A 
ATOM      7  C5  UNL d   1       0.878   1.861  -2.305  0.00  0.00     0.026 A 
ATOM      8  C6  UNL d   1       0.822   0.872  -1.265  0.00  0.00    -0.082 A 
ATOM      9  C7  UNL d   1       0.589  -0.523  -1.332  0.00  0.00     0.045 A 
ENDROOT
TORSDOF 0
ENDMDL
