MODEL 1
REMARK minimizedAffinity 5.44976473
REMARK minimizedRMSD -1
REMARK  0 active torsions:
REMARK  status: ('A' for Active; 'I' for Inactive)
ROOT
ATOM      1  C   UNL d   1       0.885   4.231  -0.181  0.00  0.00    -0.002 A 
ATOM      2  C1  UNL d   1       1.199   3.451   0.922  0.00  0.00     0.010 A 
ATOM      3  C2  UNL d   1       1.435   2.082   0.780  0.00  0.00     0.041 A 
ATOM      4  C3  UNL d   1       1.350   1.506  -0.502  0.00  0.00    -0.075 A 
ATOM      5  S   UNL d   1       1.599  -0.149  -0.917  0.00  0.00     0.015 SA
ATOM      6  C4  UNL d   1       1.295   0.141  -2.568  0.00  0.00     0.022 A 
ATOM      7  C5  UNL d   1       1.009   1.463  -2.816  0.00  0.00     0.026 A 
ATOM      8  C6  UNL d   1       1.036   2.271  -1.629  0.00  0.00    -0.082 A 
ATOM      9  C7  UNL d   1       0.802   3.656  -1.452  0.00  0.00     0.045 A 
ENDROOT
TORSDOF 0
ENDMDL
