MODEL 1
REMARK minimizedAffinity 16.0553398
REMARK minimizedRMSD -1
REMARK  0 active torsions:
REMARK  status: ('A' for Active; 'I' for Inactive)
ROOT
ATOM      1  C   UNL d   1       1.742   1.775  -1.841  0.00  0.00    -0.002 A 
ATOM      2  C1  UNL d   1       0.922   0.756  -1.379  0.00  0.00     0.010 A 
ATOM      3  C2  UNL d   1      -0.464   0.922  -1.338  0.00  0.00     0.041 A 
ATOM      4  C3  UNL d   1      -1.017   2.142  -1.775  0.00  0.00    -0.075 A 
ATOM      5  S   UNL d   1      -2.686   2.570  -1.816  0.00  0.00     0.015 SA
ATOM      6  C4  UNL d   1      -2.350   4.117  -2.449  0.00  0.00     0.022 A 
ATOM      7  C5  UNL d   1      -1.002   4.318  -2.630  0.00  0.00     0.026 A 
ATOM      8  C6  UNL d   1      -0.212   3.183  -2.245  0.00  0.00    -0.082 A 
ATOM      9  C7  UNL d   1       1.190   2.984  -2.274  0.00  0.00     0.045 A 
ENDROOT
TORSDOF 0
ENDMDL
