MODEL 1
REMARK minimizedAffinity 8.47162151
REMARK minimizedRMSD -1
REMARK  0 active torsions:
REMARK  status: ('A' for Active; 'I' for Inactive)
ROOT
ATOM      1  C   UNL d   1       1.798  -0.757  -2.140  0.00  0.00    -0.002 A 
ATOM      2  C1  UNL d   1       1.995  -1.142  -0.821  0.00  0.00     0.010 A 
ATOM      3  C2  UNL d   1       1.751  -0.248   0.223  0.00  0.00     0.041 A 
ATOM      4  C3  UNL d   1       1.298   1.050  -0.082  0.00  0.00    -0.075 A 
ATOM      5  S   UNL d   1       0.932   2.313   1.034  0.00  0.00     0.015 SA
ATOM      6  C4  UNL d   1       0.504   3.392  -0.213  0.00  0.00     0.022 A 
ATOM      7  C5  UNL d   1       0.631   2.820  -1.457  0.00  0.00     0.026 A 
ATOM      8  C6  UNL d   1       1.091   1.461  -1.402  0.00  0.00    -0.082 A 
ATOM      9  C7  UNL d   1       1.348   0.532  -2.439  0.00  0.00     0.045 A 
ENDROOT
TORSDOF 0
ENDMDL
