MODEL 1
REMARK minimizedAffinity 3.98046708
REMARK minimizedRMSD -1
REMARK  0 active torsions:
REMARK  status: ('A' for Active; 'I' for Inactive)
ROOT
ATOM      1  C   UNL d   1       0.805   2.364   0.246  0.00  0.00    -0.002 A 
ATOM      2  C1  UNL d   1       0.786   2.469  -1.138  0.00  0.00     0.010 A 
ATOM      3  C2  UNL d   1       0.876   1.329  -1.939  0.00  0.00     0.041 A 
ATOM      4  C3  UNL d   1       0.985   0.068  -1.320  0.00  0.00    -0.075 A 
ATOM      5  S   UNL d   1       1.108  -1.465  -2.098  0.00  0.00     0.015 SA
ATOM      6  C4  UNL d   1       1.187  -2.297  -0.613  0.00  0.00     0.022 A 
ATOM      7  C5  UNL d   1       1.124  -1.441   0.461  0.00  0.00     0.026 A 
ATOM      8  C6  UNL d   1       1.006  -0.064   0.072  0.00  0.00    -0.082 A 
ATOM      9  C7  UNL d   1       0.913   1.111   0.856  0.00  0.00     0.045 A 
ENDROOT
TORSDOF 0
ENDMDL
