MODEL 1
REMARK minimizedAffinity 19.6694393
REMARK minimizedRMSD -1
REMARK  0 active torsions:
REMARK  status: ('A' for Active; 'I' for Inactive)
ROOT
ATOM      1  C   UNL d   1       1.364   0.614  -1.642  0.00  0.00    -0.002 A 
ATOM      2  C1  UNL d   1       0.323   0.626  -2.560  0.00  0.00     0.010 A 
ATOM      3  C2  UNL d   1      -0.300   1.825  -2.912  0.00  0.00     0.041 A 
ATOM      4  C3  UNL d   1       0.148   3.024  -2.323  0.00  0.00    -0.075 A 
ATOM      5  S   UNL d   1      -0.464   4.611  -2.604  0.00  0.00     0.015 SA
ATOM      6  C4  UNL d   1       0.644   5.311  -1.514  0.00  0.00     0.022 A 
ATOM      7  C5  UNL d   1       1.467   4.371  -0.940  0.00  0.00     0.026 A 
ATOM      8  C6  UNL d   1       1.195   3.038  -1.398  0.00  0.00    -0.082 A 
ATOM      9  C7  UNL d   1       1.805   1.805  -1.060  0.00  0.00     0.045 A 
ENDROOT
TORSDOF 0
ENDMDL
