MODEL 1
REMARK minimizedAffinity 10.5884504
REMARK minimizedRMSD -1
REMARK  0 active torsions:
REMARK  status: ('A' for Active; 'I' for Inactive)
ROOT
ATOM      1  C   UNL d   1       1.100  -0.790  -1.380  0.00  0.00    -0.002 A 
ATOM      2  C1  UNL d   1       1.772  -0.367  -0.242  0.00  0.00     0.010 A 
ATOM      3  C2  UNL d   1       1.826   0.988   0.088  0.00  0.00     0.041 A 
ATOM      4  C3  UNL d   1       1.185   1.921  -0.751  0.00  0.00    -0.075 A 
ATOM      5  S   UNL d   1       1.118   3.631  -0.545  0.00  0.00     0.015 SA
ATOM      6  C4  UNL d   1       0.194   3.840  -1.962  0.00  0.00     0.022 A 
ATOM      7  C5  UNL d   1      -0.066   2.645  -2.589  0.00  0.00     0.026 A 
ATOM      8  C6  UNL d   1       0.500   1.519  -1.902  0.00  0.00    -0.082 A 
ATOM      9  C7  UNL d   1       0.465   0.138  -2.210  0.00  0.00     0.045 A 
ENDROOT
TORSDOF 0
ENDMDL
