MODEL 1
REMARK minimizedAffinity 2.09635043
REMARK minimizedRMSD -1
REMARK  0 active torsions:
REMARK  status: ('A' for Active; 'I' for Inactive)
ROOT
ATOM      1  C   UNL d   1       1.348  -1.169  -2.073  0.00  0.00    -0.002 A 
ATOM      2  C1  UNL d   1       1.631  -1.288  -0.720  0.00  0.00     0.010 A 
ATOM      3  C2  UNL d   1       1.568  -0.174   0.119  0.00  0.00     0.041 A 
ATOM      4  C3  UNL d   1       1.211   1.074  -0.430  0.00  0.00    -0.075 A 
ATOM      5  S   UNL d   1       1.069   2.575   0.407  0.00  0.00     0.015 SA
ATOM      6  C4  UNL d   1       0.629   3.409  -1.013  0.00  0.00     0.022 A 
ATOM      7  C5  UNL d   1       0.586   2.578  -2.107  0.00  0.00     0.026 A 
ATOM      8  C6  UNL d   1       0.921   1.218  -1.789  0.00  0.00    -0.082 A 
ATOM      9  C7  UNL d   1       0.994   0.070  -2.614  0.00  0.00     0.045 A 
ENDROOT
TORSDOF 0
ENDMDL
