MODEL 1
REMARK minimizedAffinity -2.82678246
REMARK minimizedRMSD -1
REMARK  1 active torsions:
REMARK  status: ('A' for Active; 'I' for Inactive)
REMARK    1  A    between atoms: N_2  and  C1_3 
ROOT
ATOM      1  C1  UNL d   1       4.644   5.909   2.043  0.00  0.00     0.143 A 
ATOM      2  C2  UNL d   1       3.504   5.972   1.235  0.00  0.00    -0.057 A 
ATOM      3  C3  UNL d   1       3.604   5.999  -0.162  0.00  0.00     0.033 A 
ATOM      4  C4  UNL d   1       4.852   5.994  -0.776  0.00  0.00    -0.042 A 
ATOM      5  C5  UNL d   1       6.000   5.958   0.008  0.00  0.00     0.033 A 
ATOM      6  C6  UNL d   1       5.893   5.924   1.402  0.00  0.00    -0.057 A 
ENDROOT
BRANCH   1   7
ATOM      7  N   UNL d   1       4.614   5.979   3.438  0.00  0.00    -0.732 N 
ATOM      8  C   UNL d   1       5.422   5.085   4.238  0.00  0.00     0.284 C 
ATOM      9  H3  UNL d   1       4.592   6.937   3.779  0.00  0.00     0.395 HD
ENDBRANCH   1   7
TORSDOF 1
ENDMDL
