MODEL 1
REMARK minimizedAffinity -2.81268454
REMARK minimizedRMSD -1
REMARK  1 active torsions:
REMARK  status: ('A' for Active; 'I' for Inactive)
REMARK    1  A    between atoms: N_2  and  C1_3 
ROOT
ATOM      1  C1  UNL d   1       4.875   5.752   3.212  0.00  0.00     0.143 A 
ATOM      2  C2  UNL d   1       5.997   5.220   2.568  0.00  0.00    -0.057 A 
ATOM      3  C3  UNL d   1       6.000   4.988   1.188  0.00  0.00     0.033 A 
ATOM      4  C4  UNL d   1       4.866   5.258   0.428  0.00  0.00    -0.042 A 
ATOM      5  C5  UNL d   1       3.731   5.764   1.051  0.00  0.00     0.033 A 
ATOM      6  C6  UNL d   1       3.736   6.000   2.429  0.00  0.00    -0.057 A 
ENDROOT
BRANCH   1   7
ATOM      7  N   UNL d   1       4.775   5.913   4.596  0.00  0.00    -0.732 N 
ATOM      8  C   UNL d   1       5.262   4.888   5.494  0.00  0.00     0.284 C 
ATOM      9  H3  UNL d   1       4.990   6.862   4.893  0.00  0.00     0.395 HD
ENDBRANCH   1   7
TORSDOF 1
ENDMDL
