MODEL 1
REMARK minimizedAffinity 4.739748
REMARK minimizedRMSD -1
REMARK  1 active torsions:
REMARK  status: ('A' for Active; 'I' for Inactive)
REMARK    1  A    between atoms: N_2  and  C1_3 
ROOT
ATOM      1  C1  UNL d   1       3.774  -5.921   3.336  0.00  0.00     0.143 A 
ATOM      2  C2  UNL d   1       3.234  -5.947   4.627  0.00  0.00    -0.057 A 
ATOM      3  C3  UNL d   1       4.058  -5.971   5.758  0.00  0.00     0.033 A 
ATOM      4  C4  UNL d   1       5.442  -5.999   5.618  0.00  0.00    -0.042 A 
ATOM      5  C5  UNL d   1       6.000  -5.999   4.344  0.00  0.00     0.033 A 
ATOM      6  C6  UNL d   1       5.172  -5.969   3.218  0.00  0.00    -0.057 A 
ENDROOT
BRANCH   1   7
ATOM      7  N   UNL d   1       3.007  -5.996   2.171  0.00  0.00    -0.732 N 
ATOM      8  C   UNL d   1       1.964  -5.027   1.911  0.00  0.00     0.284 C 
ATOM      9  H3  UNL d   1       3.564  -6.237   1.354  0.00  0.00     0.395 HD
ENDBRANCH   1   7
TORSDOF 1
ENDMDL
