MODEL 1
REMARK minimizedAffinity 9.19154644
REMARK minimizedRMSD -1
REMARK  1 active torsions:
REMARK  status: ('A' for Active; 'I' for Inactive)
REMARK    1  A    between atoms: N_2  and  C1_3 
ROOT
ATOM      1  C1  UNL d   1       1.457  -4.105   0.477  0.00  0.00     0.143 A 
ATOM      2  C2  UNL d   1       0.079  -4.134   0.719  0.00  0.00    -0.057 A 
ATOM      3  C3  UNL d   1      -0.483  -5.059   1.607  0.00  0.00     0.033 A 
ATOM      4  C4  UNL d   1       0.322  -5.994   2.248  0.00  0.00    -0.042 A 
ATOM      5  C5  UNL d   1       1.691  -6.000   2.004  0.00  0.00     0.033 A 
ATOM      6  C6  UNL d   1       2.247  -5.069   1.121  0.00  0.00    -0.057 A 
ENDROOT
BRANCH   1   7
ATOM      7  N   UNL d   1       2.063  -3.275  -0.469  0.00  0.00    -0.732 N 
ATOM      8  C   UNL d   1       1.273  -2.347  -1.250  0.00  0.00     0.284 C 
ATOM      9  H3  UNL d   1       2.948  -2.894  -0.141  0.00  0.00     0.395 HD
ENDBRANCH   1   7
TORSDOF 1
ENDMDL
