MODEL 1
REMARK minimizedAffinity 5.69769716
REMARK minimizedRMSD -1
REMARK  1 active torsions:
REMARK  status: ('A' for Active; 'I' for Inactive)
REMARK    1  A    between atoms: N_2  and  C1_3 
ROOT
ATOM      1  C1  UNL d   1      -1.678   2.124   4.311  0.00  0.00     0.143 A 
ATOM      2  C2  UNL d   1      -1.529   2.097   2.920  0.00  0.00    -0.057 A 
ATOM      3  C3  UNL d   1      -1.916   0.981   2.169  0.00  0.00     0.033 A 
ATOM      4  C4  UNL d   1      -2.436  -0.144   2.802  0.00  0.00    -0.042 A 
ATOM      5  C5  UNL d   1      -2.571  -0.149   4.186  0.00  0.00     0.033 A 
ATOM      6  C6  UNL d   1      -2.188   0.972   4.929  0.00  0.00    -0.057 A 
ENDROOT
BRANCH   1   7
ATOM      7  N   UNL d   1      -1.221   3.165   5.122  0.00  0.00    -0.732 N 
ATOM      8  C   UNL d   1      -2.096   4.261   5.480  0.00  0.00     0.284 C 
ATOM      9  H3  UNL d   1      -0.636   2.834   5.887  0.00  0.00     0.395 HD
ENDBRANCH   1   7
TORSDOF 1
ENDMDL
