MODEL 1
REMARK minimizedAffinity -3.18511057
REMARK minimizedRMSD -1
REMARK  1 active torsions:
REMARK  status: ('A' for Active; 'I' for Inactive)
REMARK    1  A    between atoms: N_2  and  C1_3 
ROOT
ATOM      1  C1  UNL d   1       5.433  -3.104   5.103  0.00  0.00     0.143 A 
ATOM      2  C2  UNL d   1       4.482  -3.542   4.175  0.00  0.00    -0.057 A 
ATOM      3  C3  UNL d   1       4.025  -4.865   4.172  0.00  0.00     0.033 A 
ATOM      4  C4  UNL d   1       4.534  -5.785   5.082  0.00  0.00    -0.042 A 
ATOM      5  C5  UNL d   1       5.499  -5.379   5.998  0.00  0.00     0.033 A 
ATOM      6  C6  UNL d   1       5.946  -4.054   6.000  0.00  0.00    -0.057 A 
ENDROOT
BRANCH   1   7
ATOM      7  N   UNL d   1       5.999  -1.827   5.093  0.00  0.00    -0.732 N 
ATOM      8  C   UNL d   1       5.307  -0.719   4.471  0.00  0.00     0.284 C 
ATOM      9  H3  UNL d   1       6.448  -1.595   5.976  0.00  0.00     0.395 HD
ENDBRANCH   1   7
TORSDOF 1
ENDMDL
