MODEL 1
REMARK minimizedAffinity 7.20255661
REMARK minimizedRMSD -1
REMARK  1 active torsions:
REMARK  status: ('A' for Active; 'I' for Inactive)
REMARK    1  A    between atoms: N_2  and  C1_3 
ROOT
ATOM      1  C1  UNL d   1      -0.694  -3.150  -1.451  0.00  0.00     0.143 A 
ATOM      2  C2  UNL d   1       0.183  -2.491  -2.319  0.00  0.00    -0.057 A 
ATOM      3  C3  UNL d   1       1.570  -2.572  -2.148  0.00  0.00     0.033 A 
ATOM      4  C4  UNL d   1       2.106  -3.293  -1.086  0.00  0.00    -0.042 A 
ATOM      5  C5  UNL d   1       1.252  -3.935  -0.196  0.00  0.00     0.033 A 
ATOM      6  C6  UNL d   1      -0.132  -3.856  -0.375  0.00  0.00    -0.057 A 
ENDROOT
BRANCH   1   7
ATOM      7  N   UNL d   1      -2.085  -3.027  -1.509  0.00  0.00    -0.732 N 
ATOM      8  C   UNL d   1      -2.762  -1.967  -0.793  0.00  0.00     0.284 C 
ATOM      9  H3  UNL d   1      -2.451  -3.197  -2.443  0.00  0.00     0.395 HD
ENDBRANCH   1   7
TORSDOF 1
ENDMDL
