MODEL 1
REMARK minimizedAffinity 9.72348595
REMARK minimizedRMSD -1
REMARK  1 active torsions:
REMARK  status: ('A' for Active; 'I' for Inactive)
REMARK    1  A    between atoms: N_2  and  C1_3 
ROOT
ATOM      1  C1  UNL d   1       1.131  -4.086   0.402  0.00  0.00     0.143 A 
ATOM      2  C2  UNL d   1       1.554  -3.449  -0.769  0.00  0.00    -0.057 A 
ATOM      3  C3  UNL d   1       0.639  -2.823  -1.625  0.00  0.00     0.033 A 
ATOM      4  C4  UNL d   1      -0.721  -2.848  -1.338  0.00  0.00    -0.042 A 
ATOM      5  C5  UNL d   1      -1.166  -3.497  -0.192  0.00  0.00     0.033 A 
ATOM      6  C6  UNL d   1      -0.248  -4.115   0.662  0.00  0.00    -0.057 A 
ENDROOT
BRANCH   1   7
ATOM      7  N   UNL d   1       1.980  -4.811   1.243  0.00  0.00    -0.732 N 
ATOM      8  C   UNL d   1       1.496  -5.976   1.952  0.00  0.00     0.284 C 
ATOM      9  H3  UNL d   1       2.913  -4.920   0.852  0.00  0.00     0.395 HD
ENDBRANCH   1   7
TORSDOF 1
ENDMDL
