MODEL 1
REMARK minimizedAffinity 2.04631662
REMARK minimizedRMSD -1
REMARK  1 active torsions:
REMARK  status: ('A' for Active; 'I' for Inactive)
REMARK    1  A    between atoms: N_2  and  C1_3 
ROOT
ATOM      1  C1  UNL d   1       5.248   5.855   3.340  0.00  0.00     0.143 A 
ATOM      2  C2  UNL d   1       3.861   5.989   3.215  0.00  0.00    -0.057 A 
ATOM      3  C3  UNL d   1       3.242   5.995   1.959  0.00  0.00     0.033 A 
ATOM      4  C4  UNL d   1       4.006   5.896   0.800  0.00  0.00    -0.042 A 
ATOM      5  C5  UNL d   1       5.389   5.787   0.900  0.00  0.00     0.033 A 
ATOM      6  C6  UNL d   1       6.000   5.775   2.157  0.00  0.00    -0.057 A 
ENDROOT
BRANCH   1   7
ATOM      7  N   UNL d   1       5.931   5.941   4.556  0.00  0.00    -0.732 N 
ATOM      8  C   UNL d   1       5.259   5.641   5.802  0.00  0.00     0.284 C 
ATOM      9  H3  UNL d   1       6.879   5.576   4.495  0.00  0.00     0.395 HD
ENDBRANCH   1   7
TORSDOF 1
ENDMDL
