MODEL 1
REMARK minimizedAffinity 9.95581532
REMARK minimizedRMSD -1
REMARK  1 active torsions:
REMARK  status: ('A' for Active; 'I' for Inactive)
REMARK    1  A    between atoms: N_2  and  C1_3 
ROOT
ATOM      1  C1  UNL d   1      -3.446   0.276   3.171  0.00  0.00     0.143 A 
ATOM      2  C2  UNL d   1      -3.587  -0.331   4.424  0.00  0.00    -0.057 A 
ATOM      3  C3  UNL d   1      -4.850  -0.643   4.941  0.00  0.00     0.033 A 
ATOM      4  C4  UNL d   1      -6.000  -0.327   4.225  0.00  0.00    -0.042 A 
ATOM      5  C5  UNL d   1      -5.884   0.298   2.988  0.00  0.00     0.033 A 
ATOM      6  C6  UNL d   1      -4.620   0.602   2.474  0.00  0.00    -0.057 A 
ENDROOT
BRANCH   1   7
ATOM      7  N   UNL d   1      -2.223   0.700   2.646  0.00  0.00    -0.732 N 
ATOM      8  C   UNL d   1      -1.443   1.714   3.322  0.00  0.00     0.284 C 
ATOM      9  H3  UNL d   1      -1.672  -0.070   2.274  0.00  0.00     0.395 HD
ENDBRANCH   1   7
TORSDOF 1
ENDMDL
