MODEL 1
REMARK minimizedAffinity 0.0460538864
REMARK minimizedRMSD -1
REMARK  0 active torsions:
REMARK  status: ('A' for Active; 'I' for Inactive)
ROOT
ATOM      1  C4' PXY d   1      -6.000   5.186  -2.241  0.00  0.00     0.077 C 
ATOM      2  C1' PXY d   1      -5.971   0.122  -5.027  0.00  0.00     0.077 C 
ATOM      3  C1  PXY d   1      -5.984   1.444  -4.286  0.00  0.00    -0.082 A 
ATOM      4  C2  PXY d   1      -5.994   2.577  -4.970  0.00  0.00     0.003 A 
ATOM      5  C3  PXY d   1      -5.974   3.782  -4.316  0.00  0.00     0.003 A 
ATOM      6  C4  PXY d   1      -5.996   3.828  -2.948  0.00  0.00    -0.082 A 
ATOM      7  C5  PXY d   1      -5.997   2.676  -2.243  0.00  0.00     0.003 A 
ATOM      8  C6  PXY d   1      -5.976   1.464  -2.926  0.00  0.00     0.003 A 
ENDROOT
TORSDOF 0
ENDMDL
