MODEL 1
REMARK minimizedAffinity 0.62965405
REMARK minimizedRMSD -1
REMARK  0 active torsions:
REMARK  status: ('A' for Active; 'I' for Inactive)
ROOT
ATOM      1  C4' PXY d   1      -5.221   2.611   0.425  0.00  0.00     0.077 C 
ATOM      2  C1' PXY d   1      -5.322   2.874  -5.349  0.00  0.00     0.077 C 
ATOM      3  C1  PXY d   1      -5.284   2.811  -3.835  0.00  0.00    -0.082 A 
ATOM      4  C2  PXY d   1      -5.993   1.891  -3.200  0.00  0.00     0.003 A 
ATOM      5  C3  PXY d   1      -5.996   1.840  -1.830  0.00  0.00     0.003 A 
ATOM      6  C4  PXY d   1      -5.222   2.706  -1.103  0.00  0.00    -0.082 A 
ATOM      7  C5  PXY d   1      -4.487   3.640  -1.744  0.00  0.00     0.003 A 
ATOM      8  C6  PXY d   1      -4.531   3.701  -3.133  0.00  0.00     0.003 A 
ENDROOT
TORSDOF 0
ENDMDL
