MODEL 1
REMARK minimizedAffinity -3.30046821
REMARK minimizedRMSD -1
REMARK  0 active torsions:
REMARK  status: ('A' for Active; 'I' for Inactive)
ROOT
ATOM      1  C4' PXY d   1      -5.007   4.116  -4.871  0.00  0.00     0.077 C 
ATOM      2  C1' PXY d   1      -4.998   2.614   0.711  0.00  0.00     0.077 C 
ATOM      3  C1  PXY d   1      -4.992   3.018  -0.751  0.00  0.00    -0.082 A 
ATOM      4  C2  PXY d   1      -6.000   2.662  -1.531  0.00  0.00     0.003 A 
ATOM      5  C3  PXY d   1      -5.995   2.992  -2.862  0.00  0.00     0.003 A 
ATOM      6  C4  PXY d   1      -4.975   3.739  -3.388  0.00  0.00    -0.082 A 
ATOM      7  C5  PXY d   1      -3.949   4.114  -2.595  0.00  0.00     0.003 A 
ATOM      8  C6  PXY d   1      -3.952   3.735  -1.256  0.00  0.00     0.003 A 
ENDROOT
TORSDOF 0
ENDMDL
