MODEL 1
REMARK minimizedAffinity 9.53731155
REMARK minimizedRMSD -1
REMARK  0 active torsions:
REMARK  status: ('A' for Active; 'I' for Inactive)
ROOT
ATOM      1  C4' PXY d   1      -1.787  -3.420  -3.151  0.00  0.00     0.077 C 
ATOM      2  C1' PXY d   1       2.294  -2.931   0.914  0.00  0.00     0.077 C 
ATOM      3  C1  PXY d   1       1.231  -3.068  -0.158  0.00  0.00    -0.082 A 
ATOM      4  C2  PXY d   1       0.407  -2.061  -0.394  0.00  0.00     0.003 A 
ATOM      5  C3  PXY d   1      -0.581  -2.180  -1.338  0.00  0.00     0.003 A 
ATOM      6  C4  PXY d   1      -0.692  -3.322  -2.084  0.00  0.00    -0.082 A 
ATOM      7  C5  PXY d   1       0.152  -4.351  -1.856  0.00  0.00     0.003 A 
ATOM      8  C6  PXY d   1       1.121  -4.225  -0.865  0.00  0.00     0.003 A 
ENDROOT
TORSDOF 0
ENDMDL
