MODEL 1
REMARK minimizedAffinity 6.2265029
REMARK minimizedRMSD -1
REMARK  0 active torsions:
REMARK  status: ('A' for Active; 'I' for Inactive)
ROOT
ATOM      1  C4' PXY d   1      -5.991   2.670  -3.826  0.00  0.00     0.077 C 
ATOM      2  C1' PXY d   1      -4.859   1.032   1.601  0.00  0.00     0.077 C 
ATOM      3  C1  PXY d   1      -5.156   1.474   0.182  0.00  0.00    -0.082 A 
ATOM      4  C2  PXY d   1      -5.753   0.638  -0.652  0.00  0.00     0.003 A 
ATOM      5  C3  PXY d   1      -6.000   1.010  -1.949  0.00  0.00     0.003 A 
ATOM      6  C4  PXY d   1      -5.680   2.270  -2.381  0.00  0.00    -0.082 A 
ATOM      7  C5  PXY d   1      -5.080   3.132  -1.533  0.00  0.00     0.003 A 
ATOM      8  C6  PXY d   1      -4.801   2.721  -0.233  0.00  0.00     0.003 A 
ENDROOT
TORSDOF 0
ENDMDL
