MODEL 1
REMARK minimizedAffinity 8.59202003
REMARK minimizedRMSD -1
REMARK  0 active torsions:
REMARK  status: ('A' for Active; 'I' for Inactive)
ROOT
ATOM      1  C4' PXY d   1       2.688  -1.936   0.472  0.00  0.00     0.077 C 
ATOM      2  C1' PXY d   1      -1.735  -3.990  -2.631  0.00  0.00     0.077 C 
ATOM      3  C1  PXY d   1      -0.576  -3.441  -1.824  0.00  0.00    -0.082 A 
ATOM      4  C2  PXY d   1       0.267  -4.275  -1.238  0.00  0.00     0.003 A 
ATOM      5  C3  PXY d   1       1.303  -3.795  -0.478  0.00  0.00     0.003 A 
ATOM      6  C4  PXY d   1       1.509  -2.447  -0.360  0.00  0.00    -0.082 A 
ATOM      7  C5  PXY d   1       0.659  -1.589  -0.964  0.00  0.00     0.003 A 
ATOM      8  C6  PXY d   1      -0.410  -2.096  -1.697  0.00  0.00     0.003 A 
ENDROOT
TORSDOF 0
ENDMDL
