MODEL 1
REMARK minimizedAffinity 3.9471674
REMARK minimizedRMSD -1
REMARK  0 active torsions:
REMARK  status: ('A' for Active; 'I' for Inactive)
ROOT
ATOM      1  C4' PXY d   1      -5.980  -1.976   4.605  0.00  0.00     0.077 C 
ATOM      2  C1' PXY d   1      -4.151   2.188   1.037  0.00  0.00     0.077 C 
ATOM      3  C1  PXY d   1      -4.626   1.087   1.964  0.00  0.00    -0.082 A 
ATOM      4  C2  PXY d   1      -5.580   1.340   2.845  0.00  0.00     0.003 A 
ATOM      5  C3  PXY d   1      -6.000   0.365   3.713  0.00  0.00     0.003 A 
ATOM      6  C4  PXY d   1      -5.475  -0.898   3.643  0.00  0.00    -0.082 A 
ATOM      7  C5  PXY d   1      -4.509  -1.167   2.739  0.00  0.00     0.003 A 
ATOM      8  C6  PXY d   1      -4.068  -0.152   1.895  0.00  0.00     0.003 A 
ENDROOT
TORSDOF 0
ENDMDL
