MODEL 1
REMARK minimizedAffinity -0.175344795
REMARK minimizedRMSD -1
REMARK  0 active torsions:
REMARK  status: ('A' for Active; 'I' for Inactive)
ROOT
ATOM      1  C4' PXY d   1      -5.930   5.141  -2.687  0.00  0.00     0.077 C 
ATOM      2  C1' PXY d   1      -5.999   0.059  -5.442  0.00  0.00     0.077 C 
ATOM      3  C1  PXY d   1      -5.986   1.386  -4.709  0.00  0.00    -0.082 A 
ATOM      4  C2  PXY d   1      -5.953   2.515  -5.399  0.00  0.00     0.003 A 
ATOM      5  C3  PXY d   1      -5.909   3.723  -4.752  0.00  0.00     0.003 A 
ATOM      6  C4  PXY d   1      -5.953   3.778  -3.385  0.00  0.00    -0.082 A 
ATOM      7  C5  PXY d   1      -5.997   2.632  -2.673  0.00  0.00     0.003 A 
ATOM      8  C6  PXY d   1      -6.000   1.415  -3.348  0.00  0.00     0.003 A 
ENDROOT
TORSDOF 0
ENDMDL
