MODEL 1
REMARK minimizedAffinity 0.613219678
REMARK minimizedRMSD -1
REMARK  0 active torsions:
REMARK  status: ('A' for Active; 'I' for Inactive)
ROOT
ATOM      1  C4' PXY d   1       6.000  -2.988  -0.952  0.00  0.00     0.077 C 
ATOM      2  C1' PXY d   1       0.748  -5.292  -0.229  0.00  0.00     0.077 C 
ATOM      3  C1  PXY d   1       2.120  -4.676  -0.420  0.00  0.00    -0.082 A 
ATOM      4  C2  PXY d   1       3.130  -5.436  -0.812  0.00  0.00     0.003 A 
ATOM      5  C3  PXY d   1       4.384  -4.902  -0.960  0.00  0.00     0.003 A 
ATOM      6  C4  PXY d   1       4.596  -3.565  -0.755  0.00  0.00    -0.082 A 
ATOM      7  C5  PXY d   1       3.568  -2.781  -0.365  0.00  0.00     0.003 A 
ATOM      8  C6  PXY d   1       2.312  -3.351  -0.181  0.00  0.00     0.003 A 
ENDROOT
TORSDOF 0
ENDMDL
