MODEL 1
REMARK minimizedAffinity 6.85440683
REMARK minimizedRMSD -1
REMARK  0 active torsions:
REMARK  status: ('A' for Active; 'I' for Inactive)
ROOT
ATOM      1  C4' PXY d   1       0.376   1.839   0.612  0.00  0.00     0.077 C 
ATOM      2  C1' PXY d   1      -1.135   6.000  -3.105  0.00  0.00     0.077 C 
ATOM      3  C1  PXY d   1      -0.726   4.912  -2.132  0.00  0.00    -0.082 A 
ATOM      4  C2  PXY d   1      -1.544   3.897  -1.905  0.00  0.00     0.003 A 
ATOM      5  C3  PXY d   1      -1.204   2.921  -1.004  0.00  0.00     0.003 A 
ATOM      6  C4  PXY d   1       0.009   2.956  -0.369  0.00  0.00    -0.082 A 
ATOM      7  C5  PXY d   1       0.853   3.982  -0.604  0.00  0.00     0.003 A 
ATOM      8  C6  PXY d   1       0.472   4.984  -1.491  0.00  0.00     0.003 A 
ENDROOT
TORSDOF 0
ENDMDL
