MODEL 1
REMARK minimizedAffinity -4.4547472
REMARK minimizedRMSD -1
REMARK  0 active torsions:
REMARK  status: ('A' for Active; 'I' for Inactive)
ROOT
ATOM      1  C2' OXE d   1      -1.429   0.760   0.993  0.00  0.00     0.078 C 
ATOM      2  C1' OXE d   1      -1.807   0.892  -1.786  0.00  0.00     0.078 C 
ATOM      3  C1  OXE d   1      -0.506   0.320  -1.279  0.00  0.00    -0.078 A 
ATOM      4  C2  OXE d   1      -0.311   0.303   0.081  0.00  0.00    -0.078 A 
ATOM      5  C3  OXE d   1       0.848  -0.265   0.604  0.00  0.00     0.003 A 
ATOM      6  C4  OXE d   1       1.881  -0.676  -0.247  0.00  0.00    -0.002 A 
ATOM      7  C5  OXE d   1       1.719  -0.630  -1.635  0.00  0.00    -0.002 A 
ATOM      8  C6  OXE d   1       0.517  -0.175  -2.166  0.00  0.00     0.003 A 
ENDROOT
TORSDOF 0
ENDMDL
