MODEL 1
REMARK minimizedAffinity -3.07000995
REMARK minimizedRMSD -1
REMARK  0 active torsions:
REMARK  status: ('A' for Active; 'I' for Inactive)
ROOT
ATOM      1  C2' OXE d   1      -1.433   0.714   1.113  0.00  0.00     0.078 C 
ATOM      2  C1' OXE d   1      -1.108   0.659  -1.675  0.00  0.00     0.078 C 
ATOM      3  C1  OXE d   1      -0.166  -0.172  -0.840  0.00  0.00    -0.078 A 
ATOM      4  C2  OXE d   1      -0.302  -0.102   0.526  0.00  0.00    -0.078 A 
ATOM      5  C3  OXE d   1       0.505  -0.891   1.340  0.00  0.00     0.003 A 
ATOM      6  C4  OXE d   1       1.555  -1.636   0.789  0.00  0.00    -0.002 A 
ATOM      7  C5  OXE d   1       1.737  -1.689  -0.597  0.00  0.00    -0.002 A 
ATOM      8  C6  OXE d   1       0.860  -0.998  -1.426  0.00  0.00     0.003 A 
ENDROOT
TORSDOF 0
ENDMDL
