MODEL 1
REMARK minimizedAffinity -3.60049486
REMARK minimizedRMSD -1
REMARK  0 active torsions:
REMARK  status: ('A' for Active; 'I' for Inactive)
ROOT
ATOM      1  C2' OXE d   1       2.058  -0.616  -0.347  0.00  0.00     0.078 C 
ATOM      2  C1' OXE d   1      -0.330   0.851  -0.195  0.00  0.00     0.078 C 
ATOM      3  C1  OXE d   1      -0.000  -0.076   0.947  0.00  0.00    -0.078 A 
ATOM      4  C2  OXE d   1       1.147  -0.825   0.843  0.00  0.00    -0.078 A 
ATOM      5  C3  OXE d   1       1.527  -1.655   1.894  0.00  0.00     0.003 A 
ATOM      6  C4  OXE d   1       0.673  -1.850   2.987  0.00  0.00    -0.002 A 
ATOM      7  C5  OXE d   1      -0.520  -1.127   3.094  0.00  0.00    -0.002 A 
ATOM      8  C6  OXE d   1      -0.849  -0.207   2.106  0.00  0.00     0.003 A 
ENDROOT
TORSDOF 0
ENDMDL
