MODEL 1
REMARK minimizedAffinity -4.45364952
REMARK minimizedRMSD -1
REMARK  0 active torsions:
REMARK  status: ('A' for Active; 'I' for Inactive)
ROOT
ATOM      1  C2' OXE d   1      -2.853   1.778  -1.637  0.00  0.00     0.078 C 
ATOM      2  C1' OXE d   1      -1.655   0.365  -3.746  0.00  0.00     0.078 C 
ATOM      3  C1  OXE d   1      -0.996   0.298  -2.391  0.00  0.00    -0.078 A 
ATOM      4  C2  OXE d   1      -1.563   1.031  -1.376  0.00  0.00    -0.078 A 
ATOM      5  C3  OXE d   1      -1.027   0.961  -0.093  0.00  0.00     0.003 A 
ATOM      6  C4  OXE d   1       0.172   0.275   0.138  0.00  0.00    -0.002 A 
ATOM      7  C5  OXE d   1       0.788  -0.444  -0.891  0.00  0.00    -0.002 A 
ATOM      8  C6  OXE d   1       0.195  -0.478  -2.149  0.00  0.00     0.003 A 
ENDROOT
TORSDOF 0
ENDMDL
