MODEL 1
REMARK minimizedAffinity -3.42765951
REMARK minimizedRMSD -1
REMARK  0 active torsions:
REMARK  status: ('A' for Active; 'I' for Inactive)
ROOT
ATOM      1  C2' OXE d   1      -1.317  -0.290   1.877  0.00  0.00     0.078 C 
ATOM      2  C1' OXE d   1      -1.174   0.902  -0.661  0.00  0.00     0.078 C 
ATOM      3  C1  OXE d   1      -0.020   0.033  -0.226  0.00  0.00    -0.078 A 
ATOM      4  C2  OXE d   1      -0.077  -0.508   1.036  0.00  0.00    -0.078 A 
ATOM      5  C3  OXE d   1       0.935  -1.361   1.467  0.00  0.00     0.003 A 
ATOM      6  C4  OXE d   1       2.083  -1.549   0.687  0.00  0.00    -0.002 A 
ATOM      7  C5  OXE d   1       2.179  -0.975  -0.585  0.00  0.00    -0.002 A 
ATOM      8  C6  OXE d   1       1.120  -0.217  -1.072  0.00  0.00     0.003 A 
ENDROOT
TORSDOF 0
ENDMDL
