MODEL 1
REMARK minimizedAffinity 5.88437986
REMARK minimizedRMSD -1
REMARK  0 active torsions:
REMARK  status: ('A' for Active; 'I' for Inactive)
ROOT
ATOM      1  C2' OXE d   1      -4.942   0.418  -1.289  0.00  0.00     0.078 C 
ATOM      2  C1' OXE d   1      -2.478  -0.921  -1.170  0.00  0.00     0.078 C 
ATOM      3  C1  OXE d   1      -2.538   0.374  -1.941  0.00  0.00    -0.078 A 
ATOM      4  C2  OXE d   1      -3.758   0.998  -2.033  0.00  0.00    -0.078 A 
ATOM      5  C3  OXE d   1      -3.858   2.224  -2.686  0.00  0.00     0.003 A 
ATOM      6  C4  OXE d   1      -2.761   2.748  -3.380  0.00  0.00    -0.002 A 
ATOM      7  C5  OXE d   1      -1.518   2.107  -3.332  0.00  0.00    -0.002 A 
ATOM      8  C6  OXE d   1      -1.380   0.944  -2.584  0.00  0.00     0.003 A 
ENDROOT
TORSDOF 0
ENDMDL
