MODEL 1
REMARK minimizedAffinity 7.11376762
REMARK minimizedRMSD -1
REMARK  0 active torsions:
REMARK  status: ('A' for Active; 'I' for Inactive)
ROOT
ATOM      1  C2' OXE d   1      -2.889   5.717  -2.127  0.00  0.00     0.078 C 
ATOM      2  C1' OXE d   1      -1.485   3.570  -3.267  0.00  0.00     0.078 C 
ATOM      3  C1  OXE d   1      -2.777   3.265  -2.551  0.00  0.00    -0.078 A 
ATOM      4  C2  OXE d   1      -3.434   4.316  -1.956  0.00  0.00    -0.078 A 
ATOM      5  C3  OXE d   1      -4.658   4.098  -1.330  0.00  0.00     0.003 A 
ATOM      6  C4  OXE d   1      -5.150   2.798  -1.168  0.00  0.00    -0.002 A 
ATOM      7  C5  OXE d   1      -4.477   1.709  -1.732  0.00  0.00    -0.002 A 
ATOM      8  C6  OXE d   1      -3.314   1.930  -2.461  0.00  0.00     0.003 A 
ENDROOT
TORSDOF 0
ENDMDL
