MODEL 1
REMARK minimizedAffinity -2.08727288
REMARK minimizedRMSD -1
REMARK  0 active torsions:
REMARK  status: ('A' for Active; 'I' for Inactive)
ROOT
ATOM      1  C2' OXE d   1      -2.224   1.267  -2.077  0.00  0.00     0.078 C 
ATOM      2  C1' OXE d   1      -1.403   1.933   0.523  0.00  0.00     0.078 C 
ATOM      3  C1  OXE d   1      -0.677   0.813  -0.178  0.00  0.00    -0.078 A 
ATOM      4  C2  OXE d   1      -1.116   0.463  -1.432  0.00  0.00    -0.078 A 
ATOM      5  C3  OXE d   1      -0.445  -0.527  -2.146  0.00  0.00     0.003 A 
ATOM      6  C4  OXE d   1       0.572  -1.273  -1.538  0.00  0.00    -0.002 A 
ATOM      7  C5  OXE d   1       1.008  -0.959  -0.247  0.00  0.00    -0.002 A 
ATOM      8  C6  OXE d   1       0.424   0.107   0.429  0.00  0.00     0.003 A 
ENDROOT
TORSDOF 0
ENDMDL
