MODEL 1
REMARK minimizedAffinity 6.13324308
REMARK minimizedRMSD -1
REMARK  0 active torsions:
REMARK  status: ('A' for Active; 'I' for Inactive)
ROOT
ATOM      1  C2' OXE d   1       3.266   0.749  -0.672  0.00  0.00     0.078 C 
ATOM      2  C1' OXE d   1       3.321  -1.291   1.256  0.00  0.00     0.078 C 
ATOM      3  C1  OXE d   1       2.003  -0.606   0.994  0.00  0.00    -0.078 A 
ATOM      4  C2  OXE d   1       1.995   0.422   0.083  0.00  0.00    -0.078 A 
ATOM      5  C3  OXE d   1       0.795   1.052  -0.237  0.00  0.00     0.003 A 
ATOM      6  C4  OXE d   1      -0.373   0.751   0.473  0.00  0.00    -0.002 A 
ATOM      7  C5  OXE d   1      -0.379  -0.267   1.434  0.00  0.00    -0.002 A 
ATOM      8  C6  OXE d   1       0.789  -0.982   1.675  0.00  0.00     0.003 A 
ENDROOT
TORSDOF 0
ENDMDL
