MODEL 1
REMARK minimizedAffinity -2.4343729
REMARK minimizedRMSD -1
REMARK  0 active torsions:
REMARK  status: ('A' for Active; 'I' for Inactive)
ROOT
ATOM      1  C2' OXE d   1      -2.241  -5.739  -1.590  0.00  0.00     0.078 C 
ATOM      2  C1' OXE d   1      -4.948  -5.998  -2.287  0.00  0.00     0.078 C 
ATOM      3  C1  OXE d   1      -4.602  -5.942  -0.820  0.00  0.00    -0.078 A 
ATOM      4  C2  OXE d   1      -3.271  -5.862  -0.488  0.00  0.00    -0.078 A 
ATOM      5  C3  OXE d   1      -2.900  -5.752   0.849  0.00  0.00     0.003 A 
ATOM      6  C4  OXE d   1      -3.858  -5.877   1.863  0.00  0.00    -0.002 A 
ATOM      7  C5  OXE d   1      -5.215  -5.998   1.547  0.00  0.00    -0.002 A 
ATOM      8  C6  OXE d   1      -5.607  -5.990   0.213  0.00  0.00     0.003 A 
ENDROOT
TORSDOF 0
ENDMDL
