MODEL 1
REMARK minimizedAffinity -3.5865519
REMARK minimizedRMSD -1
REMARK  0 active torsions:
REMARK  status: ('A' for Active; 'I' for Inactive)
ROOT
ATOM      1  C2' OXE d   1       2.285   0.537  -1.018  0.00  0.00     0.078 C 
ATOM      2  C1' OXE d   1      -0.451   1.069  -0.688  0.00  0.00     0.078 C 
ATOM      3  C1  OXE d   1       0.171   0.014   0.191  0.00  0.00    -0.078 A 
ATOM      4  C2  OXE d   1       1.500  -0.273  -0.009  0.00  0.00    -0.078 A 
ATOM      5  C3  OXE d   1       2.137  -1.199   0.812  0.00  0.00     0.003 A 
ATOM      6  C4  OXE d   1       1.402  -1.951   1.736  0.00  0.00    -0.002 A 
ATOM      7  C5  OXE d   1       0.038  -1.703   1.929  0.00  0.00    -0.002 A 
ATOM      8  C6  OXE d   1      -0.581  -0.697   1.196  0.00  0.00     0.003 A 
ENDROOT
TORSDOF 0
ENDMDL
