MODEL 1
REMARK minimizedAffinity -2.39265728
REMARK minimizedRMSD -1
REMARK  0 active torsions:
REMARK  status: ('A' for Active; 'I' for Inactive)
ROOT
ATOM      1  C2' OXE d   1      -1.849   1.153  -2.091  0.00  0.00     0.078 C 
ATOM      2  C1' OXE d   1      -0.773   1.958   0.374  0.00  0.00     0.078 C 
ATOM      3  C1  OXE d   1       0.002   0.949  -0.436  0.00  0.00    -0.078 A 
ATOM      4  C2  OXE d   1      -0.555   0.525  -1.619  0.00  0.00    -0.078 A 
ATOM      5  C3  OXE d   1       0.143  -0.364  -2.431  0.00  0.00     0.003 A 
ATOM      6  C4  OXE d   1       1.335  -0.947  -1.982  0.00  0.00    -0.002 A 
ATOM      7  C5  OXE d   1       1.899  -0.560  -0.762  0.00  0.00    -0.002 A 
ATOM      8  C6  OXE d   1       1.269   0.416   0.001  0.00  0.00     0.003 A 
ENDROOT
TORSDOF 0
ENDMDL
