MODEL 1
REMARK minimizedAffinity -1.0451175
REMARK minimizedRMSD -1
REMARK  0 active torsions:
REMARK  status: ('A' for Active; 'I' for Inactive)
ROOT
ATOM      1  C2' OXE d   1       0.981   0.020   0.071  0.00  0.00     0.078 C 
ATOM      2  C1' OXE d   1       0.941  -1.152  -2.480  0.00  0.00     0.078 C 
ATOM      3  C1  OXE d   1       0.015   0.011  -2.226  0.00  0.00    -0.078 A 
ATOM      4  C2  OXE d   1       0.008   0.549  -0.961  0.00  0.00    -0.078 A 
ATOM      5  C3  OXE d   1      -0.787   1.658  -0.688  0.00  0.00     0.003 A 
ATOM      6  C4  OXE d   1      -1.692   2.135  -1.645  0.00  0.00    -0.002 A 
ATOM      7  C5  OXE d   1      -1.729   1.576  -2.927  0.00  0.00    -0.002 A 
ATOM      8  C6  OXE d   1      -0.854   0.544  -3.246  0.00  0.00     0.003 A 
ENDROOT
TORSDOF 0
ENDMDL
