MODEL 1
REMARK minimizedAffinity 0.305990934
REMARK minimizedRMSD -1
REMARK  0 active torsions:
REMARK  status: ('A' for Active; 'I' for Inactive)
ROOT
ATOM      1  C2' OXE d   1      -0.325   1.096  -0.812  0.00  0.00     0.078 C 
ATOM      2  C1' OXE d   1       2.407   0.705  -1.328  0.00  0.00     0.078 C 
ATOM      3  C1  OXE d   1       1.752  -0.178  -0.295  0.00  0.00    -0.078 A 
ATOM      4  C2  OXE d   1       0.427   0.051  -0.016  0.00  0.00    -0.078 A 
ATOM      5  C3  OXE d   1      -0.239  -0.771   0.889  0.00  0.00     0.003 A 
ATOM      6  C4  OXE d   1       0.465  -1.728   1.628  0.00  0.00    -0.002 A 
ATOM      7  C5  OXE d   1       1.825  -1.951   1.388  0.00  0.00    -0.002 A 
ATOM      8  C6  OXE d   1       2.473  -1.215   0.402  0.00  0.00     0.003 A 
ENDROOT
TORSDOF 0
ENDMDL
