MODEL 1
REMARK minimizedAffinity -4.83377361
REMARK minimizedRMSD -1
REMARK  0 active torsions:
REMARK  status: ('A' for Active; 'I' for Inactive)
ROOT
ATOM      1  C2' OXE d   1       0.637   0.038  -0.206  0.00  0.00     0.078 C 
ATOM      2  C1' OXE d   1       0.653  -1.289  -2.679  0.00  0.00     0.078 C 
ATOM      3  C1  OXE d   1      -0.291  -0.125  -2.512  0.00  0.00    -0.078 A 
ATOM      4  C2  OXE d   1      -0.326   0.489  -1.283  0.00  0.00    -0.078 A 
ATOM      5  C3  OXE d   1      -1.140   1.602  -1.092  0.00  0.00     0.003 A 
ATOM      6  C4  OXE d   1      -2.034   2.007  -2.090  0.00  0.00    -0.002 A 
ATOM      7  C5  OXE d   1      -2.043   1.370  -3.336  0.00  0.00    -0.002 A 
ATOM      8  C6  OXE d   1      -1.150   0.332  -3.577  0.00  0.00     0.003 A 
ENDROOT
TORSDOF 0
ENDMDL
