MODEL 1
REMARK minimizedAffinity -1.98485839
REMARK minimizedRMSD -1
REMARK  0 active torsions:
REMARK  status: ('A' for Active; 'I' for Inactive)
ROOT
ATOM      1  C2' OXE d   1      -1.817   1.526   1.151  0.00  0.00     0.078 C 
ATOM      2  C1' OXE d   1      -1.249   1.974  -1.561  0.00  0.00     0.078 C 
ATOM      3  C1  OXE d   1      -0.417   0.951  -0.828  0.00  0.00    -0.078 A 
ATOM      4  C2  OXE d   1      -0.671   0.772   0.511  0.00  0.00    -0.078 A 
ATOM      5  C3  OXE d   1       0.029  -0.198   1.222  0.00  0.00     0.003 A 
ATOM      6  C4  OXE d   1       1.094  -0.883   0.625  0.00  0.00    -0.002 A 
ATOM      7  C5  OXE d   1       1.396  -0.687  -0.727  0.00  0.00    -0.002 A 
ATOM      8  C6  OXE d   1       0.624   0.193  -1.477  0.00  0.00     0.003 A 
ENDROOT
TORSDOF 0
ENDMDL
