MODEL 1
REMARK minimizedAffinity -1.13937092
REMARK minimizedRMSD -1
REMARK  0 active torsions:
REMARK  status: ('A' for Active; 'I' for Inactive)
ROOT
ATOM      1  C2' OXE d   1      -0.805  -0.194   1.120  0.00  0.00     0.078 C 
ATOM      2  C1' OXE d   1       0.896  -0.647  -1.066  0.00  0.00     0.078 C 
ATOM      3  C1  OXE d   1      -0.192   0.385  -1.224  0.00  0.00    -0.078 A 
ATOM      4  C2  OXE d   1      -1.049   0.567  -0.165  0.00  0.00    -0.078 A 
ATOM      5  C3  OXE d   1      -2.037   1.545  -0.238  0.00  0.00     0.003 A 
ATOM      6  C4  OXE d   1      -2.263   2.237  -1.434  0.00  0.00    -0.002 A 
ATOM      7  C5  OXE d   1      -1.426   2.039  -2.538  0.00  0.00    -0.002 A 
ATOM      8  C6  OXE d   1      -0.362   1.149  -2.435  0.00  0.00     0.003 A 
ENDROOT
TORSDOF 0
ENDMDL
