MODEL 1
REMARK minimizedAffinity 7.45673275
REMARK minimizedRMSD -1
REMARK  0 active torsions:
REMARK  status: ('A' for Active; 'I' for Inactive)
ROOT
ATOM      1  C2' OXE d   1      -2.257  -2.501  -1.050  0.00  0.00     0.078 C 
ATOM      2  C1' OXE d   1      -0.681  -2.183   1.251  0.00  0.00     0.078 C 
ATOM      3  C1  OXE d   1      -1.474  -0.993   0.772  0.00  0.00    -0.078 A 
ATOM      4  C2  OXE d   1      -2.206  -1.144  -0.382  0.00  0.00    -0.078 A 
ATOM      5  C3  OXE d   1      -2.998  -0.095  -0.838  0.00  0.00     0.003 A 
ATOM      6  C4  OXE d   1      -2.937   1.160  -0.220  0.00  0.00    -0.002 A 
ATOM      7  C5  OXE d   1      -2.167   1.347   0.933  0.00  0.00    -0.002 A 
ATOM      8  C6  OXE d   1      -1.464   0.271   1.465  0.00  0.00     0.003 A 
ENDROOT
TORSDOF 0
ENDMDL
