MODEL 1
REMARK minimizedAffinity 3.95265532
REMARK minimizedRMSD -1
REMARK  0 active torsions:
REMARK  status: ('A' for Active; 'I' for Inactive)
ROOT
ATOM      1  C1  DEN d   1       3.549   1.566   0.607  0.00  0.00     0.130 A 
ATOM      2  C2  DEN d   1       2.812   0.555   1.360  0.00  0.00    -0.031 A 
ATOM      3  C3  DEN d   1       1.395   0.965   1.410  0.00  0.00     0.027 A 
ATOM      4  C4  DEN d   1       0.274   3.056   0.398  0.00  0.00     0.027 A 
ATOM      5  C5  DEN d   1       0.493   4.211  -0.320  0.00  0.00    -0.003 A 
ATOM      6  C6  DEN d   1       1.742   4.580  -0.745  0.00  0.00     0.001 A 
ATOM      7  C7  DEN d   1       2.813   3.763  -0.497  0.00  0.00     0.017 A 
ATOM      8  C8  DEN d   1       2.600   2.600   0.233  0.00  0.00    -0.094 A 
ATOM      9  C9  DEN d   1       1.329   2.239   0.644  0.00  0.00    -0.072 A 
ENDROOT
TORSDOF 0
ENDMDL
