MODEL 1
REMARK minimizedAffinity 16.2719402
REMARK minimizedRMSD -1
REMARK  0 active torsions:
REMARK  status: ('A' for Active; 'I' for Inactive)
ROOT
ATOM      1  C1  DEN d   1       5.514  -1.279   2.414  0.00  0.00     0.130 A 
ATOM      2  C2  DEN d   1       5.999  -2.132   3.495  0.00  0.00    -0.031 A 
ATOM      3  C3  DEN d   1       4.852  -2.465   4.363  0.00  0.00     0.027 A 
ATOM      4  C4  DEN d   1       2.384  -1.749   4.138  0.00  0.00     0.027 A 
ATOM      5  C5  DEN d   1       1.492  -1.015   3.387  0.00  0.00    -0.003 A 
ATOM      6  C6  DEN d   1       1.881  -0.296   2.288  0.00  0.00     0.001 A 
ATOM      7  C7  DEN d   1       3.189  -0.332   1.881  0.00  0.00     0.017 A 
ATOM      8  C8  DEN d   1       4.096  -1.063   2.638  0.00  0.00    -0.094 A 
ATOM      9  C9  DEN d   1       3.680  -1.793   3.738  0.00  0.00    -0.072 A 
ENDROOT
TORSDOF 0
ENDMDL
