MODEL 1
REMARK minimizedAffinity 6.76904202
REMARK minimizedRMSD -1
REMARK  0 active torsions:
REMARK  status: ('A' for Active; 'I' for Inactive)
ROOT
ATOM      1  C1  DEN d   1       2.259  -2.029   3.514  0.00  0.00     0.130 A 
ATOM      2  C2  DEN d   1       1.395  -1.126   2.758  0.00  0.00    -0.031 A 
ATOM      3  C3  DEN d   1       2.257  -0.239   1.951  0.00  0.00     0.027 A 
ATOM      4  C4  DEN d   1       4.831  -0.179   1.796  0.00  0.00     0.027 A 
ATOM      5  C5  DEN d   1       5.997  -0.745   2.262  0.00  0.00    -0.003 A 
ATOM      6  C6  DEN d   1       5.999  -1.748   3.195  0.00  0.00     0.001 A 
ATOM      7  C7  DEN d   1       4.811  -2.246   3.660  0.00  0.00     0.017 A 
ATOM      8  C8  DEN d   1       3.631  -1.675   3.201  0.00  0.00    -0.094 A 
ATOM      9  C9  DEN d   1       3.649  -0.671   2.248  0.00  0.00    -0.072 A 
ENDROOT
TORSDOF 0
ENDMDL
