MODEL 1
REMARK minimizedAffinity 9.1574831
REMARK minimizedRMSD -1
REMARK  0 active torsions:
REMARK  status: ('A' for Active; 'I' for Inactive)
ROOT
ATOM      1  C1  DEN d   1       1.373  -1.851   2.518  0.00  0.00     0.130 A 
ATOM      2  C2  DEN d   1       1.695  -0.440   2.711  0.00  0.00    -0.031 A 
ATOM      3  C3  DEN d   1       2.422  -0.308   3.989  0.00  0.00     0.027 A 
ATOM      4  C4  DEN d   1       3.080  -2.143   5.679  0.00  0.00     0.027 A 
ATOM      5  C5  DEN d   1       3.014  -3.491   5.955  0.00  0.00    -0.003 A 
ATOM      6  C6  DEN d   1       2.371  -4.374   5.128  0.00  0.00     0.001 A 
ATOM      7  C7  DEN d   1       1.808  -3.927   3.962  0.00  0.00     0.017 A 
ATOM      8  C8  DEN d   1       1.865  -2.568   3.681  0.00  0.00    -0.094 A 
ATOM      9  C9  DEN d   1       2.530  -1.693   4.523  0.00  0.00    -0.072 A 
ENDROOT
TORSDOF 0
ENDMDL
