MODEL 1
REMARK minimizedAffinity 10.8693647
REMARK minimizedRMSD -1
REMARK  0 active torsions:
REMARK  status: ('A' for Active; 'I' for Inactive)
ROOT
ATOM      1  C1  DEN d   1       5.803  -1.843   3.989  0.00  0.00     0.130 A 
ATOM      2  C2  DEN d   1       5.997  -2.259   5.375  0.00  0.00    -0.031 A 
ATOM      3  C3  DEN d   1       4.666  -2.477   5.977  0.00  0.00     0.027 A 
ATOM      4  C4  DEN d   1       2.337  -2.218   4.900  0.00  0.00     0.027 A 
ATOM      5  C5  DEN d   1       1.665  -1.875   3.748  0.00  0.00    -0.003 A 
ATOM      6  C6  DEN d   1       2.318  -1.468   2.615  0.00  0.00     0.001 A 
ATOM      7  C7  DEN d   1       3.688  -1.437   2.595  0.00  0.00     0.017 A 
ATOM      8  C8  DEN d   1       4.372  -1.774   3.756  0.00  0.00    -0.094 A 
ATOM      9  C9  DEN d   1       3.693  -2.195   4.887  0.00  0.00    -0.072 A 
ENDROOT
TORSDOF 0
ENDMDL
