MODEL 1
REMARK minimizedAffinity 10.4540167
REMARK minimizedRMSD -1
REMARK  0 active torsions:
REMARK  status: ('A' for Active; 'I' for Inactive)
ROOT
ATOM      1  C1  DEN d   1      -5.997   1.670  -2.607  0.00  0.00     0.130 A 
ATOM      2  C2  DEN d   1      -5.824   2.967  -3.255  0.00  0.00    -0.031 A 
ATOM      3  C3  DEN d   1      -5.650   2.735  -4.702  0.00  0.00     0.027 A 
ATOM      4  C4  DEN d   1      -5.636   0.505  -5.998  0.00  0.00     0.027 A 
ATOM      5  C5  DEN d   1      -5.733  -0.863  -5.878  0.00  0.00    -0.003 A 
ATOM      6  C6  DEN d   1      -5.890  -1.481  -4.666  0.00  0.00     0.001 A 
ATOM      7  C7  DEN d   1      -6.000  -0.725  -3.529  0.00  0.00     0.017 A 
ATOM      8  C8  DEN d   1      -5.895   0.655  -3.641  0.00  0.00    -0.094 A 
ATOM      9  C9  DEN d   1      -5.749   1.261  -4.877  0.00  0.00    -0.072 A 
ENDROOT
TORSDOF 0
ENDMDL
