MODEL 1
REMARK minimizedAffinity 6.84637022
REMARK minimizedRMSD -1
REMARK  0 active torsions:
REMARK  status: ('A' for Active; 'I' for Inactive)
ROOT
ATOM      1  C1  DEN d   1       2.969  -1.105   2.831  0.00  0.00     0.130 A 
ATOM      2  C2  DEN d   1       1.606  -1.493   3.183  0.00  0.00    -0.031 A 
ATOM      3  C3  DEN d   1       1.662  -2.276   4.434  0.00  0.00     0.027 A 
ATOM      4  C4  DEN d   1       3.717  -2.918   5.855  0.00  0.00     0.027 A 
ATOM      5  C5  DEN d   1       5.088  -2.825   5.952  0.00  0.00    -0.003 A 
ATOM      6  C6  DEN d   1       5.845  -2.187   5.006  0.00  0.00     0.001 A 
ATOM      7  C7  DEN d   1       5.232  -1.577   3.943  0.00  0.00     0.017 A 
ATOM      8  C8  DEN d   1       3.851  -1.673   3.835  0.00  0.00    -0.094 A 
ATOM      9  C9  DEN d   1       3.102  -2.311   4.808  0.00  0.00    -0.072 A 
ENDROOT
TORSDOF 0
ENDMDL
