MODEL 1
REMARK minimizedAffinity -5.38058615
REMARK minimizedRMSD -1
REMARK  0 active torsions:
REMARK  status: ('A' for Active; 'I' for Inactive)
ROOT
ATOM      1  C4' PXY d   1      -1.630  -0.195   0.151  0.00  0.00     0.077 C 
ATOM      2  C1' PXY d   1       2.753   3.433   1.173  0.00  0.00     0.077 C 
ATOM      3  C1  PXY d   1       1.605   2.477   0.917  0.00  0.00    -0.082 A 
ATOM      4  C2  PXY d   1       1.337   2.092  -0.320  0.00  0.00     0.003 A 
ATOM      5  C3  PXY d   1       0.282   1.253  -0.573  0.00  0.00     0.003 A 
ATOM      6  C4  PXY d   1      -0.474   0.761   0.457  0.00  0.00    -0.082 A 
ATOM      7  C5  PXY d   1      -0.201   1.141   1.724  0.00  0.00     0.003 A 
ATOM      8  C6  PXY d   1       0.849   2.026   1.955  0.00  0.00     0.003 A 
ENDROOT
TORSDOF 0
ENDMDL
