MODEL 1
REMARK minimizedAffinity -5.51884365
REMARK minimizedRMSD -1
REMARK  0 active torsions:
REMARK  status: ('A' for Active; 'I' for Inactive)
ROOT
ATOM      1  C4' PXY d   1      -0.429  -1.944  -0.416  0.00  0.00     0.077 C 
ATOM      2  C1' PXY d   1       1.315   3.232   1.477  0.00  0.00     0.077 C 
ATOM      3  C1  PXY d   1       0.852   1.872   0.992  0.00  0.00    -0.082 A 
ATOM      4  C2  PXY d   1       1.484   1.286  -0.012  0.00  0.00     0.003 A 
ATOM      5  C3  PXY d   1       1.059   0.071  -0.484  0.00  0.00     0.003 A 
ATOM      6  C4  PXY d   1       0.009  -0.576   0.113  0.00  0.00    -0.082 A 
ATOM      7  C5  PXY d   1      -0.633   0.011   1.145  0.00  0.00     0.003 A 
ATOM      8  C6  PXY d   1      -0.212   1.263   1.582  0.00  0.00     0.003 A 
ENDROOT
TORSDOF 0
ENDMDL
