MODEL 1
REMARK minimizedAffinity -4.88132143
REMARK minimizedRMSD -1
REMARK  0 active torsions:
REMARK  status: ('A' for Active; 'I' for Inactive)
ROOT
ATOM      1  C4' PXY d   1      -0.641  -1.517  -0.985  0.00  0.00     0.077 C 
ATOM      2  C1' PXY d   1       1.468   3.298   1.419  0.00  0.00     0.077 C 
ATOM      3  C1  PXY d   1       0.913   2.030   0.800  0.00  0.00    -0.082 A 
ATOM      4  C2  PXY d   1       1.276   1.687  -0.425  0.00  0.00     0.003 A 
ATOM      5  C3  PXY d   1       0.759   0.560  -1.011  0.00  0.00     0.003 A 
ATOM      6  C4  PXY d   1      -0.098  -0.251  -0.317  0.00  0.00    -0.082 A 
ATOM      7  C5  PXY d   1      -0.465   0.087   0.937  0.00  0.00     0.003 A 
ATOM      8  C6  PXY d   1       0.039   1.256   1.499  0.00  0.00     0.003 A 
ENDROOT
TORSDOF 0
ENDMDL
