MODEL 1
REMARK minimizedAffinity -2.51583529
REMARK minimizedRMSD -1
REMARK  0 active torsions:
REMARK  status: ('A' for Active; 'I' for Inactive)
ROOT
ATOM      1  C4' PXY d   1      -1.512  -1.854  -1.710  0.00  0.00     0.077 C 
ATOM      2  C1' PXY d   1       1.119   1.559   2.143  0.00  0.00     0.077 C 
ATOM      3  C1  PXY d   1       0.439   0.665   1.124  0.00  0.00    -0.082 A 
ATOM      4  C2  PXY d   1      -0.876   0.528   1.149  0.00  0.00     0.003 A 
ATOM      5  C3  PXY d   1      -1.504  -0.301   0.255  0.00  0.00     0.003 A 
ATOM      6  C4  PXY d   1      -0.784  -0.955  -0.707  0.00  0.00    -0.082 A 
ATOM      7  C5  PXY d   1       0.558  -0.812  -0.746  0.00  0.00     0.003 A 
ATOM      8  C6  PXY d   1       1.181   0.002   0.196  0.00  0.00     0.003 A 
ENDROOT
TORSDOF 0
ENDMDL
