MODEL 1
REMARK minimizedAffinity -3.6004076
REMARK minimizedRMSD -1
REMARK  0 active torsions:
REMARK  status: ('A' for Active; 'I' for Inactive)
ROOT
ATOM      1  C4' PXY d   1      -1.964   0.815   2.446  0.00  0.00     0.077 C 
ATOM      2  C1' PXY d   1       2.251   1.203  -1.492  0.00  0.00     0.077 C 
ATOM      3  C1  PXY d   1       1.151   1.110  -0.452  0.00  0.00    -0.082 A 
ATOM      4  C2  PXY d   1       0.429   0.006  -0.361  0.00  0.00     0.003 A 
ATOM      5  C3  PXY d   1      -0.590  -0.083   0.552  0.00  0.00     0.003 A 
ATOM      6  C4  PXY d   1      -0.838   0.949   1.417  0.00  0.00    -0.082 A 
ATOM      7  C5  PXY d   1      -0.098   2.075   1.338  0.00  0.00     0.003 A 
ATOM      8  C6  PXY d   1       0.905   2.161   0.376  0.00  0.00     0.003 A 
ENDROOT
TORSDOF 0
ENDMDL
