MODEL 1
REMARK minimizedAffinity -3.8207233
REMARK minimizedRMSD -1
REMARK  0 active torsions:
REMARK  status: ('A' for Active; 'I' for Inactive)
ROOT
ATOM      1  C4' PXY d   1      -1.263  -1.898  -0.761  0.00  0.00     0.077 C 
ATOM      2  C1' PXY d   1       1.311   2.963   1.016  0.00  0.00     0.077 C 
ATOM      3  C1  PXY d   1       0.632   1.686   0.562  0.00  0.00    -0.082 A 
ATOM      4  C2  PXY d   1       1.083   1.049  -0.506  0.00  0.00     0.003 A 
ATOM      5  C3  PXY d   1       0.461  -0.090  -0.949  0.00  0.00     0.003 A 
ATOM      6  C4  PXY d   1      -0.602  -0.611  -0.261  0.00  0.00    -0.082 A 
ATOM      7  C5  PXY d   1      -1.062   0.028   0.836  0.00  0.00     0.003 A 
ATOM      8  C6  PXY d   1      -0.442   1.205   1.246  0.00  0.00     0.003 A 
ENDROOT
TORSDOF 0
ENDMDL
