MODEL 1
REMARK minimizedAffinity -4.26631069
REMARK minimizedRMSD -1
REMARK  0 active torsions:
REMARK  status: ('A' for Active; 'I' for Inactive)
ROOT
ATOM      1  C4' PXY d   1      -1.253  -2.240  -1.121  0.00  0.00     0.077 C 
ATOM      2  C1' PXY d   1       0.893   2.299   1.744  0.00  0.00     0.077 C 
ATOM      3  C1  PXY d   1       0.337   1.112   0.982  0.00  0.00    -0.082 A 
ATOM      4  C2  PXY d   1      -0.835   0.604   1.327  0.00  0.00     0.003 A 
ATOM      5  C3  PXY d   1      -1.337  -0.489   0.669  0.00  0.00     0.003 A 
ATOM      6  C4  PXY d   1      -0.658  -1.036  -0.386  0.00  0.00    -0.082 A 
ATOM      7  C5  PXY d   1       0.534  -0.516  -0.751  0.00  0.00     0.003 A 
ATOM      8  C6  PXY d   1       1.046   0.568  -0.044  0.00  0.00     0.003 A 
ENDROOT
TORSDOF 0
ENDMDL
