MODEL 1
REMARK minimizedAffinity -4.25052071
REMARK minimizedRMSD -1
REMARK  0 active torsions:
REMARK  status: ('A' for Active; 'I' for Inactive)
ROOT
ATOM      1  C4' PXY d   1      -1.846  -0.385   1.076  0.00  0.00     0.077 C 
ATOM      2  C1' PXY d   1       3.440   1.336  -0.508  0.00  0.00     0.077 C 
ATOM      3  C1  PXY d   1       2.053   0.878  -0.104  0.00  0.00    -0.082 A 
ATOM      4  C2  PXY d   1       1.320   1.636   0.695  0.00  0.00     0.003 A 
ATOM      5  C3  PXY d   1       0.076   1.222   1.097  0.00  0.00     0.003 A 
ATOM      6  C4  PXY d   1      -0.444   0.043   0.634  0.00  0.00    -0.082 A 
ATOM      7  C5  PXY d   1       0.293  -0.732  -0.190  0.00  0.00     0.003 A 
ATOM      8  C6  PXY d   1       1.570  -0.313  -0.553  0.00  0.00     0.003 A 
ENDROOT
TORSDOF 0
ENDMDL
