MODEL 1
REMARK minimizedAffinity -4.26295567
REMARK minimizedRMSD -1
REMARK  0 active torsions:
REMARK  status: ('A' for Active; 'I' for Inactive)
ROOT
ATOM      1  C4' PXY d   1      -1.154  -2.223  -1.159  0.00  0.00     0.077 C 
ATOM      2  C1' PXY d   1       1.137   2.120   1.892  0.00  0.00     0.077 C 
ATOM      3  C1  PXY d   1       0.544   0.984   1.081  0.00  0.00    -0.082 A 
ATOM      4  C2  PXY d   1      -0.662   0.528   1.380  0.00  0.00     0.003 A 
ATOM      5  C3  PXY d   1      -1.200  -0.520   0.678  0.00  0.00     0.003 A 
ATOM      6  C4  PXY d   1      -0.520  -1.071  -0.374  0.00  0.00    -0.082 A 
ATOM      7  C5  PXY d   1       0.706  -0.604  -0.692  0.00  0.00     0.003 A 
ATOM      8  C6  PXY d   1       1.252   0.433   0.059  0.00  0.00     0.003 A 
ENDROOT
TORSDOF 0
ENDMDL
