MODEL 1
REMARK minimizedAffinity -2.41211629
REMARK minimizedRMSD -1
REMARK  0 active torsions:
REMARK  status: ('A' for Active; 'I' for Inactive)
ROOT
ATOM      1  C4' PXY d   1      -0.350   0.771   1.478  0.00  0.00     0.077 C 
ATOM      2  C1' PXY d   1      -1.235  -1.852  -3.596  0.00  0.00     0.077 C 
ATOM      3  C1  PXY d   1      -1.002  -1.176  -2.260  0.00  0.00    -0.082 A 
ATOM      4  C2  PXY d   1      -1.425   0.064  -2.071  0.00  0.00     0.003 A 
ATOM      5  C3  PXY d   1      -1.194   0.702  -0.880  0.00  0.00     0.003 A 
ATOM      6  C4  PXY d   1      -0.572   0.046   0.148  0.00  0.00    -0.082 A 
ATOM      7  C5  PXY d   1      -0.147  -1.223  -0.033  0.00  0.00     0.003 A 
ATOM      8  C6  PXY d   1      -0.354  -1.839  -1.264  0.00  0.00     0.003 A 
ENDROOT
TORSDOF 0
ENDMDL
