MODEL 1
REMARK minimizedAffinity -2.64778256
REMARK minimizedRMSD -1
REMARK  0 active torsions:
REMARK  status: ('A' for Active; 'I' for Inactive)
ROOT
ATOM      1  C4' PXY d   1      -1.034  -2.104  -1.386  0.00  0.00     0.077 C 
ATOM      2  C1' PXY d   1       0.830   2.029   2.201  0.00  0.00     0.077 C 
ATOM      3  C1  PXY d   1       0.348   0.950   1.250  0.00  0.00    -0.082 A 
ATOM      4  C2  PXY d   1      -0.768   0.293   1.519  0.00  0.00     0.003 A 
ATOM      5  C3  PXY d   1      -1.202  -0.707   0.687  0.00  0.00     0.003 A 
ATOM      6  C4  PXY d   1      -0.514  -1.001  -0.460  0.00  0.00    -0.082 A 
ATOM      7  C5  PXY d   1       0.620  -0.327  -0.746  0.00  0.00     0.003 A 
ATOM      8  C6  PXY d   1       1.065   0.656   0.132  0.00  0.00     0.003 A 
ENDROOT
TORSDOF 0
ENDMDL
