MODEL 1
REMARK minimizedAffinity -3.40386915
REMARK minimizedRMSD -1
REMARK  0 active torsions:
REMARK  status: ('A' for Active; 'I' for Inactive)
ROOT
ATOM      1  C4' PXY d   1      -1.047  -1.363  -1.198  0.00  0.00     0.077 C 
ATOM      2  C1' PXY d   1       1.730   2.823   1.661  0.00  0.00     0.077 C 
ATOM      3  C1  PXY d   1       0.998   1.720   0.922  0.00  0.00    -0.082 A 
ATOM      4  C2  PXY d   1       1.338   1.430  -0.323  0.00  0.00     0.003 A 
ATOM      5  C3  PXY d   1       0.665   0.457  -1.017  0.00  0.00     0.003 A 
ATOM      6  C4  PXY d   1      -0.329  -0.264  -0.411  0.00  0.00    -0.082 A 
ATOM      7  C5  PXY d   1      -0.674   0.019   0.863  0.00  0.00     0.003 A 
ATOM      8  C6  PXY d   1      -0.007   1.038   1.536  0.00  0.00     0.003 A 
ENDROOT
TORSDOF 0
ENDMDL
