MODEL 1
REMARK minimizedAffinity -4.29164648
REMARK minimizedRMSD -1
REMARK  0 active torsions:
REMARK  status: ('A' for Active; 'I' for Inactive)
ROOT
ATOM      1  C4' PXY d   1       4.153   1.201  -0.064  0.00  0.00     0.077 C 
ATOM      2  C1' PXY d   1      -1.389   1.130   1.579  0.00  0.00     0.077 C 
ATOM      3  C1  PXY d   1       0.064   1.136   1.145  0.00  0.00    -0.082 A 
ATOM      4  C2  PXY d   1       0.892   2.039   1.644  0.00  0.00     0.003 A 
ATOM      5  C3  PXY d   1       2.201   2.079   1.239  0.00  0.00     0.003 A 
ATOM      6  C4  PXY d   1       2.681   1.151   0.353  0.00  0.00    -0.082 A 
ATOM      7  C5  PXY d   1       1.844   0.220  -0.153  0.00  0.00     0.003 A 
ATOM      8  C6  PXY d   1       0.509   0.223   0.240  0.00  0.00     0.003 A 
ENDROOT
TORSDOF 0
ENDMDL
