MODEL 1
REMARK minimizedAffinity -4.98124409
REMARK minimizedRMSD -1
REMARK  0 active torsions:
REMARK  status: ('A' for Active; 'I' for Inactive)
ROOT
ATOM      1  C4' PXY d   1       4.836   0.569   2.186  0.00  0.00     0.077 C 
ATOM      2  C1' PXY d   1       0.309   3.400  -0.030  0.00  0.00     0.077 C 
ATOM      3  C1  PXY d   1       1.501   2.655   0.539  0.00  0.00    -0.082 A 
ATOM      4  C2  PXY d   1       1.436   2.156   1.763  0.00  0.00     0.003 A 
ATOM      5  C3  PXY d   1       2.516   1.508   2.305  0.00  0.00     0.003 A 
ATOM      6  C4  PXY d   1       3.654   1.321   1.567  0.00  0.00    -0.082 A 
ATOM      7  C5  PXY d   1       3.723   1.817   0.314  0.00  0.00     0.003 A 
ATOM      8  C6  PXY d   1       2.632   2.509  -0.203  0.00  0.00     0.003 A 
ENDROOT
TORSDOF 0
ENDMDL
