MODEL 1
REMARK minimizedAffinity -1.5790503
REMARK minimizedRMSD -1
REMARK  0 active torsions:
REMARK  status: ('A' for Active; 'I' for Inactive)
ROOT
ATOM      1  C4' PXY d   1      -2.116   0.217   1.844  0.00  0.00     0.077 C 
ATOM      2  C1' PXY d   1       3.170   2.137   0.508  0.00  0.00     0.077 C 
ATOM      3  C1  PXY d   1       1.781   1.632   0.845  0.00  0.00    -0.082 A 
ATOM      4  C2  PXY d   1       1.210   1.999   1.981  0.00  0.00     0.003 A 
ATOM      5  C3  PXY d   1      -0.032   1.526   2.317  0.00  0.00     0.003 A 
ATOM      6  C4  PXY d   1      -0.719   0.710   1.457  0.00  0.00    -0.082 A 
ATOM      7  C5  PXY d   1      -0.147   0.340   0.292  0.00  0.00     0.003 A 
ATOM      8  C6  PXY d   1       1.131   0.798  -0.012  0.00  0.00     0.003 A 
ENDROOT
TORSDOF 0
ENDMDL
