MODEL 1
REMARK minimizedAffinity 0.0589674562
REMARK minimizedRMSD -1
REMARK  0 active torsions:
REMARK  status: ('A' for Active; 'I' for Inactive)
ROOT
ATOM      1  C4' PXY d   1       3.345   0.355  -0.207  0.00  0.00     0.077 C 
ATOM      2  C1' PXY d   1      -1.912   1.080   2.085  0.00  0.00     0.077 C 
ATOM      3  C1  PXY d   1      -0.537   0.878   1.480  0.00  0.00    -0.082 A 
ATOM      4  C2  PXY d   1       0.497   1.542   1.969  0.00  0.00     0.003 A 
ATOM      5  C3  PXY d   1       1.742   1.396   1.413  0.00  0.00     0.003 A 
ATOM      6  C4  PXY d   1       1.940   0.520   0.379  0.00  0.00    -0.082 A 
ATOM      7  C5  PXY d   1       0.892  -0.169  -0.119  0.00  0.00     0.003 A 
ATOM      8  C6  PXY d   1      -0.371   0.025   0.433  0.00  0.00     0.003 A 
ENDROOT
TORSDOF 0
ENDMDL
