MODEL 1
REMARK minimizedAffinity -4.24831724
REMARK minimizedRMSD -1
REMARK  0 active torsions:
REMARK  status: ('A' for Active; 'I' for Inactive)
ROOT
ATOM      1  C4' PXY d   1      -1.242  -1.606  -2.041  0.00  0.00     0.077 C 
ATOM      2  C1' PXY d   1       0.639   2.192   1.890  0.00  0.00     0.077 C 
ATOM      3  C1  PXY d   1       0.134   1.201   0.860  0.00  0.00    -0.082 A 
ATOM      4  C2  PXY d   1       0.742   0.034   0.721  0.00  0.00     0.003 A 
ATOM      5  C3  PXY d   1       0.319  -0.860  -0.228  0.00  0.00     0.003 A 
ATOM      6  C4  PXY d   1      -0.772  -0.579  -1.007  0.00  0.00    -0.082 A 
ATOM      7  C5  PXY d   1      -1.405   0.605  -0.864  0.00  0.00     0.003 A 
ATOM      8  C6  PXY d   1      -0.933   1.516   0.077  0.00  0.00     0.003 A 
ENDROOT
TORSDOF 0
ENDMDL
