MODEL 1
REMARK minimizedAffinity -4.66687012
REMARK minimizedRMSD -1
REMARK  0 active torsions:
REMARK  status: ('A' for Active; 'I' for Inactive)
ROOT
ATOM      1  C4' PXY d   1       0.530   6.000  -5.581  0.00  0.00     0.077 C 
ATOM      2  C1' PXY d   1       5.437   4.213  -3.103  0.00  0.00     0.077 C 
ATOM      3  C1  PXY d   1       4.157   4.688  -3.762  0.00  0.00    -0.082 A 
ATOM      4  C2  PXY d   1       3.046   4.770  -3.049  0.00  0.00     0.003 A 
ATOM      5  C3  PXY d   1       1.872   5.167  -3.636  0.00  0.00     0.003 A 
ATOM      6  C4  PXY d   1       1.848   5.535  -4.955  0.00  0.00    -0.082 A 
ATOM      7  C5  PXY d   1       2.980   5.464  -5.687  0.00  0.00     0.003 A 
ATOM      8  C6  PXY d   1       4.152   5.019  -5.082  0.00  0.00     0.003 A 
ENDROOT
TORSDOF 0
ENDMDL
