MODEL 1
REMARK minimizedAffinity 1.55133045
REMARK minimizedRMSD -1
REMARK  0 active torsions:
REMARK  status: ('A' for Active; 'I' for Inactive)
ROOT
ATOM      1  C4' PXY d   1      -0.649   0.943   2.490  0.00  0.00     0.077 C 
ATOM      2  C1' PXY d   1       1.856   3.092  -2.256  0.00  0.00     0.077 C 
ATOM      3  C1  PXY d   1       1.199   2.516  -1.017  0.00  0.00    -0.082 A 
ATOM      4  C2  PXY d   1       0.529   3.314  -0.202  0.00  0.00     0.003 A 
ATOM      5  C3  PXY d   1      -0.044   2.817   0.940  0.00  0.00     0.003 A 
ATOM      6  C4  PXY d   1       0.023   1.478   1.222  0.00  0.00    -0.082 A 
ATOM      7  C5  PXY d   1       0.695   0.656   0.390  0.00  0.00     0.003 A 
ATOM      8  C6  PXY d   1       1.306   1.188  -0.743  0.00  0.00     0.003 A 
ENDROOT
TORSDOF 0
ENDMDL
