MODEL 1
REMARK minimizedAffinity -5.44842196
REMARK minimizedRMSD -1
REMARK  0 active torsions:
REMARK  status: ('A' for Active; 'I' for Inactive)
ROOT
ATOM      1  C   UNL d   1       3.511  -0.584   0.882  0.00  0.00     0.020 A 
ATOM      2  C1  UNL d   1       3.339   0.795   0.767  0.00  0.00     0.020 A 
ATOM      3  C2  UNL d   1       2.109   1.314   0.359  0.00  0.00     0.034 A 
ATOM      4  C3  UNL d   1       1.045   0.454   0.065  0.00  0.00     0.017 A 
ATOM      5  C4  UNL d   1       1.218  -0.930   0.181  0.00  0.00     0.017 A 
ATOM      6  C5  UNL d   1       2.453  -1.444   0.590  0.00  0.00     0.034 A 
ATOM      7 Cl   UNL d   1      -0.048  -2.055  -0.165  0.00  0.00    -0.070 Cl
ATOM      8 Cl1  UNL d   1      -0.449   1.164  -0.433  0.00  0.00    -0.070 Cl
ENDROOT
TORSDOF 0
ENDMDL
