MODEL 1
REMARK minimizedAffinity -5.62147617
REMARK minimizedRMSD -1
REMARK  0 active torsions:
REMARK  status: ('A' for Active; 'I' for Inactive)
ROOT
ATOM      1  C   UNL d   1       3.433  -0.670   0.572  0.00  0.00     0.020 A 
ATOM      2  C1  UNL d   1       3.155   0.685   0.748  0.00  0.00     0.020 A 
ATOM      3  C2  UNL d   1       1.859   1.163   0.546  0.00  0.00     0.034 A 
ATOM      4  C3  UNL d   1       0.835   0.287   0.167  0.00  0.00     0.017 A 
ATOM      5  C4  UNL d   1       1.115  -1.073  -0.010  0.00  0.00     0.017 A 
ATOM      6  C5  UNL d   1       2.415  -1.547   0.194  0.00  0.00     0.034 A 
ATOM      7 Cl   UNL d   1      -0.095  -2.215  -0.477  0.00  0.00    -0.070 Cl
ATOM      8 Cl1  UNL d   1      -0.744   0.948  -0.065  0.00  0.00    -0.070 Cl
ENDROOT
TORSDOF 0
ENDMDL
