MODEL 1
REMARK minimizedAffinity -3.16945696
REMARK minimizedRMSD -1
REMARK  0 active torsions:
REMARK  status: ('A' for Active; 'I' for Inactive)
ROOT
ATOM      1  C   UNL d   1      -0.833   0.816  -0.286  0.00  0.00     0.020 A 
ATOM      2  C1  UNL d   1       0.424   1.286   0.093  0.00  0.00     0.020 A 
ATOM      3  C2  UNL d   1       1.508   0.408   0.157  0.00  0.00     0.034 A 
ATOM      4  C3  UNL d   1       1.337  -0.945  -0.158  0.00  0.00     0.017 A 
ATOM      5  C4  UNL d   1       0.075  -1.416  -0.538  0.00  0.00     0.017 A 
ATOM      6  C5  UNL d   1      -1.006  -0.533  -0.601  0.00  0.00     0.034 A 
ATOM      7 Cl   UNL d   1      -0.213  -3.072  -0.941  0.00  0.00    -0.070 Cl
ATOM      8 Cl1  UNL d   1       2.722  -1.974  -0.057  0.00  0.00    -0.070 Cl
ENDROOT
TORSDOF 0
ENDMDL
