MODEL 1
REMARK minimizedAffinity -2.0965209
REMARK minimizedRMSD -1
REMARK  0 active torsions:
REMARK  status: ('A' for Active; 'I' for Inactive)
ROOT
ATOM      1  C   UNL d   1       2.744  -1.404   0.561  0.00  0.00     0.020 A 
ATOM      2  C1  UNL d   1       2.355  -1.009   1.840  0.00  0.00     0.020 A 
ATOM      3  C2  UNL d   1       1.051  -0.562   2.066  0.00  0.00     0.034 A 
ATOM      4  C3  UNL d   1       0.133  -0.508   1.011  0.00  0.00     0.017 A 
ATOM      5  C4  UNL d   1       0.525  -0.904  -0.272  0.00  0.00     0.017 A 
ATOM      6  C5  UNL d   1       1.831  -1.351  -0.493  0.00  0.00     0.034 A 
ATOM      7 Cl   UNL d   1      -0.552  -0.866  -1.624  0.00  0.00    -0.070 Cl
ATOM      8 Cl1  UNL d   1      -1.462   0.056   1.363  0.00  0.00    -0.070 Cl
ENDROOT
TORSDOF 0
ENDMDL
