MODEL 1
REMARK minimizedAffinity -5.29744816
REMARK minimizedRMSD -1
REMARK  0 active torsions:
REMARK  status: ('A' for Active; 'I' for Inactive)
ROOT
ATOM      1  C   UNL d   1       3.085   0.586   0.643  0.00  0.00     0.020 A 
ATOM      2  C1  UNL d   1       3.236  -0.799   0.705  0.00  0.00     0.020 A 
ATOM      3  C2  UNL d   1       2.161  -1.633   0.393  0.00  0.00     0.034 A 
ATOM      4  C3  UNL d   1       0.930  -1.084   0.018  0.00  0.00     0.017 A 
ATOM      5  C4  UNL d   1       0.779   0.306  -0.044  0.00  0.00     0.017 A 
ATOM      6  C5  UNL d   1       1.859   1.137   0.269  0.00  0.00     0.034 A 
ATOM      7 Cl   UNL d   1      -0.710   1.058  -0.499  0.00  0.00    -0.070 Cl
ATOM      8 Cl1  UNL d   1      -0.357  -2.175  -0.354  0.00  0.00    -0.070 Cl
ENDROOT
TORSDOF 0
ENDMDL
