MODEL 1
REMARK minimizedAffinity -3.54918289
REMARK minimizedRMSD -1
REMARK  0 active torsions:
REMARK  status: ('A' for Active; 'I' for Inactive)
ROOT
ATOM      1  C   UNL d   1       2.613  -1.056   0.403  0.00  0.00     0.020 A 
ATOM      2  C1  UNL d   1       2.243   0.222   0.820  0.00  0.00     0.020 A 
ATOM      3  C2  UNL d   1       0.932   0.666   0.628  0.00  0.00     0.034 A 
ATOM      4  C3  UNL d   1      -0.012  -0.168   0.019  0.00  0.00     0.017 A 
ATOM      5  C4  UNL d   1       0.362  -1.451  -0.399  0.00  0.00     0.017 A 
ATOM      6  C5  UNL d   1       1.675  -1.890  -0.205  0.00  0.00     0.034 A 
ATOM      7 Cl   UNL d   1      -0.747  -2.537  -1.159  0.00  0.00    -0.070 Cl
ATOM      8 Cl1  UNL d   1      -1.614   0.446  -0.186  0.00  0.00    -0.070 Cl
ENDROOT
TORSDOF 0
ENDMDL
