MODEL 1
REMARK minimizedAffinity -5.18161011
REMARK minimizedRMSD -1
REMARK  0 active torsions:
REMARK  status: ('A' for Active; 'I' for Inactive)
ROOT
ATOM      1  C   UNL d   1       3.218  -0.820  -0.054  0.00  0.00     0.020 A 
ATOM      2  C1  UNL d   1       2.872   0.361   0.602  0.00  0.00     0.020 A 
ATOM      3  C2  UNL d   1       1.538   0.771   0.643  0.00  0.00     0.034 A 
ATOM      4  C3  UNL d   1       0.545  -0.000   0.028  0.00  0.00     0.017 A 
ATOM      5  C4  UNL d   1       0.894  -1.185  -0.630  0.00  0.00     0.017 A 
ATOM      6  C5  UNL d   1       2.231  -1.591  -0.669  0.00  0.00     0.034 A 
ATOM      7 Cl   UNL d   1      -0.276  -2.189  -1.412  0.00  0.00    -0.070 Cl
ATOM      8 Cl1  UNL d   1      -1.085   0.567   0.119  0.00  0.00    -0.070 Cl
ENDROOT
TORSDOF 0
ENDMDL
