MODEL 1
REMARK minimizedAffinity -5.62159538
REMARK minimizedRMSD -1
REMARK  0 active torsions:
REMARK  status: ('A' for Active; 'I' for Inactive)
ROOT
ATOM      1  C   UNL d   1       3.059  -0.370   0.670  0.00  0.00     0.020 A 
ATOM      2  C1  UNL d   1       2.781   0.989   0.814  0.00  0.00     0.020 A 
ATOM      3  C2  UNL d   1       1.476   1.456   0.641  0.00  0.00     0.034 A 
ATOM      4  C3  UNL d   1       0.445   0.564   0.325  0.00  0.00     0.017 A 
ATOM      5  C4  UNL d   1       0.725  -0.799   0.181  0.00  0.00     0.017 A 
ATOM      6  C5  UNL d   1       2.033  -1.262   0.355  0.00  0.00     0.034 A 
ATOM      7 Cl   UNL d   1      -0.494  -1.961  -0.208  0.00  0.00    -0.070 Cl
ATOM      8 Cl1  UNL d   1      -1.145   1.212   0.126  0.00  0.00    -0.070 Cl
ENDROOT
TORSDOF 0
ENDMDL
