MODEL 1
REMARK minimizedAffinity -1.64194429
REMARK minimizedRMSD -1
REMARK  0 active torsions:
REMARK  status: ('A' for Active; 'I' for Inactive)
ROOT
ATOM      1  C   UNL d   1      -0.711  -0.202  -0.496  0.00  0.00     0.020 A 
ATOM      2  C1  UNL d   1      -0.713   1.186  -0.635  0.00  0.00     0.020 A 
ATOM      3  C2  UNL d   1       0.348   1.940  -0.130  0.00  0.00     0.034 A 
ATOM      4  C3  UNL d   1       1.416   1.307   0.517  0.00  0.00     0.017 A 
ATOM      5  C4  UNL d   1       1.417  -0.086   0.656  0.00  0.00     0.017 A 
ATOM      6  C5  UNL d   1       0.352  -0.836   0.148  0.00  0.00     0.034 A 
ATOM      7 Cl   UNL d   1       2.700  -0.938   1.441  0.00  0.00    -0.070 Cl
ATOM      8 Cl1  UNL d   1       2.695   2.301   1.117  0.00  0.00    -0.070 Cl
ENDROOT
TORSDOF 0
ENDMDL
