MODEL 1
REMARK minimizedAffinity -1.69273031
REMARK minimizedRMSD -1
REMARK  0 active torsions:
REMARK  status: ('A' for Active; 'I' for Inactive)
ROOT
ATOM      1  C   UNL d   1       2.084  -1.935  -0.030  0.00  0.00     0.020 A 
ATOM      2  C1  UNL d   1       0.846  -2.274  -0.575  0.00  0.00     0.020 A 
ATOM      3  C2  UNL d   1      -0.179  -1.327  -0.621  0.00  0.00     0.034 A 
ATOM      4  C3  UNL d   1       0.032  -0.036  -0.123  0.00  0.00     0.017 A 
ATOM      5  C4  UNL d   1       1.275   0.303   0.423  0.00  0.00     0.017 A 
ATOM      6  C5  UNL d   1       2.298  -0.650   0.468  0.00  0.00     0.034 A 
ATOM      7 Cl   UNL d   1       1.611   1.875   1.058  0.00  0.00    -0.070 Cl
ATOM      8 Cl1  UNL d   1      -1.280   1.084  -0.213  0.00  0.00    -0.070 Cl
ENDROOT
TORSDOF 0
ENDMDL
