MODEL 1
REMARK minimizedAffinity -3.77979279
REMARK minimizedRMSD -1
REMARK  0 active torsions:
REMARK  status: ('A' for Active; 'I' for Inactive)
ROOT
ATOM      1  C   UNL d   1      -1.261   0.443  -1.902  0.00  0.00     0.023 A 
ATOM      2  C1  UNL d   1      -2.309  -0.125  -1.176  0.00  0.00     0.003 A 
ATOM      3  C2  UNL d   1      -2.037  -0.926  -0.066  0.00  0.00     0.048 A 
ATOM      4  C3  UNL d   1      -0.715  -1.156   0.314  0.00  0.00     0.023 A 
ATOM      5  C4  UNL d   1       0.336  -0.590  -0.409  0.00  0.00     0.048 A 
ATOM      6  C5  UNL d   1       0.060   0.210  -1.519  0.00  0.00     0.003 A 
ATOM      7  I   UNL d   1      -0.308  -2.349   1.966  0.00  0.00    -0.146 I 
ENDROOT
TORSDOF 0
ENDMDL
