MODEL 1
REMARK minimizedAffinity -3.16734624
REMARK minimizedRMSD -1
REMARK  0 active torsions:
REMARK  status: ('A' for Active; 'I' for Inactive)
ROOT
ATOM      1  C   UNL d   1       2.007  -1.119   0.237  0.00  0.00     0.023 A 
ATOM      2  C1  UNL d   1       1.441  -0.345  -0.776  0.00  0.00     0.003 A 
ATOM      3  C2  UNL d   1       0.053  -0.224  -0.870  0.00  0.00     0.048 A 
ATOM      4  C3  UNL d   1      -0.763  -0.879   0.051  0.00  0.00     0.023 A 
ATOM      5  C4  UNL d   1      -0.200  -1.654   1.067  0.00  0.00     0.048 A 
ATOM      6  C5  UNL d   1       1.188  -1.773   1.157  0.00  0.00     0.003 A 
ATOM      7  I   UNL d   1      -2.829  -0.700  -0.087  0.00  0.00    -0.146 I 
ENDROOT
TORSDOF 0
ENDMDL
