MODEL 1
REMARK minimizedAffinity -1.00181115
REMARK minimizedRMSD -1
REMARK  0 active torsions:
REMARK  status: ('A' for Active; 'I' for Inactive)
ROOT
ATOM      1  C   UNL d   1      -2.839  -0.755  -0.325  0.00  0.00     0.023 A 
ATOM      2  C1  UNL d   1      -2.137  -0.335  -1.455  0.00  0.00     0.003 A 
ATOM      3  C2  UNL d   1      -0.787   0.005  -1.355  0.00  0.00     0.048 A 
ATOM      4  C3  UNL d   1      -0.143  -0.079  -0.120  0.00  0.00     0.023 A 
ATOM      5  C4  UNL d   1      -0.841  -0.499   1.013  0.00  0.00     0.048 A 
ATOM      6  C5  UNL d   1      -2.191  -0.837   0.908  0.00  0.00     0.003 A 
ATOM      7  I   UNL d   1       1.867   0.426   0.032  0.00  0.00    -0.146 I 
ENDROOT
TORSDOF 0
ENDMDL
