MODEL 1
REMARK minimizedAffinity -3.46328235
REMARK minimizedRMSD -1
REMARK  0 active torsions:
REMARK  status: ('A' for Active; 'I' for Inactive)
ROOT
ATOM      1  C   UNL d   1       2.356   1.314   2.211  0.00  0.00     0.023 A 
ATOM      2  C1  UNL d   1       2.159   0.863   0.906  0.00  0.00     0.003 A 
ATOM      3  C2  UNL d   1       2.591   1.635  -0.174  0.00  0.00     0.048 A 
ATOM      4  C3  UNL d   1       3.221   2.857   0.058  0.00  0.00     0.023 A 
ATOM      5  C4  UNL d   1       3.422   3.312   1.362  0.00  0.00     0.048 A 
ATOM      6  C5  UNL d   1       2.987   2.537   2.439  0.00  0.00     0.003 A 
ATOM      7  I   UNL d   1       3.866   4.009  -1.548  0.00  0.00    -0.146 I 
ENDROOT
TORSDOF 0
ENDMDL
