MODEL 1
REMARK minimizedAffinity -1.97119904
REMARK minimizedRMSD -1
REMARK  0 active torsions:
REMARK  status: ('A' for Active; 'I' for Inactive)
ROOT
ATOM      1  C   UNL d   1      -0.441  -0.351  -1.099  0.00  0.00     0.023 A 
ATOM      2  C1  UNL d   1       0.579  -0.935  -0.349  0.00  0.00     0.003 A 
ATOM      3  C2  UNL d   1       1.514  -0.131   0.307  0.00  0.00     0.048 A 
ATOM      4  C3  UNL d   1       1.422   1.257   0.209  0.00  0.00     0.023 A 
ATOM      5  C4  UNL d   1       0.402   1.846  -0.540  0.00  0.00     0.048 A 
ATOM      6  C5  UNL d   1      -0.530   1.038  -1.195  0.00  0.00     0.003 A 
ATOM      7  I   UNL d   1       2.812   2.456   1.184  0.00  0.00    -0.146 I 
ENDROOT
TORSDOF 0
ENDMDL
