MODEL 1
REMARK minimizedAffinity -3.02997303
REMARK minimizedRMSD -1
REMARK  0 active torsions:
REMARK  status: ('A' for Active; 'I' for Inactive)
ROOT
ATOM      1  C   UNL d   1      -2.259  -0.514  -0.873  0.00  0.00     0.023 A 
ATOM      2  C1  UNL d   1      -1.580   0.342  -1.740  0.00  0.00     0.003 A 
ATOM      3  C2  UNL d   1      -0.305   0.805  -1.409  0.00  0.00     0.048 A 
ATOM      4  C3  UNL d   1       0.286   0.408  -0.210  0.00  0.00     0.023 A 
ATOM      5  C4  UNL d   1      -0.390  -0.450   0.660  0.00  0.00     0.048 A 
ATOM      6  C5  UNL d   1      -1.665  -0.910   0.325  0.00  0.00     0.003 A 
ATOM      7  I   UNL d   1       2.183   1.096   0.285  0.00  0.00    -0.146 I 
ENDROOT
TORSDOF 0
ENDMDL
