MODEL 1
REMARK minimizedAffinity -2.22899246
REMARK minimizedRMSD -1
REMARK  0 active torsions:
REMARK  status: ('A' for Active; 'I' for Inactive)
ROOT
ATOM      1  C   UNL d   1      -3.045  -0.704  -0.505  0.00  0.00     0.023 A 
ATOM      2  C1  UNL d   1      -2.357  -0.819   0.703  0.00  0.00     0.003 A 
ATOM      3  C2  UNL d   1      -1.031  -0.394   0.796  0.00  0.00     0.048 A 
ATOM      4  C3  UNL d   1      -0.398   0.147  -0.322  0.00  0.00     0.023 A 
ATOM      5  C4  UNL d   1      -1.082   0.264  -1.533  0.00  0.00     0.048 A 
ATOM      6  C5  UNL d   1      -2.408  -0.163  -1.622  0.00  0.00     0.003 A 
ATOM      7  I   UNL d   1       1.577   0.781  -0.186  0.00  0.00    -0.146 I 
ENDROOT
TORSDOF 0
ENDMDL
