MODEL 1
REMARK minimizedAffinity -2.12493348
REMARK minimizedRMSD -1
REMARK  0 active torsions:
REMARK  status: ('A' for Active; 'I' for Inactive)
ROOT
ATOM      1  C   UNL d   1      -2.311  -0.656  -1.367  0.00  0.00     0.023 A 
ATOM      2  C1  UNL d   1      -2.096  -0.669   0.011  0.00  0.00     0.003 A 
ATOM      3  C2  UNL d   1      -0.905  -0.164   0.538  0.00  0.00     0.048 A 
ATOM      4  C3  UNL d   1       0.066   0.353  -0.319  0.00  0.00     0.023 A 
ATOM      5  C4  UNL d   1      -0.146   0.368  -1.699  0.00  0.00     0.048 A 
ATOM      6  C5  UNL d   1      -1.337  -0.139  -2.221  0.00  0.00     0.003 A 
ATOM      7  I   UNL d   1       1.839   1.105   0.463  0.00  0.00    -0.146 I 
ENDROOT
TORSDOF 0
ENDMDL
