MODEL 1
REMARK minimizedAffinity -2.8035121
REMARK minimizedRMSD -1
REMARK  0 active torsions:
REMARK  status: ('A' for Active; 'I' for Inactive)
ROOT
ATOM      1  C   UNL d   1      -2.351  -0.641  -1.211  0.00  0.00     0.023 A 
ATOM      2  C1  UNL d   1      -1.378  -0.054  -2.020  0.00  0.00     0.003 A 
ATOM      3  C2  UNL d   1      -0.163   0.356  -1.468  0.00  0.00     0.048 A 
ATOM      4  C3  UNL d   1       0.074   0.174  -0.106  0.00  0.00     0.023 A 
ATOM      5  C4  UNL d   1      -0.896  -0.414   0.707  0.00  0.00     0.048 A 
ATOM      6  C5  UNL d   1      -2.110  -0.821   0.151  0.00  0.00     0.003 A 
ATOM      7  I   UNL d   1       1.883   0.781   0.718  0.00  0.00    -0.146 I 
ENDROOT
TORSDOF 0
ENDMDL
