MODEL 1
REMARK minimizedAffinity -2.37744141
REMARK minimizedRMSD -1
REMARK  0 active torsions:
REMARK  status: ('A' for Active; 'I' for Inactive)
ROOT
ATOM      1  C   UNL d   1      -2.287  -0.631  -0.931  0.00  0.00     0.023 A 
ATOM      2  C1  UNL d   1      -1.340  -0.060  -1.782  0.00  0.00     0.003 A 
ATOM      3  C2  UNL d   1      -0.140   0.432  -1.264  0.00  0.00     0.048 A 
ATOM      4  C3  UNL d   1       0.107   0.349   0.106  0.00  0.00     0.023 A 
ATOM      5  C4  UNL d   1      -0.836  -0.222   0.961  0.00  0.00     0.048 A 
ATOM      6  C5  UNL d   1      -2.035  -0.712   0.439  0.00  0.00     0.003 A 
ATOM      7  I   UNL d   1       1.892   1.081   0.878  0.00  0.00    -0.146 I 
ENDROOT
TORSDOF 0
ENDMDL
