MODEL 1
REMARK minimizedAffinity -3.06944513
REMARK minimizedRMSD -1
REMARK  0 active torsions:
REMARK  status: ('A' for Active; 'I' for Inactive)
ROOT
ATOM      1  C   UNL d   1      -2.294  -0.563  -1.129  0.00  0.00     0.023 A 
ATOM      2  C1  UNL d   1      -1.932  -1.046   0.128  0.00  0.00     0.003 A 
ATOM      3  C2  UNL d   1      -0.688  -0.720   0.672  0.00  0.00     0.048 A 
ATOM      4  C3  UNL d   1       0.189   0.091  -0.047  0.00  0.00     0.023 A 
ATOM      5  C4  UNL d   1      -0.169   0.578  -1.305  0.00  0.00     0.048 A 
ATOM      6  C5  UNL d   1      -1.413   0.248  -1.845  0.00  0.00     0.003 A 
ATOM      7  I   UNL d   1       2.041   0.578   0.760  0.00  0.00    -0.146 I 
ENDROOT
TORSDOF 0
ENDMDL
