MODEL 1
REMARK minimizedAffinity -1.55690622
REMARK minimizedRMSD -1
REMARK  0 active torsions:
REMARK  status: ('A' for Active; 'I' for Inactive)
ROOT
ATOM      1  C   UNL d   1      -3.153  -0.773  -0.425  0.00  0.00     0.023 A 
ATOM      2  C1  UNL d   1      -2.526  -0.607   0.809  0.00  0.00     0.003 A 
ATOM      3  C2  UNL d   1      -1.181  -0.235   0.866  0.00  0.00     0.048 A 
ATOM      4  C3  UNL d   1      -0.470  -0.030  -0.316  0.00  0.00     0.023 A 
ATOM      5  C4  UNL d   1      -1.094  -0.194  -1.554  0.00  0.00     0.048 A 
ATOM      6  C5  UNL d   1      -2.439  -0.567  -1.605  0.00  0.00     0.003 A 
ATOM      7  I   UNL d   1       1.531   0.524  -0.234  0.00  0.00    -0.146 I 
ENDROOT
TORSDOF 0
ENDMDL
