MODEL 1
REMARK minimizedAffinity 14.7458858
REMARK minimizedRMSD -1
REMARK  2 active torsions:
REMARK  status: ('A' for Active; 'I' for Inactive)
REMARK    1  A    between atoms: C1_2  and  C2_3 
REMARK    2  A    between atoms: C2_3  and  C3_4 
ROOT
ATOM      1  C3  UNL d   1      -3.889  -1.506  -1.540  0.00  0.00    -0.075 A 
ATOM      2  C4  UNL d   1      -2.862  -0.920  -2.294  0.00  0.00     0.002 A 
ATOM      3  C5  UNL d   1      -2.676   0.463  -2.281  0.00  0.00     0.002 A 
ATOM      4  C6  UNL d   1      -3.517   1.276  -1.525  0.00  0.00    -0.004 A 
ATOM      5  C7  UNL d   1      -4.551   0.705  -0.786  0.00  0.00     0.002 A 
ATOM      6  C8  UNL d   1      -4.737  -0.678  -0.792  0.00  0.00     0.002 A 
ENDROOT
BRANCH   1   7
ATOM      7  C2  UNL d   1      -4.078  -3.004  -1.525  0.00  0.00     0.056 C 
BRANCH   7   8
ATOM      8  C1  UNL d   1      -2.792  -3.798  -1.776  0.00  0.00     0.007 C 
ATOM      9  C   UNL d   1      -2.976  -5.303  -1.631  0.00  0.00     0.009 C 
ENDBRANCH   7   8
ENDBRANCH   1   7
TORSDOF 2
ENDMDL
