MODEL 1
REMARK minimizedAffinity 9.75506687
REMARK minimizedRMSD -1
REMARK  2 active torsions:
REMARK  status: ('A' for Active; 'I' for Inactive)
REMARK    1  A    between atoms: C1_2  and  C2_3 
REMARK    2  A    between atoms: C2_3  and  C3_4 
ROOT
ATOM      1  C3  UNL d   1       2.646   1.368  -0.074  0.00  0.00    -0.075 A 
ATOM      2  C4  UNL d   1       1.911   1.593  -1.248  0.00  0.00     0.002 A 
ATOM      3  C5  UNL d   1       2.407   2.436  -2.243  0.00  0.00     0.002 A 
ATOM      4  C6  UNL d   1       3.635   3.071  -2.074  0.00  0.00    -0.004 A 
ATOM      5  C7  UNL d   1       4.366   2.868  -0.905  0.00  0.00     0.002 A 
ATOM      6  C8  UNL d   1       3.874   2.022   0.090  0.00  0.00     0.002 A 
ENDROOT
BRANCH   1   7
ATOM      7  C2  UNL d   1       2.129   0.434   0.994  0.00  0.00     0.056 C 
BRANCH   7   8
ATOM      8  C1  UNL d   1       2.966  -0.838   1.167  0.00  0.00     0.007 C 
ATOM      9  C   UNL d   1       2.122  -2.087   1.382  0.00  0.00     0.009 C 
ENDBRANCH   7   8
ENDBRANCH   1   7
TORSDOF 2
ENDMDL
