MODEL 1
REMARK minimizedAffinity 5.99931288
REMARK minimizedRMSD -1
REMARK  2 active torsions:
REMARK  status: ('A' for Active; 'I' for Inactive)
REMARK    1  A    between atoms: C1_2  and  C2_3 
REMARK    2  A    between atoms: C2_3  and  C3_4 
ROOT
ATOM      1  C3  UNL d   1      -5.102   4.469   3.696  0.00  0.00    -0.075 A 
ATOM      2  C4  UNL d   1      -5.999   4.453   4.774  0.00  0.00     0.002 A 
ATOM      3  C5  UNL d   1      -5.747   5.213   5.917  0.00  0.00     0.002 A 
ATOM      4  C6  UNL d   1      -4.593   5.989   6.000  0.00  0.00    -0.004 A 
ATOM      5  C7  UNL d   1      -3.687   6.000   4.942  0.00  0.00     0.002 A 
ATOM      6  C8  UNL d   1      -3.939   5.243   3.796  0.00  0.00     0.002 A 
ENDROOT
BRANCH   1   7
ATOM      7  C2  UNL d   1      -5.384   3.671   2.445  0.00  0.00     0.056 C 
BRANCH   7   8
ATOM      8  C1  UNL d   1      -4.125   3.234   1.688  0.00  0.00     0.007 C 
ATOM      9  C   UNL d   1      -4.407   2.798   0.256  0.00  0.00     0.009 C 
ENDBRANCH   7   8
ENDBRANCH   1   7
TORSDOF 2
ENDMDL
