MODEL 1
REMARK minimizedAffinity 12.7176075
REMARK minimizedRMSD -1
REMARK  2 active torsions:
REMARK  status: ('A' for Active; 'I' for Inactive)
REMARK    1  A    between atoms: C1_2  and  C2_3 
REMARK    2  A    between atoms: C2_3  and  C3_4 
ROOT
ATOM      1  C3  UNL d   1       1.927  -1.541  -0.339  0.00  0.00    -0.075 A 
ATOM      2  C4  UNL d   1       1.960  -0.371  -1.113  0.00  0.00     0.002 A 
ATOM      3  C5  UNL d   1       2.632   0.762  -0.655  0.00  0.00     0.002 A 
ATOM      4  C6  UNL d   1       3.271   0.745   0.583  0.00  0.00    -0.004 A 
ATOM      5  C7  UNL d   1       3.231  -0.406   1.367  0.00  0.00     0.002 A 
ATOM      6  C8  UNL d   1       2.562  -1.543   0.910  0.00  0.00     0.002 A 
ENDROOT
BRANCH   1   7
ATOM      7  C2  UNL d   1       1.226  -2.780  -0.842  0.00  0.00     0.056 C 
BRANCH   7   8
ATOM      8  C1  UNL d   1       0.676  -3.680   0.269  0.00  0.00     0.007 C 
ATOM      9  C   UNL d   1      -0.508  -4.528  -0.175  0.00  0.00     0.009 C 
ENDBRANCH   7   8
ENDBRANCH   1   7
TORSDOF 2
ENDMDL
