MODEL 1
REMARK minimizedAffinity 8.21801567
REMARK minimizedRMSD -1
REMARK  2 active torsions:
REMARK  status: ('A' for Active; 'I' for Inactive)
REMARK    1  A    between atoms: C1_2  and  C2_3 
REMARK    2  A    between atoms: C2_3  and  C3_4 
ROOT
ATOM      1  C3  UNL d   1      -4.692   0.807  -0.731  0.00  0.00    -0.075 A 
ATOM      2  C4  UNL d   1      -5.632   1.525  -1.485  0.00  0.00     0.002 A 
ATOM      3  C5  UNL d   1      -5.877   1.191  -2.817  0.00  0.00     0.002 A 
ATOM      4  C6  UNL d   1      -5.179   0.144  -3.415  0.00  0.00    -0.004 A 
ATOM      5  C7  UNL d   1      -4.232  -0.566  -2.681  0.00  0.00     0.002 A 
ATOM      6  C8  UNL d   1      -3.988  -0.237  -1.346  0.00  0.00     0.002 A 
ENDROOT
BRANCH   1   7
ATOM      7  C2  UNL d   1      -4.444   1.144   0.720  0.00  0.00     0.056 C 
BRANCH   7   8
ATOM      8  C1  UNL d   1      -5.297   2.304   1.245  0.00  0.00     0.007 C 
ATOM      9  C   UNL d   1      -4.952   2.704   2.673  0.00  0.00     0.009 C 
ENDBRANCH   7   8
ENDBRANCH   1   7
TORSDOF 2
ENDMDL
