MODEL 1
REMARK minimizedAffinity 4.38145018
REMARK minimizedRMSD -1
REMARK  2 active torsions:
REMARK  status: ('A' for Active; 'I' for Inactive)
REMARK    1  A    between atoms: C1_2  and  C2_3 
REMARK    2  A    between atoms: C2_3  and  C3_4 
ROOT
ATOM      1  C3  UNL d   1      -5.236   4.173   3.595  0.00  0.00    -0.075 A 
ATOM      2  C4  UNL d   1      -6.000   3.848   4.725  0.00  0.00     0.002 A 
ATOM      3  C5  UNL d   1      -5.833   4.551   5.919  0.00  0.00     0.002 A 
ATOM      4  C6  UNL d   1      -4.895   5.578   6.000  0.00  0.00    -0.004 A 
ATOM      5  C7  UNL d   1      -4.120   5.899   4.888  0.00  0.00     0.002 A 
ATOM      6  C8  UNL d   1      -4.288   5.200   3.691  0.00  0.00     0.002 A 
ENDROOT
BRANCH   1   7
ATOM      7  C2  UNL d   1      -5.433   3.435   2.292  0.00  0.00     0.056 C 
BRANCH   7   8
ATOM      8  C1  UNL d   1      -4.274   2.504   1.921  0.00  0.00     0.007 C 
ATOM      9  C   UNL d   1      -4.518   1.723   0.637  0.00  0.00     0.009 C 
ENDBRANCH   7   8
ENDBRANCH   1   7
TORSDOF 2
ENDMDL
