MODEL 1
REMARK minimizedAffinity 9.39081097
REMARK minimizedRMSD -1
REMARK  2 active torsions:
REMARK  status: ('A' for Active; 'I' for Inactive)
REMARK    1  A    between atoms: C1_2  and  C2_3 
REMARK    2  A    between atoms: C2_3  and  C3_4 
ROOT
ATOM      1  C3  UNL d   1       4.683   2.250  -0.966  0.00  0.00    -0.075 A 
ATOM      2  C4  UNL d   1       4.489   2.036   0.407  0.00  0.00     0.002 A 
ATOM      3  C5  UNL d   1       3.570   1.086   0.852  0.00  0.00     0.002 A 
ATOM      4  C6  UNL d   1       2.827   0.347  -0.066  0.00  0.00    -0.004 A 
ATOM      5  C7  UNL d   1       3.000   0.562  -1.431  0.00  0.00     0.002 A 
ATOM      6  C8  UNL d   1       3.922   1.509  -1.880  0.00  0.00     0.002 A 
ENDROOT
BRANCH   1   7
ATOM      7  C2  UNL d   1       5.698   3.255  -1.455  0.00  0.00     0.056 C 
BRANCH   7   8
ATOM      8  C1  UNL d   1       5.996   4.378  -0.455  0.00  0.00     0.007 C 
ATOM      9  C   UNL d   1       5.813   5.770  -1.044  0.00  0.00     0.009 C 
ENDBRANCH   7   8
ENDBRANCH   1   7
TORSDOF 2
ENDMDL
