MODEL 1
REMARK minimizedAffinity 7.24128723
REMARK minimizedRMSD -1
REMARK  2 active torsions:
REMARK  status: ('A' for Active; 'I' for Inactive)
REMARK    1  A    between atoms: C1_2  and  C2_3 
REMARK    2  A    between atoms: C2_3  and  C3_4 
ROOT
ATOM      1  C3  UNL d   1      -0.521  -3.884   4.149  0.00  0.00    -0.075 A 
ATOM      2  C4  UNL d   1      -1.516  -4.872   4.140  0.00  0.00     0.002 A 
ATOM      3  C5  UNL d   1      -1.482  -5.921   5.060  0.00  0.00     0.002 A 
ATOM      4  C6  UNL d   1      -0.449  -6.000   5.992  0.00  0.00    -0.004 A 
ATOM      5  C7  UNL d   1       0.553  -5.033   6.000  0.00  0.00     0.002 A 
ATOM      6  C8  UNL d   1       0.519  -3.980   5.083  0.00  0.00     0.002 A 
ENDROOT
BRANCH   1   7
ATOM      7  C2  UNL d   1      -0.568  -2.731   3.175  0.00  0.00     0.056 C 
BRANCH   7   8
ATOM      8  C1  UNL d   1       0.686  -1.851   3.189  0.00  0.00     0.007 C 
ATOM      9  C   UNL d   1       0.379  -0.370   3.362  0.00  0.00     0.009 C 
ENDBRANCH   7   8
ENDBRANCH   1   7
TORSDOF 2
ENDMDL
