MODEL 1
REMARK minimizedAffinity -0.711542308
REMARK minimizedRMSD -1
REMARK  1 active torsions:
REMARK  status: ('A' for Active; 'I' for Inactive)
REMARK    1  A    between atoms: N_2  and  C1_3 
ROOT
ATOM      1  C1  UNL d   1      -0.081   0.113   1.091  0.00  0.00     0.143 A 
ATOM      2  C2  UNL d   1       0.654   1.254   1.428  0.00  0.00    -0.057 A 
ATOM      3  C3  UNL d   1       0.520   1.860   2.683  0.00  0.00     0.033 A 
ATOM      4  C4  UNL d   1      -0.377   1.350   3.616  0.00  0.00    -0.042 A 
ATOM      5  C5  UNL d   1      -1.136   0.231   3.293  0.00  0.00     0.033 A 
ATOM      6  C6  UNL d   1      -0.992  -0.374   2.041  0.00  0.00    -0.057 A 
ENDROOT
BRANCH   1   7
ATOM      7  N   UNL d   1      -0.064  -0.477  -0.175  0.00  0.00    -0.732 N 
ATOM      8  C   UNL d   1      -0.044   0.340  -1.369  0.00  0.00     0.284 C 
ATOM      9  H3  UNL d   1       0.547  -1.290  -0.217  0.00  0.00     0.395 HD
ENDBRANCH   1   7
TORSDOF 1
ENDMDL
