MODEL 1
REMARK minimizedAffinity -1.99021935
REMARK minimizedRMSD -1
REMARK  1 active torsions:
REMARK  status: ('A' for Active; 'I' for Inactive)
REMARK    1  A    between atoms: N_2  and  C1_3 
ROOT
ATOM      1  C1  UNL d   1      -0.120   0.605  -5.166  0.00  0.00     0.143 A 
ATOM      2  C2  UNL d   1      -0.057  -0.790  -5.245  0.00  0.00    -0.057 A 
ATOM      3  C3  UNL d   1       1.115  -1.443  -5.644  0.00  0.00     0.033 A 
ATOM      4  C4  UNL d   1       2.241  -0.708  -6.000  0.00  0.00    -0.042 A 
ATOM      5  C5  UNL d   1       2.194   0.681  -5.953  0.00  0.00     0.033 A 
ATOM      6  C6  UNL d   1       1.022   1.327  -5.548  0.00  0.00    -0.057 A 
ENDROOT
BRANCH   1   7
ATOM      7  N   UNL d   1      -1.286   1.316  -4.872  0.00  0.00    -0.732 N 
ATOM      8  C   UNL d   1      -2.586   0.761  -5.183  0.00  0.00     0.284 C 
ATOM      9  H3  UNL d   1      -1.239   1.783  -3.969  0.00  0.00     0.395 HD
ENDBRANCH   1   7
TORSDOF 1
ENDMDL
