MODEL 1
REMARK minimizedAffinity -4.68434143
REMARK minimizedRMSD -1
REMARK  1 active torsions:
REMARK  status: ('A' for Active; 'I' for Inactive)
REMARK    1  A    between atoms: N_2  and  C1_3 
ROOT
ATOM      1  C1  UNL d   1      -0.134   0.037   0.106  0.00  0.00     0.143 A 
ATOM      2  C2  UNL d   1      -1.446  -0.128   0.561  0.00  0.00    -0.057 A 
ATOM      3  C3  UNL d   1      -1.882   0.467   1.752  0.00  0.00     0.033 A 
ATOM      4  C4  UNL d   1      -1.000   1.215   2.525  0.00  0.00    -0.042 A 
ATOM      5  C5  UNL d   1       0.316   1.371   2.105  0.00  0.00     0.033 A 
ATOM      6  C6  UNL d   1       0.742   0.781   0.911  0.00  0.00    -0.057 A 
ENDROOT
BRANCH   1   7
ATOM      7  N   UNL d   1       0.386  -0.610  -1.018  0.00  0.00    -0.732 N 
ATOM      8  C   UNL d   1       0.629   0.122  -2.243  0.00  0.00     0.284 C 
ATOM      9  H3  UNL d   1       1.118  -1.275  -0.780  0.00  0.00     0.395 HD
ENDBRANCH   1   7
TORSDOF 1
ENDMDL
