MODEL 1
REMARK minimizedAffinity -4.67102432
REMARK minimizedRMSD -1
REMARK  1 active torsions:
REMARK  status: ('A' for Active; 'I' for Inactive)
REMARK    1  A    between atoms: N_2  and  C1_3 
ROOT
ATOM      1  C1  UNL d   1      -0.270  -0.157   0.420  0.00  0.00     0.143 A 
ATOM      2  C2  UNL d   1       0.711   0.067   1.392  0.00  0.00    -0.057 A 
ATOM      3  C3  UNL d   1       0.401   0.692   2.606  0.00  0.00     0.033 A 
ATOM      4  C4  UNL d   1      -0.894   1.132   2.858  0.00  0.00    -0.042 A 
ATOM      5  C5  UNL d   1      -1.880   0.942   1.896  0.00  0.00     0.033 A 
ATOM      6  C6  UNL d   1      -1.566   0.312   0.688  0.00  0.00    -0.057 A 
ENDROOT
BRANCH   1   7
ATOM      7  N   UNL d   1      -0.005  -0.684  -0.846  0.00  0.00    -0.732 N 
ATOM      8  C   UNL d   1       0.702   0.099  -1.838  0.00  0.00     0.284 C 
ATOM      9  H3  UNL d   1       0.278  -1.661  -0.809  0.00  0.00     0.395 HD
ENDBRANCH   1   7
TORSDOF 1
ENDMDL
