MODEL 1
REMARK minimizedAffinity -4.16133118
REMARK minimizedRMSD -1
REMARK  1 active torsions:
REMARK  status: ('A' for Active; 'I' for Inactive)
REMARK    1  A    between atoms: N_2  and  C1_3 
ROOT
ATOM      1  C1  UNL d   1      -0.047  -0.017   0.116  0.00  0.00     0.143 A 
ATOM      2  C2  UNL d   1       0.524   0.373   1.332  0.00  0.00    -0.057 A 
ATOM      3  C3  UNL d   1      -0.217   1.077   2.289  0.00  0.00     0.033 A 
ATOM      4  C4  UNL d   1      -1.538   1.431   2.033  0.00  0.00    -0.042 A 
ATOM      5  C5  UNL d   1      -2.118   1.076   0.820  0.00  0.00     0.033 A 
ATOM      6  C6  UNL d   1      -1.375   0.366  -0.129  0.00  0.00    -0.057 A 
ENDROOT
BRANCH   1   7
ATOM      7  N   UNL d   1       0.666  -0.633  -0.916  0.00  0.00    -0.732 N 
ATOM      8  C   UNL d   1       0.731  -0.029  -2.229  0.00  0.00     0.284 C 
ATOM      9  H3  UNL d   1       1.547  -1.029  -0.597  0.00  0.00     0.395 HD
ENDBRANCH   1   7
TORSDOF 1
ENDMDL
