MODEL 1
REMARK minimizedAffinity 9.80867481
REMARK minimizedRMSD -1
REMARK  0 active torsions:
REMARK  status: ('A' for Active; 'I' for Inactive)
ROOT
ATOM      1  C   UNL d   1       4.403  -5.587  -5.937  0.00  0.00     0.023 A 
ATOM      2  C1  UNL d   1       5.100  -5.833  -4.754  0.00  0.00     0.003 A 
ATOM      3  C2  UNL d   1       4.413  -5.912  -3.540  0.00  0.00     0.048 A 
ATOM      4  C3  UNL d   1       3.029  -5.743  -3.517  0.00  0.00     0.023 A 
ATOM      5  C4  UNL d   1       2.327  -5.497  -4.698  0.00  0.00     0.048 A 
ATOM      6  C5  UNL d   1       3.018  -5.419  -5.909  0.00  0.00     0.003 A 
ATOM      7  I   UNL d   1       2.005  -5.860  -1.712  0.00  0.00    -0.146 I 
ENDROOT
TORSDOF 0
ENDMDL
