MODEL 1
REMARK minimizedAffinity 1.65885687
REMARK minimizedRMSD -1
REMARK  0 active torsions:
REMARK  status: ('A' for Active; 'I' for Inactive)
ROOT
ATOM      1  C   UNL d   1       2.465  -5.988  -2.678  0.00  0.00     0.023 A 
ATOM      2  C1  UNL d   1       2.147  -6.000  -4.036  0.00  0.00     0.003 A 
ATOM      3  C2  UNL d   1       3.154  -5.843  -4.991  0.00  0.00     0.048 A 
ATOM      4  C3  UNL d   1       4.476  -5.676  -4.581  0.00  0.00     0.023 A 
ATOM      5  C4  UNL d   1       4.799  -5.664  -3.223  0.00  0.00     0.048 A 
ATOM      6  C5  UNL d   1       3.789  -5.821  -2.272  0.00  0.00     0.003 A 
ATOM      7  I   UNL d   1       5.977  -5.442  -6.000  0.00  0.00    -0.146 I 
ENDROOT
TORSDOF 0
ENDMDL
