MODEL 1
REMARK minimizedAffinity 3.47513986
REMARK minimizedRMSD -1
REMARK  0 active torsions:
REMARK  status: ('A' for Active; 'I' for Inactive)
ROOT
ATOM      1  C   UNL d   1      -3.887   3.437  -5.999  0.00  0.00     0.023 A 
ATOM      2  C1  UNL d   1      -3.961   2.252  -5.267  0.00  0.00     0.003 A 
ATOM      3  C2  UNL d   1      -2.858   1.813  -4.533  0.00  0.00     0.048 A 
ATOM      4  C3  UNL d   1      -1.683   2.563  -4.535  0.00  0.00     0.023 A 
ATOM      5  C4  UNL d   1      -1.603   3.750  -5.266  0.00  0.00     0.048 A 
ATOM      6  C5  UNL d   1      -2.709   4.185  -5.999  0.00  0.00     0.003 A 
ATOM      7  I   UNL d   1      -0.039   1.911  -3.444  0.00  0.00    -0.146 I 
ENDROOT
TORSDOF 0
ENDMDL
