MODEL 1
REMARK minimizedAffinity 1.61641586
REMARK minimizedRMSD -1
REMARK  0 active torsions:
REMARK  status: ('A' for Active; 'I' for Inactive)
ROOT
ATOM      1  C   UNL d   1       2.147  -5.284  -3.048  0.00  0.00     0.023 A 
ATOM      2  C1  UNL d   1       1.970  -5.830  -4.320  0.00  0.00     0.003 A 
ATOM      3  C2  UNL d   1       3.067  -5.997  -5.168  0.00  0.00     0.048 A 
ATOM      4  C3  UNL d   1       4.338  -5.616  -4.739  0.00  0.00     0.023 A 
ATOM      5  C4  UNL d   1       4.520  -5.071  -3.467  0.00  0.00     0.048 A 
ATOM      6  C5  UNL d   1       3.420  -4.905  -2.622  0.00  0.00     0.003 A 
ATOM      7  I   UNL d   1       5.971  -5.864  -6.000  0.00  0.00    -0.146 I 
ENDROOT
TORSDOF 0
ENDMDL
