MODEL 1
REMARK minimizedAffinity 3.23182869
REMARK minimizedRMSD -1
REMARK  0 active torsions:
REMARK  status: ('A' for Active; 'I' for Inactive)
ROOT
ATOM      1  C   UNL d   1       1.679   1.510   1.162  0.00  0.00     0.023 A 
ATOM      2  C1  UNL d   1       0.843   2.471   0.593  0.00  0.00     0.003 A 
ATOM      3  C2  UNL d   1       1.322   3.760   0.352  0.00  0.00     0.048 A 
ATOM      4  C3  UNL d   1       2.638   4.082   0.682  0.00  0.00     0.023 A 
ATOM      5  C4  UNL d   1       3.478   3.123   1.251  0.00  0.00     0.048 A 
ATOM      6  C5  UNL d   1       2.995   1.836   1.491  0.00  0.00     0.003 A 
ATOM      7  I   UNL d   1       3.353   6.000   0.324  0.00  0.00    -0.146 I 
ENDROOT
TORSDOF 0
ENDMDL
