MODEL 1
REMARK minimizedAffinity -0.407392859
REMARK minimizedRMSD -1
REMARK  0 active torsions:
REMARK  status: ('A' for Active; 'I' for Inactive)
ROOT
ATOM      1  C   UNL d   1       5.396  -5.624  -3.528  0.00  0.00     0.023 A 
ATOM      2  C1  UNL d   1       5.417  -5.874  -4.900  0.00  0.00     0.003 A 
ATOM      3  C2  UNL d   1       4.219  -5.977  -5.611  0.00  0.00     0.048 A 
ATOM      4  C3  UNL d   1       3.004  -5.828  -4.943  0.00  0.00     0.023 A 
ATOM      5  C4  UNL d   1       2.979  -5.577  -3.570  0.00  0.00     0.048 A 
ATOM      6  C5  UNL d   1       4.179  -5.476  -2.864  0.00  0.00     0.003 A 
ATOM      7  I   UNL d   1       1.220  -5.981  -5.999  0.00  0.00    -0.146 I 
ENDROOT
TORSDOF 0
ENDMDL
