MODEL 1
REMARK minimizedAffinity 2.26742768
REMARK minimizedRMSD -1
REMARK  0 active torsions:
REMARK  status: ('A' for Active; 'I' for Inactive)
ROOT
ATOM      1  C   UNL d   1      -1.209   2.960   2.292  0.00  0.00     0.023 A 
ATOM      2  C1  UNL d   1      -0.988   2.952   0.914  0.00  0.00     0.003 A 
ATOM      3  C2  UNL d   1       0.277   2.641   0.411  0.00  0.00     0.048 A 
ATOM      4  C3  UNL d   1       1.316   2.337   1.290  0.00  0.00     0.023 A 
ATOM      5  C4  UNL d   1       1.099   2.343   2.669  0.00  0.00     0.048 A 
ATOM      6  C5  UNL d   1      -0.167   2.656   3.168  0.00  0.00     0.003 A 
ATOM      7  I   UNL d   1       3.199   1.873   0.543  0.00  0.00    -0.146 I 
ENDROOT
TORSDOF 0
ENDMDL
