MODEL 1
REMARK minimizedAffinity -1.74238086
REMARK minimizedRMSD -1
REMARK  0 active torsions:
REMARK  status: ('A' for Active; 'I' for Inactive)
ROOT
ATOM      1  C   UNL d   1       5.999  -5.252  -3.900  0.00  0.00     0.023 A 
ATOM      2  C1  UNL d   1       4.841  -5.270  -3.123  0.00  0.00     0.003 A 
ATOM      3  C2  UNL d   1       3.599  -5.484  -3.723  0.00  0.00     0.048 A 
ATOM      4  C3  UNL d   1       3.522  -5.680  -5.102  0.00  0.00     0.023 A 
ATOM      5  C4  UNL d   1       4.678  -5.664  -5.884  0.00  0.00     0.048 A 
ATOM      6  C5  UNL d   1       5.918  -5.448  -5.279  0.00  0.00     0.003 A 
ATOM      7  I   UNL d   1       1.674  -5.999  -5.998  0.00  0.00    -0.146 I 
ENDROOT
TORSDOF 0
ENDMDL
