MODEL 1
REMARK minimizedAffinity 1.5230571
REMARK minimizedRMSD -1
REMARK  0 active torsions:
REMARK  status: ('A' for Active; 'I' for Inactive)
ROOT
ATOM      1  C   UNL d   1       4.781   3.874   1.345  0.00  0.00     0.023 A 
ATOM      2  C1  UNL d   1       3.751   4.699   1.796  0.00  0.00     0.003 A 
ATOM      3  C2  UNL d   1       3.841   5.310   3.049  0.00  0.00     0.048 A 
ATOM      4  C3  UNL d   1       4.965   5.092   3.845  0.00  0.00     0.023 A 
ATOM      5  C4  UNL d   1       5.999   4.267   3.397  0.00  0.00     0.048 A 
ATOM      6  C5  UNL d   1       5.904   3.658   2.145  0.00  0.00     0.003 A 
ATOM      7  I   UNL d   1       5.102   5.999   5.710  0.00  0.00    -0.146 I 
ENDROOT
TORSDOF 0
ENDMDL
