MODEL 1
REMARK minimizedAffinity 2.04443622
REMARK minimizedRMSD -1
REMARK  0 active torsions:
REMARK  status: ('A' for Active; 'I' for Inactive)
ROOT
ATOM      1  C   UNL d   1      -1.275   2.993  -4.676  0.00  0.00     0.023 A 
ATOM      2  C1  UNL d   1      -1.724   3.918  -5.619  0.00  0.00     0.003 A 
ATOM      3  C2  UNL d   1      -3.067   3.933  -6.000  0.00  0.00     0.048 A 
ATOM      4  C3  UNL d   1      -3.956   3.020  -5.433  0.00  0.00     0.023 A 
ATOM      5  C4  UNL d   1      -3.512   2.094  -4.489  0.00  0.00     0.048 A 
ATOM      6  C5  UNL d   1      -2.168   2.082  -4.112  0.00  0.00     0.003 A 
ATOM      7  I   UNL d   1      -5.956   3.041  -5.998  0.00  0.00    -0.146 I 
ENDROOT
TORSDOF 0
ENDMDL
