MODEL 1
REMARK minimizedAffinity 11.3155432
REMARK minimizedRMSD -1
REMARK  0 active torsions:
REMARK  status: ('A' for Active; 'I' for Inactive)
ROOT
ATOM      1  C   UNL d   1       2.219   2.090   0.453  0.00  0.00     0.023 A 
ATOM      2  C1  UNL d   1       2.341   3.437   0.112  0.00  0.00     0.003 A 
ATOM      3  C2  UNL d   1       3.257   4.249   0.786  0.00  0.00     0.048 A 
ATOM      4  C3  UNL d   1       4.047   3.706   1.799  0.00  0.00     0.023 A 
ATOM      5  C4  UNL d   1       3.928   2.359   2.142  0.00  0.00     0.048 A 
ATOM      6  C5  UNL d   1       3.011   1.551   1.467  0.00  0.00     0.003 A 
ATOM      7  I   UNL d   1       5.410   4.912   2.803  0.00  0.00    -0.146 I 
ENDROOT
TORSDOF 0
ENDMDL
