MODEL 1
REMARK minimizedAffinity -0.349459767
REMARK minimizedRMSD -1
REMARK  0 active torsions:
REMARK  status: ('A' for Active; 'I' for Inactive)
ROOT
ATOM      1  C   UNL d   1       5.801  -5.370  -3.031  0.00  0.00     0.023 A 
ATOM      2  C1  UNL d   1       6.000  -5.699  -4.372  0.00  0.00     0.003 A 
ATOM      3  C2  UNL d   1       4.903  -5.880  -5.217  0.00  0.00     0.048 A 
ATOM      4  C3  UNL d   1       3.611  -5.730  -4.715  0.00  0.00     0.023 A 
ATOM      5  C4  UNL d   1       3.408  -5.401  -3.374  0.00  0.00     0.048 A 
ATOM      6  C5  UNL d   1       4.507  -5.221  -2.533  0.00  0.00     0.003 A 
ATOM      7  I   UNL d   1       1.977  -6.000  -5.971  0.00  0.00    -0.146 I 
ENDROOT
TORSDOF 0
ENDMDL
