MODEL 1
REMARK minimizedAffinity 2.73810029
REMARK minimizedRMSD -1
REMARK  0 active torsions:
REMARK  status: ('A' for Active; 'I' for Inactive)
ROOT
ATOM      1  C   UNL d   1       1.667  -6.000  -3.963  0.00  0.00     0.023 A 
ATOM      2  C1  UNL d   1       1.796  -5.981  -5.352  0.00  0.00     0.003 A 
ATOM      3  C2  UNL d   1       3.029  -5.683  -5.936  0.00  0.00     0.048 A 
ATOM      4  C3  UNL d   1       4.129  -5.406  -5.125  0.00  0.00     0.023 A 
ATOM      5  C4  UNL d   1       4.005  -5.424  -3.735  0.00  0.00     0.048 A 
ATOM      6  C5  UNL d   1       2.770  -5.722  -3.155  0.00  0.00     0.003 A 
ATOM      7  I   UNL d   1       5.965  -4.963  -5.991  0.00  0.00    -0.146 I 
ENDROOT
TORSDOF 0
ENDMDL
