MODEL 1
REMARK minimizedAffinity 2.08153844
REMARK minimizedRMSD -1
REMARK  0 active torsions:
REMARK  status: ('A' for Active; 'I' for Inactive)
ROOT
ATOM      1  C   UNL d   1       5.296  -5.223  -5.868  0.00  0.00     0.023 A 
ATOM      2  C1  UNL d   1       4.044  -5.835  -5.812  0.00  0.00     0.003 A 
ATOM      3  C2  UNL d   1       3.312  -5.823  -4.623  0.00  0.00     0.048 A 
ATOM      4  C3  UNL d   1       3.838  -5.197  -3.494  0.00  0.00     0.023 A 
ATOM      5  C4  UNL d   1       5.090  -4.582  -3.545  0.00  0.00     0.048 A 
ATOM      6  C5  UNL d   1       5.819  -4.598  -4.736  0.00  0.00     0.003 A 
ATOM      7  I   UNL d   1       2.750  -5.178  -1.723  0.00  0.00    -0.146 I 
ENDROOT
TORSDOF 0
ENDMDL
