MODEL 1
REMARK minimizedAffinity 2.66577959
REMARK minimizedRMSD -1
REMARK  0 active torsions:
REMARK  status: ('A' for Active; 'I' for Inactive)
ROOT
ATOM      1  C   UNL d   1       6.000  -5.545  -4.887  0.00  0.00     0.023 A 
ATOM      2  C1  UNL d   1       5.175  -5.718  -5.999  0.00  0.00     0.003 A 
ATOM      3  C2  UNL d   1       3.795  -5.845  -5.833  0.00  0.00     0.048 A 
ATOM      4  C3  UNL d   1       3.245  -5.799  -4.552  0.00  0.00     0.023 A 
ATOM      5  C4  UNL d   1       4.066  -5.626  -3.437  0.00  0.00     0.048 A 
ATOM      6  C5  UNL d   1       5.446  -5.499  -3.608  0.00  0.00     0.003 A 
ATOM      7  I   UNL d   1       1.191  -5.989  -4.303  0.00  0.00    -0.146 I 
ENDROOT
TORSDOF 0
ENDMDL
