MODEL 1
REMARK minimizedAffinity 7.64241171
REMARK minimizedRMSD -1
REMARK  0 active torsions:
REMARK  status: ('A' for Active; 'I' for Inactive)
ROOT
ATOM      1  C   UNL d   1      -6.000   2.630  -5.015  0.00  0.00     0.023 A 
ATOM      2  C1  UNL d   1      -5.516   2.203  -3.778  0.00  0.00     0.003 A 
ATOM      3  C2  UNL d   1      -4.143   2.211  -3.523  0.00  0.00     0.048 A 
ATOM      4  C3  UNL d   1      -3.259   2.649  -4.509  0.00  0.00     0.023 A 
ATOM      5  C4  UNL d   1      -3.739   3.078  -5.748  0.00  0.00     0.048 A 
ATOM      6  C5  UNL d   1      -5.112   3.067  -5.999  0.00  0.00     0.003 A 
ATOM      7  I   UNL d   1      -1.215   2.662  -4.132  0.00  0.00    -0.146 I 
ENDROOT
TORSDOF 0
ENDMDL
