MODEL 1
REMARK minimizedAffinity 1.87562513
REMARK minimizedRMSD -1
REMARK  0 active torsions:
REMARK  status: ('A' for Active; 'I' for Inactive)
ROOT
ATOM      1  C   UNL d   1       1.769  -5.715  -3.607  0.00  0.00     0.023 A 
ATOM      2  C1  UNL d   1       1.779  -5.869  -4.994  0.00  0.00     0.003 A 
ATOM      3  C2  UNL d   1       2.993  -5.928  -5.682  0.00  0.00     0.048 A 
ATOM      4  C3  UNL d   1       4.192  -5.834  -4.977  0.00  0.00     0.023 A 
ATOM      5  C4  UNL d   1       4.187  -5.681  -3.590  0.00  0.00     0.048 A 
ATOM      6  C5  UNL d   1       2.971  -5.621  -2.906  0.00  0.00     0.003 A 
ATOM      7  I   UNL d   1       6.000  -5.923  -5.999  0.00  0.00    -0.146 I 
ENDROOT
TORSDOF 0
ENDMDL
