MODEL 1
REMARK minimizedAffinity 11.526268
REMARK minimizedRMSD -1
REMARK  2 active torsions:
REMARK  status: ('A' for Active; 'I' for Inactive)
REMARK    1  A    between atoms: C1_2  and  C2_3 
REMARK    2  A    between atoms: C2_3  and  C3_4 
ROOT
ATOM      1  C3  UNL d   1       3.751   2.359   2.017  0.00  0.00    -0.075 A 
ATOM      2  C4  UNL d   1       3.207   2.982   0.883  0.00  0.00     0.002 A 
ATOM      3  C5  UNL d   1       1.825   3.104   0.737  0.00  0.00     0.002 A 
ATOM      4  C6  UNL d   1       0.970   2.598   1.714  0.00  0.00    -0.004 A 
ATOM      5  C7  UNL d   1       1.499   1.963   2.836  0.00  0.00     0.002 A 
ATOM      6  C8  UNL d   1       2.881   1.843   2.987  0.00  0.00     0.002 A 
ENDROOT
BRANCH   1   7
ATOM      7  C2  UNL d   1       5.246   2.250   2.195  0.00  0.00     0.056 C 
BRANCH   7   8
ATOM      8  C1  UNL d   1       5.733   2.596   3.606  0.00  0.00     0.007 C 
ATOM      9  C   UNL d   1       5.995   1.369   4.469  0.00  0.00     0.009 C 
ENDBRANCH   7   8
ENDBRANCH   1   7
TORSDOF 2
ENDMDL
