MODEL 1
REMARK minimizedAffinity 9.18666744
REMARK minimizedRMSD -1
REMARK  2 active torsions:
REMARK  status: ('A' for Active; 'I' for Inactive)
REMARK    1  A    between atoms: C1_2  and  C2_3 
REMARK    2  A    between atoms: C2_3  and  C3_4 
ROOT
ATOM      1  C3  UNL d   1       1.724   0.823  -3.260  0.00  0.00    -0.075 A 
ATOM      2  C4  UNL d   1       0.932   1.281  -4.323  0.00  0.00     0.002 A 
ATOM      3  C5  UNL d   1       1.524   1.776  -5.485  0.00  0.00     0.002 A 
ATOM      4  C6  UNL d   1       2.912   1.830  -5.595  0.00  0.00    -0.004 A 
ATOM      5  C7  UNL d   1       3.709   1.394  -4.539  0.00  0.00     0.002 A 
ATOM      6  C8  UNL d   1       3.119   0.894  -3.377  0.00  0.00     0.002 A 
ENDROOT
BRANCH   1   7
ATOM      7  C2  UNL d   1       1.090   0.259  -2.012  0.00  0.00     0.056 C 
BRANCH   7   8
ATOM      8  C1  UNL d   1       1.961  -0.767  -1.278  0.00  0.00     0.007 C 
ATOM      9  C   UNL d   1       1.493  -2.203  -1.476  0.00  0.00     0.009 C 
ENDBRANCH   7   8
ENDBRANCH   1   7
TORSDOF 2
ENDMDL
