MODEL 1
REMARK minimizedAffinity 8.39558506
REMARK minimizedRMSD -1
REMARK  2 active torsions:
REMARK  status: ('A' for Active; 'I' for Inactive)
REMARK    1  A    between atoms: C1_2  and  C2_3 
REMARK    2  A    between atoms: C2_3  and  C3_4 
ROOT
ATOM      1  C3  UNL d   1       1.848   1.399  -3.684  0.00  0.00    -0.075 A 
ATOM      2  C4  UNL d   1       2.502   2.620  -3.464  0.00  0.00     0.002 A 
ATOM      3  C5  UNL d   1       3.195   3.249  -4.498  0.00  0.00     0.002 A 
ATOM      4  C6  UNL d   1       3.252   2.663  -5.760  0.00  0.00    -0.004 A 
ATOM      5  C7  UNL d   1       2.620   1.442  -5.986  0.00  0.00     0.002 A 
ATOM      6  C8  UNL d   1       1.922   0.812  -4.954  0.00  0.00     0.002 A 
ENDROOT
BRANCH   1   7
ATOM      7  C2  UNL d   1       1.072   0.728  -2.577  0.00  0.00     0.056 C 
BRANCH   7   8
ATOM      8  C1  UNL d   1       1.951   0.113  -1.483  0.00  0.00     0.007 C 
ATOM      9  C   UNL d   1       1.707  -1.377  -1.284  0.00  0.00     0.009 C 
ENDBRANCH   7   8
ENDBRANCH   1   7
TORSDOF 2
ENDMDL
