MODEL 1
REMARK minimizedAffinity 2.91849041
REMARK minimizedRMSD -1
REMARK  2 active torsions:
REMARK  status: ('A' for Active; 'I' for Inactive)
REMARK    1  A    between atoms: C1_2  and  C2_3 
REMARK    2  A    between atoms: C2_3  and  C3_4 
ROOT
ATOM      1  C3  UNL d   1       5.454   1.153   4.543  0.00  0.00    -0.075 A 
ATOM      2  C4  UNL d   1       4.630   0.660   3.520  0.00  0.00     0.002 A 
ATOM      3  C5  UNL d   1       4.152   1.511   2.523  0.00  0.00     0.002 A 
ATOM      4  C6  UNL d   1       4.482   2.864   2.542  0.00  0.00    -0.004 A 
ATOM      5  C7  UNL d   1       5.285   3.368   3.562  0.00  0.00     0.002 A 
ATOM      6  C8  UNL d   1       5.769   2.518   4.559  0.00  0.00     0.002 A 
ENDROOT
BRANCH   1   7
ATOM      7  C2  UNL d   1       5.999   0.231   5.608  0.00  0.00     0.056 C 
BRANCH   7   8
ATOM      8  C1  UNL d   1       5.045  -0.903   5.999  0.00  0.00     0.007 C 
ATOM      9  C   UNL d   1       5.706  -2.274   5.987  0.00  0.00     0.009 C 
ENDBRANCH   7   8
ENDBRANCH   1   7
TORSDOF 2
ENDMDL
