MODEL 1
REMARK minimizedAffinity 3.52237964
REMARK minimizedRMSD -1
REMARK  2 active torsions:
REMARK  status: ('A' for Active; 'I' for Inactive)
REMARK    1  A    between atoms: C1_2  and  C2_3 
REMARK    2  A    between atoms: C2_3  and  C3_4 
ROOT
ATOM      1  C3  UNL d   1       0.133  -0.352  -1.263  0.00  0.00    -0.075 A 
ATOM      2  C4  UNL d   1       0.811  -1.504  -0.838  0.00  0.00     0.002 A 
ATOM      3  C5  UNL d   1       0.177  -2.435  -0.014  0.00  0.00     0.002 A 
ATOM      4  C6  UNL d   1      -1.135  -2.222   0.402  0.00  0.00    -0.004 A 
ATOM      5  C7  UNL d   1      -1.813  -1.073  -0.001  0.00  0.00     0.002 A 
ATOM      6  C8  UNL d   1      -1.182  -0.142  -0.828  0.00  0.00     0.002 A 
ENDROOT
BRANCH   1   7
ATOM      7  C2  UNL d   1       0.803   0.645  -2.178  0.00  0.00     0.056 C 
BRANCH   7   8
ATOM      8  C1  UNL d   1       1.516   0.011  -3.377  0.00  0.00     0.007 C 
ATOM      9  C   UNL d   1       1.121   0.634  -4.709  0.00  0.00     0.009 C 
ENDBRANCH   7   8
ENDBRANCH   1   7
TORSDOF 2
ENDMDL
