MODEL 1
REMARK minimizedAffinity 2.97084737
REMARK minimizedRMSD -1
REMARK  2 active torsions:
REMARK  status: ('A' for Active; 'I' for Inactive)
REMARK    1  A    between atoms: C1_2  and  C2_3 
REMARK    2  A    between atoms: C2_3  and  C3_4 
ROOT
ATOM      1  C3  UNL d   1       5.892   1.019   5.116  0.00  0.00    -0.075 A 
ATOM      2  C4  UNL d   1       5.981   0.836   3.728  0.00  0.00     0.002 A 
ATOM      3  C5  UNL d   1       5.878  -0.441   3.174  0.00  0.00     0.002 A 
ATOM      4  C6  UNL d   1       5.696  -1.549   3.999  0.00  0.00    -0.004 A 
ATOM      5  C7  UNL d   1       5.623  -1.380   5.380  0.00  0.00     0.002 A 
ATOM      6  C8  UNL d   1       5.721  -0.104   5.937  0.00  0.00     0.002 A 
ENDROOT
BRANCH   1   7
ATOM      7  C2  UNL d   1       5.973   2.401   5.719  0.00  0.00     0.056 C 
BRANCH   7   8
ATOM      8  C1  UNL d   1       5.226   3.475   4.921  0.00  0.00     0.007 C 
ATOM      9  C   UNL d   1       5.943   4.818   4.905  0.00  0.00     0.009 C 
ENDBRANCH   7   8
ENDBRANCH   1   7
TORSDOF 2
ENDMDL
