MODEL 1
REMARK minimizedAffinity 3.1531558
REMARK minimizedRMSD -1
REMARK  2 active torsions:
REMARK  status: ('A' for Active; 'I' for Inactive)
REMARK    1  A    between atoms: C1_2  and  C2_3 
REMARK    2  A    between atoms: C2_3  and  C3_4 
ROOT
ATOM      1  C3  UNL d   1       0.535  -0.097  -0.455  0.00  0.00    -0.075 A 
ATOM      2  C4  UNL d   1       0.361  -0.935   0.656  0.00  0.00     0.002 A 
ATOM      3  C5  UNL d   1       0.804  -2.258   0.620  0.00  0.00     0.002 A 
ATOM      4  C6  UNL d   1       1.414  -2.761  -0.527  0.00  0.00    -0.004 A 
ATOM      5  C7  UNL d   1       1.576  -1.942  -1.642  0.00  0.00     0.002 A 
ATOM      6  C8  UNL d   1       1.138  -0.617  -1.608  0.00  0.00     0.002 A 
ENDROOT
BRANCH   1   7
ATOM      7  C2  UNL d   1       0.085   1.344  -0.412  0.00  0.00     0.056 C 
BRANCH   7   8
ATOM      8  C1  UNL d   1       1.156   2.317   0.092  0.00  0.00     0.007 C 
ATOM      9  C   UNL d   1       0.644   3.273   1.161  0.00  0.00     0.009 C 
ENDBRANCH   7   8
ENDBRANCH   1   7
TORSDOF 2
ENDMDL
