MODEL 1
REMARK minimizedAffinity 2.2497375
REMARK minimizedRMSD -1
REMARK  2 active torsions:
REMARK  status: ('A' for Active; 'I' for Inactive)
REMARK    1  A    between atoms: C1_2  and  C2_3 
REMARK    2  A    between atoms: C2_3  and  C3_4 
ROOT
ATOM      1  C3  UNL d   1       1.227  -1.336  -1.549  0.00  0.00    -0.075 A 
ATOM      2  C4  UNL d   1       0.437  -0.280  -1.072  0.00  0.00     0.002 A 
ATOM      3  C5  UNL d   1      -0.533  -0.506  -0.095  0.00  0.00     0.002 A 
ATOM      4  C6  UNL d   1      -0.732  -1.789   0.410  0.00  0.00    -0.004 A 
ATOM      5  C7  UNL d   1       0.036  -2.848  -0.069  0.00  0.00     0.002 A 
ATOM      6  C8  UNL d   1       1.010  -2.625  -1.043  0.00  0.00     0.002 A 
ENDROOT
BRANCH   1   7
ATOM      7  C2  UNL d   1       2.299  -1.093  -2.585  0.00  0.00     0.056 C 
BRANCH   7   8
ATOM      8  C1  UNL d   1       1.755  -0.782  -3.983  0.00  0.00     0.007 C 
ATOM      9  C   UNL d   1       1.794   0.701  -4.327  0.00  0.00     0.009 C 
ENDBRANCH   7   8
ENDBRANCH   1   7
TORSDOF 2
ENDMDL
