MODEL 1
REMARK minimizedAffinity 1.07611084
REMARK minimizedRMSD -1
REMARK  2 active torsions:
REMARK  status: ('A' for Active; 'I' for Inactive)
REMARK    1  A    between atoms: C1_2  and  C2_3 
REMARK    2  A    between atoms: C2_3  and  C3_4 
ROOT
ATOM      1  C3  UNL d   1       1.361  -1.224  -1.549  0.00  0.00    -0.075 A 
ATOM      2  C4  UNL d   1       1.602  -2.478  -0.970  0.00  0.00     0.002 A 
ATOM      3  C5  UNL d   1       0.808  -2.937   0.081  0.00  0.00     0.002 A 
ATOM      4  C6  UNL d   1      -0.227  -2.146   0.573  0.00  0.00    -0.004 A 
ATOM      5  C7  UNL d   1      -0.465  -0.891   0.017  0.00  0.00     0.002 A 
ATOM      6  C8  UNL d   1       0.325  -0.431  -1.038  0.00  0.00     0.002 A 
ENDROOT
BRANCH   1   7
ATOM      7  C2  UNL d   1       2.198  -0.734  -2.707  0.00  0.00     0.056 C 
BRANCH   7   8
ATOM      8  C1  UNL d   1       1.524   0.359  -3.544  0.00  0.00     0.007 C 
ATOM      9  C   UNL d   1       1.607   0.103  -5.043  0.00  0.00     0.009 C 
ENDBRANCH   7   8
ENDBRANCH   1   7
TORSDOF 2
ENDMDL
