MODEL 1
REMARK minimizedAffinity -0.316318661
REMARK minimizedRMSD -1
REMARK  2 active torsions:
REMARK  status: ('A' for Active; 'I' for Inactive)
REMARK    1  A    between atoms: C1_2  and  C2_3 
REMARK    2  A    between atoms: C2_3  and  C3_4 
ROOT
ATOM      1  C3  UNL d   1       1.051  -0.861  -1.625  0.00  0.00    -0.075 A 
ATOM      2  C4  UNL d   1       0.398   0.219  -1.014  0.00  0.00     0.002 A 
ATOM      3  C5  UNL d   1       0.323   1.456  -1.654  0.00  0.00     0.002 A 
ATOM      4  C6  UNL d   1       0.908   1.632  -2.907  0.00  0.00    -0.004 A 
ATOM      5  C7  UNL d   1       1.573   0.570  -3.516  0.00  0.00     0.002 A 
ATOM      6  C8  UNL d   1       1.646  -0.670  -2.880  0.00  0.00     0.002 A 
ENDROOT
BRANCH   1   7
ATOM      7  C2  UNL d   1       1.110  -2.211  -0.950  0.00  0.00     0.056 C 
BRANCH   7   8
ATOM      8  C1  UNL d   1      -0.241  -2.703  -0.421  0.00  0.00     0.007 C 
ATOM      9  C   UNL d   1      -0.114  -3.844   0.580  0.00  0.00     0.009 C 
ENDBRANCH   7   8
ENDBRANCH   1   7
TORSDOF 2
ENDMDL
