MODEL 1
REMARK minimizedAffinity -3.1111958
REMARK minimizedRMSD -1
REMARK  2 active torsions:
REMARK  status: ('A' for Active; 'I' for Inactive)
REMARK    1  A    between atoms: C1_2  and  C2_3 
REMARK    2  A    between atoms: C2_3  and  C3_4 
ROOT
ATOM      1  C3  UNL d   1       4.978   1.232   4.905  0.00  0.00    -0.075 A 
ATOM      2  C4  UNL d   1       5.670   0.653   5.978  0.00  0.00     0.002 A 
ATOM      3  C5  UNL d   1       5.925  -0.719   6.000  0.00  0.00     0.002 A 
ATOM      4  C6  UNL d   1       5.483  -1.529   4.956  0.00  0.00    -0.004 A 
ATOM      5  C7  UNL d   1       4.781  -0.967   3.892  0.00  0.00     0.002 A 
ATOM      6  C8  UNL d   1       4.528   0.406   3.866  0.00  0.00     0.002 A 
ENDROOT
BRANCH   1   7
ATOM      7  C2  UNL d   1       4.725   2.720   4.861  0.00  0.00     0.056 C 
BRANCH   7   8
ATOM      8  C1  UNL d   1       6.000   3.570   4.876  0.00  0.00     0.007 C 
ATOM      9  C   UNL d   1       5.733   5.047   5.130  0.00  0.00     0.009 C 
ENDBRANCH   7   8
ENDBRANCH   1   7
TORSDOF 2
ENDMDL
