MODEL 1
REMARK minimizedAffinity -4.4737916
REMARK minimizedRMSD -1
REMARK  1 active torsions:
REMARK  status: ('A' for Active; 'I' for Inactive)
REMARK    1  A    between atoms: C1_2  and  C2_3 
ROOT
ATOM      1  C2  UNL d   1      -0.019  -0.529  -1.090  0.00  0.00    -0.081 A 
ATOM      2  C3  UNL d   1      -1.316  -0.520  -0.561  0.00  0.00     0.006 A 
ATOM      3  C4  UNL d   1      -1.602   0.202   0.600  0.00  0.00     0.002 A 
ATOM      4  C5  UNL d   1      -0.600   0.934   1.246  0.00  0.00    -0.080 A 
ATOM      5  C6  UNL d   1      -0.901   1.738   2.476  0.00  0.00     0.076 C 
ATOM      6  C7  UNL d   1       0.699   0.910   0.728  0.00  0.00     0.002 A 
ATOM      7  C8  UNL d   1       0.986   0.188  -0.432  0.00  0.00     0.006 A 
ENDROOT
BRANCH   1   8
ATOM      8  C1  UNL d   1       0.278  -1.255  -2.377  0.00  0.00     0.054 C 
ATOM      9  C   UNL d   1       0.883  -0.318  -3.413  0.00  0.00     0.018 C 
ENDBRANCH   1   8
TORSDOF 1
ENDMDL
