MODEL 1
REMARK minimizedAffinity -0.334921658
REMARK minimizedRMSD -1
REMARK  1 active torsions:
REMARK  status: ('A' for Active; 'I' for Inactive)
REMARK    1  A    between atoms: C1_2  and  C2_3 
ROOT
ATOM      1  C2  UNL d   1       0.612   1.004  -1.752  0.00  0.00    -0.081 A 
ATOM      2  C3  UNL d   1      -0.328   0.916  -2.787  0.00  0.00     0.006 A 
ATOM      3  C4  UNL d   1       0.079   0.997  -4.121  0.00  0.00     0.002 A 
ATOM      4  C5  UNL d   1       1.430   1.160  -4.443  0.00  0.00    -0.080 A 
ATOM      5  C6  UNL d   1       1.883   1.218  -5.872  0.00  0.00     0.076 C 
ATOM      6  C7  UNL d   1       2.367   1.265  -3.409  0.00  0.00     0.002 A 
ATOM      7  C8  UNL d   1       1.961   1.185  -2.075  0.00  0.00     0.006 A 
ENDROOT
BRANCH   1   8
ATOM      8  C1  UNL d   1       0.185   0.853  -0.315  0.00  0.00     0.054 C 
ATOM      9  C   UNL d   1       0.804  -0.385   0.318  0.00  0.00     0.018 C 
ENDBRANCH   1   8
TORSDOF 1
ENDMDL
