MODEL 1
REMARK minimizedAffinity 1.93934655
REMARK minimizedRMSD -1
REMARK  1 active torsions:
REMARK  status: ('A' for Active; 'I' for Inactive)
REMARK    1  A    between atoms: C1_2  and  C2_3 
ROOT
ATOM      1  C2  UNL d   1       0.210  -0.059  -0.421  0.00  0.00    -0.081 A 
ATOM      2  C3  UNL d   1       1.309  -0.873  -0.121  0.00  0.00     0.006 A 
ATOM      3  C4  UNL d   1       2.175  -0.536   0.923  0.00  0.00     0.002 A 
ATOM      4  C5  UNL d   1       1.952   0.614   1.687  0.00  0.00    -0.080 A 
ATOM      5  C6  UNL d   1       2.856   0.970   2.829  0.00  0.00     0.076 C 
ATOM      6  C7  UNL d   1       0.864   1.436   1.376  0.00  0.00     0.002 A 
ATOM      7  C8  UNL d   1      -0.002   1.101   0.332  0.00  0.00     0.006 A 
ENDROOT
BRANCH   1   8
ATOM      8  C1  UNL d   1      -0.762  -0.453  -1.504  0.00  0.00     0.054 C 
ATOM      9  C   UNL d   1      -2.112  -0.846  -0.919  0.00  0.00     0.018 C 
ENDBRANCH   1   8
TORSDOF 1
ENDMDL
