MODEL 1
REMARK minimizedAffinity 0.198595494
REMARK minimizedRMSD -1
REMARK  1 active torsions:
REMARK  status: ('A' for Active; 'I' for Inactive)
REMARK    1  A    between atoms: C1_2  and  C2_3 
ROOT
ATOM      1  C2  UNL d   1      -0.162  -0.241  -0.928  0.00  0.00    -0.081 A 
ATOM      2  C3  UNL d   1      -1.434   0.013  -0.401  0.00  0.00     0.006 A 
ATOM      3  C4  UNL d   1      -1.575   0.549   0.881  0.00  0.00     0.002 A 
ATOM      4  C5  UNL d   1      -0.448   0.846   1.654  0.00  0.00    -0.080 A 
ATOM      5  C6  UNL d   1      -0.585   1.449   3.020  0.00  0.00     0.076 C 
ATOM      6  C7  UNL d   1       0.823   0.576   1.134  0.00  0.00     0.002 A 
ATOM      7  C8  UNL d   1       0.964   0.039  -0.147  0.00  0.00     0.006 A 
ENDROOT
BRANCH   1   8
ATOM      8  C1  UNL d   1      -0.005  -0.758  -2.336  0.00  0.00     0.054 C 
ATOM      9  C   UNL d   1       0.455   0.342  -3.281  0.00  0.00     0.018 C 
ENDBRANCH   1   8
TORSDOF 1
ENDMDL
