MODEL 1
REMARK minimizedAffinity -4.97755384
REMARK minimizedRMSD -1
REMARK  1 active torsions:
REMARK  status: ('A' for Active; 'I' for Inactive)
REMARK    1  A    between atoms: C1_2  and  C2_3 
ROOT
ATOM      1  C2  UNL d   1       0.301  -0.245  -0.064  0.00  0.00    -0.081 A 
ATOM      2  C3  UNL d   1      -0.960   0.315   0.176  0.00  0.00     0.006 A 
ATOM      3  C4  UNL d   1      -1.232   0.955   1.387  0.00  0.00     0.002 A 
ATOM      4  C5  UNL d   1      -0.247   1.054   2.375  0.00  0.00    -0.080 A 
ATOM      5  C6  UNL d   1      -0.517   1.765   3.668  0.00  0.00     0.076 C 
ATOM      6  C7  UNL d   1       1.007   0.479   2.143  0.00  0.00     0.002 A 
ATOM      7  C8  UNL d   1       1.280  -0.162   0.933  0.00  0.00     0.006 A 
ENDROOT
BRANCH   1   8
ATOM      8  C1  UNL d   1       0.619  -0.879  -1.394  0.00  0.00     0.054 C 
ATOM      9  C   UNL d   1       1.143   0.149  -2.386  0.00  0.00     0.018 C 
ENDBRANCH   1   8
TORSDOF 1
ENDMDL
