MODEL 1
REMARK minimizedAffinity -3.7218616
REMARK minimizedRMSD -1
REMARK  1 active torsions:
REMARK  status: ('A' for Active; 'I' for Inactive)
REMARK    1  A    between atoms: C1_2  and  C2_3 
ROOT
ATOM      1  C2  UNL d   1       0.216  -0.212  -1.139  0.00  0.00    -0.081 A 
ATOM      2  C3  UNL d   1      -1.168  -0.073  -0.980  0.00  0.00     0.006 A 
ATOM      3  C4  UNL d   1      -1.699   0.398   0.223  0.00  0.00     0.002 A 
ATOM      4  C5  UNL d   1      -0.855   0.744   1.284  0.00  0.00    -0.080 A 
ATOM      5  C6  UNL d   1      -1.411   1.279   2.570  0.00  0.00     0.076 C 
ATOM      6  C7  UNL d   1       0.527   0.588   1.132  0.00  0.00     0.002 A 
ATOM      7  C8  UNL d   1       1.058   0.117  -0.071  0.00  0.00     0.006 A 
ENDROOT
BRANCH   1   8
ATOM      8  C1  UNL d   1       0.795  -0.658  -2.457  0.00  0.00     0.054 C 
ATOM      9  C   UNL d   1       1.595   0.457  -3.116  0.00  0.00     0.018 C 
ENDBRANCH   1   8
TORSDOF 1
ENDMDL
