MODEL 1
REMARK minimizedAffinity -4.28753328
REMARK minimizedRMSD -1
REMARK  0 active torsions:
REMARK  status: ('A' for Active; 'I' for Inactive)
ROOT
ATOM      1  C   UNL d   1      -1.077  -0.109   0.791  0.00  0.00     0.172 C 
ATOM      2  N   UNL d   1       0.221  -0.548   1.249  0.00  0.00    -0.070 N 
ATOM      3  C1  UNL d   1       0.538  -0.896   2.535  0.00  0.00    -0.004 A 
ATOM      4  C2  UNL d   1       1.868  -1.255   2.559  0.00  0.00    -0.047 A 
ATOM      5  C3  UNL d   1       2.368  -1.116   1.243  0.00  0.00    -0.047 A 
ATOM      6  C4  UNL d   1       1.328  -0.677   0.452  0.00  0.00    -0.004 A 
ENDROOT
TORSDOF 0
ENDMDL
