MODEL 1
REMARK minimizedAffinity -2.69305158
REMARK minimizedRMSD -1
REMARK  0 active torsions:
REMARK  status: ('A' for Active; 'I' for Inactive)
ROOT
ATOM      1  C   UNL d   1       1.586  -1.448   2.737  0.00  0.00     0.172 C 
ATOM      2  N   UNL d   1       0.684  -0.884   1.760  0.00  0.00    -0.070 N 
ATOM      3  C1  UNL d   1       0.973  -0.666   0.440  0.00  0.00    -0.004 A 
ATOM      4  C2  UNL d   1      -0.145  -0.118  -0.152  0.00  0.00    -0.047 A 
ATOM      5  C3  UNL d   1      -1.140  -0.003   0.849  0.00  0.00    -0.047 A 
ATOM      6  C4  UNL d   1      -0.599  -0.484   2.022  0.00  0.00    -0.004 A 
ENDROOT
TORSDOF 0
ENDMDL
