MODEL 1
REMARK minimizedAffinity -4.26759768
REMARK minimizedRMSD -1
REMARK  0 active torsions:
REMARK  status: ('A' for Active; 'I' for Inactive)
ROOT
ATOM      1  C   UNL d   1       0.046  -0.037   0.186  0.00  0.00     0.172 C 
ATOM      2  N   UNL d   1       0.990  -0.756   1.009  0.00  0.00    -0.070 N 
ATOM      3  C1  UNL d   1       1.944  -1.627   0.555  0.00  0.00    -0.004 A 
ATOM      4  C2  UNL d   1       2.639  -2.099   1.647  0.00  0.00    -0.047 A 
ATOM      5  C3  UNL d   1       2.083  -1.491   2.798  0.00  0.00    -0.047 A 
ATOM      6  C4  UNL d   1       1.064  -0.664   2.374  0.00  0.00    -0.004 A 
ENDROOT
TORSDOF 0
ENDMDL
