MODEL 1
REMARK minimizedAffinity -3.61286688
REMARK minimizedRMSD -1
REMARK  0 active torsions:
REMARK  status: ('A' for Active; 'I' for Inactive)
ROOT
ATOM      1  C   UNL d   1       0.187   0.271  -0.818  0.00  0.00     0.172 C 
ATOM      2  N   UNL d   1       0.717  -0.432   0.327  0.00  0.00    -0.070 N 
ATOM      3  C1  UNL d   1       1.820  -1.244   0.325  0.00  0.00    -0.004 A 
ATOM      4  C2  UNL d   1       1.995  -1.721   1.606  0.00  0.00    -0.047 A 
ATOM      5  C3  UNL d   1       0.962  -1.177   2.406  0.00  0.00    -0.047 A 
ATOM      6  C4  UNL d   1       0.186  -0.383   1.589  0.00  0.00    -0.004 A 
ENDROOT
TORSDOF 0
ENDMDL
