MODEL 1
REMARK minimizedAffinity -3.48827243
REMARK minimizedRMSD -1
REMARK  0 active torsions:
REMARK  status: ('A' for Active; 'I' for Inactive)
ROOT
ATOM      1  C   UNL d   1       0.325   0.026  -0.629  0.00  0.00     0.172 C 
ATOM      2  N   UNL d   1       1.062  -0.583   0.453  0.00  0.00    -0.070 N 
ATOM      3  C1  UNL d   1       2.119  -1.443   0.315  0.00  0.00    -0.004 A 
ATOM      4  C2  UNL d   1       2.542  -1.797   1.578  0.00  0.00    -0.047 A 
ATOM      5  C3  UNL d   1       1.711  -1.127   2.507  0.00  0.00    -0.047 A 
ATOM      6  C4  UNL d   1       0.803  -0.382   1.783  0.00  0.00    -0.004 A 
ENDROOT
TORSDOF 0
ENDMDL
