MODEL 1
REMARK minimizedAffinity -2.94006157
REMARK minimizedRMSD -1
REMARK  0 active torsions:
REMARK  status: ('A' for Active; 'I' for Inactive)
ROOT
ATOM      1  C   UNL d   1      -0.122   0.045  -0.842  0.00  0.00     0.172 C 
ATOM      2  N   UNL d   1       0.284  -0.281   0.505  0.00  0.00    -0.070 N 
ATOM      3  C1  UNL d   1      -0.512  -0.211   1.617  0.00  0.00    -0.004 A 
ATOM      4  C2  UNL d   1       0.243  -0.602   2.702  0.00  0.00    -0.047 A 
ATOM      5  C3  UNL d   1       1.538  -0.917   2.225  0.00  0.00    -0.047 A 
ATOM      6  C4  UNL d   1       1.535  -0.709   0.862  0.00  0.00    -0.004 A 
ENDROOT
TORSDOF 0
ENDMDL
