MODEL 1
REMARK minimizedAffinity -3.94552922
REMARK minimizedRMSD -1
REMARK  0 active torsions:
REMARK  status: ('A' for Active; 'I' for Inactive)
ROOT
ATOM      1  C   UNL d   1       0.375   0.121  -0.123  0.00  0.00     0.172 C 
ATOM      2  N   UNL d   1       1.248  -0.719   0.662  0.00  0.00    -0.070 N 
ATOM      3  C1  UNL d   1       1.210  -0.859   2.024  0.00  0.00    -0.004 A 
ATOM      4  C2  UNL d   1       2.201  -1.746   2.385  0.00  0.00    -0.047 A 
ATOM      5  C3  UNL d   1       2.858  -2.153   1.199  0.00  0.00    -0.047 A 
ATOM      6  C4  UNL d   1       2.248  -1.503   0.148  0.00  0.00    -0.004 A 
ENDROOT
TORSDOF 0
ENDMDL
