MODEL 1
REMARK minimizedAffinity -4.22892094
REMARK minimizedRMSD -1
REMARK  0 active torsions:
REMARK  status: ('A' for Active; 'I' for Inactive)
ROOT
ATOM      1  C   UNL d   1      -0.151   0.168  -0.072  0.00  0.00     0.172 C 
ATOM      2  N   UNL d   1       0.634  -0.360   1.019  0.00  0.00    -0.070 N 
ATOM      3  C1  UNL d   1       0.466  -0.058   2.343  0.00  0.00    -0.004 A 
ATOM      4  C2  UNL d   1       1.407  -0.763   3.061  0.00  0.00    -0.047 A 
ATOM      5  C3  UNL d   1       2.169  -1.515   2.135  0.00  0.00    -0.047 A 
ATOM      6  C4  UNL d   1       1.669  -1.247   0.878  0.00  0.00    -0.004 A 
ENDROOT
TORSDOF 0
ENDMDL
