MODEL 1
REMARK minimizedAffinity 13.4060307
REMARK minimizedRMSD -1
REMARK  0 active torsions:
REMARK  status: ('A' for Active; 'I' for Inactive)
ROOT
ATOM      1  N1  IND d   1      -1.135  -4.857   3.557  0.00  0.00    -0.196 N 
ATOM      2  C2  IND d   1      -0.514  -5.996   3.128  0.00  0.00     0.054 A 
ATOM      3  C3  IND d   1      -0.390  -5.986   1.782  0.00  0.00    -0.031 A 
ATOM      4  C4  IND d   1      -1.044  -4.157   0.093  0.00  0.00     0.051 A 
ATOM      5  C5  IND d   1      -1.676  -2.948   0.005  0.00  0.00    -0.031 A 
ATOM      6  C6  IND d   1      -2.168  -2.299   1.119  0.00  0.00     0.015 A 
ATOM      7  C7  IND d   1      -2.035  -2.833   2.370  0.00  0.00    -0.016 A 
ATOM      8  C8  IND d   1      -1.400  -4.063   2.462  0.00  0.00    -0.047 A 
ATOM      9  C9  IND d   1      -0.937  -4.746   1.330  0.00  0.00    -0.096 A 
ATOM     10  HN1 IND d   1      -1.329  -4.667   4.373  0.00  0.00     0.298 HD
ENDROOT
TORSDOF 0
ENDMDL
