MODEL 1
REMARK minimizedAffinity 19.8562279
REMARK minimizedRMSD -1
REMARK  0 active torsions:
REMARK  status: ('A' for Active; 'I' for Inactive)
ROOT
ATOM      1  N1  IND d   1      -0.449  -5.060   0.563  0.00  0.00    -0.196 N 
ATOM      2  C2  IND d   1      -0.076  -6.000   1.483  0.00  0.00     0.054 A 
ATOM      3  C3  IND d   1      -0.595  -5.702   2.696  0.00  0.00    -0.031 A 
ATOM      4  C4  IND d   1      -2.166  -3.780   3.376  0.00  0.00     0.051 A 
ATOM      5  C5  IND d   1      -2.754  -2.646   2.889  0.00  0.00    -0.031 A 
ATOM      6  C6  IND d   1      -2.603  -2.252   1.575  0.00  0.00     0.015 A 
ATOM      7  C7  IND d   1      -1.864  -2.988   0.692  0.00  0.00    -0.016 A 
ATOM      8  C8  IND d   1      -1.260  -4.136   1.184  0.00  0.00    -0.047 A 
ATOM      9  C9  IND d   1      -1.374  -4.517   2.527  0.00  0.00    -0.096 A 
ATOM     10  HN1 IND d   1      -0.215  -5.048  -0.264  0.00  0.00     0.298 HD
ENDROOT
TORSDOF 0
ENDMDL
