MODEL 1
REMARK minimizedAffinity 5.97225809
REMARK minimizedRMSD -1
REMARK  0 active torsions:
REMARK  status: ('A' for Active; 'I' for Inactive)
ROOT
ATOM      1  N1  IND d   1      -0.370  -5.217   0.380  0.00  0.00    -0.196 N 
ATOM      2  C2  IND d   1      -0.457  -5.999   1.498  0.00  0.00     0.054 A 
ATOM      3  C3  IND d   1      -1.118  -5.345   2.480  0.00  0.00    -0.031 A 
ATOM      4  C4  IND d   1      -2.230  -3.024   2.437  0.00  0.00     0.051 A 
ATOM      5  C5  IND d   1      -2.384  -1.917   1.650  0.00  0.00    -0.031 A 
ATOM      6  C6  IND d   1      -1.866  -1.854   0.372  0.00  0.00     0.015 A 
ATOM      7  C7  IND d   1      -1.182  -2.904  -0.172  0.00  0.00    -0.016 A 
ATOM      8  C8  IND d   1      -1.018  -4.026   0.627  0.00  0.00    -0.047 A 
ATOM      9  C9  IND d   1      -1.504  -4.080   1.940  0.00  0.00    -0.096 A 
ATOM     10  HN1 IND d   1       0.024  -5.432  -0.353  0.00  0.00     0.298 HD
ENDROOT
TORSDOF 0
ENDMDL
