MODEL 1
REMARK minimizedAffinity 13.4278069
REMARK minimizedRMSD -1
REMARK  0 active torsions:
REMARK  status: ('A' for Active; 'I' for Inactive)
ROOT
ATOM      1  N1  IND d   1      -4.067   2.244  -5.928  0.00  0.00    -0.196 N 
ATOM      2  C2  IND d   1      -4.871   3.347  -5.994  0.00  0.00     0.054 A 
ATOM      3  C3  IND d   1      -4.125   4.474  -5.985  0.00  0.00    -0.031 A 
ATOM      4  C4  IND d   1      -1.564   4.740  -5.972  0.00  0.00     0.051 A 
ATOM      5  C5  IND d   1      -0.407   4.020  -5.876  0.00  0.00    -0.031 A 
ATOM      6  C6  IND d   1      -0.410   2.642  -5.795  0.00  0.00     0.015 A 
ATOM      7  C7  IND d   1      -1.576   1.930  -5.817  0.00  0.00    -0.016 A 
ATOM      8  C8  IND d   1      -2.753   2.659  -5.906  0.00  0.00    -0.047 A 
ATOM      9  C9  IND d   1      -2.758   4.059  -5.946  0.00  0.00    -0.096 A 
ATOM     10  HN1 IND d   1      -4.336   1.427  -5.904  0.00  0.00     0.298 HD
ENDROOT
TORSDOF 0
ENDMDL
