MODEL 1
REMARK minimizedAffinity 11.836031
REMARK minimizedRMSD -1
REMARK  0 active torsions:
REMARK  status: ('A' for Active; 'I' for Inactive)
ROOT
ATOM      1  N1  IND d   1       0.169  -4.685  -0.127  0.00  0.00    -0.196 N 
ATOM      2  C2  IND d   1      -0.160  -5.632   0.802  0.00  0.00     0.054 A 
ATOM      3  C3  IND d   1      -1.148  -5.180   1.607  0.00  0.00    -0.031 A 
ATOM      4  C4  IND d   1      -2.443  -2.957   1.513  0.00  0.00     0.051 A 
ATOM      5  C5  IND d   1      -2.477  -1.756   0.861  0.00  0.00    -0.031 A 
ATOM      6  C6  IND d   1      -1.615  -1.466  -0.177  0.00  0.00     0.015 A 
ATOM      7  C7  IND d   1      -0.690  -2.374  -0.610  0.00  0.00    -0.016 A 
ATOM      8  C8  IND d   1      -0.648  -3.591   0.054  0.00  0.00    -0.047 A 
ATOM      9  C9  IND d   1      -1.492  -3.875   1.136  0.00  0.00    -0.096 A 
ATOM     10  HN1 IND d   1       0.782  -4.760  -0.724  0.00  0.00     0.298 HD
ENDROOT
TORSDOF 0
ENDMDL
