MODEL 1
REMARK minimizedAffinity 7.96776295
REMARK minimizedRMSD -1
REMARK  0 active torsions:
REMARK  status: ('A' for Active; 'I' for Inactive)
ROOT
ATOM      1  N1  IND d   1      -0.820  -3.826  -0.125  0.00  0.00    -0.196 N 
ATOM      2  C2  IND d   1      -1.231  -3.578   1.154  0.00  0.00     0.054 A 
ATOM      3  C3  IND d   1      -2.068  -2.517   1.182  0.00  0.00    -0.031 A 
ATOM      4  C4  IND d   1      -2.978  -1.100  -0.765  0.00  0.00     0.051 A 
ATOM      5  C5  IND d   1      -2.859  -0.922  -2.115  0.00  0.00    -0.031 A 
ATOM      6  C6  IND d   1      -2.040  -1.720  -2.886  0.00  0.00     0.015 A 
ATOM      7  C7  IND d   1      -1.315  -2.739  -2.336  0.00  0.00    -0.016 A 
ATOM      8  C8  IND d   1      -1.427  -2.918  -0.965  0.00  0.00    -0.047 A 
ATOM      9  C9  IND d   1      -2.224  -2.084  -0.170  0.00  0.00    -0.096 A 
ATOM     10  HN1 IND d   1      -0.273  -4.445  -0.366  0.00  0.00     0.298 HD
ENDROOT
TORSDOF 0
ENDMDL
