MODEL 1
REMARK minimizedAffinity 14.1493359
REMARK minimizedRMSD -1
REMARK  0 active torsions:
REMARK  status: ('A' for Active; 'I' for Inactive)
ROOT
ATOM      1  N1  IND d   1      -2.006   0.271   5.347  0.00  0.00    -0.196 N 
ATOM      2  C2  IND d   1      -2.018  -1.054   5.010  0.00  0.00     0.054 A 
ATOM      3  C3  IND d   1      -3.286  -1.522   4.986  0.00  0.00    -0.031 A 
ATOM      4  C4  IND d   1      -5.501  -0.266   5.367  0.00  0.00     0.051 A 
ATOM      5  C5  IND d   1      -5.998   0.952   5.738  0.00  0.00    -0.031 A 
ATOM      6  C6  IND d   1      -5.174   2.027   6.000  0.00  0.00     0.015 A 
ATOM      7  C7  IND d   1      -3.816   1.928   5.889  0.00  0.00    -0.016 A 
ATOM      8  C8  IND d   1      -3.307   0.691   5.520  0.00  0.00    -0.047 A 
ATOM      9  C9  IND d   1      -4.136  -0.416   5.294  0.00  0.00    -0.096 A 
ATOM     10  HN1 IND d   1      -1.305   0.760   5.436  0.00  0.00     0.298 HD
ENDROOT
TORSDOF 0
ENDMDL
