MODEL 1
REMARK minimizedAffinity 18.4858227
REMARK minimizedRMSD -1
REMARK  0 active torsions:
REMARK  status: ('A' for Active; 'I' for Inactive)
ROOT
ATOM      1  N1  IND d   1       1.937   2.189   0.079  0.00  0.00    -0.196 N 
ATOM      2  C2  IND d   1       3.181   2.722   0.269  0.00  0.00     0.054 A 
ATOM      3  C3  IND d   1       4.079   2.121  -0.544  0.00  0.00    -0.031 A 
ATOM      4  C4  IND d   1       3.708   0.311  -2.336  0.00  0.00     0.051 A 
ATOM      5  C5  IND d   1       2.748  -0.515  -2.851  0.00  0.00    -0.031 A 
ATOM      6  C6  IND d   1       1.441  -0.478  -2.408  0.00  0.00     0.015 A 
ATOM      7  C7  IND d   1       1.042   0.396  -1.437  0.00  0.00    -0.016 A 
ATOM      8  C8  IND d   1       2.016   1.231  -0.908  0.00  0.00    -0.047 A 
ATOM      9  C9  IND d   1       3.352   1.170  -1.323  0.00  0.00    -0.096 A 
ATOM     10  HN1 IND d   1       1.225   2.414   0.505  0.00  0.00     0.298 HD
ENDROOT
TORSDOF 0
ENDMDL
