MODEL 1
REMARK minimizedAffinity 13.203104
REMARK minimizedRMSD -1
REMARK  0 active torsions:
REMARK  status: ('A' for Active; 'I' for Inactive)
ROOT
ATOM      1  N1  IND d   1      -0.978  -5.511  -2.745  0.00  0.00    -0.196 N 
ATOM      2  C2  IND d   1      -0.757  -6.000  -1.487  0.00  0.00     0.054 A 
ATOM      3  C3  IND d   1      -0.485  -4.989  -0.632  0.00  0.00    -0.031 A 
ATOM      4  C4  IND d   1      -0.450  -2.450  -1.057  0.00  0.00     0.051 A 
ATOM      5  C5  IND d   1      -0.554  -1.524  -2.057  0.00  0.00    -0.031 A 
ATOM      6  C6  IND d   1      -0.813  -1.887  -3.363  0.00  0.00     0.015 A 
ATOM      7  C7  IND d   1      -0.989  -3.194  -3.717  0.00  0.00    -0.016 A 
ATOM      8  C8  IND d   1      -0.877  -4.138  -2.706  0.00  0.00    -0.047 A 
ATOM      9  C9  IND d   1      -0.573  -3.779  -1.387  0.00  0.00    -0.096 A 
ATOM     10  HN1 IND d   1      -1.151  -5.983  -3.443  0.00  0.00     0.298 HD
ENDROOT
TORSDOF 0
ENDMDL
