MODEL 1
REMARK minimizedAffinity 18.7435341
REMARK minimizedRMSD -1
REMARK  0 active torsions:
REMARK  status: ('A' for Active; 'I' for Inactive)
ROOT
ATOM      1  N1  IND d   1      -3.624  -0.220   5.575  0.00  0.00    -0.196 N 
ATOM      2  C2  IND d   1      -4.894  -0.496   6.000  0.00  0.00     0.054 A 
ATOM      3  C3  IND d   1      -5.110  -1.831   5.999  0.00  0.00    -0.031 A 
ATOM      4  C4  IND d   1      -3.489  -3.750   5.435  0.00  0.00     0.051 A 
ATOM      5  C5  IND d   1      -2.230  -3.992   4.961  0.00  0.00    -0.031 A 
ATOM      6  C6  IND d   1      -1.353  -2.969   4.664  0.00  0.00     0.015 A 
ATOM      7  C7  IND d   1      -1.700  -1.660   4.842  0.00  0.00    -0.016 A 
ATOM      8  C8  IND d   1      -2.980  -1.409   5.316  0.00  0.00    -0.047 A 
ATOM      9  C9  IND d   1      -3.889  -2.442   5.579  0.00  0.00    -0.096 A 
ATOM     10  HN1 IND d   1      -3.285   0.565   5.485  0.00  0.00     0.298 HD
ENDROOT
TORSDOF 0
ENDMDL
