MODEL 1
REMARK minimizedAffinity 13.1891508
REMARK minimizedRMSD -1
REMARK  0 active torsions:
REMARK  status: ('A' for Active; 'I' for Inactive)
ROOT
ATOM      1  N1  IND d   1      -0.883  -3.253  -3.334  0.00  0.00    -0.196 N 
ATOM      2  C2  IND d   1      -1.342  -2.055  -3.806  0.00  0.00     0.054 A 
ATOM      3  C3  IND d   1      -1.717  -1.257  -2.781  0.00  0.00    -0.031 A 
ATOM      4  C4  IND d   1      -1.568  -1.676  -0.245  0.00  0.00     0.051 A 
ATOM      5  C5  IND d   1      -1.251  -2.639   0.671  0.00  0.00    -0.031 A 
ATOM      6  C6  IND d   1      -0.782  -3.880   0.291  0.00  0.00     0.015 A 
ATOM      7  C7  IND d   1      -0.603  -4.202  -1.024  0.00  0.00    -0.016 A 
ATOM      8  C8  IND d   1      -0.931  -3.229  -1.957  0.00  0.00    -0.047 A 
ATOM      9  C9  IND d   1      -1.447  -1.982  -1.580  0.00  0.00    -0.096 A 
ATOM     10  HN1 IND d   1      -0.611  -3.911  -3.816  0.00  0.00     0.298 HD
ENDROOT
TORSDOF 0
ENDMDL
