MODEL 1
REMARK minimizedAffinity 20.4318237
REMARK minimizedRMSD -1
REMARK  0 active torsions:
REMARK  status: ('A' for Active; 'I' for Inactive)
ROOT
ATOM      1  N1  IND d   1      -1.537  -0.603   5.274  0.00  0.00    -0.196 N 
ATOM      2  C2  IND d   1      -1.413  -1.962   5.347  0.00  0.00     0.054 A 
ATOM      3  C3  IND d   1      -1.437  -2.504   4.108  0.00  0.00    -0.031 A 
ATOM      4  C4  IND d   1      -1.571  -1.339   1.816  0.00  0.00     0.051 A 
ATOM      5  C5  IND d   1      -1.735  -0.111   1.240  0.00  0.00    -0.031 A 
ATOM      6  C6  IND d   1      -1.841   1.040   1.994  0.00  0.00     0.015 A 
ATOM      7  C7  IND d   1      -1.776   1.006   3.358  0.00  0.00    -0.016 A 
ATOM      8  C8  IND d   1      -1.616  -0.240   3.947  0.00  0.00    -0.047 A 
ATOM      9  C9  IND d   1      -1.550  -1.416   3.189  0.00  0.00    -0.096 A 
ATOM     10  HN1 IND d   1      -1.563  -0.065   5.944  0.00  0.00     0.298 HD
ENDROOT
TORSDOF 0
ENDMDL
