MODEL 1
REMARK minimizedAffinity 4.86455822
REMARK minimizedRMSD -1
REMARK  0 active torsions:
REMARK  status: ('A' for Active; 'I' for Inactive)
ROOT
ATOM      1  N1  IND d   1      -1.869   0.850   6.000  0.00  0.00    -0.196 N 
ATOM      2  C2  IND d   1      -3.070   1.503   5.993  0.00  0.00     0.054 A 
ATOM      3  C3  IND d   1      -4.088   0.614   5.955  0.00  0.00    -0.031 A 
ATOM      4  C4  IND d   1      -4.015  -1.959   6.000  0.00  0.00     0.051 A 
ATOM      5  C5  IND d   1      -3.145  -3.013   5.969  0.00  0.00    -0.031 A 
ATOM      6  C6  IND d   1      -1.778  -2.829   5.949  0.00  0.00     0.015 A 
ATOM      7  C7  IND d   1      -1.227  -1.579   5.971  0.00  0.00    -0.016 A 
ATOM      8  C8  IND d   1      -2.107  -0.507   5.995  0.00  0.00    -0.047 A 
ATOM      9  C9  IND d   1      -3.496  -0.686   5.973  0.00  0.00    -0.096 A 
ATOM     10  HN1 IND d   1      -1.095   1.224   6.005  0.00  0.00     0.298 HD
ENDROOT
TORSDOF 0
ENDMDL
