MODEL 1
REMARK minimizedAffinity 10.5315142
REMARK minimizedRMSD -1
REMARK  0 active torsions:
REMARK  status: ('A' for Active; 'I' for Inactive)
ROOT
ATOM      1  N1  IND d   1      -4.738   5.975  -0.902  0.00  0.00    -0.196 N 
ATOM      2  C2  IND d   1      -3.600   5.463  -1.460  0.00  0.00     0.054 A 
ATOM      3  C3  IND d   1      -3.068   4.514  -0.657  0.00  0.00    -0.031 A 
ATOM      4  C4  IND d   1      -3.953   3.572   1.569  0.00  0.00     0.051 A 
ATOM      5  C5  IND d   1      -4.939   3.751   2.499  0.00  0.00    -0.031 A 
ATOM      6  C6  IND d   1      -5.930   4.698   2.338  0.00  0.00     0.015 A 
ATOM      7  C7  IND d   1      -5.978   5.497   1.231  0.00  0.00    -0.016 A 
ATOM      8  C8  IND d   1      -4.975   5.323   0.288  0.00  0.00    -0.047 A 
ATOM      9  C9  IND d   1      -3.943   4.392   0.466  0.00  0.00    -0.096 A 
ATOM     10  HN1 IND d   1      -5.223   6.600  -1.237  0.00  0.00     0.298 HD
ENDROOT
TORSDOF 0
ENDMDL
