MODEL 1
REMARK minimizedAffinity 25.9237919
REMARK minimizedRMSD -1
REMARK  0 active torsions:
REMARK  status: ('A' for Active; 'I' for Inactive)
ROOT
ATOM      1  N1  IND d   1       1.710   0.570  -0.982  0.00  0.00    -0.196 N 
ATOM      2  C2  IND d   1       2.082  -0.245  -2.014  0.00  0.00     0.054 A 
ATOM      3  C3  IND d   1       3.269   0.154  -2.524  0.00  0.00    -0.031 A 
ATOM      4  C4  IND d   1       4.824   2.055  -1.754  0.00  0.00     0.051 A 
ATOM      5  C5  IND d   1       4.896   3.098  -0.873  0.00  0.00    -0.031 A 
ATOM      6  C6  IND d   1       3.891   3.355   0.036  0.00  0.00     0.015 A 
ATOM      7  C7  IND d   1       2.776   2.568   0.107  0.00  0.00    -0.016 A 
ATOM      8  C8  IND d   1       2.696   1.513  -0.790  0.00  0.00    -0.047 A 
ATOM      9  C9  IND d   1       3.694   1.272  -1.744  0.00  0.00    -0.096 A 
ATOM     10  HN1 IND d   1       0.982   0.505  -0.528  0.00  0.00     0.298 HD
ENDROOT
TORSDOF 0
ENDMDL
