MODEL 1
REMARK minimizedAffinity 7.78245687
REMARK minimizedRMSD -1
REMARK  0 active torsions:
REMARK  status: ('A' for Active; 'I' for Inactive)
ROOT
ATOM      1  N1  IND d   1      -5.168   0.887   6.000  0.00  0.00    -0.196 N 
ATOM      2  C2  IND d   1      -4.485   2.068   5.919  0.00  0.00     0.054 A 
ATOM      3  C3  IND d   1      -3.156   1.838   5.830  0.00  0.00    -0.031 A 
ATOM      4  C4  IND d   1      -1.889  -0.400   5.698  0.00  0.00     0.051 A 
ATOM      5  C5  IND d   1      -2.079  -1.751   5.771  0.00  0.00    -0.031 A 
ATOM      6  C6  IND d   1      -3.335  -2.304   5.924  0.00  0.00     0.015 A 
ATOM      7  C7  IND d   1      -4.453  -1.522   5.999  0.00  0.00    -0.016 A 
ATOM      8  C8  IND d   1      -4.262  -0.149   5.933  0.00  0.00    -0.047 A 
ATOM      9  C9  IND d   1      -2.987   0.419   5.820  0.00  0.00    -0.096 A 
ATOM     10  HN1 IND d   1      -6.020   0.805   6.080  0.00  0.00     0.298 HD
ENDROOT
TORSDOF 0
ENDMDL
