MODEL 1
REMARK minimizedAffinity 10.2374134
REMARK minimizedRMSD -1
REMARK  0 active torsions:
REMARK  status: ('A' for Active; 'I' for Inactive)
ROOT
ATOM      1  N1  IND d   1      -4.874   5.999  -1.959  0.00  0.00    -0.196 N 
ATOM      2  C2  IND d   1      -4.049   5.126  -2.612  0.00  0.00     0.054 A 
ATOM      3  C3  IND d   1      -3.761   4.069  -1.820  0.00  0.00    -0.031 A 
ATOM      4  C4  IND d   1      -4.616   3.516   0.544  0.00  0.00     0.051 A 
ATOM      5  C5  IND d   1      -5.362   4.030   1.568  0.00  0.00    -0.031 A 
ATOM      6  C6  IND d   1      -5.998   5.250   1.465  0.00  0.00     0.015 A 
ATOM      7  C7  IND d   1      -5.921   6.000   0.325  0.00  0.00    -0.016 A 
ATOM      8  C8  IND d   1      -5.159   5.484  -0.714  0.00  0.00    -0.047 A 
ATOM      9  C9  IND d   1      -4.476   4.266  -0.599  0.00  0.00    -0.096 A 
ATOM     10  HN1 IND d   1      -5.166   6.744  -2.274  0.00  0.00     0.298 HD
ENDROOT
TORSDOF 0
ENDMDL
