MODEL 1
REMARK minimizedAffinity 22.6205521
REMARK minimizedRMSD -1
REMARK  1 active torsions:
REMARK  status: ('A' for Active; 'I' for Inactive)
REMARK    1  A    between atoms: C1_2  and  C2_3 
ROOT
ATOM      1  C2  UNL d   1       2.916   1.800  -1.419  0.00  0.00    -0.081 A 
ATOM      2  C3  UNL d   1       4.212   1.886  -0.895  0.00  0.00     0.006 A 
ATOM      3  C4  UNL d   1       4.887   0.735  -0.483  0.00  0.00     0.002 A 
ATOM      4  C5  UNL d   1       4.281  -0.522  -0.595  0.00  0.00    -0.080 A 
ATOM      5  C6  UNL d   1       5.006  -1.769  -0.184  0.00  0.00     0.076 C 
ATOM      6  C7  UNL d   1       2.980  -0.606  -1.102  0.00  0.00     0.002 A 
ATOM      7  C8  UNL d   1       2.305   0.545  -1.514  0.00  0.00     0.006 A 
ENDROOT
BRANCH   1   8
ATOM      8  C1  UNL d   1       2.211   3.033  -1.925  0.00  0.00     0.054 C 
ATOM      9  C   UNL d   1       1.628   3.846  -0.778  0.00  0.00     0.018 C 
ENDBRANCH   1   8
TORSDOF 1
ENDMDL
