MODEL 1
REMARK minimizedAffinity 3.42451215
REMARK minimizedRMSD -1
REMARK  1 active torsions:
REMARK  status: ('A' for Active; 'I' for Inactive)
REMARK    1  A    between atoms: C1_2  and  C2_3 
ROOT
ATOM      1  C2  UNL d   1       1.924  -3.107  -2.527  0.00  0.00    -0.081 A 
ATOM      2  C3  UNL d   1       1.183  -1.922  -2.618  0.00  0.00     0.006 A 
ATOM      3  C4  UNL d   1       0.835  -1.214  -1.465  0.00  0.00     0.002 A 
ATOM      4  C5  UNL d   1       1.228  -1.674  -0.204  0.00  0.00    -0.080 A 
ATOM      5  C6  UNL d   1       0.886  -0.908   1.039  0.00  0.00     0.076 C 
ATOM      6  C7  UNL d   1       1.953  -2.867  -0.111  0.00  0.00     0.002 A 
ATOM      7  C8  UNL d   1       2.301  -3.576  -1.263  0.00  0.00     0.006 A 
ENDROOT
BRANCH   1   8
ATOM      8  C1  UNL d   1       2.357  -3.838  -3.772  0.00  0.00     0.054 C 
ATOM      9  C   UNL d   1       3.623  -4.647  -3.527  0.00  0.00     0.018 C 
ENDBRANCH   1   8
TORSDOF 1
ENDMDL
