MODEL 1
REMARK minimizedAffinity 1.37908268
REMARK minimizedRMSD -1
REMARK  1 active torsions:
REMARK  status: ('A' for Active; 'I' for Inactive)
REMARK    1  A    between atoms: C1_2  and  C2_3 
ROOT
ATOM      1  C2  UNL d   1       2.776  -4.179  -2.170  0.00  0.00    -0.081 A 
ATOM      2  C3  UNL d   1       2.192  -3.133  -2.896  0.00  0.00     0.006 A 
ATOM      3  C4  UNL d   1       2.123  -1.848  -2.354  0.00  0.00     0.002 A 
ATOM      4  C5  UNL d   1       2.644  -1.585  -1.082  0.00  0.00    -0.080 A 
ATOM      5  C6  UNL d   1       2.603  -0.202  -0.502  0.00  0.00     0.076 C 
ATOM      6  C7  UNL d   1       3.211  -2.633  -0.350  0.00  0.00     0.002 A 
ATOM      7  C8  UNL d   1       3.280  -3.919  -0.891  0.00  0.00     0.006 A 
ENDROOT
BRANCH   1   8
ATOM      8  C1  UNL d   1       2.910  -5.552  -2.778  0.00  0.00     0.054 C 
ATOM      9  C   UNL d   1       3.080  -5.475  -4.288  0.00  0.00     0.018 C 
ENDBRANCH   1   8
TORSDOF 1
ENDMDL
