MODEL 1
REMARK minimizedAffinity 10.2290773
REMARK minimizedRMSD -1
REMARK  1 active torsions:
REMARK  status: ('A' for Active; 'I' for Inactive)
REMARK    1  A    between atoms: C1_2  and  C2_3 
ROOT
ATOM      1  C2  UNL d   1       2.009  -3.247  -1.869  0.00  0.00    -0.081 A 
ATOM      2  C3  UNL d   1       2.882  -3.025  -0.797  0.00  0.00     0.006 A 
ATOM      3  C4  UNL d   1       3.206  -1.724  -0.406  0.00  0.00     0.002 A 
ATOM      4  C5  UNL d   1       2.657  -0.624  -1.073  0.00  0.00    -0.080 A 
ATOM      5  C6  UNL d   1       2.972   0.778  -0.644  0.00  0.00     0.076 C 
ATOM      6  C7  UNL d   1       1.798  -0.846  -2.155  0.00  0.00     0.002 A 
ATOM      7  C8  UNL d   1       1.474  -2.147  -2.548  0.00  0.00     0.006 A 
ENDROOT
BRANCH   1   8
ATOM      8  C1  UNL d   1       1.607  -4.649  -2.252  0.00  0.00     0.054 C 
ATOM      9  C   UNL d   1       0.204  -4.681  -2.841  0.00  0.00     0.018 C 
ENDBRANCH   1   8
TORSDOF 1
ENDMDL
