MODEL 1
REMARK minimizedAffinity 4.51395655
REMARK minimizedRMSD -1
REMARK  1 active torsions:
REMARK  status: ('A' for Active; 'I' for Inactive)
REMARK    1  A    between atoms: C1_2  and  C2_3 
ROOT
ATOM      1  C2  UNL d   1       3.236  -4.107  -1.114  0.00  0.00    -0.081 A 
ATOM      2  C3  UNL d   1       3.471  -5.266  -1.863  0.00  0.00     0.006 A 
ATOM      3  C4  UNL d   1       3.097  -5.329  -3.208  0.00  0.00     0.002 A 
ATOM      4  C5  UNL d   1       2.491  -4.231  -3.827  0.00  0.00    -0.080 A 
ATOM      5  C6  UNL d   1       2.112  -4.274  -5.278  0.00  0.00     0.076 C 
ATOM      6  C7  UNL d   1       2.240  -3.078  -3.074  0.00  0.00     0.002 A 
ATOM      7  C8  UNL d   1       2.613  -3.016  -1.730  0.00  0.00     0.006 A 
ENDROOT
BRANCH   1   8
ATOM      8  C1  UNL d   1       3.697  -4.013   0.318  0.00  0.00     0.054 C 
ATOM      9  C   UNL d   1       5.162  -3.611   0.404  0.00  0.00     0.018 C 
ENDBRANCH   1   8
TORSDOF 1
ENDMDL
