MODEL 1
REMARK minimizedAffinity -0.281739831
REMARK minimizedRMSD -1
REMARK  1 active torsions:
REMARK  status: ('A' for Active; 'I' for Inactive)
REMARK    1  A    between atoms: C1_2  and  C2_3 
ROOT
ATOM      1  C2  UNL d   1      -3.077   2.376   4.885  0.00  0.00    -0.081 A 
ATOM      2  C3  UNL d   1      -2.235   2.285   6.000  0.00  0.00     0.006 A 
ATOM      3  C4  UNL d   1      -0.860   2.102   5.836  0.00  0.00     0.002 A 
ATOM      4  C5  UNL d   1      -0.303   2.014   4.555  0.00  0.00    -0.080 A 
ATOM      5  C6  UNL d   1       1.175   1.847   4.365  0.00  0.00     0.076 C 
ATOM      6  C7  UNL d   1      -1.147   2.087   3.441  0.00  0.00     0.002 A 
ATOM      7  C8  UNL d   1      -2.522   2.270   3.605  0.00  0.00     0.006 A 
ENDROOT
BRANCH   1   8
ATOM      8  C1  UNL d   1      -4.551   2.639   5.057  0.00  0.00     0.054 C 
ATOM      9  C   UNL d   1      -4.797   3.850   5.946  0.00  0.00     0.018 C 
ENDBRANCH   1   8
TORSDOF 1
ENDMDL
