MODEL 1
REMARK minimizedAffinity 13.2493896
REMARK minimizedRMSD -1
REMARK  1 active torsions:
REMARK  status: ('A' for Active; 'I' for Inactive)
REMARK    1  A    between atoms: C1_2  and  C2_3 
ROOT
ATOM      1  C2  UNL d   1      -0.512   1.654   4.035  0.00  0.00    -0.081 A 
ATOM      2  C3  UNL d   1      -0.822   1.818   5.391  0.00  0.00     0.006 A 
ATOM      3  C4  UNL d   1      -2.121   2.147   5.786  0.00  0.00     0.002 A 
ATOM      4  C5  UNL d   1      -3.132   2.311   4.833  0.00  0.00    -0.080 A 
ATOM      5  C6  UNL d   1      -4.537   2.634   5.246  0.00  0.00     0.076 C 
ATOM      6  C7  UNL d   1      -2.819   2.164   3.478  0.00  0.00     0.002 A 
ATOM      7  C8  UNL d   1      -1.520   1.836   3.082  0.00  0.00     0.006 A 
ENDROOT
BRANCH   1   8
ATOM      8  C1  UNL d   1       0.872   1.236   3.610  0.00  0.00     0.054 C 
ATOM      9  C   UNL d   1       0.888   0.760   2.165  0.00  0.00     0.018 C 
ENDBRANCH   1   8
TORSDOF 1
ENDMDL
