MODEL 1
REMARK minimizedAffinity 10.7311935
REMARK minimizedRMSD -1
REMARK  1 active torsions:
REMARK  status: ('A' for Active; 'I' for Inactive)
REMARK    1  A    between atoms: C1_2  and  C2_3 
ROOT
ATOM      1  C2  UNL d   1       4.171  -4.855  -1.518  0.00  0.00    -0.081 A 
ATOM      2  C3  UNL d   1       4.550  -5.215  -2.817  0.00  0.00     0.006 A 
ATOM      3  C4  UNL d   1       3.779  -4.824  -3.914  0.00  0.00     0.002 A 
ATOM      4  C5  UNL d   1       2.621  -4.061  -3.731  0.00  0.00    -0.080 A 
ATOM      5  C6  UNL d   1       1.800  -3.609  -4.903  0.00  0.00     0.076 C 
ATOM      6  C7  UNL d   1       2.232  -3.716  -2.432  0.00  0.00     0.002 A 
ATOM      7  C8  UNL d   1       3.003  -4.107  -1.335  0.00  0.00     0.006 A 
ENDROOT
BRANCH   1   8
ATOM      8  C1  UNL d   1       5.035  -5.220  -0.339  0.00  0.00     0.054 C 
ATOM      9  C   UNL d   1       5.999  -4.095   0.010  0.00  0.00     0.018 C 
ENDBRANCH   1   8
TORSDOF 1
ENDMDL
