MODEL 1
REMARK minimizedAffinity 21.1303082
REMARK minimizedRMSD -1
REMARK  1 active torsions:
REMARK  status: ('A' for Active; 'I' for Inactive)
REMARK    1  A    between atoms: C1_2  and  C2_3 
ROOT
ATOM      1  C2  UNL d   1      -1.923   2.202  -4.600  0.00  0.00    -0.081 A 
ATOM      2  C3  UNL d   1      -1.979   3.522  -4.135  0.00  0.00     0.006 A 
ATOM      3  C4  UNL d   1      -2.970   4.393  -4.594  0.00  0.00     0.002 A 
ATOM      4  C5  UNL d   1      -3.924   3.958  -5.520  0.00  0.00    -0.080 A 
ATOM      5  C6  UNL d   1      -5.011   4.874  -5.998  0.00  0.00     0.076 C 
ATOM      6  C7  UNL d   1      -3.857   2.645  -5.998  0.00  0.00     0.002 A 
ATOM      7  C8  UNL d   1      -2.867   1.773  -5.540  0.00  0.00     0.006 A 
ENDROOT
BRANCH   1   8
ATOM      8  C1  UNL d   1      -0.896   1.242  -4.058  0.00  0.00     0.054 C 
ATOM      9  C   UNL d   1       0.408   1.327  -4.839  0.00  0.00     0.018 C 
ENDBRANCH   1   8
TORSDOF 1
ENDMDL
