MODEL 1
REMARK minimizedAffinity 20.1279068
REMARK minimizedRMSD -1
REMARK  1 active torsions:
REMARK  status: ('A' for Active; 'I' for Inactive)
REMARK    1  A    between atoms: C1_2  and  C2_3 
ROOT
ATOM      1  C2  UNL d   1       1.850  -0.063  -3.045  0.00  0.00    -0.081 A 
ATOM      2  C3  UNL d   1       1.897   1.295  -2.708  0.00  0.00     0.006 A 
ATOM      3  C4  UNL d   1       2.530   1.712  -1.535  0.00  0.00     0.002 A 
ATOM      4  C5  UNL d   1       3.134   0.780  -0.684  0.00  0.00    -0.080 A 
ATOM      5  C6  UNL d   1       3.843   1.218   0.563  0.00  0.00     0.076 C 
ATOM      6  C7  UNL d   1       3.072  -0.578  -1.011  0.00  0.00     0.002 A 
ATOM      7  C8  UNL d   1       2.438  -0.996  -2.184  0.00  0.00     0.006 A 
ENDROOT
BRANCH   1   8
ATOM      8  C1  UNL d   1       1.225  -0.510  -4.342  0.00  0.00     0.054 C 
ATOM      9  C   UNL d   1       2.215  -1.292  -5.193  0.00  0.00     0.018 C 
ENDBRANCH   1   8
TORSDOF 1
ENDMDL
