MODEL 1
REMARK minimizedAffinity 16.3269463
REMARK minimizedRMSD -1
REMARK  1 active torsions:
REMARK  status: ('A' for Active; 'I' for Inactive)
REMARK    1  A    between atoms: C1_2  and  C2_3 
ROOT
ATOM      1  C2  UNL d   1      -1.926   1.246   4.224  0.00  0.00    -0.081 A 
ATOM      2  C3  UNL d   1      -2.814   1.134   3.147  0.00  0.00     0.006 A 
ATOM      3  C4  UNL d   1      -4.135   1.570   3.270  0.00  0.00     0.002 A 
ATOM      4  C5  UNL d   1      -4.589   2.131   4.468  0.00  0.00    -0.080 A 
ATOM      5  C6  UNL d   1      -5.997   2.630   4.604  0.00  0.00     0.076 C 
ATOM      6  C7  UNL d   1      -3.708   2.226   5.551  0.00  0.00     0.002 A 
ATOM      7  C8  UNL d   1      -2.386   1.790   5.429  0.00  0.00     0.006 A 
ENDROOT
BRANCH   1   8
ATOM      8  C1  UNL d   1      -0.484   0.836   4.074  0.00  0.00     0.054 C 
ATOM      9  C   UNL d   1       0.163   1.517   2.876  0.00  0.00     0.018 C 
ENDBRANCH   1   8
TORSDOF 1
ENDMDL
