MODEL 1
REMARK minimizedAffinity 23.3348026
REMARK minimizedRMSD -1
REMARK  1 active torsions:
REMARK  status: ('A' for Active; 'I' for Inactive)
REMARK    1  A    between atoms: C1_2  and  C2_3 
ROOT
ATOM      1  C2  UNL d   1       2.021   1.507   2.889  0.00  0.00    -0.081 A 
ATOM      2  C3  UNL d   1       0.718   1.905   2.564  0.00  0.00     0.006 A 
ATOM      3  C4  UNL d   1      -0.186   2.257   3.568  0.00  0.00     0.002 A 
ATOM      4  C5  UNL d   1       0.199   2.227   4.913  0.00  0.00    -0.080 A 
ATOM      5  C6  UNL d   1      -0.752   2.632   5.999  0.00  0.00     0.076 C 
ATOM      6  C7  UNL d   1       1.495   1.813   5.239  0.00  0.00     0.002 A 
ATOM      7  C8  UNL d   1       2.400   1.459   4.235  0.00  0.00     0.006 A 
ENDROOT
BRANCH   1   8
ATOM      8  C1  UNL d   1       3.018   1.188   1.804  0.00  0.00     0.054 C 
ATOM      9  C   UNL d   1       3.044   2.275   0.740  0.00  0.00     0.018 C 
ENDBRANCH   1   8
TORSDOF 1
ENDMDL
