MODEL 1
REMARK minimizedAffinity 19.7453957
REMARK minimizedRMSD -1
REMARK  1 active torsions:
REMARK  status: ('A' for Active; 'I' for Inactive)
REMARK    1  A    between atoms: C1_2  and  C2_3 
ROOT
ATOM      1  C2  UNL d   1      -4.546   0.633   4.561  0.00  0.00    -0.081 A 
ATOM      2  C3  UNL d   1      -5.476   1.562   4.080  0.00  0.00     0.006 A 
ATOM      3  C4  UNL d   1      -5.473   2.877   4.553  0.00  0.00     0.002 A 
ATOM      4  C5  UNL d   1      -4.535   3.286   5.506  0.00  0.00    -0.080 A 
ATOM      5  C6  UNL d   1      -4.502   4.702   5.999  0.00  0.00     0.076 C 
ATOM      6  C7  UNL d   1      -3.616   2.353   5.999  0.00  0.00     0.002 A 
ATOM      7  C8  UNL d   1      -3.620   1.039   5.528  0.00  0.00     0.006 A 
ENDROOT
BRANCH   1   8
ATOM      8  C1  UNL d   1      -4.505  -0.768   4.006  0.00  0.00     0.054 C 
ATOM      9  C   UNL d   1      -4.454  -1.803   5.121  0.00  0.00     0.018 C 
ENDBRANCH   1   8
TORSDOF 1
ENDMDL
