MODEL 1
REMARK minimizedAffinity 22.6008053
REMARK minimizedRMSD -1
REMARK  1 active torsions:
REMARK  status: ('A' for Active; 'I' for Inactive)
REMARK    1  A    between atoms: C1_2  and  C2_3 
ROOT
ATOM      1  C2  UNL d   1      -3.799   0.553   5.035  0.00  0.00    -0.081 A 
ATOM      2  C3  UNL d   1      -3.942   1.563   5.994  0.00  0.00     0.006 A 
ATOM      3  C4  UNL d   1      -4.485   2.801   5.643  0.00  0.00     0.002 A 
ATOM      4  C5  UNL d   1      -4.901   3.047   4.331  0.00  0.00    -0.080 A 
ATOM      5  C6  UNL d   1      -5.514   4.361   3.948  0.00  0.00     0.076 C 
ATOM      6  C7  UNL d   1      -4.742   2.044   3.368  0.00  0.00     0.002 A 
ATOM      7  C8  UNL d   1      -4.198   0.806   3.718  0.00  0.00     0.006 A 
ENDROOT
BRANCH   1   8
ATOM      8  C1  UNL d   1      -3.273  -0.805   5.424  0.00  0.00     0.054 C 
ATOM      9  C   UNL d   1      -4.260  -1.906   5.060  0.00  0.00     0.018 C 
ENDBRANCH   1   8
TORSDOF 1
ENDMDL
