MODEL 1
REMARK minimizedAffinity 3.86928463
REMARK minimizedRMSD -1
REMARK  1 active torsions:
REMARK  status: ('A' for Active; 'I' for Inactive)
REMARK    1  A    between atoms: C1_2  and  C2_3 
ROOT
ATOM      1  C2  UNL d   1       1.262  -5.118  -4.266  0.00  0.00    -0.077 A 
ATOM      2  C3  UNL d   1       0.450  -5.126  -3.124  0.00  0.00     0.002 A 
ATOM      3  C4  UNL d   1      -0.875  -5.560  -3.203  0.00  0.00     0.002 A 
ATOM      4  C5  UNL d   1      -1.397  -5.991  -4.421  0.00  0.00    -0.004 A 
ATOM      5  C6  UNL d   1      -0.598  -5.984  -5.563  0.00  0.00     0.002 A 
ATOM      6  C7  UNL d   1       0.726  -5.550  -5.486  0.00  0.00     0.002 A 
ENDROOT
BRANCH   1   7
ATOM      7  C1  UNL d   1       2.706  -4.697  -4.173  0.00  0.00     0.055 C 
ATOM      8  C   UNL d   1       3.463  -5.029  -5.451  0.00  0.00     0.019 C 
ENDBRANCH   1   7
TORSDOF 1
ENDMDL
