MODEL 1
REMARK minimizedAffinity 5.63644981
REMARK minimizedRMSD -1
REMARK  1 active torsions:
REMARK  status: ('A' for Active; 'I' for Inactive)
REMARK    1  A    between atoms: C1_2  and  C2_3 
ROOT
ATOM      1  C2  UNL d   1       0.070  -5.946  -2.706  0.00  0.00    -0.077 A 
ATOM      2  C3  UNL d   1      -1.316  -5.999  -2.909  0.00  0.00     0.002 A 
ATOM      3  C4  UNL d   1      -1.841  -6.000  -4.202  0.00  0.00     0.002 A 
ATOM      4  C5  UNL d   1      -0.987  -5.952  -5.302  0.00  0.00    -0.004 A 
ATOM      5  C6  UNL d   1       0.393  -5.898  -5.111  0.00  0.00     0.002 A 
ATOM      6  C7  UNL d   1       0.919  -5.896  -3.819  0.00  0.00     0.002 A 
ENDROOT
BRANCH   1   7
ATOM      7  C1  UNL d   1       0.640  -5.995  -1.312  0.00  0.00     0.055 C 
ATOM      8  C   UNL d   1       0.070  -4.885  -0.442  0.00  0.00     0.019 C 
ENDBRANCH   1   7
TORSDOF 1
ENDMDL
