MODEL 1
REMARK minimizedAffinity 2.17385578
REMARK minimizedRMSD -1
REMARK  1 active torsions:
REMARK  status: ('A' for Active; 'I' for Inactive)
REMARK    1  A    between atoms: C1_2  and  C2_3 
ROOT
ATOM      1  C2  UNL d   1       0.025  -5.367  -3.732  0.00  0.00    -0.077 A 
ATOM      2  C3  UNL d   1      -0.952  -5.638  -4.700  0.00  0.00     0.002 A 
ATOM      3  C4  UNL d   1      -2.257  -5.956  -4.317  0.00  0.00     0.002 A 
ATOM      4  C5  UNL d   1      -2.597  -6.000  -2.967  0.00  0.00    -0.004 A 
ATOM      5  C6  UNL d   1      -1.632  -5.733  -1.996  0.00  0.00     0.002 A 
ATOM      6  C7  UNL d   1      -0.327  -5.417  -2.377  0.00  0.00     0.002 A 
ENDROOT
BRANCH   1   7
ATOM      7  C1  UNL d   1       1.420  -4.976  -4.144  0.00  0.00     0.055 C 
ATOM      8  C   UNL d   1       2.444  -5.999  -3.671  0.00  0.00     0.019 C 
ENDBRANCH   1   7
TORSDOF 1
ENDMDL
