MODEL 1
REMARK minimizedAffinity -0.536500394
REMARK minimizedRMSD -1
REMARK  1 active torsions:
REMARK  status: ('A' for Active; 'I' for Inactive)
REMARK    1  A    between atoms: C1_2  and  C2_3 
ROOT
ATOM      1  C2  UNL d   1      -1.560  -5.914  -3.624  0.00  0.00    -0.077 A 
ATOM      2  C3  UNL d   1      -0.236  -5.925  -3.163  0.00  0.00     0.002 A 
ATOM      3  C4  UNL d   1       0.825  -5.800  -4.061  0.00  0.00     0.002 A 
ATOM      4  C5  UNL d   1       0.575  -5.658  -5.424  0.00  0.00    -0.004 A 
ATOM      5  C6  UNL d   1      -0.739  -5.648  -5.893  0.00  0.00     0.002 A 
ATOM      6  C7  UNL d   1      -1.801  -5.774  -4.997  0.00  0.00     0.002 A 
ENDROOT
BRANCH   1   7
ATOM      7  C1  UNL d   1      -2.708  -6.000  -2.653  0.00  0.00     0.055 C 
ATOM      8  C   UNL d   1      -4.047  -5.993  -3.376  0.00  0.00     0.019 C 
ENDBRANCH   1   7
TORSDOF 1
ENDMDL
