MODEL 1
REMARK minimizedAffinity -1.82558143
REMARK minimizedRMSD -1
REMARK  1 active torsions:
REMARK  status: ('A' for Active; 'I' for Inactive)
REMARK    1  A    between atoms: C1_2  and  C2_3 
ROOT
ATOM      1  C2  UNL d   1      -0.782  -6.000  -4.140  0.00  0.00    -0.077 A 
ATOM      2  C3  UNL d   1      -0.168  -6.000  -2.880  0.00  0.00     0.002 A 
ATOM      3  C4  UNL d   1       1.224  -5.960  -2.773  0.00  0.00     0.002 A 
ATOM      4  C5  UNL d   1       2.012  -5.916  -3.921  0.00  0.00    -0.004 A 
ATOM      5  C6  UNL d   1       1.410  -5.917  -5.179  0.00  0.00     0.002 A 
ATOM      6  C7  UNL d   1       0.019  -5.958  -5.288  0.00  0.00     0.002 A 
ENDROOT
BRANCH   1   7
ATOM      7  C1  UNL d   1      -2.284  -5.993  -4.257  0.00  0.00     0.055 C 
ATOM      8  C   UNL d   1      -2.946  -5.998  -2.887  0.00  0.00     0.019 C 
ENDBRANCH   1   7
TORSDOF 1
ENDMDL
