MODEL 1
REMARK minimizedAffinity -2.96082401
REMARK minimizedRMSD -1
REMARK  1 active torsions:
REMARK  status: ('A' for Active; 'I' for Inactive)
REMARK    1  A    between atoms: C1_2  and  C2_3 
ROOT
ATOM      1  C2  UNL d   1      -1.466  -5.951  -3.688  0.00  0.00    -0.077 A 
ATOM      2  C3  UNL d   1      -0.782  -5.905  -4.911  0.00  0.00     0.002 A 
ATOM      3  C4  UNL d   1       0.614  -5.905  -4.940  0.00  0.00     0.002 A 
ATOM      4  C5  UNL d   1       1.338  -5.956  -3.750  0.00  0.00    -0.004 A 
ATOM      5  C6  UNL d   1       0.667  -6.000  -2.529  0.00  0.00     0.002 A 
ATOM      6  C7  UNL d   1      -0.729  -5.998  -2.498  0.00  0.00     0.002 A 
ENDROOT
BRANCH   1   7
ATOM      7  C1  UNL d   1      -2.971  -6.000  -3.656  0.00  0.00     0.055 C 
ATOM      8  C   UNL d   1      -3.504  -5.744  -2.254  0.00  0.00     0.019 C 
ENDBRANCH   1   7
TORSDOF 1
ENDMDL
