MODEL 1
REMARK minimizedAffinity -2.67892051
REMARK minimizedRMSD -1
REMARK  1 active torsions:
REMARK  status: ('A' for Active; 'I' for Inactive)
REMARK    1  A    between atoms: C1_2  and  C2_3 
ROOT
ATOM      1  C2  UNL d   1      -0.807  -5.996  -4.384  0.00  0.00    -0.077 A 
ATOM      2  C3  UNL d   1      -2.203  -5.991  -4.512  0.00  0.00     0.002 A 
ATOM      3  C4  UNL d   1      -3.016  -5.989  -3.377  0.00  0.00     0.002 A 
ATOM      4  C5  UNL d   1      -2.443  -5.988  -2.107  0.00  0.00    -0.004 A 
ATOM      5  C6  UNL d   1      -1.056  -5.994  -1.969  0.00  0.00     0.002 A 
ATOM      6  C7  UNL d   1      -0.241  -5.997  -3.102  0.00  0.00     0.002 A 
ENDROOT
BRANCH   1   7
ATOM      7  C1  UNL d   1       0.072  -5.948  -5.606  0.00  0.00     0.055 C 
ATOM      8  C   UNL d   1       1.515  -5.634  -5.238  0.00  0.00     0.019 C 
ENDBRANCH   1   7
TORSDOF 1
ENDMDL
