MODEL 1
REMARK minimizedAffinity 6.14331245
REMARK minimizedRMSD -1
REMARK  1 active torsions:
REMARK  status: ('A' for Active; 'I' for Inactive)
REMARK    1  A    between atoms: C1_2  and  C2_3 
ROOT
ATOM      1  C2  UNL d   1      -1.470  -5.988  -3.699  0.00  0.00    -0.077 A 
ATOM      2  C3  UNL d   1      -0.248  -5.985  -3.011  0.00  0.00     0.002 A 
ATOM      3  C4  UNL d   1       0.958  -5.991  -3.715  0.00  0.00     0.002 A 
ATOM      4  C5  UNL d   1       0.954  -5.995  -5.108  0.00  0.00    -0.004 A 
ATOM      5  C6  UNL d   1      -0.256  -6.000  -5.801  0.00  0.00     0.002 A 
ATOM      6  C7  UNL d   1      -1.462  -5.995  -5.099  0.00  0.00     0.002 A 
ENDROOT
BRANCH   1   7
ATOM      7  C1  UNL d   1      -2.771  -5.931  -2.942  0.00  0.00     0.055 C 
ATOM      8  C   UNL d   1      -3.033  -4.536  -2.394  0.00  0.00     0.019 C 
ENDBRANCH   1   7
TORSDOF 1
ENDMDL
