MODEL 1
REMARK minimizedAffinity 6.49196243
REMARK minimizedRMSD -1
REMARK  1 active torsions:
REMARK  status: ('A' for Active; 'I' for Inactive)
REMARK    1  A    between atoms: C1_2  and  C2_3 
ROOT
ATOM      1  C2  UNL d   1      -0.743  -5.998  -4.042  0.00  0.00    -0.077 A 
ATOM      2  C3  UNL d   1       0.380  -5.995  -3.202  0.00  0.00     0.002 A 
ATOM      3  C4  UNL d   1       1.667  -5.989  -3.744  0.00  0.00     0.002 A 
ATOM      4  C5  UNL d   1       1.843  -5.982  -5.126  0.00  0.00    -0.004 A 
ATOM      5  C6  UNL d   1       0.733  -5.987  -5.969  0.00  0.00     0.002 A 
ATOM      6  C7  UNL d   1      -0.554  -5.994  -5.430  0.00  0.00     0.002 A 
ENDROOT
BRANCH   1   7
ATOM      7  C1  UNL d   1      -2.131  -5.955  -3.460  0.00  0.00     0.055 C 
ATOM      8  C   UNL d   1      -2.192  -5.048  -2.239  0.00  0.00     0.019 C 
ENDBRANCH   1   7
TORSDOF 1
ENDMDL
