MODEL 1
REMARK minimizedAffinity 6.37892485
REMARK minimizedRMSD -1
REMARK  1 active torsions:
REMARK  status: ('A' for Active; 'I' for Inactive)
REMARK    1  A    between atoms: C1_2  and  C2_3 
ROOT
ATOM      1  C2  UNL d   1      -0.579  -5.961  -2.810  0.00  0.00    -0.077 A 
ATOM      2  C3  UNL d   1      -0.767  -5.959  -4.199  0.00  0.00     0.002 A 
ATOM      3  C4  UNL d   1       0.331  -5.972  -5.061  0.00  0.00     0.002 A 
ATOM      4  C5  UNL d   1       1.625  -5.991  -4.544  0.00  0.00    -0.004 A 
ATOM      5  C6  UNL d   1       1.823  -5.990  -3.164  0.00  0.00     0.002 A 
ATOM      6  C7  UNL d   1       0.726  -5.976  -2.301  0.00  0.00     0.002 A 
ENDROOT
BRANCH   1   7
ATOM      7  C1  UNL d   1      -1.762  -5.997  -1.879  0.00  0.00     0.055 C 
ATOM      8  C   UNL d   1      -3.072  -5.868  -2.643  0.00  0.00     0.019 C 
ENDBRANCH   1   7
TORSDOF 1
ENDMDL
