MODEL 1
REMARK minimizedAffinity 9.91385174
REMARK minimizedRMSD -1
REMARK  1 active torsions:
REMARK  status: ('A' for Active; 'I' for Inactive)
REMARK    1  A    between atoms: C1_2  and  C2_3 
ROOT
ATOM      1  C2  UNL d   1      -3.443  -5.889  -2.682  0.00  0.00    -0.077 A 
ATOM      2  C3  UNL d   1      -3.517  -5.921  -1.283  0.00  0.00     0.002 A 
ATOM      3  C4  UNL d   1      -4.757  -5.974  -0.643  0.00  0.00     0.002 A 
ATOM      4  C5  UNL d   1      -5.930  -6.000  -1.394  0.00  0.00    -0.004 A 
ATOM      5  C6  UNL d   1      -5.867  -5.967  -2.786  0.00  0.00     0.002 A 
ATOM      6  C7  UNL d   1      -4.629  -5.913  -3.428  0.00  0.00     0.002 A 
ENDROOT
BRANCH   1   7
ATOM      7  C1  UNL d   1      -2.105  -5.882  -3.376  0.00  0.00     0.055 C 
ATOM      8  C   UNL d   1      -2.263  -5.727  -4.881  0.00  0.00     0.019 C 
ENDBRANCH   1   7
TORSDOF 1
ENDMDL
