MODEL 1
REMARK minimizedAffinity 0.8766101
REMARK minimizedRMSD -1
REMARK  1 active torsions:
REMARK  status: ('A' for Active; 'I' for Inactive)
REMARK    1  A    between atoms: C1_2  and  C2_3 
ROOT
ATOM      1  C2  UNL d   1       0.314  -0.744  -0.921  0.00  0.00    -0.077 A 
ATOM      2  C3  UNL d   1       0.373   0.185   0.128  0.00  0.00     0.002 A 
ATOM      3  C4  UNL d   1       0.347  -0.247   1.455  0.00  0.00     0.002 A 
ATOM      4  C5  UNL d   1       0.265  -1.607   1.746  0.00  0.00    -0.004 A 
ATOM      5  C6  UNL d   1       0.204  -2.538   0.710  0.00  0.00     0.002 A 
ATOM      6  C7  UNL d   1       0.229  -2.108  -0.618  0.00  0.00     0.002 A 
ENDROOT
BRANCH   1   7
ATOM      7  C1  UNL d   1       0.392  -0.283  -2.353  0.00  0.00     0.055 C 
ATOM      8  C   UNL d   1      -0.700   0.728  -2.670  0.00  0.00     0.019 C 
ENDBRANCH   1   7
TORSDOF 1
ENDMDL
