MODEL 1
REMARK minimizedAffinity -6.81774759
REMARK minimizedRMSD -1
REMARK  0 active torsions:
REMARK  status: ('A' for Active; 'I' for Inactive)
ROOT
ATOM      1  C1  DEN d   1      -0.077   0.908  -0.729  0.00  0.00     0.130 A 
ATOM      2  C2  DEN d   1       1.090   0.937   0.149  0.00  0.00    -0.031 A 
ATOM      3  C3  DEN d   1       0.904  -0.094   1.190  0.00  0.00     0.027 A 
ATOM      4  C4  DEN d   1      -1.066  -1.724   1.525  0.00  0.00     0.027 A 
ATOM      5  C5  DEN d   1      -2.294  -2.116   1.038  0.00  0.00    -0.003 A 
ATOM      6  C6  DEN d   1      -2.879  -1.510  -0.042  0.00  0.00     0.001 A 
ATOM      7  C7  DEN d   1      -2.216  -0.508  -0.699  0.00  0.00     0.017 A 
ATOM      8  C8  DEN d   1      -0.981  -0.102  -0.210  0.00  0.00    -0.094 A 
ATOM      9  C9  DEN d   1      -0.401  -0.736   0.876  0.00  0.00    -0.072 A 
ENDROOT
TORSDOF 0
ENDMDL
