MODEL 1
REMARK minimizedAffinity -1.09341025
REMARK minimizedRMSD -1
REMARK  0 active torsions:
REMARK  status: ('A' for Active; 'I' for Inactive)
ROOT
ATOM      1  C1  DEN d   1       0.726   1.131  -0.267  0.00  0.00     0.130 A 
ATOM      2  C2  DEN d   1       1.998   0.973   0.432  0.00  0.00    -0.031 A 
ATOM      3  C3  DEN d   1       1.845  -0.117   1.417  0.00  0.00     0.027 A 
ATOM      4  C4  DEN d   1      -0.227  -1.569   1.922  0.00  0.00     0.027 A 
ATOM      5  C5  DEN d   1      -1.544  -1.797   1.592  0.00  0.00    -0.003 A 
ATOM      6  C6  DEN d   1      -2.202  -1.049   0.652  0.00  0.00     0.001 A 
ATOM      7  C7  DEN d   1      -1.530  -0.066  -0.025  0.00  0.00     0.017 A 
ATOM      8  C8  DEN d   1      -0.204   0.175   0.307  0.00  0.00    -0.094 A 
ATOM      9  C9  DEN d   1       0.447  -0.600   1.252  0.00  0.00    -0.072 A 
ENDROOT
TORSDOF 0
ENDMDL
