MODEL 1
REMARK minimizedAffinity -0.37211591
REMARK minimizedRMSD -1
REMARK  0 active torsions:
REMARK  status: ('A' for Active; 'I' for Inactive)
ROOT
ATOM      1  C1  DEN d   1      -0.864   0.562   0.727  0.00  0.00     0.130 A 
ATOM      2  C2  DEN d   1      -0.786  -0.185  -0.526  0.00  0.00    -0.031 A 
ATOM      3  C3  DEN d   1       0.504   0.136  -1.169  0.00  0.00     0.027 A 
ATOM      4  C4  DEN d   1       2.380   1.705  -0.349  0.00  0.00     0.027 A 
ATOM      5  C5  DEN d   1       2.763   2.569   0.653  0.00  0.00    -0.003 A 
ATOM      6  C6  DEN d   1       1.956   2.848   1.724  0.00  0.00     0.001 A 
ATOM      7  C7  DEN d   1       0.743   2.223   1.841  0.00  0.00     0.017 A 
ATOM      8  C8  DEN d   1       0.346   1.357   0.831  0.00  0.00    -0.094 A 
ATOM      9  C9  DEN d   1       1.181   1.078  -0.238  0.00  0.00    -0.072 A 
ENDROOT
TORSDOF 0
ENDMDL
