MODEL 1
REMARK minimizedAffinity -2.36962533
REMARK minimizedRMSD -1
REMARK  0 active torsions:
REMARK  status: ('A' for Active; 'I' for Inactive)
ROOT
ATOM      1  C1  DEN d   1       0.254  -0.168   1.035  0.00  0.00     0.130 A 
ATOM      2  C2  DEN d   1       1.160   0.395   0.038  0.00  0.00    -0.031 A 
ATOM      3  C3  DEN d   1       0.524   0.256  -1.287  0.00  0.00     0.027 A 
ATOM      4  C4  DEN d   1      -1.767  -0.767  -1.888  0.00  0.00     0.027 A 
ATOM      5  C5  DEN d   1      -2.888  -1.384  -1.380  0.00  0.00    -0.003 A 
ATOM      6  C6  DEN d   1      -3.025  -1.668  -0.047  0.00  0.00     0.001 A 
ATOM      7  C7  DEN d   1      -2.043  -1.292   0.831  0.00  0.00     0.017 A 
ATOM      8  C8  DEN d   1      -0.906  -0.676   0.325  0.00  0.00    -0.094 A 
ATOM      9  C9  DEN d   1      -0.792  -0.388  -1.024  0.00  0.00    -0.072 A 
ENDROOT
TORSDOF 0
ENDMDL
