MODEL 1
REMARK minimizedAffinity -5.59723568
REMARK minimizedRMSD -1
REMARK  0 active torsions:
REMARK  status: ('A' for Active; 'I' for Inactive)
ROOT
ATOM      1  C1  DEN d   1       1.111  -0.076  -0.869  0.00  0.00     0.130 A 
ATOM      2  C2  DEN d   1       1.209   0.147   0.571  0.00  0.00    -0.031 A 
ATOM      3  C3  DEN d   1      -0.137  -0.024   1.152  0.00  0.00     0.027 A 
ATOM      4  C4  DEN d   1      -2.352  -0.612  -0.031  0.00  0.00     0.027 A 
ATOM      5  C5  DEN d   1      -2.937  -0.883  -1.248  0.00  0.00    -0.003 A 
ATOM      6  C6  DEN d   1      -2.226  -0.870  -2.419  0.00  0.00     0.001 A 
ATOM      7  C7  DEN d   1      -0.879  -0.625  -2.392  0.00  0.00     0.017 A 
ATOM      8  C8  DEN d   1      -0.283  -0.344  -1.169  0.00  0.00    -0.094 A 
ATOM      9  C9  DEN d   1      -1.017  -0.374   0.004  0.00  0.00    -0.072 A 
ENDROOT
TORSDOF 0
ENDMDL
