MODEL 1
REMARK minimizedAffinity -0.432124585
REMARK minimizedRMSD -1
REMARK  0 active torsions:
REMARK  status: ('A' for Active; 'I' for Inactive)
ROOT
ATOM      1  C1  DEN d   1      -2.264  -0.525   0.812  0.00  0.00     0.130 A 
ATOM      2  C2  DEN d   1      -2.283  -1.432   1.956  0.00  0.00    -0.031 A 
ATOM      3  C3  DEN d   1      -0.886  -1.778   2.287  0.00  0.00     0.027 A 
ATOM      4  C4  DEN d   1       1.292  -0.998   1.147  0.00  0.00     0.027 A 
ATOM      5  C5  DEN d   1       1.814  -0.234   0.126  0.00  0.00    -0.003 A 
ATOM      6  C6  DEN d   1       1.018   0.454  -0.751  0.00  0.00     0.001 A 
ATOM      7  C7  DEN d   1      -0.343   0.428  -0.596  0.00  0.00     0.017 A 
ATOM      8  C8  DEN d   1      -0.876  -0.346   0.425  0.00  0.00    -0.094 A 
ATOM      9  C9  DEN d   1      -0.055  -1.025   1.309  0.00  0.00    -0.072 A 
ENDROOT
TORSDOF 0
ENDMDL
