MODEL 1
REMARK minimizedAffinity -4.47811556
REMARK minimizedRMSD -1
REMARK  0 active torsions:
REMARK  status: ('A' for Active; 'I' for Inactive)
ROOT
ATOM      1  C1  DEN d   1      -0.244   0.234  -1.739  0.00  0.00     0.130 A 
ATOM      2  C2  DEN d   1      -0.940  -0.221  -2.940  0.00  0.00    -0.031 A 
ATOM      3  C3  DEN d   1      -2.129  -0.987  -2.516  0.00  0.00     0.027 A 
ATOM      4  C4  DEN d   1      -2.958  -1.509  -0.130  0.00  0.00     0.027 A 
ATOM      5  C5  DEN d   1      -2.692  -1.345   1.212  0.00  0.00    -0.003 A 
ATOM      6  C6  DEN d   1      -1.583  -0.678   1.660  0.00  0.00     0.001 A 
ATOM      7  C7  DEN d   1      -0.721  -0.111   0.758  0.00  0.00     0.017 A 
ATOM      8  C8  DEN d   1      -0.978  -0.278  -0.596  0.00  0.00    -0.094 A 
ATOM      9  C9  DEN d   1      -2.112  -0.945  -1.029  0.00  0.00    -0.072 A 
ENDROOT
TORSDOF 0
ENDMDL
