MODEL 1
REMARK minimizedAffinity -5.62511921
REMARK minimizedRMSD -1
REMARK  0 active torsions:
REMARK  status: ('A' for Active; 'I' for Inactive)
ROOT
ATOM      1  C1  DEN d   1      -3.111  -0.850  -0.293  0.00  0.00     0.130 A 
ATOM      2  C2  DEN d   1      -3.173   0.120  -1.383  0.00  0.00    -0.031 A 
ATOM      3  C3  DEN d   1      -1.815   0.665  -1.587  0.00  0.00     0.027 A 
ATOM      4  C4  DEN d   1       0.365   0.102  -0.330  0.00  0.00     0.027 A 
ATOM      5  C5  DEN d   1       0.914  -0.654   0.683  0.00  0.00    -0.003 A 
ATOM      6  C6  DEN d   1       0.160  -1.495   1.457  0.00  0.00     0.001 A 
ATOM      7  C7  DEN d   1      -1.179  -1.635   1.202  0.00  0.00     0.017 A 
ATOM      8  C8  DEN d   1      -1.741  -0.872   0.187  0.00  0.00    -0.094 A 
ATOM      9  C9  DEN d   1      -0.959  -0.036  -0.593  0.00  0.00    -0.072 A 
ENDROOT
TORSDOF 0
ENDMDL
