MODEL 1
REMARK minimizedAffinity -5.1255393
REMARK minimizedRMSD -1
REMARK  0 active torsions:
REMARK  status: ('A' for Active; 'I' for Inactive)
ROOT
ATOM      1  C1  DEN d   1      -0.896   0.743   0.879  0.00  0.00     0.130 A 
ATOM      2  C2  DEN d   1       0.398   0.755   0.201  0.00  0.00    -0.031 A 
ATOM      3  C3  DEN d   1       0.260  -0.001  -1.059  0.00  0.00     0.027 A 
ATOM      4  C4  DEN d   1      -1.821  -1.180  -2.025  0.00  0.00     0.027 A 
ATOM      5  C5  DEN d   1      -3.148  -1.474  -1.804  0.00  0.00    -0.003 A 
ATOM      6  C6  DEN d   1      -3.803  -1.083  -0.666  0.00  0.00     0.001 A 
ATOM      7  C7  DEN d   1      -3.144  -0.335   0.273  0.00  0.00     0.017 A 
ATOM      8  C8  DEN d   1      -1.804  -0.041   0.061  0.00  0.00    -0.094 A 
ATOM      9  C9  DEN d   1      -1.163  -0.435  -1.101  0.00  0.00    -0.072 A 
ENDROOT
TORSDOF 0
ENDMDL
