MODEL 1
REMARK minimizedAffinity 1.71407044
REMARK minimizedRMSD -1
REMARK  0 active torsions:
REMARK  status: ('A' for Active; 'I' for Inactive)
ROOT
ATOM      1  C1  DEN d   1       1.400   0.689  -0.676  0.00  0.00     0.130 A 
ATOM      2  C2  DEN d   1       0.909  -0.333   0.246  0.00  0.00    -0.031 A 
ATOM      3  C3  DEN d   1       1.183   0.125   1.622  0.00  0.00     0.027 A 
ATOM      4  C4  DEN d   1       2.308   2.308   2.413  0.00  0.00     0.027 A 
ATOM      5  C5  DEN d   1       2.902   3.479   1.997  0.00  0.00    -0.003 A 
ATOM      6  C6  DEN d   1       3.066   3.784   0.672  0.00  0.00     0.001 A 
ATOM      7  C7  DEN d   1       2.590   2.928  -0.286  0.00  0.00     0.017 A 
ATOM      8  C8  DEN d   1       1.997   1.741   0.126  0.00  0.00    -0.094 A 
ATOM      9  C9  DEN d   1       1.829   1.457   1.470  0.00  0.00    -0.072 A 
ENDROOT
TORSDOF 0
ENDMDL
