MODEL 1
REMARK minimizedAffinity -4.95060253
REMARK minimizedRMSD -1
REMARK  0 active torsions:
REMARK  status: ('A' for Active; 'I' for Inactive)
ROOT
ATOM      1  C1  DEN d   1       0.585   0.110   0.868  0.00  0.00     0.130 A 
ATOM      2  C2  DEN d   1       0.684   1.005  -0.282  0.00  0.00    -0.031 A 
ATOM      3  C3  DEN d   1      -0.527   0.823  -1.107  0.00  0.00     0.027 A 
ATOM      4  C4  DEN d   1      -2.537  -0.745  -0.715  0.00  0.00     0.027 A 
ATOM      5  C5  DEN d   1      -3.067  -1.704   0.120  0.00  0.00    -0.003 A 
ATOM      6  C6  DEN d   1      -2.406  -2.146   1.236  0.00  0.00     0.001 A 
ATOM      7  C7  DEN d   1      -1.197  -1.596   1.571  0.00  0.00     0.017 A 
ATOM      8  C8  DEN d   1      -0.653  -0.634   0.730  0.00  0.00    -0.094 A 
ATOM      9  C9  DEN d   1      -1.342  -0.192  -0.386  0.00  0.00    -0.072 A 
ENDROOT
TORSDOF 0
ENDMDL
