MODEL 1
REMARK minimizedAffinity -2.14653063
REMARK minimizedRMSD -1
REMARK  0 active torsions:
REMARK  status: ('A' for Active; 'I' for Inactive)
ROOT
ATOM      1  C   UNL d   1      -1.164   0.952  -0.775  0.00  0.00     0.078 C 
ATOM      2  C1  UNL d   1      -0.017   0.064  -0.393  0.00  0.00    -0.077 A 
ATOM      3  C2  UNL d   1       0.112  -0.426   0.912  0.00  0.00    -0.001 A 
ATOM      4  C3  UNL d   1       1.190  -1.244   1.256  0.00  0.00     0.003 A 
ATOM      5  C4  UNL d   1       2.147  -1.578   0.300  0.00  0.00    -0.005 A 
ATOM      6  C5  UNL d   1       2.028  -1.093  -1.001  0.00  0.00     0.003 A 
ATOM      7  C6  UNL d   1       0.951  -0.275  -1.347  0.00  0.00    -0.001 A 
ENDROOT
TORSDOF 0
ENDMDL
