MODEL 1
REMARK minimizedAffinity -1.12320602
REMARK minimizedRMSD -1
REMARK  0 active torsions:
REMARK  status: ('A' for Active; 'I' for Inactive)
ROOT
ATOM      1  C   UNL d   1      -1.230   1.449  -1.240  0.00  0.00     0.078 C 
ATOM      2  C1  UNL d   1      -0.178   0.558  -0.651  0.00  0.00    -0.077 A 
ATOM      3  C2  UNL d   1       0.889   0.091  -1.428  0.00  0.00    -0.001 A 
ATOM      4  C3  UNL d   1       1.856  -0.746  -0.869  0.00  0.00     0.003 A 
ATOM      5  C4  UNL d   1       1.765  -1.125   0.469  0.00  0.00    -0.005 A 
ATOM      6  C5  UNL d   1       0.706  -0.667   1.249  0.00  0.00     0.003 A 
ATOM      7  C6  UNL d   1      -0.262   0.170   0.692  0.00  0.00    -0.001 A 
ENDROOT
TORSDOF 0
ENDMDL
