MODEL 1
REMARK minimizedAffinity -3.42183805
REMARK minimizedRMSD -1
REMARK  0 active torsions:
REMARK  status: ('A' for Active; 'I' for Inactive)
ROOT
ATOM      1  C   UNL d   1       1.525  -0.744  -0.400  0.00  0.00     0.078 C 
ATOM      2  C1  UNL d   1       0.341   0.034   0.092  0.00  0.00    -0.077 A 
ATOM      3  C2  UNL d   1      -0.133   1.148  -0.611  0.00  0.00    -0.001 A 
ATOM      4  C3  UNL d   1      -1.230   1.868  -0.136  0.00  0.00     0.003 A 
ATOM      5  C4  UNL d   1      -1.861   1.483   1.045  0.00  0.00    -0.005 A 
ATOM      6  C5  UNL d   1      -1.395   0.377   1.753  0.00  0.00     0.003 A 
ATOM      7  C6  UNL d   1      -0.298  -0.344   1.279  0.00  0.00    -0.001 A 
ENDROOT
TORSDOF 0
ENDMDL
