MODEL 1
REMARK minimizedAffinity -4.75265121
REMARK minimizedRMSD -1
REMARK  0 active torsions:
REMARK  status: ('A' for Active; 'I' for Inactive)
ROOT
ATOM      1  C   UNL d   1      -1.943   1.257  -3.042  0.00  0.00     0.078 C 
ATOM      2  C1  UNL d   1      -0.965   0.836  -1.986  0.00  0.00    -0.077 A 
ATOM      3  C2  UNL d   1       0.103  -0.016  -2.291  0.00  0.00    -0.001 A 
ATOM      4  C3  UNL d   1       1.000  -0.408  -1.296  0.00  0.00     0.003 A 
ATOM      5  C4  UNL d   1       0.837   0.046   0.011  0.00  0.00    -0.005 A 
ATOM      6  C5  UNL d   1      -0.224   0.893   0.325  0.00  0.00     0.003 A 
ATOM      7  C6  UNL d   1      -1.122   1.286  -0.669  0.00  0.00    -0.001 A 
ENDROOT
TORSDOF 0
ENDMDL
