MODEL 1
REMARK minimizedAffinity -2.94282484
REMARK minimizedRMSD -1
REMARK  0 active torsions:
REMARK  status: ('A' for Active; 'I' for Inactive)
ROOT
ATOM      1  C   UNL d   1      -2.051   2.310  -2.866  0.00  0.00     0.078 C 
ATOM      2  C1  UNL d   1      -1.474   1.633  -1.658  0.00  0.00    -0.077 A 
ATOM      3  C2  UNL d   1      -0.462   0.674  -1.783  0.00  0.00    -0.001 A 
ATOM      4  C3  UNL d   1       0.058   0.045  -0.651  0.00  0.00     0.003 A 
ATOM      5  C4  UNL d   1      -0.429   0.367   0.614  0.00  0.00    -0.005 A 
ATOM      6  C5  UNL d   1      -1.438   1.319   0.749  0.00  0.00     0.003 A 
ATOM      7  C6  UNL d   1      -1.959   1.949  -0.382  0.00  0.00    -0.001 A 
ENDROOT
TORSDOF 0
ENDMDL
