MODEL 1
REMARK minimizedAffinity -0.783891737
REMARK minimizedRMSD -1
REMARK  0 active torsions:
REMARK  status: ('A' for Active; 'I' for Inactive)
ROOT
ATOM      1  C   UNL d   1       2.172  -1.070   0.394  0.00  0.00     0.078 C 
ATOM      2  C1  UNL d   1       0.996  -0.260  -0.064  0.00  0.00    -0.077 A 
ATOM      3  C2  UNL d   1       1.018   1.139  -0.004  0.00  0.00    -0.001 A 
ATOM      4  C3  UNL d   1      -0.087   1.881  -0.424  0.00  0.00     0.003 A 
ATOM      5  C4  UNL d   1      -1.223   1.233  -0.907  0.00  0.00    -0.005 A 
ATOM      6  C5  UNL d   1      -1.254  -0.159  -0.968  0.00  0.00     0.003 A 
ATOM      7  C6  UNL d   1      -0.150  -0.902  -0.548  0.00  0.00    -0.001 A 
ENDROOT
TORSDOF 0
ENDMDL
