MODEL 1
REMARK minimizedAffinity -4.20790052
REMARK minimizedRMSD -1
REMARK  0 active torsions:
REMARK  status: ('A' for Active; 'I' for Inactive)
ROOT
ATOM      1  C   UNL d   1      -2.055   0.694  -3.245  0.00  0.00     0.078 C 
ATOM      2  C1  UNL d   1      -1.112   0.496  -2.096  0.00  0.00    -0.077 A 
ATOM      3  C2  UNL d   1      -1.086   1.394  -1.022  0.00  0.00    -0.001 A 
ATOM      4  C3  UNL d   1      -0.196   1.203   0.037  0.00  0.00     0.003 A 
ATOM      5  C4  UNL d   1       0.674   0.115   0.031  0.00  0.00    -0.005 A 
ATOM      6  C5  UNL d   1       0.657  -0.783  -1.034  0.00  0.00     0.003 A 
ATOM      7  C6  UNL d   1      -0.232  -0.594  -2.093  0.00  0.00    -0.001 A 
ENDROOT
TORSDOF 0
ENDMDL
