MODEL 1
REMARK minimizedAffinity -3.56183124
REMARK minimizedRMSD -1
REMARK  0 active torsions:
REMARK  status: ('A' for Active; 'I' for Inactive)
ROOT
ATOM      1  C   UNL d   1      -0.890   2.314  -1.877  0.00  0.00     0.078 C 
ATOM      2  C1  UNL d   1      -0.045   1.243  -1.255  0.00  0.00    -0.077 A 
ATOM      3  C2  UNL d   1       0.968   0.609  -1.985  0.00  0.00    -0.001 A 
ATOM      4  C3  UNL d   1       1.741  -0.394  -1.396  0.00  0.00     0.003 A 
ATOM      5  C4  UNL d   1       1.507  -0.773  -0.076  0.00  0.00    -0.005 A 
ATOM      6  C5  UNL d   1       0.499  -0.150   0.657  0.00  0.00     0.003 A 
ATOM      7  C6  UNL d   1      -0.274   0.853   0.071  0.00  0.00    -0.001 A 
ENDROOT
TORSDOF 0
ENDMDL
