MODEL 1
REMARK minimizedAffinity -2.45850086
REMARK minimizedRMSD -1
REMARK  0 active torsions:
REMARK  status: ('A' for Active; 'I' for Inactive)
ROOT
ATOM      1  C   UNL d   1       0.385   0.210   0.210  0.00  0.00     0.078 C 
ATOM      2  C1  UNL d   1      -0.602   0.858  -0.714  0.00  0.00    -0.077 A 
ATOM      3  C2  UNL d   1      -1.026   0.214  -1.883  0.00  0.00    -0.001 A 
ATOM      4  C3  UNL d   1      -1.938   0.833  -2.739  0.00  0.00     0.003 A 
ATOM      5  C4  UNL d   1      -2.433   2.100  -2.436  0.00  0.00    -0.005 A 
ATOM      6  C5  UNL d   1      -2.015   2.750  -1.277  0.00  0.00     0.003 A 
ATOM      7  C6  UNL d   1      -1.103   2.132  -0.419  0.00  0.00    -0.001 A 
ENDROOT
TORSDOF 0
ENDMDL
