MODEL 1
REMARK minimizedAffinity -3.99287581
REMARK minimizedRMSD -1
REMARK  0 active torsions:
REMARK  status: ('A' for Active; 'I' for Inactive)
ROOT
ATOM      1  C   UNL d   1       0.061  -1.756   3.660  0.00  0.00     0.078 C 
ATOM      2  C1  UNL d   1       0.435  -1.176   2.328  0.00  0.00    -0.077 A 
ATOM      3  C2  UNL d   1      -0.441  -0.328   1.640  0.00  0.00    -0.001 A 
ATOM      4  C3  UNL d   1      -0.084   0.197   0.397  0.00  0.00     0.003 A 
ATOM      5  C4  UNL d   1       1.148  -0.122  -0.170  0.00  0.00    -0.005 A 
ATOM      6  C5  UNL d   1       2.025  -0.967   0.507  0.00  0.00     0.003 A 
ATOM      7  C6  UNL d   1       1.670  -1.493   1.750  0.00  0.00    -0.001 A 
ENDROOT
TORSDOF 0
ENDMDL
