MODEL 1
REMARK minimizedAffinity -3.26625657
REMARK minimizedRMSD -1
REMARK  0 active torsions:
REMARK  status: ('A' for Active; 'I' for Inactive)
ROOT
ATOM      1  C   UNL d   1      -1.381   0.842  -0.867  0.00  0.00     0.078 C 
ATOM      2  C1  UNL d   1      -0.147   0.042  -0.572  0.00  0.00    -0.077 A 
ATOM      3  C2  UNL d   1       0.132  -0.400   0.727  0.00  0.00    -0.001 A 
ATOM      4  C3  UNL d   1       1.289  -1.136   0.989  0.00  0.00     0.003 A 
ATOM      5  C4  UNL d   1       2.176  -1.435  -0.043  0.00  0.00    -0.005 A 
ATOM      6  C5  UNL d   1       1.908  -0.998  -1.338  0.00  0.00     0.003 A 
ATOM      7  C6  UNL d   1       0.751  -0.262  -1.602  0.00  0.00    -0.001 A 
ENDROOT
TORSDOF 0
ENDMDL
