MODEL 1
REMARK minimizedAffinity -2.09269834
REMARK minimizedRMSD -1
REMARK  0 active torsions:
REMARK  status: ('A' for Active; 'I' for Inactive)
ROOT
ATOM      1  C   UNL d   1       2.659  -1.234   1.051  0.00  0.00     0.078 C 
ATOM      2  C1  UNL d   1       1.493  -0.631   0.326  0.00  0.00    -0.077 A 
ATOM      3  C2  UNL d   1       0.349  -0.216   1.019  0.00  0.00    -0.001 A 
ATOM      4  C3  UNL d   1      -0.733   0.334   0.329  0.00  0.00     0.003 A 
ATOM      5  C4  UNL d   1      -0.682   0.473  -1.056  0.00  0.00    -0.005 A 
ATOM      6  C5  UNL d   1       0.451   0.061  -1.754  0.00  0.00     0.003 A 
ATOM      7  C6  UNL d   1       1.534  -0.490  -1.067  0.00  0.00    -0.001 A 
ENDROOT
TORSDOF 0
ENDMDL
