MODEL 1
REMARK minimizedAffinity -4.10988092
REMARK minimizedRMSD -1
REMARK  0 active torsions:
REMARK  status: ('A' for Active; 'I' for Inactive)
ROOT
ATOM      1  C   UNL d   1      -0.530   0.915  -0.039  0.00  0.00     0.078 C 
ATOM      2  C1  UNL d   1       0.012  -0.067   0.957  0.00  0.00    -0.077 A 
ATOM      3  C2  UNL d   1      -0.751  -0.472   2.059  0.00  0.00    -0.001 A 
ATOM      4  C3  UNL d   1      -0.231  -1.379   2.983  0.00  0.00     0.003 A 
ATOM      5  C4  UNL d   1       1.056  -1.887   2.816  0.00  0.00    -0.005 A 
ATOM      6  C5  UNL d   1       1.824  -1.488   1.724  0.00  0.00     0.003 A 
ATOM      7  C6  UNL d   1       1.305  -0.581   0.798  0.00  0.00    -0.001 A 
ENDROOT
TORSDOF 0
ENDMDL
