MODEL 1
REMARK minimizedAffinity -2.41512346
REMARK minimizedRMSD -1
REMARK  0 active torsions:
REMARK  status: ('A' for Active; 'I' for Inactive)
ROOT
ATOM      1  C   UNL d   1      -0.599   0.930  -0.712  0.00  0.00     0.078 C 
ATOM      2  C1  UNL d   1       0.181   0.039   0.207  0.00  0.00    -0.077 A 
ATOM      3  C2  UNL d   1      -0.321  -0.316   1.466  0.00  0.00    -0.001 A 
ATOM      4  C3  UNL d   1       0.421  -1.138   2.315  0.00  0.00     0.003 A 
ATOM      5  C4  UNL d   1       1.669  -1.612   1.916  0.00  0.00    -0.005 A 
ATOM      6  C5  UNL d   1       2.178  -1.263   0.667  0.00  0.00     0.003 A 
ATOM      7  C6  UNL d   1       1.438  -0.441  -0.184  0.00  0.00    -0.001 A 
ENDROOT
TORSDOF 0
ENDMDL
