MODEL 1
REMARK minimizedAffinity 9.86159801
REMARK minimizedRMSD -1
REMARK  0 active torsions:
REMARK  status: ('A' for Active; 'I' for Inactive)
ROOT
ATOM      1  C   UNL d   1      -0.776   3.033  -2.795  0.00  0.00     0.078 C 
ATOM      2  C1  UNL d   1      -1.534   2.242  -1.770  0.00  0.00    -0.077 A 
ATOM      3  C2  UNL d   1      -1.012   2.038  -0.487  0.00  0.00    -0.001 A 
ATOM      4  C3  UNL d   1      -1.724   1.292   0.454  0.00  0.00     0.003 A 
ATOM      5  C4  UNL d   1      -2.961   0.743   0.121  0.00  0.00    -0.005 A 
ATOM      6  C5  UNL d   1      -3.487   0.940  -1.154  0.00  0.00     0.003 A 
ATOM      7  C6  UNL d   1      -2.777   1.685  -2.096  0.00  0.00    -0.001 A 
ENDROOT
TORSDOF 0
ENDMDL
