MODEL 1
REMARK minimizedAffinity -0.290538728
REMARK minimizedRMSD -1
REMARK  0 active torsions:
REMARK  status: ('A' for Active; 'I' for Inactive)
ROOT
ATOM      1  C   UNL d   1      -2.742  -1.890  -1.084  0.00  0.00     0.077 C 
ATOM      2  C1  UNL d   1      -1.462  -1.142  -0.854  0.00  0.00    -0.074 A 
ATOM      3  C2  UNL d   1      -1.122  -0.674   0.419  0.00  0.00    -0.005 A 
ATOM      4  C3  UNL d   1       0.076   0.012   0.620  0.00  0.00     0.006 A 
ATOM      5  C4  UNL d   1       0.945   0.234  -0.449  0.00  0.00    -0.005 A 
ATOM      6  C5  UNL d   1       0.623  -0.228  -1.729  0.00  0.00    -0.074 A 
ATOM      7  C6  UNL d   1       1.550  -0.005  -2.887  0.00  0.00     0.077 C 
ATOM      8  C7  UNL d   1      -0.580  -0.921  -1.921  0.00  0.00    -0.001 A 
ENDROOT
TORSDOF 0
ENDMDL
