MODEL 1
REMARK minimizedAffinity -4.74691153
REMARK minimizedRMSD -1
REMARK  0 active torsions:
REMARK  status: ('A' for Active; 'I' for Inactive)
ROOT
ATOM      1  C   UNL d   1       1.696  -0.966   1.759  0.00  0.00     0.077 C 
ATOM      2  C1  UNL d   1       1.478   0.444   1.296  0.00  0.00    -0.074 A 
ATOM      3  C2  UNL d   1       0.236   0.855   0.802  0.00  0.00    -0.005 A 
ATOM      4  C3  UNL d   1       0.046   2.172   0.385  0.00  0.00     0.006 A 
ATOM      5  C4  UNL d   1       1.095   3.090   0.457  0.00  0.00    -0.005 A 
ATOM      6  C5  UNL d   1       2.343   2.698   0.948  0.00  0.00    -0.074 A 
ATOM      7  C6  UNL d   1       3.478   3.674   1.041  0.00  0.00     0.077 C 
ATOM      8  C7  UNL d   1       2.525   1.374   1.372  0.00  0.00    -0.001 A 
ENDROOT
TORSDOF 0
ENDMDL
