MODEL 1
REMARK minimizedAffinity -3.21305823
REMARK minimizedRMSD -1
REMARK  0 active torsions:
REMARK  status: ('A' for Active; 'I' for Inactive)
ROOT
ATOM      1  C   UNL d   1       4.634   4.337  -1.382  0.00  0.00     0.077 C 
ATOM      2  C1  UNL d   1       3.892   3.959  -0.134  0.00  0.00    -0.074 A 
ATOM      3  C2  UNL d   1       3.713   4.881   0.902  0.00  0.00    -0.005 A 
ATOM      4  C3  UNL d   1       3.012   4.518   2.053  0.00  0.00     0.006 A 
ATOM      5  C4  UNL d   1       2.485   3.232   2.178  0.00  0.00    -0.005 A 
ATOM      6  C5  UNL d   1       2.653   2.297   1.151  0.00  0.00    -0.074 A 
ATOM      7  C6  UNL d   1       2.085   0.914   1.265  0.00  0.00     0.077 C 
ATOM      8  C7  UNL d   1       3.353   2.672  -0.005  0.00  0.00    -0.001 A 
ENDROOT
TORSDOF 0
ENDMDL
