MODEL 1
REMARK minimizedAffinity -3.28285742
REMARK minimizedRMSD -1
REMARK  0 active torsions:
REMARK  status: ('A' for Active; 'I' for Inactive)
ROOT
ATOM      1  C   UNL d   1       0.948  -0.092   0.560  0.00  0.00     0.077 C 
ATOM      2  C1  UNL d   1       1.574   1.223   0.918  0.00  0.00    -0.074 A 
ATOM      3  C2  UNL d   1       1.482   1.732   2.218  0.00  0.00    -0.005 A 
ATOM      4  C3  UNL d   1       2.078   2.952   2.539  0.00  0.00     0.006 A 
ATOM      5  C4  UNL d   1       2.769   3.674   1.565  0.00  0.00    -0.005 A 
ATOM      6  C5  UNL d   1       2.872   3.180   0.261  0.00  0.00    -0.074 A 
ATOM      7  C6  UNL d   1       3.620   3.939  -0.795  0.00  0.00     0.077 C 
ATOM      8  C7  UNL d   1       2.277   1.950  -0.052  0.00  0.00    -0.001 A 
ENDROOT
TORSDOF 0
ENDMDL
