MODEL 1
REMARK minimizedAffinity 1.48940039
REMARK minimizedRMSD -1
REMARK  0 active torsions:
REMARK  status: ('A' for Active; 'I' for Inactive)
ROOT
ATOM      1  C   UNL d   1       1.978   1.036  -0.171  0.00  0.00     0.077 C 
ATOM      2  C1  UNL d   1       0.980   0.071   0.394  0.00  0.00    -0.074 A 
ATOM      3  C2  UNL d   1       1.282  -0.696   1.524  0.00  0.00    -0.005 A 
ATOM      4  C3  UNL d   1       0.340  -1.583   2.045  0.00  0.00     0.006 A 
ATOM      5  C4  UNL d   1      -0.912  -1.712   1.442  0.00  0.00    -0.005 A 
ATOM      6  C5  UNL d   1      -1.232  -0.953   0.312  0.00  0.00    -0.074 A 
ATOM      7  C6  UNL d   1      -2.577  -1.072  -0.343  0.00  0.00     0.077 C 
ATOM      8  C7  UNL d   1      -0.283  -0.059  -0.201  0.00  0.00    -0.001 A 
ENDROOT
TORSDOF 0
ENDMDL
