MODEL 1
REMARK minimizedAffinity -2.45487571
REMARK minimizedRMSD -1
REMARK  0 active torsions:
REMARK  status: ('A' for Active; 'I' for Inactive)
ROOT
ATOM      1  C   UNL d   1       0.336   0.470   0.097  0.00  0.00     0.077 C 
ATOM      2  C1  UNL d   1       1.222   1.599   0.534  0.00  0.00    -0.074 A 
ATOM      3  C2  UNL d   1       1.094   2.159   1.809  0.00  0.00    -0.005 A 
ATOM      4  C3  UNL d   1       1.931   3.202   2.206  0.00  0.00     0.006 A 
ATOM      5  C4  UNL d   1       2.903   3.694   1.333  0.00  0.00    -0.005 A 
ATOM      6  C5  UNL d   1       3.045   3.146   0.055  0.00  0.00    -0.074 A 
ATOM      7  C6  UNL d   1       4.091   3.656  -0.892  0.00  0.00     0.077 C 
ATOM      8  C7  UNL d   1       2.205   2.093  -0.334  0.00  0.00    -0.001 A 
ENDROOT
TORSDOF 0
ENDMDL
