MODEL 1
REMARK minimizedAffinity -1.11802876
REMARK minimizedRMSD -1
REMARK  0 active torsions:
REMARK  status: ('A' for Active; 'I' for Inactive)
ROOT
ATOM      1  C   UNL d   1       4.424   4.087  -1.247  0.00  0.00     0.077 C 
ATOM      2  C1  UNL d   1       3.641   3.428  -0.151  0.00  0.00    -0.074 A 
ATOM      3  C2  UNL d   1       3.555   4.007   1.119  0.00  0.00    -0.005 A 
ATOM      4  C3  UNL d   1       2.815   3.388   2.126  0.00  0.00     0.006 A 
ATOM      5  C4  UNL d   1       2.154   2.185   1.874  0.00  0.00    -0.005 A 
ATOM      6  C5  UNL d   1       2.227   1.592   0.609  0.00  0.00    -0.074 A 
ATOM      7  C6  UNL d   1       1.515   0.304   0.318  0.00  0.00     0.077 C 
ATOM      8  C7  UNL d   1       2.967   2.224  -0.399  0.00  0.00    -0.001 A 
ENDROOT
TORSDOF 0
ENDMDL
