MODEL 1
REMARK minimizedAffinity -3.72257638
REMARK minimizedRMSD -1
REMARK  0 active torsions:
REMARK  status: ('A' for Active; 'I' for Inactive)
ROOT
ATOM      1  C   UNL d   1       1.444  -0.408   0.361  0.00  0.00     0.077 C 
ATOM      2  C1  UNL d   1       2.049   0.893   0.798  0.00  0.00    -0.074 A 
ATOM      3  C2  UNL d   1       2.090   1.249   2.150  0.00  0.00    -0.005 A 
ATOM      4  C3  UNL d   1       2.665   2.458   2.541  0.00  0.00     0.006 A 
ATOM      5  C4  UNL d   1       3.204   3.321   1.587  0.00  0.00    -0.005 A 
ATOM      6  C5  UNL d   1       3.173   2.982   0.231  0.00  0.00    -0.074 A 
ATOM      7  C6  UNL d   1       3.757   3.894  -0.807  0.00  0.00     0.077 C 
ATOM      8  C7  UNL d   1       2.600   1.762  -0.154  0.00  0.00    -0.001 A 
ENDROOT
TORSDOF 0
ENDMDL
