MODEL 1
REMARK minimizedAffinity 0.0958575979
REMARK minimizedRMSD -1
REMARK  0 active torsions:
REMARK  status: ('A' for Active; 'I' for Inactive)
ROOT
ATOM      1  C   UNL d   1       0.349   0.026   0.458  0.00  0.00     0.077 C 
ATOM      2  C1  UNL d   1       1.384   1.026   0.878  0.00  0.00    -0.074 A 
ATOM      3  C2  UNL d   1       1.674   1.237   2.230  0.00  0.00    -0.005 A 
ATOM      4  C3  UNL d   1       2.646   2.164   2.605  0.00  0.00     0.006 A 
ATOM      5  C4  UNL d   1       3.337   2.889   1.634  0.00  0.00    -0.005 A 
ATOM      6  C5  UNL d   1       3.062   2.691   0.277  0.00  0.00    -0.074 A 
ATOM      7  C6  UNL d   1       3.803   3.455  -0.780  0.00  0.00     0.077 C 
ATOM      8  C7  UNL d   1       2.089   1.753  -0.092  0.00  0.00    -0.001 A 
ENDROOT
TORSDOF 0
ENDMDL
