MODEL 1
REMARK minimizedAffinity -1.22664309
REMARK minimizedRMSD -1
REMARK  0 active torsions:
REMARK  status: ('A' for Active; 'I' for Inactive)
ROOT
ATOM      1  C   UNL d   1      -3.548  -1.785  -0.554  0.00  0.00     0.077 C 
ATOM      2  C1  UNL d   1      -2.182  -1.194  -0.742  0.00  0.00    -0.074 A 
ATOM      3  C2  UNL d   1      -1.881  -0.427  -1.872  0.00  0.00    -0.005 A 
ATOM      4  C3  UNL d   1      -0.609   0.124  -2.029  0.00  0.00     0.006 A 
ATOM      5  C4  UNL d   1       0.372  -0.086  -1.059  0.00  0.00    -0.005 A 
ATOM      6  C5  UNL d   1       0.089  -0.849   0.078  0.00  0.00    -0.074 A 
ATOM      7  C6  UNL d   1       1.129  -1.076   1.135  0.00  0.00     0.077 C 
ATOM      8  C7  UNL d   1      -1.194  -1.394   0.232  0.00  0.00    -0.001 A 
ENDROOT
TORSDOF 0
ENDMDL
