MODEL 1
REMARK minimizedAffinity -2.20051551
REMARK minimizedRMSD -1
REMARK  0 active torsions:
REMARK  status: ('A' for Active; 'I' for Inactive)
ROOT
ATOM      1  C   UNL d   1       0.688  -1.833   1.608  0.00  0.00     0.077 C 
ATOM      2  C1  UNL d   1      -0.339  -1.270   0.672  0.00  0.00    -0.074 A 
ATOM      3  C2  UNL d   1      -0.002  -0.274  -0.251  0.00  0.00    -0.005 A 
ATOM      4  C3  UNL d   1      -0.966   0.233  -1.122  0.00  0.00     0.006 A 
ATOM      5  C4  UNL d   1      -2.275  -0.250  -1.080  0.00  0.00    -0.005 A 
ATOM      6  C5  UNL d   1      -2.630  -1.247  -0.165  0.00  0.00    -0.074 A 
ATOM      7  C6  UNL d   1      -4.029  -1.784  -0.114  0.00  0.00     0.077 C 
ATOM      8  C7  UNL d   1      -1.654  -1.756   0.702  0.00  0.00    -0.001 A 
ENDROOT
TORSDOF 0
ENDMDL
