MODEL 1
REMARK minimizedAffinity -3.38761735
REMARK minimizedRMSD -1
REMARK  0 active torsions:
REMARK  status: ('A' for Active; 'I' for Inactive)
ROOT
ATOM      1  C   UNL d   1       1.320   0.609  -0.520  0.00  0.00     0.077 C 
ATOM      2  C1  UNL d   1       0.211  -0.216   0.064  0.00  0.00    -0.074 A 
ATOM      3  C2  UNL d   1       0.453  -1.099   1.121  0.00  0.00    -0.005 A 
ATOM      4  C3  UNL d   1      -0.590  -1.853   1.660  0.00  0.00     0.006 A 
ATOM      5  C4  UNL d   1      -1.882  -1.732   1.148  0.00  0.00    -0.005 A 
ATOM      6  C5  UNL d   1      -2.143  -0.854   0.091  0.00  0.00    -0.074 A 
ATOM      7  C6  UNL d   1      -3.528  -0.704  -0.464  0.00  0.00     0.077 C 
ATOM      8  C7  UNL d   1      -1.091  -0.094  -0.440  0.00  0.00    -0.001 A 
ENDROOT
TORSDOF 0
ENDMDL
