MODEL 1
REMARK minimizedAffinity -4.94911766
REMARK minimizedRMSD -1
REMARK  0 active torsions:
REMARK  status: ('A' for Active; 'I' for Inactive)
ROOT
ATOM      1  C   UNL d   1       1.128   0.365   0.195  0.00  0.00     0.077 C 
ATOM      2  C1  UNL d   1      -0.062  -0.499   0.490  0.00  0.00    -0.074 A 
ATOM      3  C2  UNL d   1       0.010  -1.521   1.442  0.00  0.00    -0.005 A 
ATOM      4  C3  UNL d   1      -1.107  -2.311   1.712  0.00  0.00     0.006 A 
ATOM      5  C4  UNL d   1      -2.307  -2.086   1.036  0.00  0.00    -0.005 A 
ATOM      6  C5  UNL d   1      -2.398  -1.068   0.082  0.00  0.00    -0.074 A 
ATOM      7  C6  UNL d   1      -3.683  -0.806  -0.648  0.00  0.00     0.077 C 
ATOM      8  C7  UNL d   1      -1.273  -0.274  -0.180  0.00  0.00    -0.001 A 
ENDROOT
TORSDOF 0
ENDMDL
