MODEL 1
REMARK minimizedAffinity -2.47109199
REMARK minimizedRMSD -1
REMARK  0 active torsions:
REMARK  status: ('A' for Active; 'I' for Inactive)
ROOT
ATOM      1  C   UNL d   1       1.800   0.151  -5.974  0.00  0.00     0.077 C 
ATOM      2  C1  UNL d   1       1.775   0.071  -4.476  0.00  0.00    -0.074 A 
ATOM      3  C2  UNL d   1       2.952  -0.132  -3.748  0.00  0.00    -0.005 A 
ATOM      4  C3  UNL d   1       2.915  -0.195  -2.355  0.00  0.00     0.006 A 
ATOM      5  C4  UNL d   1       1.703  -0.056  -1.677  0.00  0.00    -0.005 A 
ATOM      6  C5  UNL d   1       0.516   0.148  -2.389  0.00  0.00    -0.074 A 
ATOM      7  C6  UNL d   1      -0.794   0.308  -1.676  0.00  0.00     0.077 C 
ATOM      8  C7  UNL d   1       0.563   0.217  -3.788  0.00  0.00    -0.001 A 
ENDROOT
TORSDOF 0
ENDMDL
