MODEL 1
REMARK minimizedAffinity -4.24761343
REMARK minimizedRMSD -1
REMARK  0 active torsions:
REMARK  status: ('A' for Active; 'I' for Inactive)
ROOT
ATOM      1  C   UNL d   1       3.932   3.703  -1.519  0.00  0.00     0.077 C 
ATOM      2  C1  UNL d   1       3.124   2.460  -1.296  0.00  0.00    -0.074 A 
ATOM      3  C2  UNL d   1       2.332   2.313  -0.153  0.00  0.00    -0.005 A 
ATOM      4  C3  UNL d   1       1.579   1.154   0.036  0.00  0.00     0.006 A 
ATOM      5  C4  UNL d   1       1.610   0.132  -0.914  0.00  0.00    -0.005 A 
ATOM      6  C5  UNL d   1       2.396   0.262  -2.063  0.00  0.00    -0.074 A 
ATOM      7  C6  UNL d   1       2.433  -0.822  -3.099  0.00  0.00     0.077 C 
ATOM      8  C7  UNL d   1       3.144   1.432  -2.250  0.00  0.00    -0.001 A 
ENDROOT
TORSDOF 0
ENDMDL
