MODEL 1
REMARK minimizedAffinity 4.21387482
REMARK minimizedRMSD -1
REMARK  1 active torsions:
REMARK  status: ('A' for Active; 'I' for Inactive)
REMARK    1  A    between atoms: C1_2  and  C2_3 
ROOT
ATOM      1  C2  UNL d   1       4.032   1.830  -4.828  0.00  0.00    -0.081 A 
ATOM      2  C3  UNL d   1       5.382   1.642  -4.508  0.00  0.00     0.006 A 
ATOM      3  C4  UNL d   1       5.937   2.264  -3.387  0.00  0.00     0.002 A 
ATOM      4  C5  UNL d   1       5.150   3.077  -2.564  0.00  0.00    -0.080 A 
ATOM      5  C6  UNL d   1       5.726   3.726  -1.340  0.00  0.00     0.076 C 
ATOM      6  C7  UNL d   1       3.806   3.279  -2.893  0.00  0.00     0.002 A 
ATOM      7  C8  UNL d   1       3.250   2.658  -4.015  0.00  0.00     0.006 A 
ENDROOT
BRANCH   1   8
ATOM      8  C1  UNL d   1       3.414   1.110  -5.999  0.00  0.00     0.054 C 
ATOM      9  C   UNL d   1       1.899   1.251  -6.000  0.00  0.00     0.018 C 
ENDBRANCH   1   8
TORSDOF 1
ENDMDL
