MODEL 1
REMARK minimizedAffinity -3.81883955
REMARK minimizedRMSD -1
REMARK  1 active torsions:
REMARK  status: ('A' for Active; 'I' for Inactive)
REMARK    1  A    between atoms: C1_2  and  C2_3 
ROOT
ATOM      1  C2  UNL d   1      -1.179   3.226  -5.927  0.00  0.00    -0.081 A 
ATOM      2  C3  UNL d   1      -0.987   4.612  -5.958  0.00  0.00     0.006 A 
ATOM      3  C4  UNL d   1       0.303   5.149  -5.969  0.00  0.00     0.002 A 
ATOM      4  C5  UNL d   1       1.421   4.308  -5.958  0.00  0.00    -0.080 A 
ATOM      5  C6  UNL d   1       2.811   4.870  -6.000  0.00  0.00     0.076 C 
ATOM      6  C7  UNL d   1       1.230   2.923  -5.910  0.00  0.00     0.002 A 
ATOM      7  C8  UNL d   1      -0.060   2.387  -5.898  0.00  0.00     0.006 A 
ENDROOT
BRANCH   1   8
ATOM      8  C1  UNL d   1      -2.568   2.643  -5.981  0.00  0.00     0.054 C 
ATOM      9  C   UNL d   1      -3.628   3.730  -5.878  0.00  0.00     0.018 C 
ENDBRANCH   1   8
TORSDOF 1
ENDMDL
