MODEL 1
REMARK minimizedAffinity 8.21285534
REMARK minimizedRMSD -1
REMARK  1 active torsions:
REMARK  status: ('A' for Active; 'I' for Inactive)
REMARK    1  A    between atoms: C1_2  and  C2_3 
ROOT
ATOM      1  C2  UNL d   1      -0.875   2.536  -5.139  0.00  0.00    -0.081 A 
ATOM      2  C3  UNL d   1       0.395   2.436  -5.721  0.00  0.00     0.006 A 
ATOM      3  C4  UNL d   1       1.525   2.234  -4.925  0.00  0.00     0.002 A 
ATOM      4  C5  UNL d   1       1.404   2.120  -3.536  0.00  0.00    -0.080 A 
ATOM      5  C6  UNL d   1       2.605   1.872  -2.673  0.00  0.00     0.076 C 
ATOM      6  C7  UNL d   1       0.138   2.237  -2.953  0.00  0.00     0.002 A 
ATOM      7  C8  UNL d   1      -0.993   2.440  -3.748  0.00  0.00     0.006 A 
ENDROOT
BRANCH   1   8
ATOM      8  C1  UNL d   1      -2.102   2.689  -6.000  0.00  0.00     0.054 C 
ATOM      9  C   UNL d   1      -2.602   4.127  -6.000  0.00  0.00     0.018 C 
ENDBRANCH   1   8
TORSDOF 1
ENDMDL
