MODEL 1
REMARK minimizedAffinity -0.606917918
REMARK minimizedRMSD -1
REMARK  1 active torsions:
REMARK  status: ('A' for Active; 'I' for Inactive)
REMARK    1  A    between atoms: C1_2  and  C2_3 
ROOT
ATOM      1  C2  UNL d   1       1.202   3.708  -5.997  0.00  0.00    -0.081 A 
ATOM      2  C3  UNL d   1       0.332   4.806  -5.996  0.00  0.00     0.006 A 
ATOM      3  C4  UNL d   1      -1.051   4.614  -5.986  0.00  0.00     0.002 A 
ATOM      4  C5  UNL d   1      -1.588   3.322  -5.970  0.00  0.00    -0.080 A 
ATOM      5  C6  UNL d   1      -3.071   3.102  -5.929  0.00  0.00     0.076 C 
ATOM      6  C7  UNL d   1      -0.720   2.225  -5.989  0.00  0.00     0.002 A 
ATOM      7  C8  UNL d   1       0.664   2.417  -5.999  0.00  0.00     0.006 A 
ENDROOT
BRANCH   1   8
ATOM      8  C1  UNL d   1       2.694   3.912  -5.942  0.00  0.00     0.054 C 
ATOM      9  C   UNL d   1       3.053   5.390  -5.999  0.00  0.00     0.018 C 
ENDBRANCH   1   8
TORSDOF 1
ENDMDL
