MODEL 1
REMARK minimizedAffinity -2.69845724
REMARK minimizedRMSD -1
REMARK  1 active torsions:
REMARK  status: ('A' for Active; 'I' for Inactive)
REMARK    1  A    between atoms: C1_2  and  C2_3 
ROOT
ATOM      1  C2  UNL d   1       0.076   3.694  -5.936  0.00  0.00    -0.081 A 
ATOM      2  C3  UNL d   1      -0.823   2.621  -5.888  0.00  0.00     0.006 A 
ATOM      3  C4  UNL d   1      -2.200   2.851  -5.895  0.00  0.00     0.002 A 
ATOM      4  C5  UNL d   1      -2.702   4.155  -5.958  0.00  0.00    -0.080 A 
ATOM      5  C6  UNL d   1      -4.179   4.414  -5.997  0.00  0.00     0.076 C 
ATOM      6  C7  UNL d   1      -1.805   5.228  -5.989  0.00  0.00     0.002 A 
ATOM      7  C8  UNL d   1      -0.427   4.999  -5.981  0.00  0.00     0.006 A 
ENDROOT
BRANCH   1   8
ATOM      8  C1  UNL d   1       1.562   3.447  -5.994  0.00  0.00     0.054 C 
ATOM      9  C   UNL d   1       2.340   4.755  -5.995  0.00  0.00     0.018 C 
ENDBRANCH   1   8
TORSDOF 1
ENDMDL
