MODEL 1
REMARK minimizedAffinity 1.11140668
REMARK minimizedRMSD -1
REMARK  1 active torsions:
REMARK  status: ('A' for Active; 'I' for Inactive)
REMARK    1  A    between atoms: C1_2  and  C2_3 
ROOT
ATOM      1  C2  UNL d   1      -0.147   3.685  -5.939  0.00  0.00    -0.081 A 
ATOM      2  C3  UNL d   1      -1.383   3.029  -5.994  0.00  0.00     0.006 A 
ATOM      3  C4  UNL d   1      -2.573   3.761  -5.999  0.00  0.00     0.002 A 
ATOM      4  C5  UNL d   1      -2.547   5.159  -5.958  0.00  0.00    -0.080 A 
ATOM      5  C6  UNL d   1      -3.816   5.957  -5.994  0.00  0.00     0.076 C 
ATOM      6  C7  UNL d   1      -1.312   5.813  -5.886  0.00  0.00     0.002 A 
ATOM      7  C8  UNL d   1      -0.122   5.082  -5.880  0.00  0.00     0.006 A 
ENDROOT
BRANCH   1   8
ATOM      8  C1  UNL d   1       1.140   2.901  -5.998  0.00  0.00     0.054 C 
ATOM      9  C   UNL d   1       0.875   1.402  -6.000  0.00  0.00     0.018 C 
ENDBRANCH   1   8
TORSDOF 1
ENDMDL
