MODEL 1
REMARK minimizedAffinity 10.5590305
REMARK minimizedRMSD -1
REMARK  1 active torsions:
REMARK  status: ('A' for Active; 'I' for Inactive)
REMARK    1  A    between atoms: C1_2  and  C2_3 
ROOT
ATOM      1  C2  UNL d   1      -1.772  -3.176  -0.714  0.00  0.00    -0.081 A 
ATOM      2  C3  UNL d   1      -1.489  -3.129   0.657  0.00  0.00     0.006 A 
ATOM      3  C4  UNL d   1      -0.898  -1.996   1.219  0.00  0.00     0.002 A 
ATOM      4  C5  UNL d   1      -0.586  -0.889   0.423  0.00  0.00    -0.080 A 
ATOM      5  C6  UNL d   1       0.022   0.346   1.020  0.00  0.00     0.076 C 
ATOM      6  C7  UNL d   1      -0.852  -0.942  -0.949  0.00  0.00     0.002 A 
ATOM      7  C8  UNL d   1      -1.443  -2.075  -1.513  0.00  0.00     0.006 A 
ENDROOT
BRANCH   1   8
ATOM      8  C1  UNL d   1      -2.469  -4.371  -1.313  0.00  0.00     0.054 C 
ATOM      9  C   UNL d   1      -3.900  -4.486  -0.809  0.00  0.00     0.018 C 
ENDBRANCH   1   8
TORSDOF 1
ENDMDL
