MODEL 1
REMARK minimizedAffinity 3.55265832
REMARK minimizedRMSD -1
REMARK  1 active torsions:
REMARK  status: ('A' for Active; 'I' for Inactive)
REMARK    1  A    between atoms: C1_2  and  C2_3 
ROOT
ATOM      1  C2  UNL d   1      -1.010   4.424  -5.950  0.00  0.00    -0.081 A 
ATOM      2  C3  UNL d   1      -0.686   3.062  -5.968  0.00  0.00     0.006 A 
ATOM      3  C4  UNL d   1       0.649   2.653  -5.997  0.00  0.00     0.002 A 
ATOM      4  C5  UNL d   1       1.681   3.597  -6.000  0.00  0.00    -0.080 A 
ATOM      5  C6  UNL d   1       3.119   3.171  -6.000  0.00  0.00     0.076 C 
ATOM      6  C7  UNL d   1       1.357   4.958  -5.999  0.00  0.00     0.002 A 
ATOM      7  C8  UNL d   1       0.022   5.368  -5.971  0.00  0.00     0.006 A 
ENDROOT
BRANCH   1   8
ATOM      8  C1  UNL d   1      -2.448   4.868  -5.854  0.00  0.00     0.054 C 
ATOM      9  C   UNL d   1      -3.373   3.692  -5.580  0.00  0.00     0.018 C 
ENDBRANCH   1   8
TORSDOF 1
ENDMDL
