MODEL 1
REMARK minimizedAffinity -1.47072685
REMARK minimizedRMSD -1
REMARK  1 active torsions:
REMARK  status: ('A' for Active; 'I' for Inactive)
REMARK    1  A    between atoms: C1_2  and  C2_3 
ROOT
ATOM      1  C2  UNL d   1       0.362   3.964  -5.910  0.00  0.00    -0.081 A 
ATOM      2  C3  UNL d   1      -0.404   2.793  -5.844  0.00  0.00     0.006 A 
ATOM      3  C4  UNL d   1      -1.799   2.858  -5.860  0.00  0.00     0.002 A 
ATOM      4  C5  UNL d   1      -2.451   4.093  -5.949  0.00  0.00    -0.080 A 
ATOM      5  C6  UNL d   1      -3.948   4.174  -5.997  0.00  0.00     0.076 C 
ATOM      6  C7  UNL d   1      -1.687   5.263  -5.998  0.00  0.00     0.002 A 
ATOM      7  C8  UNL d   1      -0.292   5.199  -5.982  0.00  0.00     0.006 A 
ENDROOT
BRANCH   1   8
ATOM      8  C1  UNL d   1       1.867   3.894  -5.959  0.00  0.00     0.054 C 
ATOM      9  C   UNL d   1       2.485   5.284  -5.999  0.00  0.00     0.018 C 
ENDBRANCH   1   8
TORSDOF 1
ENDMDL
