MODEL 1
REMARK minimizedAffinity 15.4164524
REMARK minimizedRMSD -1
REMARK  1 active torsions:
REMARK  status: ('A' for Active; 'I' for Inactive)
REMARK    1  A    between atoms: C1_2  and  C2_3 
ROOT
ATOM      1  C2  UNL d   1      -2.308  -1.848  -5.994  0.00  0.00    -0.073 A 
ATOM      2  C3  UNL d   1      -3.220  -0.787  -5.993  0.00  0.00    -0.002 A 
ATOM      3  C4  UNL d   1      -4.593  -1.038  -5.997  0.00  0.00     0.004 A 
ATOM      4  C5  UNL d   1      -5.067  -2.350  -5.996  0.00  0.00    -0.004 A 
ATOM      5  C6  UNL d   1      -4.170  -3.424  -5.986  0.00  0.00    -0.075 A 
ATOM      6  C7  UNL d   1      -4.663  -4.841  -5.987  0.00  0.00     0.076 C 
ATOM      7  C8  UNL d   1      -2.793  -3.163  -5.984  0.00  0.00     0.001 A 
ENDROOT
BRANCH   1   8
ATOM      8  C1  UNL d   1      -0.824  -1.581  -5.982  0.00  0.00     0.053 C 
ATOM      9  C   UNL d   1      -0.508  -0.134  -5.638  0.00  0.00     0.018 C 
ENDBRANCH   1   8
TORSDOF 1
ENDMDL
