MODEL 1
REMARK minimizedAffinity 12.224431
REMARK minimizedRMSD -1
REMARK  1 active torsions:
REMARK  status: ('A' for Active; 'I' for Inactive)
REMARK    1  A    between atoms: C1_2  and  C2_3 
ROOT
ATOM      1  C2  UNL d   1      -4.425  -0.330   0.975  0.00  0.00    -0.073 A 
ATOM      2  C3  UNL d   1      -5.097   0.515   1.865  0.00  0.00    -0.002 A 
ATOM      3  C4  UNL d   1      -4.382   1.388   2.686  0.00  0.00     0.004 A 
ATOM      4  C5  UNL d   1      -2.989   1.431   2.620  0.00  0.00    -0.004 A 
ATOM      5  C6  UNL d   1      -2.300   0.603   1.729  0.00  0.00    -0.075 A 
ATOM      6  C7  UNL d   1      -0.802   0.635   1.647  0.00  0.00     0.076 C 
ATOM      7  C8  UNL d   1      -3.025  -0.273   0.910  0.00  0.00     0.001 A 
ENDROOT
BRANCH   1   8
ATOM      8  C1  UNL d   1      -5.193  -1.269   0.082  0.00  0.00     0.053 C 
ATOM      9  C   UNL d   1      -4.774  -2.717   0.283  0.00  0.00     0.018 C 
ENDBRANCH   1   8
TORSDOF 1
ENDMDL
