MODEL 1
REMARK minimizedAffinity 15.7288589
REMARK minimizedRMSD -1
REMARK  1 active torsions:
REMARK  status: ('A' for Active; 'I' for Inactive)
REMARK    1  A    between atoms: C1_2  and  C2_3 
ROOT
ATOM      1  C2  UNL d   1       2.959   0.412  -3.317  0.00  0.00    -0.073 A 
ATOM      2  C3  UNL d   1       1.739   0.384  -4.001  0.00  0.00    -0.002 A 
ATOM      3  C4  UNL d   1       1.684  -0.046  -5.327  0.00  0.00     0.004 A 
ATOM      4  C5  UNL d   1       2.846  -0.460  -5.980  0.00  0.00    -0.004 A 
ATOM      5  C6  UNL d   1       4.073  -0.451  -5.309  0.00  0.00    -0.075 A 
ATOM      6  C7  UNL d   1       5.332  -0.890  -5.997  0.00  0.00     0.076 C 
ATOM      7  C8  UNL d   1       4.120  -0.014  -3.978  0.00  0.00     0.001 A 
ENDROOT
BRANCH   1   8
ATOM      8  C1  UNL d   1       3.022   0.870  -1.883  0.00  0.00     0.053 C 
ATOM      9  C   UNL d   1       2.006   1.962  -1.588  0.00  0.00     0.018 C 
ENDBRANCH   1   8
TORSDOF 1
ENDMDL
