MODEL 1
REMARK minimizedAffinity 0.249779433
REMARK minimizedRMSD -1
REMARK  1 active torsions:
REMARK  status: ('A' for Active; 'I' for Inactive)
REMARK    1  A    between atoms: C1_2  and  C2_3 
ROOT
ATOM      1  C2  UNL d   1      -1.525   1.111   2.306  0.00  0.00    -0.073 A 
ATOM      2  C3  UNL d   1      -0.945  -0.052   1.788  0.00  0.00    -0.002 A 
ATOM      3  C4  UNL d   1       0.402  -0.333   2.022  0.00  0.00     0.004 A 
ATOM      4  C5  UNL d   1       1.179   0.541   2.781  0.00  0.00    -0.004 A 
ATOM      5  C6  UNL d   1       0.615   1.703   3.318  0.00  0.00    -0.075 A 
ATOM      6  C7  UNL d   1       1.439   2.655   4.135  0.00  0.00     0.076 C 
ATOM      7  C8  UNL d   1      -0.737   1.979   3.076  0.00  0.00     0.001 A 
ENDROOT
BRANCH   1   8
ATOM      8  C1  UNL d   1      -2.980   1.416   2.061  0.00  0.00     0.053 C 
ATOM      9  C   UNL d   1      -3.547   0.601   0.909  0.00  0.00     0.018 C 
ENDBRANCH   1   8
TORSDOF 1
ENDMDL
