MODEL 1
REMARK minimizedAffinity 11.4535179
REMARK minimizedRMSD -1
REMARK  1 active torsions:
REMARK  status: ('A' for Active; 'I' for Inactive)
REMARK    1  A    between atoms: C1_2  and  C2_3 
ROOT
ATOM      1  C2  UNL d   1      -4.300  -0.159   4.712  0.00  0.00    -0.073 A 
ATOM      2  C3  UNL d   1      -5.074   0.707   3.930  0.00  0.00    -0.002 A 
ATOM      3  C4  UNL d   1      -4.568   1.220   2.735  0.00  0.00     0.004 A 
ATOM      4  C5  UNL d   1      -3.289   0.868   2.306  0.00  0.00    -0.004 A 
ATOM      5  C6  UNL d   1      -2.505  -0.006   3.067  0.00  0.00    -0.075 A 
ATOM      6  C7  UNL d   1      -1.126  -0.392   2.620  0.00  0.00     0.076 C 
ATOM      7  C8  UNL d   1      -3.019  -0.514   4.267  0.00  0.00     0.001 A 
ENDROOT
BRANCH   1   8
ATOM      8  C1  UNL d   1      -4.845  -0.721   6.000  0.00  0.00     0.053 C 
ATOM      9  C   UNL d   1      -4.854  -2.241   6.000  0.00  0.00     0.018 C 
ENDBRANCH   1   8
TORSDOF 1
ENDMDL
