MODEL 1
REMARK minimizedAffinity 0.113388449
REMARK minimizedRMSD -1
REMARK  1 active torsions:
REMARK  status: ('A' for Active; 'I' for Inactive)
REMARK    1  A    between atoms: C1_2  and  C2_3 
ROOT
ATOM      1  C2  UNL d   1      -2.382  -1.153   0.936  0.00  0.00    -0.073 A 
ATOM      2  C3  UNL d   1      -3.552  -1.730   0.428  0.00  0.00    -0.002 A 
ATOM      3  C4  UNL d   1      -3.614  -3.104   0.190  0.00  0.00     0.004 A 
ATOM      4  C5  UNL d   1      -2.512  -3.914   0.463  0.00  0.00    -0.004 A 
ATOM      5  C6  UNL d   1      -1.339  -3.358   0.982  0.00  0.00    -0.075 A 
ATOM      6  C7  UNL d   1      -0.144  -4.216   1.279  0.00  0.00     0.076 C 
ATOM      7  C8  UNL d   1      -1.283  -1.978   1.216  0.00  0.00     0.001 A 
ENDROOT
BRANCH   1   8
ATOM      8  C1  UNL d   1      -2.312   0.328   1.201  0.00  0.00     0.053 C 
ATOM      9  C   UNL d   1      -3.233   0.749   2.335  0.00  0.00     0.018 C 
ENDBRANCH   1   8
TORSDOF 1
ENDMDL
