MODEL 1
REMARK minimizedAffinity -0.522749662
REMARK minimizedRMSD -1
REMARK  1 active torsions:
REMARK  status: ('A' for Active; 'I' for Inactive)
REMARK    1  A    between atoms: C1_2  and  C2_3 
ROOT
ATOM      1  C2  UNL d   1      -1.989   1.480   2.646  0.00  0.00    -0.073 A 
ATOM      2  C3  UNL d   1      -2.149   0.830   1.417  0.00  0.00    -0.002 A 
ATOM      3  C4  UNL d   1      -3.425   0.571   0.916  0.00  0.00     0.004 A 
ATOM      4  C5  UNL d   1      -4.554   0.965   1.635  0.00  0.00    -0.004 A 
ATOM      5  C6  UNL d   1      -4.415   1.626   2.860  0.00  0.00    -0.075 A 
ATOM      6  C7  UNL d   1      -5.619   2.055   3.646  0.00  0.00     0.076 C 
ATOM      7  C8  UNL d   1      -3.130   1.880   3.357  0.00  0.00     0.001 A 
ENDROOT
BRANCH   1   8
ATOM      8  C1  UNL d   1      -0.612   1.767   3.187  0.00  0.00     0.053 C 
ATOM      9  C   UNL d   1       0.251   0.517   3.240  0.00  0.00     0.018 C 
ENDBRANCH   1   8
TORSDOF 1
ENDMDL
