MODEL 1
REMARK minimizedAffinity 3.84098601
REMARK minimizedRMSD -1
REMARK  1 active torsions:
REMARK  status: ('A' for Active; 'I' for Inactive)
REMARK    1  A    between atoms: C1_2  and  C2_3 
ROOT
ATOM      1  C2  UNL d   1      -3.743  -1.162   0.725  0.00  0.00    -0.073 A 
ATOM      2  C3  UNL d   1      -4.815  -0.285   0.927  0.00  0.00    -0.002 A 
ATOM      3  C4  UNL d   1      -4.628   0.907   1.628  0.00  0.00     0.004 A 
ATOM      4  C5  UNL d   1      -3.368   1.238   2.126  0.00  0.00    -0.004 A 
ATOM      5  C6  UNL d   1      -2.282   0.380   1.924  0.00  0.00    -0.075 A 
ATOM      6  C7  UNL d   1      -0.921   0.720   2.456  0.00  0.00     0.076 C 
ATOM      7  C8  UNL d   1      -2.478  -0.816   1.222  0.00  0.00     0.001 A 
ENDROOT
BRANCH   1   8
ATOM      8  C1  UNL d   1      -3.939  -2.448  -0.037  0.00  0.00     0.053 C 
ATOM      9  C   UNL d   1      -2.907  -3.498   0.342  0.00  0.00     0.018 C 
ENDBRANCH   1   8
TORSDOF 1
ENDMDL
