MODEL 1
REMARK minimizedAffinity 10.6960793
REMARK minimizedRMSD -1
REMARK  1 active torsions:
REMARK  status: ('A' for Active; 'I' for Inactive)
REMARK    1  A    between atoms: C1_2  and  C2_3 
ROOT
ATOM      1  C2  UNL d   1      -4.304   0.612   3.140  0.00  0.00    -0.073 A 
ATOM      2  C3  UNL d   1      -5.084   0.771   1.989  0.00  0.00    -0.002 A 
ATOM      3  C4  UNL d   1      -4.498   0.698   0.725  0.00  0.00     0.004 A 
ATOM      4  C5  UNL d   1      -3.130   0.460   0.598  0.00  0.00    -0.004 A 
ATOM      5  C6  UNL d   1      -2.336   0.287   1.736  0.00  0.00    -0.075 A 
ATOM      6  C7  UNL d   1      -0.862   0.033   1.617  0.00  0.00     0.076 C 
ATOM      7  C8  UNL d   1      -2.931   0.364   3.002  0.00  0.00     0.001 A 
ENDROOT
BRANCH   1   8
ATOM      8  C1  UNL d   1      -4.934   0.683   4.507  0.00  0.00     0.053 C 
ATOM      9  C   UNL d   1      -5.981   1.782   4.596  0.00  0.00     0.018 C 
ENDBRANCH   1   8
TORSDOF 1
ENDMDL
