MODEL 1
REMARK minimizedAffinity 5.97230434
REMARK minimizedRMSD -1
REMARK  1 active torsions:
REMARK  status: ('A' for Active; 'I' for Inactive)
REMARK    1  A    between atoms: C1_2  and  C2_3 
ROOT
ATOM      1  C2  UNL d   1      -5.339  -1.513   3.215  0.00  0.00    -0.073 A 
ATOM      2  C3  UNL d   1      -5.778  -2.131   2.039  0.00  0.00    -0.002 A 
ATOM      3  C4  UNL d   1      -5.498  -1.560   0.796  0.00  0.00     0.004 A 
ATOM      4  C5  UNL d   1      -4.772  -0.372   0.717  0.00  0.00    -0.004 A 
ATOM      5  C6  UNL d   1      -4.315   0.254   1.881  0.00  0.00    -0.075 A 
ATOM      6  C7  UNL d   1      -3.535   1.534   1.813  0.00  0.00     0.076 C 
ATOM      7  C8  UNL d   1      -4.602  -0.324   3.125  0.00  0.00     0.001 A 
ENDROOT
BRANCH   1   8
ATOM      8  C1  UNL d   1      -5.633  -2.129   4.559  0.00  0.00     0.053 C 
ATOM      9  C   UNL d   1      -5.801  -3.637   4.470  0.00  0.00     0.018 C 
ENDBRANCH   1   8
TORSDOF 1
ENDMDL
