MODEL 1
REMARK minimizedAffinity 4.44376421
REMARK minimizedRMSD -1
REMARK  1 active torsions:
REMARK  status: ('A' for Active; 'I' for Inactive)
REMARK    1  A    between atoms: C1_2  and  C2_3 
ROOT
ATOM      1  C2  UNL d   1      -1.729   0.276   2.022  0.00  0.00    -0.073 A 
ATOM      2  C3  UNL d   1      -2.477   1.444   2.208  0.00  0.00    -0.002 A 
ATOM      3  C4  UNL d   1      -3.801   1.510   1.771  0.00  0.00     0.004 A 
ATOM      4  C5  UNL d   1      -4.392   0.409   1.151  0.00  0.00    -0.004 A 
ATOM      5  C6  UNL d   1      -3.664  -0.771   0.967  0.00  0.00    -0.075 A 
ATOM      6  C7  UNL d   1      -4.284  -1.964   0.299  0.00  0.00     0.076 C 
ATOM      7  C8  UNL d   1      -2.334  -0.829   1.406  0.00  0.00     0.001 A 
ENDROOT
BRANCH   1   8
ATOM      8  C1  UNL d   1      -0.302   0.197   2.498  0.00  0.00     0.053 C 
ATOM      9  C   UNL d   1       0.239   1.559   2.906  0.00  0.00     0.018 C 
ENDBRANCH   1   8
TORSDOF 1
ENDMDL
