MODEL 1
REMARK minimizedAffinity 6.54471302
REMARK minimizedRMSD -1
REMARK  1 active torsions:
REMARK  status: ('A' for Active; 'I' for Inactive)
REMARK    1  A    between atoms: C1_2  and  C2_3 
ROOT
ATOM      1  C2  UNL d   1      -3.000   0.393   3.225  0.00  0.00    -0.073 A 
ATOM      2  C3  UNL d   1      -3.180   0.379   1.837  0.00  0.00    -0.002 A 
ATOM      3  C4  UNL d   1      -2.087   0.528   0.983  0.00  0.00     0.004 A 
ATOM      4  C5  UNL d   1      -0.804   0.687   1.506  0.00  0.00    -0.004 A 
ATOM      5  C6  UNL d   1      -0.602   0.693   2.890  0.00  0.00    -0.075 A 
ATOM      6  C7  UNL d   1       0.771   0.865   3.469  0.00  0.00     0.076 C 
ATOM      7  C8  UNL d   1      -1.705   0.545   3.741  0.00  0.00     0.001 A 
ENDROOT
BRANCH   1   8
ATOM      8  C1  UNL d   1      -4.177   0.225   4.151  0.00  0.00     0.053 C 
ATOM      9  C   UNL d   1      -5.499   0.482   3.445  0.00  0.00     0.018 C 
ENDBRANCH   1   8
TORSDOF 1
ENDMDL
