MODEL 1
REMARK minimizedAffinity 2.27137089
REMARK minimizedRMSD -1
REMARK  1 active torsions:
REMARK  status: ('A' for Active; 'I' for Inactive)
REMARK    1  A    between atoms: C1_2  and  C2_3 
ROOT
ATOM      1  C2  UNL d   1      -3.737  -0.839   1.029  0.00  0.00    -0.073 A 
ATOM      2  C3  UNL d   1      -2.587  -0.087   0.767  0.00  0.00    -0.002 A 
ATOM      3  C4  UNL d   1      -2.222   0.961   1.613  0.00  0.00     0.004 A 
ATOM      4  C5  UNL d   1      -2.998   1.263   2.732  0.00  0.00    -0.004 A 
ATOM      5  C6  UNL d   1      -4.146   0.515   3.017  0.00  0.00    -0.075 A 
ATOM      6  C7  UNL d   1      -4.993   0.829   4.215  0.00  0.00     0.076 C 
ATOM      7  C8  UNL d   1      -4.507  -0.534   2.161  0.00  0.00     0.001 A 
ENDROOT
BRANCH   1   8
ATOM      8  C1  UNL d   1      -4.132  -1.976   0.121  0.00  0.00     0.053 C 
ATOM      9  C   UNL d   1      -3.192  -3.164   0.254  0.00  0.00     0.018 C 
ENDBRANCH   1   8
TORSDOF 1
ENDMDL
