MODEL 1
REMARK minimizedAffinity 0.600275517
REMARK minimizedRMSD -1
REMARK  1 active torsions:
REMARK  status: ('A' for Active; 'I' for Inactive)
REMARK    1  A    between atoms: C1_2  and  C2_3 
ROOT
ATOM      1  C2  UNL d   1      -0.106  -0.111   1.344  0.00  0.00    -0.077 A 
ATOM      2  C3  UNL d   1       1.237   0.244   1.154  0.00  0.00     0.002 A 
ATOM      3  C4  UNL d   1       1.676   0.707  -0.088  0.00  0.00     0.002 A 
ATOM      4  C5  UNL d   1       0.779   0.823  -1.147  0.00  0.00    -0.004 A 
ATOM      5  C6  UNL d   1      -0.558   0.470  -0.969  0.00  0.00     0.002 A 
ATOM      6  C7  UNL d   1      -0.999   0.006   0.271  0.00  0.00     0.002 A 
ENDROOT
BRANCH   1   7
ATOM      7  C1  UNL d   1      -0.592  -0.563   2.696  0.00  0.00     0.055 C 
ATOM      8  C   UNL d   1      -1.307   0.561   3.432  0.00  0.00     0.019 C 
ENDBRANCH   1   7
TORSDOF 1
ENDMDL
