MODEL 1
REMARK minimizedAffinity -4.44917059
REMARK minimizedRMSD -1
REMARK  1 active torsions:
REMARK  status: ('A' for Active; 'I' for Inactive)
REMARK    1  A    between atoms: C1_2  and  C2_3 
ROOT
ATOM      1  C2  UNL d   1       1.351  -0.214  -0.560  0.00  0.00    -0.077 A 
ATOM      2  C3  UNL d   1       0.078   0.362  -0.449  0.00  0.00     0.002 A 
ATOM      3  C4  UNL d   1      -1.031  -0.430  -0.144  0.00  0.00     0.002 A 
ATOM      4  C5  UNL d   1      -0.877  -1.801   0.056  0.00  0.00    -0.004 A 
ATOM      5  C6  UNL d   1       0.385  -2.383  -0.055  0.00  0.00     0.002 A 
ATOM      6  C7  UNL d   1       1.495  -1.593  -0.360  0.00  0.00     0.002 A 
ENDROOT
BRANCH   1   7
ATOM      7  C1  UNL d   1       2.556   0.646  -0.840  0.00  0.00     0.055 C 
ATOM      8  C   UNL d   1       3.824  -0.190  -0.931  0.00  0.00     0.019 C 
ENDBRANCH   1   7
TORSDOF 1
ENDMDL
