MODEL 1
REMARK minimizedAffinity -4.78105736
REMARK minimizedRMSD -1
REMARK  1 active torsions:
REMARK  status: ('A' for Active; 'I' for Inactive)
REMARK    1  A    between atoms: C1_2  and  C2_3 
ROOT
ATOM      1  C2  UNL d   1       0.612   0.095  -0.717  0.00  0.00    -0.077 A 
ATOM      2  C3  UNL d   1       1.749   0.834  -1.070  0.00  0.00     0.002 A 
ATOM      3  C4  UNL d   1       2.879   0.192  -1.582  0.00  0.00     0.002 A 
ATOM      4  C5  UNL d   1       2.880  -1.191  -1.749  0.00  0.00    -0.004 A 
ATOM      5  C6  UNL d   1       1.754  -1.936  -1.399  0.00  0.00     0.002 A 
ATOM      6  C7  UNL d   1       0.625  -1.296  -0.886  0.00  0.00     0.002 A 
ENDROOT
BRANCH   1   7
ATOM      7  C1  UNL d   1      -0.624   0.791  -0.210  0.00  0.00     0.055 C 
ATOM      8  C   UNL d   1      -0.943   0.382   1.220  0.00  0.00     0.019 C 
ENDBRANCH   1   7
TORSDOF 1
ENDMDL
