MODEL 1
REMARK minimizedAffinity -5.42891026
REMARK minimizedRMSD -1
REMARK  1 active torsions:
REMARK  status: ('A' for Active; 'I' for Inactive)
REMARK    1  A    between atoms: C1_2  and  C2_3 
ROOT
ATOM      1  C2  UNL d   1       0.166  -0.216  -0.555  0.00  0.00    -0.077 A 
ATOM      2  C3  UNL d   1       0.362  -1.601  -0.635  0.00  0.00     0.002 A 
ATOM      3  C4  UNL d   1       1.617  -2.119  -0.963  0.00  0.00     0.002 A 
ATOM      4  C5  UNL d   1       2.685  -1.259  -1.209  0.00  0.00    -0.004 A 
ATOM      5  C6  UNL d   1       2.499   0.121  -1.134  0.00  0.00     0.002 A 
ATOM      6  C7  UNL d   1       1.245   0.640  -0.808  0.00  0.00     0.002 A 
ENDROOT
BRANCH   1   7
ATOM      7  C1  UNL d   1      -1.174   0.343  -0.153  0.00  0.00     0.055 C 
ATOM      8  C   UNL d   1      -1.277   0.503   1.357  0.00  0.00     0.019 C 
ENDBRANCH   1   7
TORSDOF 1
ENDMDL
