MODEL 1
REMARK minimizedAffinity -1.87743473
REMARK minimizedRMSD -1
REMARK  1 active torsions:
REMARK  status: ('A' for Active; 'I' for Inactive)
REMARK    1  A    between atoms: C1_2  and  C2_3 
ROOT
ATOM      1  C2  UNL d   1       0.011  -1.192  -0.080  0.00  0.00    -0.077 A 
ATOM      2  C3  UNL d   1       0.433   0.135  -0.238  0.00  0.00     0.002 A 
ATOM      3  C4  UNL d   1       1.741   0.417  -0.637  0.00  0.00     0.002 A 
ATOM      4  C5  UNL d   1       2.635  -0.622  -0.885  0.00  0.00    -0.004 A 
ATOM      5  C6  UNL d   1       2.225  -1.945  -0.729  0.00  0.00     0.002 A 
ATOM      6  C7  UNL d   1       0.919  -2.229  -0.329  0.00  0.00     0.002 A 
ENDROOT
BRANCH   1   7
ATOM      7  C1  UNL d   1      -1.413  -1.500   0.302  0.00  0.00     0.055 C 
ATOM      8  C   UNL d   1      -1.858  -2.844  -0.255  0.00  0.00     0.019 C 
ENDBRANCH   1   7
TORSDOF 1
ENDMDL
