MODEL 1
REMARK minimizedAffinity -5.30532169
REMARK minimizedRMSD -1
REMARK  1 active torsions:
REMARK  status: ('A' for Active; 'I' for Inactive)
REMARK    1  A    between atoms: C1_2  and  C2_3 
ROOT
ATOM      1  C2  UNL d   1       1.888   0.101  -1.500  0.00  0.00    -0.077 A 
ATOM      2  C3  UNL d   1       2.392  -1.206  -1.433  0.00  0.00     0.002 A 
ATOM      3  C4  UNL d   1       1.764  -2.164  -0.635  0.00  0.00     0.002 A 
ATOM      4  C5  UNL d   1       0.629  -1.828   0.098  0.00  0.00    -0.004 A 
ATOM      5  C6  UNL d   1       0.121  -0.531   0.040  0.00  0.00     0.002 A 
ATOM      6  C7  UNL d   1       0.748   0.429  -0.756  0.00  0.00     0.002 A 
ENDROOT
BRANCH   1   7
ATOM      7  C1  UNL d   1       2.534   1.124  -2.397  0.00  0.00     0.055 C 
ATOM      8  C   UNL d   1       1.665   2.365  -2.538  0.00  0.00     0.019 C 
ENDBRANCH   1   7
TORSDOF 1
ENDMDL
