MODEL 1
REMARK minimizedAffinity -4.20112133
REMARK minimizedRMSD -1
REMARK  1 active torsions:
REMARK  status: ('A' for Active; 'I' for Inactive)
REMARK    1  A    between atoms: C1_2  and  C2_3 
ROOT
ATOM      1  C2  UNL d   1       1.255  -0.541  -0.740  0.00  0.00    -0.077 A 
ATOM      2  C3  UNL d   1       1.368   0.631  -1.502  0.00  0.00     0.002 A 
ATOM      3  C4  UNL d   1       2.550   0.916  -2.188  0.00  0.00     0.002 A 
ATOM      4  C5  UNL d   1       3.625   0.032  -2.123  0.00  0.00    -0.004 A 
ATOM      5  C6  UNL d   1       3.523  -1.134  -1.367  0.00  0.00     0.002 A 
ATOM      6  C7  UNL d   1       2.343  -1.420  -0.679  0.00  0.00     0.002 A 
ENDROOT
BRANCH   1   7
ATOM      7  C1  UNL d   1      -0.036  -0.874  -0.039  0.00  0.00     0.055 C 
ATOM      8  C   UNL d   1      -0.835   0.383   0.276  0.00  0.00     0.019 C 
ENDBRANCH   1   7
TORSDOF 1
ENDMDL
