MODEL 1
REMARK minimizedAffinity -5.03214312
REMARK minimizedRMSD -1
REMARK  1 active torsions:
REMARK  status: ('A' for Active; 'I' for Inactive)
REMARK    1  A    between atoms: C1_2  and  C2_3 
ROOT
ATOM      1  C2  UNL d   1       1.423   0.430  -1.270  0.00  0.00    -0.077 A 
ATOM      2  C3  UNL d   1       2.055  -0.710  -1.788  0.00  0.00     0.002 A 
ATOM      3  C4  UNL d   1       1.632  -1.985  -1.408  0.00  0.00     0.002 A 
ATOM      4  C5  UNL d   1       0.575  -2.133  -0.513  0.00  0.00    -0.004 A 
ATOM      5  C6  UNL d   1      -0.058  -1.006   0.009  0.00  0.00     0.002 A 
ATOM      6  C7  UNL d   1       0.363   0.270  -0.368  0.00  0.00     0.002 A 
ENDROOT
BRANCH   1   7
ATOM      7  C1  UNL d   1       1.845   1.806  -1.716  0.00  0.00     0.055 C 
ATOM      8  C   UNL d   1       0.672   2.584  -2.293  0.00  0.00     0.019 C 
ENDBRANCH   1   7
TORSDOF 1
ENDMDL
