MODEL 1
REMARK minimizedAffinity -6.04033232
REMARK minimizedRMSD -1
REMARK  1 active torsions:
REMARK  status: ('A' for Active; 'I' for Inactive)
REMARK    1  A    between atoms: C1_2  and  C2_3 
ROOT
ATOM      1  C2  UNL d   1       0.277   0.361  -0.668  0.00  0.00    -0.077 A 
ATOM      2  C3  UNL d   1       0.541   1.343  -1.632  0.00  0.00     0.002 A 
ATOM      3  C4  UNL d   1       1.749   1.340  -2.331  0.00  0.00     0.002 A 
ATOM      4  C5  UNL d   1       2.701   0.356  -2.076  0.00  0.00    -0.004 A 
ATOM      5  C6  UNL d   1       2.450  -0.625  -1.117  0.00  0.00     0.002 A 
ATOM      6  C7  UNL d   1       1.243  -0.623  -0.416  0.00  0.00     0.002 A 
ENDROOT
BRANCH   1   7
ATOM      7  C1  UNL d   1      -1.046   0.333   0.052  0.00  0.00     0.055 C 
ATOM      8  C   UNL d   1      -0.856   0.363   1.562  0.00  0.00     0.019 C 
ENDBRANCH   1   7
TORSDOF 1
ENDMDL
