MODEL 1
REMARK minimizedAffinity -5.18051004
REMARK minimizedRMSD -1
REMARK  1 active torsions:
REMARK  status: ('A' for Active; 'I' for Inactive)
REMARK    1  A    between atoms: C1_2  and  C2_3 
ROOT
ATOM      1  C2  UNL d   1       0.386  -0.706  -0.206  0.00  0.00    -0.077 A 
ATOM      2  C3  UNL d   1       1.366   0.066   0.433  0.00  0.00     0.002 A 
ATOM      3  C4  UNL d   1       2.705  -0.034   0.050  0.00  0.00     0.002 A 
ATOM      4  C5  UNL d   1       3.075  -0.902  -0.975  0.00  0.00    -0.004 A 
ATOM      5  C6  UNL d   1       2.109  -1.676  -1.615  0.00  0.00     0.002 A 
ATOM      6  C7  UNL d   1       0.770  -1.578  -1.233  0.00  0.00     0.002 A 
ENDROOT
BRANCH   1   7
ATOM      7  C1  UNL d   1      -1.065  -0.564   0.171  0.00  0.00     0.055 C 
ATOM      8  C   UNL d   1      -1.225   0.208   1.473  0.00  0.00     0.019 C 
ENDBRANCH   1   7
TORSDOF 1
ENDMDL
