MODEL 1
REMARK minimizedAffinity -4.32154369
REMARK minimizedRMSD -1
REMARK  1 active torsions:
REMARK  status: ('A' for Active; 'I' for Inactive)
REMARK    1  A    between atoms: C1_2  and  C2_3 
ROOT
ATOM      1  C2  UNL d   1       1.408  -0.266  -0.307  0.00  0.00    -0.077 A 
ATOM      2  C3  UNL d   1       0.122   0.208  -0.011  0.00  0.00     0.002 A 
ATOM      3  C4  UNL d   1      -0.998  -0.588  -0.256  0.00  0.00     0.002 A 
ATOM      4  C5  UNL d   1      -0.844  -1.865  -0.793  0.00  0.00    -0.004 A 
ATOM      5  C6  UNL d   1       0.430  -2.344  -1.093  0.00  0.00     0.002 A 
ATOM      6  C7  UNL d   1       1.551  -1.549  -0.850  0.00  0.00     0.002 A 
ENDROOT
BRANCH   1   7
ATOM      7  C1  UNL d   1       2.620   0.573   0.001  0.00  0.00     0.055 C 
ATOM      8  C   UNL d   1       3.877  -0.023  -0.617  0.00  0.00     0.019 C 
ENDBRANCH   1   7
TORSDOF 1
ENDMDL
