MODEL 1
REMARK minimizedAffinity -4.92072582
REMARK minimizedRMSD -1
REMARK  1 active torsions:
REMARK  status: ('A' for Active; 'I' for Inactive)
REMARK    1  A    between atoms: C1_2  and  C2_3 
ROOT
ATOM      1  C2  UNL d   1       0.062  -0.509  -0.082  0.00  0.00    -0.077 A 
ATOM      2  C3  UNL d   1       0.787   0.682  -0.229  0.00  0.00     0.002 A 
ATOM      3  C4  UNL d   1       1.859   0.751  -1.121  0.00  0.00     0.002 A 
ATOM      4  C5  UNL d   1       2.213  -0.366  -1.875  0.00  0.00    -0.004 A 
ATOM      5  C6  UNL d   1       1.500  -1.555  -1.735  0.00  0.00     0.002 A 
ATOM      6  C7  UNL d   1       0.429  -1.626  -0.843  0.00  0.00     0.002 A 
ENDROOT
BRANCH   1   7
ATOM      7  C1  UNL d   1      -1.125  -0.570   0.843  0.00  0.00     0.055 C 
ATOM      8  C   UNL d   1      -1.500   0.813   1.355  0.00  0.00     0.019 C 
ENDBRANCH   1   7
TORSDOF 1
ENDMDL
