MODEL 1
REMARK minimizedAffinity 15.8525476
REMARK minimizedRMSD -1
REMARK  0 active torsions:
REMARK  status: ('A' for Active; 'I' for Inactive)
ROOT
ATOM      1  C   UNL d   1       0.866   5.053  -0.607  0.00  0.00     0.124 A 
ATOM      2  C1  UNL d   1      -0.251   4.234  -0.523  0.00  0.00     0.062 A 
ATOM      3  C2  UNL d   1      -0.325   3.249   0.458  0.00  0.00     0.162 A 
ATOM      4  C3  UNL d   1       0.723   3.078   1.364  0.00  0.00    -0.034 A 
ATOM      5  C4  UNL d   1       1.844   3.905   1.271  0.00  0.00     0.162 A 
ATOM      6  C5  UNL d   1       1.912   4.887   0.289  0.00  0.00     0.062 A 
ATOM      7  F   UNL d   1       2.993   5.678   0.209  0.00  0.00    -0.097 F 
ATOM      8  F1  UNL d   1       2.869   3.767   2.126  0.00  0.00    -0.096 F 
ATOM      9  I   UNL d   1       0.617   1.607   2.832  0.00  0.00    -0.060 I 
ATOM     10  F2  UNL d   1      -1.416   2.472   0.517  0.00  0.00    -0.096 F 
ATOM     11  F3  UNL d   1      -1.263   4.391  -1.388  0.00  0.00    -0.097 F 
ATOM     12  F4  UNL d   1       0.935   5.999  -1.553  0.00  0.00    -0.092 F 
ENDROOT
TORSDOF 0
ENDMDL
