MODEL 1
REMARK minimizedAffinity 14.8261404
REMARK minimizedRMSD -1
REMARK  0 active torsions:
REMARK  status: ('A' for Active; 'I' for Inactive)
ROOT
ATOM      1  C   UNL d   1      -0.101  -4.252  -1.368  0.00  0.00     0.124 A 
ATOM      2  C1  UNL d   1      -0.037  -3.826  -2.687  0.00  0.00     0.062 A 
ATOM      3  C2  UNL d   1       1.096  -4.087  -3.453  0.00  0.00     0.162 A 
ATOM      4  C3  UNL d   1       2.174  -4.779  -2.901  0.00  0.00    -0.034 A 
ATOM      5  C4  UNL d   1       2.102  -5.204  -1.573  0.00  0.00     0.162 A 
ATOM      6  C5  UNL d   1       0.968  -4.940  -0.812  0.00  0.00     0.062 A 
ATOM      7  F   UNL d   1       0.907  -5.353   0.463  0.00  0.00    -0.097 F 
ATOM      8  F1  UNL d   1       3.120  -5.872  -1.011  0.00  0.00    -0.096 F 
ATOM      9  I   UNL d   1       3.869  -5.172  -4.042  0.00  0.00    -0.060 I 
ATOM     10  F2  UNL d   1       1.131  -3.663  -4.725  0.00  0.00    -0.096 F 
ATOM     11  F3  UNL d   1      -1.068  -3.160  -3.226  0.00  0.00    -0.097 F 
ATOM     12  F4  UNL d   1      -1.192  -3.998  -0.633  0.00  0.00    -0.092 F 
ENDROOT
TORSDOF 0
ENDMDL
