MODEL 1
REMARK minimizedAffinity 19.4153423
REMARK minimizedRMSD -1
REMARK  0 active torsions:
REMARK  status: ('A' for Active; 'I' for Inactive)
ROOT
ATOM      1  C   UNL d   1       0.906   4.969  -0.335  0.00  0.00     0.124 A 
ATOM      2  C1  UNL d   1      -0.148   4.083  -0.164  0.00  0.00     0.062 A 
ATOM      3  C2  UNL d   1      -0.150   3.197   0.910  0.00  0.00     0.162 A 
ATOM      4  C3  UNL d   1       0.905   3.193   1.822  0.00  0.00    -0.034 A 
ATOM      5  C4  UNL d   1       1.962   4.087   1.643  0.00  0.00     0.162 A 
ATOM      6  C5  UNL d   1       1.960   4.971   0.568  0.00  0.00     0.062 A 
ATOM      7  F   UNL d   1       2.979   5.826   0.405  0.00  0.00    -0.097 F 
ATOM      8  F1  UNL d   1       2.993   4.110   2.501  0.00  0.00    -0.096 F 
ATOM      9  I   UNL d   1       0.905   1.870   3.428  0.00  0.00    -0.060 I 
ATOM     10  F2  UNL d   1      -1.182   2.351   1.050  0.00  0.00    -0.096 F 
ATOM     11  F3  UNL d   1      -1.167   4.079  -1.035  0.00  0.00    -0.097 F 
ATOM     12  F4  UNL d   1       0.907   5.820  -1.369  0.00  0.00    -0.092 F 
ENDROOT
TORSDOF 0
ENDMDL
