MODEL 1
REMARK minimizedAffinity 23.9521542
REMARK minimizedRMSD -1
REMARK  0 active torsions:
REMARK  status: ('A' for Active; 'I' for Inactive)
ROOT
ATOM      1  C   UNL d   1      -0.126   2.188   2.909  0.00  0.00     0.124 A 
ATOM      2  C1  UNL d   1       0.761   2.346   1.853  0.00  0.00     0.062 A 
ATOM      3  C2  UNL d   1       0.637   3.434   0.993  0.00  0.00     0.162 A 
ATOM      4  C3  UNL d   1      -0.376   4.372   1.186  0.00  0.00    -0.034 A 
ATOM      5  C4  UNL d   1      -1.264   4.206   2.250  0.00  0.00     0.162 A 
ATOM      6  C5  UNL d   1      -1.137   3.117   3.107  0.00  0.00     0.062 A 
ATOM      7  F   UNL d   1      -1.994   2.965   4.127  0.00  0.00    -0.097 F 
ATOM      8  F1  UNL d   1      -2.250   5.089   2.465  0.00  0.00    -0.096 F 
ATOM      9  I   UNL d   1      -0.564   6.000  -0.098  0.00  0.00    -0.060 I 
ATOM     10  F2  UNL d   1       1.508   3.562  -0.020  0.00  0.00    -0.096 F 
ATOM     11  F3  UNL d   1       1.738   1.449   1.659  0.00  0.00    -0.097 F 
ATOM     12  F4  UNL d   1      -0.005   1.140   3.734  0.00  0.00    -0.092 F 
ENDROOT
TORSDOF 0
ENDMDL
