MODEL 1
REMARK minimizedAffinity 17.5891991
REMARK minimizedRMSD -1
REMARK  0 active torsions:
REMARK  status: ('A' for Active; 'I' for Inactive)
ROOT
ATOM      1  C   UNL d   1       4.975  -2.590  -1.316  0.00  0.00     0.124 A 
ATOM      2  C1  UNL d   1       4.993  -3.666  -2.191  0.00  0.00     0.062 A 
ATOM      3  C2  UNL d   1       3.999  -4.639  -2.125  0.00  0.00     0.162 A 
ATOM      4  C3  UNL d   1       2.978  -4.539  -1.180  0.00  0.00    -0.034 A 
ATOM      5  C4  UNL d   1       2.968  -3.454  -0.302  0.00  0.00     0.162 A 
ATOM      6  C5  UNL d   1       3.963  -2.484  -0.372  0.00  0.00     0.062 A 
ATOM      7  F   UNL d   1       3.944  -1.445   0.475  0.00  0.00    -0.097 F 
ATOM      8  F1  UNL d   1       2.001  -3.327   0.620  0.00  0.00    -0.096 F 
ATOM      9  I   UNL d   1       1.491  -5.991  -1.078  0.00  0.00    -0.060 I 
ATOM     10  F2  UNL d   1       4.041  -5.668  -2.984  0.00  0.00    -0.096 F 
ATOM     11  F3  UNL d   1       5.970  -3.770  -3.104  0.00  0.00    -0.097 F 
ATOM     12  F4  UNL d   1       5.932  -1.656  -1.381  0.00  0.00    -0.092 F 
ENDROOT
TORSDOF 0
ENDMDL
