MODEL 1
REMARK minimizedAffinity 20.4644413
REMARK minimizedRMSD -1
REMARK  0 active torsions:
REMARK  status: ('A' for Active; 'I' for Inactive)
ROOT
ATOM      1  C   UNL d   1       1.254   2.809   3.294  0.00  0.00     0.124 A 
ATOM      2  C1  UNL d   1      -0.050   2.658   2.842  0.00  0.00     0.062 A 
ATOM      3  C2  UNL d   1      -0.451   3.253   1.650  0.00  0.00     0.162 A 
ATOM      4  C3  UNL d   1       0.454   4.004   0.899  0.00  0.00    -0.034 A 
ATOM      5  C4  UNL d   1       1.763   4.152   1.360  0.00  0.00     0.162 A 
ATOM      6  C5  UNL d   1       2.159   3.555   2.553  0.00  0.00     0.062 A 
ATOM      7  F   UNL d   1       3.419   3.702   2.987  0.00  0.00    -0.097 F 
ATOM      8  F1  UNL d   1       2.658   4.867   0.663  0.00  0.00    -0.096 F 
ATOM      9  I   UNL d   1      -0.142   4.895  -0.885  0.00  0.00    -0.060 I 
ATOM     10  F2  UNL d   1      -1.717   3.090   1.238  0.00  0.00    -0.096 F 
ATOM     11  F3  UNL d   1      -0.926   1.938   3.557  0.00  0.00    -0.097 F 
ATOM     12  F4  UNL d   1       1.637   2.236   4.442  0.00  0.00    -0.092 F 
ENDROOT
TORSDOF 0
ENDMDL
