MODEL 1
REMARK minimizedAffinity 27.6350498
REMARK minimizedRMSD -1
REMARK  0 active torsions:
REMARK  status: ('A' for Active; 'I' for Inactive)
ROOT
ATOM      1  C   UNL d   1       4.422  -2.520  -0.215  0.00  0.00     0.124 A 
ATOM      2  C1  UNL d   1       5.171  -2.439  -1.381  0.00  0.00     0.062 A 
ATOM      3  C2  UNL d   1       5.066  -3.431  -2.351  0.00  0.00     0.162 A 
ATOM      4  C3  UNL d   1       4.206  -4.513  -2.160  0.00  0.00    -0.034 A 
ATOM      5  C4  UNL d   1       3.456  -4.588  -0.985  0.00  0.00     0.162 A 
ATOM      6  C5  UNL d   1       3.565  -3.594  -0.019  0.00  0.00     0.062 A 
ATOM      7  F   UNL d   1       2.840  -3.674   1.107  0.00  0.00    -0.097 F 
ATOM      8  F1  UNL d   1       2.620  -5.615  -0.770  0.00  0.00    -0.096 F 
ATOM      9  I   UNL d   1       4.046  -5.999  -3.609  0.00  0.00    -0.060 I 
ATOM     10  F2  UNL d   1       5.802  -3.328  -3.467  0.00  0.00    -0.096 F 
ATOM     11  F3  UNL d   1       6.000  -1.403  -1.573  0.00  0.00    -0.097 F 
ATOM     12  F4  UNL d   1       4.526  -1.564   0.717  0.00  0.00    -0.092 F 
ENDROOT
TORSDOF 0
ENDMDL
