MODEL 1
REMARK minimizedAffinity 27.5087948
REMARK minimizedRMSD -1
REMARK  0 active torsions:
REMARK  status: ('A' for Active; 'I' for Inactive)
ROOT
ATOM      1  C   UNL d   1      -0.002   2.629   0.857  0.00  0.00     0.124 A 
ATOM      2  C1  UNL d   1      -0.589   2.550   2.112  0.00  0.00     0.062 A 
ATOM      3  C2  UNL d   1      -1.512   3.511   2.515  0.00  0.00     0.162 A 
ATOM      4  C3  UNL d   1      -1.854   4.560   1.662  0.00  0.00    -0.034 A 
ATOM      5  C4  UNL d   1      -1.258   4.634   0.401  0.00  0.00     0.162 A 
ATOM      6  C5  UNL d   1      -0.337   3.670   0.003  0.00  0.00     0.062 A 
ATOM      7  F   UNL d   1       0.229   3.748  -1.210  0.00  0.00    -0.097 F 
ATOM      8  F1  UNL d   1      -1.564   5.629  -0.445  0.00  0.00    -0.096 F 
ATOM      9  I   UNL d   1      -3.232   6.000   2.261  0.00  0.00    -0.060 I 
ATOM     10  F2  UNL d   1      -2.063   3.410   3.734  0.00  0.00    -0.096 F 
ATOM     11  F3  UNL d   1      -0.267   1.546   2.940  0.00  0.00    -0.097 F 
ATOM     12  F4  UNL d   1       0.885   1.703   0.472  0.00  0.00    -0.092 F 
ENDROOT
TORSDOF 0
ENDMDL
