MODEL 1
REMARK minimizedAffinity 17.9515553
REMARK minimizedRMSD -1
REMARK  0 active torsions:
REMARK  status: ('A' for Active; 'I' for Inactive)
ROOT
ATOM      1  C   UNL d   1      -0.746   5.732  -3.823  0.00  0.00     0.124 A 
ATOM      2  C1  UNL d   1       0.438   5.456  -3.152  0.00  0.00     0.062 A 
ATOM      3  C2  UNL d   1       0.422   5.179  -1.788  0.00  0.00     0.162 A 
ATOM      4  C3  UNL d   1      -0.783   5.174  -1.085  0.00  0.00    -0.034 A 
ATOM      5  C4  UNL d   1      -1.969   5.453  -1.766  0.00  0.00     0.162 A 
ATOM      6  C5  UNL d   1      -1.948   5.730  -3.129  0.00  0.00     0.062 A 
ATOM      7  F   UNL d   1      -3.093   5.996  -3.775  0.00  0.00    -0.097 F 
ATOM      8  F1  UNL d   1      -3.145   5.457  -1.121  0.00  0.00    -0.096 F 
ATOM      9  I   UNL d   1      -0.812   4.760   0.954  0.00  0.00    -0.060 I 
ATOM     10  F2  UNL d   1       1.581   4.916  -1.166  0.00  0.00    -0.096 F 
ATOM     11  F3  UNL d   1       1.601   5.458  -3.820  0.00  0.00    -0.097 F 
ATOM     12  F4  UNL d   1      -0.727   5.999  -5.135  0.00  0.00    -0.092 F 
ENDROOT
TORSDOF 0
ENDMDL
