MODEL 1
REMARK minimizedAffinity -6.31089735
REMARK minimizedRMSD -1
REMARK  1 active torsions:
REMARK  status: ('A' for Active; 'I' for Inactive)
REMARK    1  A    between atoms: C1_2  and  C2_3 
ROOT
ATOM      1  C2  UNL d   1      -0.149  -0.927   0.082  0.00  0.00    -0.076 A 
ATOM      2  C3  UNL d   1      -0.725  -1.648   1.142  0.00  0.00     0.004 A 
ATOM      3  C4  UNL d   1      -2.103  -1.852   1.205  0.00  0.00    -0.003 A 
ATOM      4  C5  UNL d   1      -2.926  -1.339   0.209  0.00  0.00     0.000 A 
ATOM      5  C6  UNL d   1      -2.370  -0.636  -0.859  0.00  0.00     0.000 A 
ATOM      6  C7  UNL d   1      -0.982  -0.435  -0.946  0.00  0.00    -0.073 A 
ATOM      7  C8  UNL d   1      -0.436   0.336  -2.117  0.00  0.00     0.078 C 
ENDROOT
BRANCH   1   8
ATOM      8  C1  UNL d   1       1.348  -0.713   0.080  0.00  0.00     0.053 C 
ATOM      9  C   UNL d   1       1.738   0.686   0.532  0.00  0.00     0.018 C 
ENDBRANCH   1   8
TORSDOF 1
ENDMDL
