MODEL 1
REMARK minimizedAffinity -5.1716485
REMARK minimizedRMSD -1
REMARK  1 active torsions:
REMARK  status: ('A' for Active; 'I' for Inactive)
REMARK    1  A    between atoms: C1_2  and  C2_3 
ROOT
ATOM      1  C2  UNL d   1      -1.514  -0.899  -0.054  0.00  0.00    -0.076 A 
ATOM      2  C3  UNL d   1      -0.424  -0.875   0.833  0.00  0.00     0.004 A 
ATOM      3  C4  UNL d   1       0.783  -0.280   0.471  0.00  0.00    -0.003 A 
ATOM      4  C5  UNL d   1       0.919   0.303  -0.784  0.00  0.00     0.000 A 
ATOM      5  C6  UNL d   1      -0.157   0.304  -1.671  0.00  0.00     0.000 A 
ATOM      6  C7  UNL d   1      -1.386  -0.277  -1.315  0.00  0.00    -0.073 A 
ATOM      7  C8  UNL d   1      -2.512  -0.253  -2.312  0.00  0.00     0.078 C 
ENDROOT
BRANCH   1   8
ATOM      8  C1  UNL d   1      -2.790  -1.583   0.383  0.00  0.00     0.053 C 
ATOM      9  C   UNL d   1      -2.568  -3.037   0.771  0.00  0.00     0.018 C 
ENDBRANCH   1   8
TORSDOF 1
ENDMDL
