MODEL 1
REMARK minimizedAffinity -4.36862278
REMARK minimizedRMSD -1
REMARK  1 active torsions:
REMARK  status: ('A' for Active; 'I' for Inactive)
REMARK    1  A    between atoms: C1_2  and  C2_3 
ROOT
ATOM      1  C2  UNL d   1      -1.200  -0.218  -0.395  0.00  0.00    -0.076 A 
ATOM      2  C3  UNL d   1      -2.508  -0.718  -0.520  0.00  0.00     0.004 A 
ATOM      3  C4  UNL d   1      -2.994  -1.681   0.362  0.00  0.00    -0.003 A 
ATOM      4  C5  UNL d   1      -2.181  -2.160   1.383  0.00  0.00     0.000 A 
ATOM      5  C6  UNL d   1      -0.887  -1.663   1.533  0.00  0.00     0.000 A 
ATOM      6  C7  UNL d   1      -0.387  -0.680   0.662  0.00  0.00    -0.073 A 
ATOM      7  C8  UNL d   1       1.019  -0.183   0.866  0.00  0.00     0.078 C 
ENDROOT
BRANCH   1   8
ATOM      8  C1  UNL d   1      -0.717   0.806  -1.397  0.00  0.00     0.053 C 
ATOM      9  C   UNL d   1      -0.282   0.175  -2.711  0.00  0.00     0.018 C 
ENDBRANCH   1   8
TORSDOF 1
ENDMDL
