MODEL 1
REMARK minimizedAffinity -4.98720837
REMARK minimizedRMSD -1
REMARK  1 active torsions:
REMARK  status: ('A' for Active; 'I' for Inactive)
REMARK    1  A    between atoms: C1_2  and  C2_3 
ROOT
ATOM      1  C2  UNL d   1       0.078   0.355  -0.398  0.00  0.00    -0.076 A 
ATOM      2  C3  UNL d   1      -0.315  -0.444   0.690  0.00  0.00     0.004 A 
ATOM      3  C4  UNL d   1      -1.581  -1.025   0.733  0.00  0.00    -0.003 A 
ATOM      4  C5  UNL d   1      -2.475  -0.817  -0.312  0.00  0.00     0.000 A 
ATOM      5  C6  UNL d   1      -2.095  -0.042  -1.407  0.00  0.00     0.000 A 
ATOM      6  C7  UNL d   1      -0.817   0.538  -1.474  0.00  0.00    -0.073 A 
ATOM      7  C8  UNL d   1      -0.463   1.370  -2.676  0.00  0.00     0.078 C 
ENDROOT
BRANCH   1   8
ATOM      8  C1  UNL d   1       1.454   0.982  -0.377  0.00  0.00     0.053 C 
ATOM      9  C   UNL d   1       1.732   1.734   0.916  0.00  0.00     0.018 C 
ENDBRANCH   1   8
TORSDOF 1
ENDMDL
