MODEL 1
REMARK minimizedAffinity -5.18268681
REMARK minimizedRMSD -1
REMARK  1 active torsions:
REMARK  status: ('A' for Active; 'I' for Inactive)
REMARK    1  A    between atoms: C1_2  and  C2_3 
ROOT
ATOM      1  C2  UNL d   1      -1.272  -0.746   0.325  0.00  0.00    -0.076 A 
ATOM      2  C3  UNL d   1      -0.498   0.086  -0.502  0.00  0.00     0.004 A 
ATOM      3  C4  UNL d   1       0.894   0.061  -0.444  0.00  0.00    -0.003 A 
ATOM      4  C5  UNL d   1       1.535  -0.798   0.442  0.00  0.00     0.000 A 
ATOM      5  C6  UNL d   1       0.783  -1.643   1.258  0.00  0.00     0.000 A 
ATOM      6  C7  UNL d   1      -0.621  -1.642   1.200  0.00  0.00    -0.073 A 
ATOM      7  C8  UNL d   1      -1.382  -2.570   2.107  0.00  0.00     0.078 C 
ENDROOT
BRANCH   1   8
ATOM      8  C1  UNL d   1      -2.779  -0.656   0.237  0.00  0.00     0.053 C 
ATOM      9  C   UNL d   1      -3.332  -1.334  -1.007  0.00  0.00     0.018 C 
ENDBRANCH   1   8
TORSDOF 1
ENDMDL
