MODEL 1
REMARK minimizedAffinity -3.9196887
REMARK minimizedRMSD -1
REMARK  1 active torsions:
REMARK  status: ('A' for Active; 'I' for Inactive)
REMARK    1  A    between atoms: C1_2  and  C2_3 
ROOT
ATOM      1  C2  UNL d   1      -0.487  -0.385   0.196  0.00  0.00    -0.076 A 
ATOM      2  C3  UNL d   1      -0.880  -1.382   1.106  0.00  0.00     0.004 A 
ATOM      3  C4  UNL d   1      -2.113  -2.020   0.982  0.00  0.00    -0.003 A 
ATOM      4  C5  UNL d   1      -2.973  -1.671  -0.053  0.00  0.00     0.000 A 
ATOM      5  C6  UNL d   1      -2.592  -0.697  -0.975  0.00  0.00     0.000 A 
ATOM      6  C7  UNL d   1      -1.345  -0.056  -0.875  0.00  0.00    -0.073 A 
ATOM      7  C8  UNL d   1      -0.988   0.992  -1.893  0.00  0.00     0.078 C 
ENDROOT
BRANCH   1   8
ATOM      8  C1  UNL d   1       0.851   0.291   0.396  0.00  0.00     0.053 C 
ATOM      9  C   UNL d   1       1.885  -0.635   1.015  0.00  0.00     0.018 C 
ENDBRANCH   1   8
TORSDOF 1
ENDMDL
