MODEL 1
REMARK minimizedAffinity -6.2103796
REMARK minimizedRMSD -1
REMARK  1 active torsions:
REMARK  status: ('A' for Active; 'I' for Inactive)
REMARK    1  A    between atoms: C1_2  and  C2_3 
ROOT
ATOM      1  C2  UNL d   1      -0.463  -0.636   0.415  0.00  0.00    -0.076 A 
ATOM      2  C3  UNL d   1      -0.731  -1.560   1.440  0.00  0.00     0.004 A 
ATOM      3  C4  UNL d   1      -2.008  -2.091   1.612  0.00  0.00    -0.003 A 
ATOM      4  C5  UNL d   1      -3.039  -1.706   0.762  0.00  0.00     0.000 A 
ATOM      5  C6  UNL d   1      -2.787  -0.803  -0.271  0.00  0.00     0.000 A 
ATOM      6  C7  UNL d   1      -1.501  -0.272  -0.469  0.00  0.00    -0.073 A 
ATOM      7  C8  UNL d   1      -1.288   0.702  -1.595  0.00  0.00     0.078 C 
ENDROOT
BRANCH   1   8
ATOM      8  C1  UNL d   1       0.935  -0.074   0.293  0.00  0.00     0.053 C 
ATOM      9  C   UNL d   1       1.102   1.240   1.041  0.00  0.00     0.018 C 
ENDBRANCH   1   8
TORSDOF 1
ENDMDL
