MODEL 1
REMARK minimizedAffinity -6.14311266
REMARK minimizedRMSD -1
REMARK  1 active torsions:
REMARK  status: ('A' for Active; 'I' for Inactive)
REMARK    1  A    between atoms: C1_2  and  C2_3 
ROOT
ATOM      1  C2  UNL d   1      -0.756  -0.652   0.596  0.00  0.00    -0.076 A 
ATOM      2  C3  UNL d   1      -0.549  -1.548   1.659  0.00  0.00     0.004 A 
ATOM      3  C4  UNL d   1      -1.543  -2.446   2.044  0.00  0.00    -0.003 A 
ATOM      4  C5  UNL d   1      -2.760  -2.463   1.373  0.00  0.00     0.000 A 
ATOM      5  C6  UNL d   1      -2.977  -1.592   0.305  0.00  0.00     0.000 A 
ATOM      6  C7  UNL d   1      -1.979  -0.692  -0.107  0.00  0.00    -0.073 A 
ATOM      7  C8  UNL d   1      -2.269   0.228  -1.261  0.00  0.00     0.078 C 
ENDROOT
BRANCH   1   8
ATOM      8  C1  UNL d   1       0.348   0.318   0.240  0.00  0.00     0.053 C 
ATOM      9  C   UNL d   1       1.728  -0.217   0.590  0.00  0.00     0.018 C 
ENDBRANCH   1   8
TORSDOF 1
ENDMDL
