MODEL 1
REMARK minimizedAffinity -3.24940801
REMARK minimizedRMSD -1
REMARK  1 active torsions:
REMARK  status: ('A' for Active; 'I' for Inactive)
REMARK    1  A    between atoms: C1_2  and  C2_3 
ROOT
ATOM      1  C2  UNL d   1      -0.075  -0.103  -0.065  0.00  0.00    -0.076 A 
ATOM      2  C3  UNL d   1      -0.876  -0.666   0.944  0.00  0.00     0.004 A 
ATOM      3  C4  UNL d   1      -2.251  -0.812   0.770  0.00  0.00    -0.003 A 
ATOM      4  C5  UNL d   1      -2.848  -0.398  -0.416  0.00  0.00     0.000 A 
ATOM      5  C6  UNL d   1      -2.066   0.146  -1.434  0.00  0.00     0.000 A 
ATOM      6  C7  UNL d   1      -0.676   0.286  -1.281  0.00  0.00    -0.073 A 
ATOM      7  C8  UNL d   1       0.118   0.885  -2.410  0.00  0.00     0.078 C 
ENDROOT
BRANCH   1   8
ATOM      8  C1  UNL d   1       1.407   0.056   0.191  0.00  0.00     0.053 C 
ATOM      9  C   UNL d   1       1.753   1.408   0.795  0.00  0.00     0.018 C 
ENDBRANCH   1   8
TORSDOF 1
ENDMDL
