MODEL 1
REMARK minimizedAffinity -6.09022999
REMARK minimizedRMSD -1
REMARK  1 active torsions:
REMARK  status: ('A' for Active; 'I' for Inactive)
REMARK    1  A    between atoms: C1_2  and  C2_3 
ROOT
ATOM      1  C2  UNL d   1      -0.276  -0.712   0.079  0.00  0.00    -0.076 A 
ATOM      2  C3  UNL d   1      -0.804  -1.617   1.016  0.00  0.00     0.004 A 
ATOM      3  C4  UNL d   1      -2.163  -1.930   1.023  0.00  0.00    -0.003 A 
ATOM      4  C5  UNL d   1      -3.014  -1.343   0.094  0.00  0.00     0.000 A 
ATOM      5  C6  UNL d   1      -2.504  -0.456  -0.854  0.00  0.00     0.000 A 
ATOM      6  C7  UNL d   1      -1.134  -0.142  -0.885  0.00  0.00    -0.073 A 
ATOM      7  C8  UNL d   1      -0.639   0.825  -1.925  0.00  0.00     0.078 C 
ENDROOT
BRANCH   1   8
ATOM      8  C1  UNL d   1       1.201  -0.390   0.137  0.00  0.00     0.053 C 
ATOM      9  C   UNL d   1       1.495   0.850   0.966  0.00  0.00     0.018 C 
ENDBRANCH   1   8
TORSDOF 1
ENDMDL
