MODEL 1
REMARK minimizedAffinity -6.04534101
REMARK minimizedRMSD -1
REMARK  1 active torsions:
REMARK  status: ('A' for Active; 'I' for Inactive)
REMARK    1  A    between atoms: C1_2  and  C2_3 
ROOT
ATOM      1  C2  UNL d   1      -0.792  -0.986   0.292  0.00  0.00    -0.076 A 
ATOM      2  C3  UNL d   1      -1.464  -0.249  -0.699  0.00  0.00     0.004 A 
ATOM      3  C4  UNL d   1      -2.797  -0.512  -1.008  0.00  0.00    -0.003 A 
ATOM      4  C5  UNL d   1      -3.481  -1.515  -0.330  0.00  0.00     0.000 A 
ATOM      5  C6  UNL d   1      -2.835  -2.244   0.668  0.00  0.00     0.000 A 
ATOM      6  C7  UNL d   1      -1.496  -1.981   1.003  0.00  0.00    -0.073 A 
ATOM      7  C8  UNL d   1      -0.847  -2.802   2.083  0.00  0.00     0.078 C 
ENDROOT
BRANCH   1   8
ATOM      8  C1  UNL d   1       0.663  -0.675   0.564  0.00  0.00     0.053 C 
ATOM      9  C   UNL d   1       1.186   0.464  -0.297  0.00  0.00     0.018 C 
ENDBRANCH   1   8
TORSDOF 1
ENDMDL
