MODEL 1
REMARK minimizedAffinity -5.24677992
REMARK minimizedRMSD -1
REMARK  1 active torsions:
REMARK  status: ('A' for Active; 'I' for Inactive)
REMARK    1  A    between atoms: C1_2  and  C2_3 
ROOT
ATOM      1  C2  UNL d   1      -0.485  -0.748   0.124  0.00  0.00    -0.076 A 
ATOM      2  C3  UNL d   1      -1.099  -0.074  -0.946  0.00  0.00     0.004 A 
ATOM      3  C4  UNL d   1      -2.429  -0.322  -1.281  0.00  0.00    -0.003 A 
ATOM      4  C5  UNL d   1      -3.167  -1.247  -0.551  0.00  0.00     0.000 A 
ATOM      5  C6  UNL d   1      -2.580  -1.911   0.525  0.00  0.00     0.000 A 
ATOM      6  C7  UNL d   1      -1.245  -1.661   0.886  0.00  0.00    -0.073 A 
ATOM      7  C8  UNL d   1      -0.660  -2.411   2.052  0.00  0.00     0.078 C 
ENDROOT
BRANCH   1   8
ATOM      8  C1  UNL d   1       0.968  -0.458   0.424  0.00  0.00     0.053 C 
ATOM      9  C   UNL d   1       1.214   1.006   0.755  0.00  0.00     0.018 C 
ENDBRANCH   1   8
TORSDOF 1
ENDMDL
