MODEL 1
REMARK minimizedAffinity -4.61431026
REMARK minimizedRMSD -1
REMARK  1 active torsions:
REMARK  status: ('A' for Active; 'I' for Inactive)
REMARK    1  A    between atoms: C1_2  and  C2_3 
ROOT
ATOM      1  C2  UNL d   1      -0.092  -0.410  -0.076  0.00  0.00    -0.076 A 
ATOM      2  C3  UNL d   1      -0.646  -1.203   0.944  0.00  0.00     0.004 A 
ATOM      3  C4  UNL d   1      -2.005  -1.508   0.958  0.00  0.00    -0.003 A 
ATOM      4  C5  UNL d   1      -2.834  -1.026  -0.049  0.00  0.00     0.000 A 
ATOM      5  C6  UNL d   1      -2.300  -0.252  -1.078  0.00  0.00     0.000 A 
ATOM      6  C7  UNL d   1      -0.928   0.051  -1.116  0.00  0.00    -0.073 A 
ATOM      7  C8  UNL d   1      -0.406   0.895  -2.247  0.00  0.00     0.078 C 
ENDROOT
BRANCH   1   8
ATOM      8  C1  UNL d   1       1.384  -0.089  -0.024  0.00  0.00     0.053 C 
ATOM      9  C   UNL d   1       1.737   0.846   1.122  0.00  0.00     0.018 C 
ENDBRANCH   1   8
TORSDOF 1
ENDMDL
