MODEL 1
REMARK minimizedAffinity 0.802755713
REMARK minimizedRMSD -1
REMARK  1 active torsions:
REMARK  status: ('A' for Active; 'I' for Inactive)
REMARK    1  A    between atoms: C3_4  and  O_7 
ROOT
ATOM      1  C   UNL d   1       0.207   0.328  -1.107  0.00  0.00    -0.033 A 
ATOM      2  C1  UNL d   1      -0.115  -0.680  -0.196  0.00  0.00     0.039 A 
ATOM      3  C2  UNL d   1       0.845  -1.139   0.708  0.00  0.00    -0.080 A 
ATOM      4  C3  UNL d   1       2.120  -0.582   0.692  0.00  0.00     0.150 A 
ATOM      5  C4  UNL d   1       2.447   0.426  -0.209  0.00  0.00    -0.007 A 
ATOM      6  C5  UNL d   1       1.487   0.882  -1.112  0.00  0.00     0.039 A 
ENDROOT
BRANCH   4   7
ATOM      7  O   UNL d   1       3.092  -1.001   1.552  0.00  0.00    -0.526 OA
ATOM      8  H5  UNL d   1       2.731  -1.721   2.097  0.00  0.00     0.418 HD
ENDBRANCH   4   7
TORSDOF 1
ENDMDL
