MODEL 1
REMARK minimizedAffinity -3.95372343
REMARK minimizedRMSD -1
REMARK  1 active torsions:
REMARK  status: ('A' for Active; 'I' for Inactive)
REMARK    1  A    between atoms: C3_4  and  O_7 
ROOT
ATOM      1  C   UNL d   1      -4.858   2.378  -1.478  0.00  0.00    -0.033 A 
ATOM      2  C1  UNL d   1      -3.595   2.911  -1.738  0.00  0.00     0.039 A 
ATOM      3  C2  UNL d   1      -3.216   4.127  -1.164  0.00  0.00    -0.080 A 
ATOM      4  C3  UNL d   1      -4.110   4.797  -0.333  0.00  0.00     0.150 A 
ATOM      5  C4  UNL d   1      -5.369   4.270  -0.067  0.00  0.00    -0.007 A 
ATOM      6  C5  UNL d   1      -5.745   3.056  -0.641  0.00  0.00     0.039 A 
ENDROOT
BRANCH   4   7
ATOM      7  O   UNL d   1      -3.787   5.989   0.245  0.00  0.00    -0.526 OA
ATOM      8  H5  UNL d   1      -2.898   6.244  -0.052  0.00  0.00     0.418 HD
ENDBRANCH   4   7
TORSDOF 1
ENDMDL
