MODEL 1
REMARK minimizedAffinity -0.0161488578
REMARK minimizedRMSD -1
REMARK  1 active torsions:
REMARK  status: ('A' for Active; 'I' for Inactive)
REMARK    1  A    between atoms: C3_4  and  O_7 
ROOT
ATOM      1  C   UNL d   1      -1.674  -4.871  -2.209  0.00  0.00    -0.033 A 
ATOM      2  C1  UNL d   1      -2.095  -5.416  -3.424  0.00  0.00     0.039 A 
ATOM      3  C2  UNL d   1      -1.471  -5.039  -4.614  0.00  0.00    -0.080 A 
ATOM      4  C3  UNL d   1      -0.427  -4.119  -4.577  0.00  0.00     0.150 A 
ATOM      5  C4  UNL d   1       0.001  -3.575  -3.370  0.00  0.00    -0.007 A 
ATOM      6  C5  UNL d   1      -0.624  -3.952  -2.182  0.00  0.00     0.039 A 
ENDROOT
BRANCH   4   7
ATOM      7  O   UNL d   1       0.210  -3.717  -5.713  0.00  0.00    -0.526 OA
ATOM      8  H5  UNL d   1      -0.211  -4.153  -6.472  0.00  0.00     0.418 HD
ENDBRANCH   4   7
TORSDOF 1
ENDMDL
