MODEL 1
REMARK minimizedAffinity -0.311556339
REMARK minimizedRMSD -1
REMARK  1 active torsions:
REMARK  status: ('A' for Active; 'I' for Inactive)
REMARK    1  A    between atoms: C3_4  and  O_7 
ROOT
ATOM      1  C   UNL d   1      -1.903   0.418   0.342  0.00  0.00    -0.033 A 
ATOM      2  C1  UNL d   1      -0.943  -0.233   1.119  0.00  0.00     0.039 A 
ATOM      3  C2  UNL d   1      -0.932  -0.064   2.505  0.00  0.00    -0.080 A 
ATOM      4  C3  UNL d   1      -1.886   0.756   3.101  0.00  0.00     0.150 A 
ATOM      5  C4  UNL d   1      -2.848   1.405   2.333  0.00  0.00    -0.007 A 
ATOM      6  C5  UNL d   1      -2.857   1.236   0.950  0.00  0.00     0.039 A 
ENDROOT
BRANCH   4   7
ATOM      7  O   UNL d   1      -1.912   0.955   4.449  0.00  0.00    -0.526 OA
ATOM      8  H5  UNL d   1      -1.171   0.468   4.847  0.00  0.00     0.418 HD
ENDBRANCH   4   7
TORSDOF 1
ENDMDL
