MODEL 1
REMARK minimizedAffinity 2.64044166
REMARK minimizedRMSD -1
REMARK  1 active torsions:
REMARK  status: ('A' for Active; 'I' for Inactive)
REMARK    1  A    between atoms: C3_4  and  O_7 
ROOT
ATOM      1  C   UNL d   1      -1.446   1.791   1.768  0.00  0.00    -0.033 A 
ATOM      2  C1  UNL d   1      -2.403   0.963   1.178  0.00  0.00     0.039 A 
ATOM      3  C2  UNL d   1      -2.823  -0.197   1.832  0.00  0.00    -0.080 A 
ATOM      4  C3  UNL d   1      -2.278  -0.518   3.073  0.00  0.00     0.150 A 
ATOM      5  C4  UNL d   1      -1.327   0.305   3.667  0.00  0.00    -0.007 A 
ATOM      6  C5  UNL d   1      -0.909   1.462   3.013  0.00  0.00     0.039 A 
ENDROOT
BRANCH   4   7
ATOM      7  O   UNL d   1      -2.653  -1.642   3.746  0.00  0.00    -0.526 OA
ATOM      8  H5  UNL d   1      -3.295  -2.127   3.202  0.00  0.00     0.418 HD
ENDBRANCH   4   7
TORSDOF 1
ENDMDL
