MODEL 1
REMARK minimizedAffinity 3.1582849
REMARK minimizedRMSD -1
REMARK  1 active torsions:
REMARK  status: ('A' for Active; 'I' for Inactive)
REMARK    1  A    between atoms: C3_4  and  O_7 
ROOT
ATOM      1  C   UNL d   1      -1.246   0.069   2.933  0.00  0.00    -0.033 A 
ATOM      2  C1  UNL d   1      -1.047   1.235   2.191  0.00  0.00     0.039 A 
ATOM      3  C2  UNL d   1      -1.916   1.558   1.148  0.00  0.00    -0.080 A 
ATOM      4  C3  UNL d   1      -2.980   0.709   0.857  0.00  0.00     0.150 A 
ATOM      5  C4  UNL d   1      -3.187  -0.453   1.594  0.00  0.00    -0.007 A 
ATOM      6  C5  UNL d   1      -2.317  -0.774   2.635  0.00  0.00     0.039 A 
ENDROOT
BRANCH   4   7
ATOM      7  O   UNL d   1      -3.852   0.980  -0.155  0.00  0.00    -0.526 OA
ATOM      8  H5  UNL d   1      -3.568   1.799  -0.595  0.00  0.00     0.418 HD
ENDBRANCH   4   7
TORSDOF 1
ENDMDL
