MODEL 1
REMARK minimizedAffinity -2.97147822
REMARK minimizedRMSD -1
REMARK  1 active torsions:
REMARK  status: ('A' for Active; 'I' for Inactive)
REMARK    1  A    between atoms: C3_4  and  O_7 
ROOT
ATOM      1  C   UNL d   1      -0.533  -3.042  -4.388  0.00  0.00    -0.033 A 
ATOM      2  C1  UNL d   1      -1.043  -4.233  -3.869  0.00  0.00     0.039 A 
ATOM      3  C2  UNL d   1      -0.210  -5.101  -3.160  0.00  0.00    -0.080 A 
ATOM      4  C3  UNL d   1       1.129  -4.766  -2.978  0.00  0.00     0.150 A 
ATOM      5  C4  UNL d   1       1.643  -3.579  -3.489  0.00  0.00    -0.007 A 
ATOM      6  C5  UNL d   1       0.809  -2.714  -4.197  0.00  0.00     0.039 A 
ENDROOT
BRANCH   4   7
ATOM      7  O   UNL d   1       1.982  -5.584  -2.298  0.00  0.00    -0.526 OA
ATOM      8  H5  UNL d   1       1.495  -6.381  -2.028  0.00  0.00     0.418 HD
ENDBRANCH   4   7
TORSDOF 1
ENDMDL
