MODEL 1
REMARK minimizedAffinity -0.44292891
REMARK minimizedRMSD -1
REMARK  1 active torsions:
REMARK  status: ('A' for Active; 'I' for Inactive)
REMARK    1  A    between atoms: C3_4  and  O_7 
ROOT
ATOM      1  C   UNL d   1       0.221   0.549   2.555  0.00  0.00    -0.033 A 
ATOM      2  C1  UNL d   1      -0.147  -0.284   1.497  0.00  0.00     0.039 A 
ATOM      3  C2  UNL d   1      -1.417  -0.171   0.927  0.00  0.00    -0.080 A 
ATOM      4  C3  UNL d   1      -2.307   0.777   1.423  0.00  0.00     0.150 A 
ATOM      5  C4  UNL d   1      -1.946   1.613   2.475  0.00  0.00    -0.007 A 
ATOM      6  C5  UNL d   1      -0.678   1.498   3.043  0.00  0.00     0.039 A 
ENDROOT
BRANCH   4   7
ATOM      7  O   UNL d   1      -3.559   0.921   0.902  0.00  0.00    -0.526 OA
ATOM      8  H5  UNL d   1      -3.678   0.258   0.202  0.00  0.00     0.418 HD
ENDBRANCH   4   7
TORSDOF 1
ENDMDL
