MODEL 1
REMARK minimizedAffinity -0.917865634
REMARK minimizedRMSD -1
REMARK  1 active torsions:
REMARK  status: ('A' for Active; 'I' for Inactive)
REMARK    1  A    between atoms: C3_4  and  O_7 
ROOT
ATOM      1  C   UNL d   1      -2.542   1.582   1.116  0.00  0.00    -0.033 A 
ATOM      2  C1  UNL d   1      -2.994   0.837   0.025  0.00  0.00     0.039 A 
ATOM      3  C2  UNL d   1      -2.761  -0.539  -0.027  0.00  0.00    -0.080 A 
ATOM      4  C3  UNL d   1      -2.077  -1.156   1.016  0.00  0.00     0.150 A 
ATOM      5  C4  UNL d   1      -1.627  -0.420   2.107  0.00  0.00    -0.007 A 
ATOM      6  C5  UNL d   1      -1.859   0.953   2.157  0.00  0.00     0.039 A 
ENDROOT
BRANCH   4   7
ATOM      7  O   UNL d   1      -1.822  -2.495   1.007  0.00  0.00    -0.526 OA
ATOM      8  H5  UNL d   1      -2.166  -2.869   0.178  0.00  0.00     0.418 HD
ENDBRANCH   4   7
TORSDOF 1
ENDMDL
