MODEL 1
REMARK minimizedAffinity -1.27509427
REMARK minimizedRMSD -1
REMARK  1 active torsions:
REMARK  status: ('A' for Active; 'I' for Inactive)
REMARK    1  A    between atoms: C3_4  and  O_7 
ROOT
ATOM      1  C   UNL d   1      -2.883   1.333   1.546  0.00  0.00    -0.033 A 
ATOM      2  C1  UNL d   1      -3.240   0.767   0.321  0.00  0.00     0.039 A 
ATOM      3  C2  UNL d   1      -2.937  -0.569   0.052  0.00  0.00    -0.080 A 
ATOM      4  C3  UNL d   1      -2.278  -1.327   1.016  0.00  0.00     0.150 A 
ATOM      5  C4  UNL d   1      -1.922  -0.771   2.240  0.00  0.00    -0.007 A 
ATOM      6  C5  UNL d   1      -2.225   0.564   2.506  0.00  0.00     0.039 A 
ENDROOT
BRANCH   4   7
ATOM      7  O   UNL d   1      -1.957  -2.634   0.798  0.00  0.00    -0.526 OA
ATOM      8  H5  UNL d   1      -2.238  -2.874  -0.101  0.00  0.00     0.418 HD
ENDBRANCH   4   7
TORSDOF 1
ENDMDL
