MODEL 1
REMARK minimizedAffinity 3.9307797
REMARK minimizedRMSD -1
REMARK  1 active torsions:
REMARK  status: ('A' for Active; 'I' for Inactive)
REMARK    1  A    between atoms: C3_4  and  O_7 
ROOT
ATOM      1  C   UNL d   1      -2.811  -1.702   3.051  0.00  0.00    -0.033 A 
ATOM      2  C1  UNL d   1      -1.582  -1.224   2.592  0.00  0.00     0.039 A 
ATOM      3  C2  UNL d   1      -1.434   0.125   2.264  0.00  0.00    -0.080 A 
ATOM      4  C3  UNL d   1      -2.521   0.984   2.401  0.00  0.00     0.150 A 
ATOM      5  C4  UNL d   1      -3.747   0.515   2.861  0.00  0.00    -0.007 A 
ATOM      6  C5  UNL d   1      -3.893  -0.832   3.187  0.00  0.00     0.039 A 
ENDROOT
BRANCH   4   7
ATOM      7  O   UNL d   1      -2.427   2.308   2.089  0.00  0.00    -0.526 OA
ATOM      8  H5  UNL d   1      -1.530   2.483   1.757  0.00  0.00     0.418 HD
ENDBRANCH   4   7
TORSDOF 1
ENDMDL
