MODEL 1
REMARK minimizedAffinity 8.11465836
REMARK minimizedRMSD -1
REMARK  0 active torsions:
REMARK  status: ('A' for Active; 'I' for Inactive)
ROOT
ATOM      1  C   UNL d   1       2.289  -3.552   1.171  0.00  0.00     0.077 C 
ATOM      2  C1  UNL d   1       1.928  -2.508   2.186  0.00  0.00    -0.074 A 
ATOM      3  C2  UNL d   1       1.697  -1.183   1.802  0.00  0.00    -0.005 A 
ATOM      4  C3  UNL d   1       1.352  -0.225   2.756  0.00  0.00     0.006 A 
ATOM      5  C4  UNL d   1       1.235  -0.582   4.100  0.00  0.00    -0.005 A 
ATOM      6  C5  UNL d   1       1.461  -1.902   4.502  0.00  0.00    -0.074 A 
ATOM      7  C6  UNL d   1       1.330  -2.304   5.941  0.00  0.00     0.077 C 
ATOM      8  C7  UNL d   1       1.801  -2.860   3.537  0.00  0.00    -0.001 A 
ENDROOT
TORSDOF 0
ENDMDL
