MODEL 1
REMARK minimizedAffinity 8.64661407
REMARK minimizedRMSD -1
REMARK  0 active torsions:
REMARK  status: ('A' for Active; 'I' for Inactive)
ROOT
ATOM      1  C   UNL d   1       3.141  -2.863   0.824  0.00  0.00     0.077 C 
ATOM      2  C1  UNL d   1       2.532  -2.171   2.007  0.00  0.00    -0.074 A 
ATOM      3  C2  UNL d   1       1.966  -0.898   1.883  0.00  0.00    -0.005 A 
ATOM      4  C3  UNL d   1       1.395  -0.271   2.991  0.00  0.00     0.006 A 
ATOM      5  C4  UNL d   1       1.385  -0.910   4.232  0.00  0.00    -0.005 A 
ATOM      6  C5  UNL d   1       1.946  -2.183   4.375  0.00  0.00    -0.074 A 
ATOM      7  C6  UNL d   1       1.934  -2.887   5.699  0.00  0.00     0.077 C 
ATOM      8  C7  UNL d   1       2.511  -2.809   3.255  0.00  0.00    -0.001 A 
ENDROOT
TORSDOF 0
ENDMDL
