MODEL 1
REMARK minimizedAffinity 11.5320606
REMARK minimizedRMSD -1
REMARK  0 active torsions:
REMARK  status: ('A' for Active; 'I' for Inactive)
ROOT
ATOM      1  C   UNL d   1       5.972  -3.525   0.842  0.00  0.00     0.077 C 
ATOM      2  C1  UNL d   1       5.277  -4.165  -0.323  0.00  0.00    -0.074 A 
ATOM      3  C2  UNL d   1       6.000  -4.855  -1.301  0.00  0.00    -0.005 A 
ATOM      4  C3  UNL d   1       5.339  -5.454  -2.374  0.00  0.00     0.006 A 
ATOM      5  C4  UNL d   1       3.950  -5.368  -2.479  0.00  0.00    -0.005 A 
ATOM      6  C5  UNL d   1       3.210  -4.683  -1.510  0.00  0.00    -0.074 A 
ATOM      7  C6  UNL d   1       1.716  -4.591  -1.603  0.00  0.00     0.077 C 
ATOM      8  C7  UNL d   1       3.881  -4.091  -0.431  0.00  0.00    -0.001 A 
ENDROOT
TORSDOF 0
ENDMDL
