MODEL 1
REMARK minimizedAffinity 10.9681654
REMARK minimizedRMSD -1
REMARK  0 active torsions:
REMARK  status: ('A' for Active; 'I' for Inactive)
ROOT
ATOM      1  C   UNL d   1       1.139   1.791   0.299  0.00  0.00     0.077 C 
ATOM      2  C1  UNL d   1       1.603   0.422   0.699  0.00  0.00    -0.074 A 
ATOM      3  C2  UNL d   1       2.565  -0.259  -0.053  0.00  0.00    -0.005 A 
ATOM      4  C3  UNL d   1       2.993  -1.528   0.337  0.00  0.00     0.006 A 
ATOM      5  C4  UNL d   1       2.465  -2.127   1.481  0.00  0.00    -0.005 A 
ATOM      6  C5  UNL d   1       1.503  -1.461   2.246  0.00  0.00    -0.074 A 
ATOM      7  C6  UNL d   1       0.932  -2.087   3.484  0.00  0.00     0.077 C 
ATOM      8  C7  UNL d   1       1.082  -0.183   1.852  0.00  0.00    -0.001 A 
ENDROOT
TORSDOF 0
ENDMDL
