MODEL 1
REMARK minimizedAffinity 16.5849972
REMARK minimizedRMSD -1
REMARK  0 active torsions:
REMARK  status: ('A' for Active; 'I' for Inactive)
ROOT
ATOM      1  C   UNL d   1       1.121   0.513   0.962  0.00  0.00     0.077 C 
ATOM      2  C1  UNL d   1       1.458  -0.718   1.749  0.00  0.00    -0.074 A 
ATOM      3  C2  UNL d   1       2.071  -1.816   1.138  0.00  0.00    -0.005 A 
ATOM      4  C3  UNL d   1       2.387  -2.951   1.886  0.00  0.00     0.006 A 
ATOM      5  C4  UNL d   1       2.094  -2.998   3.249  0.00  0.00    -0.005 A 
ATOM      6  C5  UNL d   1       1.482  -1.909   3.878  0.00  0.00    -0.074 A 
ATOM      7  C6  UNL d   1       1.169  -1.940   5.344  0.00  0.00     0.077 C 
ATOM      8  C7  UNL d   1       1.174  -0.770   3.121  0.00  0.00    -0.001 A 
ENDROOT
TORSDOF 0
ENDMDL
