MODEL 1
REMARK minimizedAffinity 17.9943104
REMARK minimizedRMSD -1
REMARK  0 active torsions:
REMARK  status: ('A' for Active; 'I' for Inactive)
ROOT
ATOM      1  C   UNL d   1       1.493  -2.616   6.000  0.00  0.00     0.077 C 
ATOM      2  C1  UNL d   1       1.658  -2.569   4.510  0.00  0.00    -0.074 A 
ATOM      3  C2  UNL d   1       2.186  -3.658   3.810  0.00  0.00    -0.005 A 
ATOM      4  C3  UNL d   1       2.324  -3.603   2.423  0.00  0.00     0.006 A 
ATOM      5  C4  UNL d   1       1.936  -2.460   1.723  0.00  0.00    -0.005 A 
ATOM      6  C5  UNL d   1       1.405  -1.361   2.406  0.00  0.00    -0.074 A 
ATOM      7  C6  UNL d   1       0.973  -0.129   1.668  0.00  0.00     0.077 C 
ATOM      8  C7  UNL d   1       1.263  -1.427   3.799  0.00  0.00    -0.001 A 
ENDROOT
TORSDOF 0
ENDMDL
