MODEL 1
REMARK minimizedAffinity 1.88237965
REMARK minimizedRMSD -1
REMARK  0 active torsions:
REMARK  status: ('A' for Active; 'I' for Inactive)
ROOT
ATOM      1  C   UNL d   1      -3.666   1.086  -2.885  0.00  0.00     0.077 C 
ATOM      2  C1  UNL d   1      -3.871   2.549  -3.143  0.00  0.00    -0.074 A 
ATOM      3  C2  UNL d   1      -4.468   3.371  -2.182  0.00  0.00    -0.005 A 
ATOM      4  C3  UNL d   1      -4.644   4.732  -2.433  0.00  0.00     0.006 A 
ATOM      5  C4  UNL d   1      -4.226   5.284  -3.644  0.00  0.00    -0.005 A 
ATOM      6  C5  UNL d   1      -3.626   4.477  -4.617  0.00  0.00    -0.074 A 
ATOM      7  C6  UNL d   1      -3.162   5.055  -5.920  0.00  0.00     0.077 C 
ATOM      8  C7  UNL d   1      -3.446   3.112  -4.355  0.00  0.00    -0.001 A 
ENDROOT
TORSDOF 0
ENDMDL
