MODEL 1
REMARK minimizedAffinity 0.541062295
REMARK minimizedRMSD -1
REMARK  0 active torsions:
REMARK  status: ('A' for Active; 'I' for Inactive)
ROOT
ATOM      1  C   UNL d   1      -1.171  -0.224   3.564  0.00  0.00     0.172 C 
ATOM      2  N   UNL d   1      -0.861  -0.071   2.162  0.00  0.00    -0.070 N 
ATOM      3  C1  UNL d   1       0.393   0.079   1.633  0.00  0.00    -0.004 A 
ATOM      4  C2  UNL d   1       0.264   0.193   0.266  0.00  0.00    -0.047 A 
ATOM      5  C3  UNL d   1      -1.116   0.109  -0.038  0.00  0.00    -0.047 A 
ATOM      6  C4  UNL d   1      -1.789  -0.054   1.154  0.00  0.00    -0.004 A 
ENDROOT
TORSDOF 0
ENDMDL
