MODEL 1
REMARK minimizedAffinity 4.23950243
REMARK minimizedRMSD -1
REMARK  0 active torsions:
REMARK  status: ('A' for Active; 'I' for Inactive)
ROOT
ATOM      1  C   UNL d   1      -1.699   0.587   2.264  0.00  0.00     0.172 C 
ATOM      2  N   UNL d   1      -1.085   0.133   1.039  0.00  0.00    -0.070 N 
ATOM      3  C1  UNL d   1      -1.746  -0.166  -0.123  0.00  0.00    -0.004 A 
ATOM      4  C2  UNL d   1      -0.808  -0.560  -1.052  0.00  0.00    -0.047 A 
ATOM      5  C3  UNL d   1       0.461  -0.496  -0.428  0.00  0.00    -0.047 A 
ATOM      6  C4  UNL d   1       0.260  -0.064   0.866  0.00  0.00    -0.004 A 
ENDROOT
TORSDOF 0
ENDMDL
