MODEL 1
REMARK minimizedAffinity 1.11745501
REMARK minimizedRMSD -1
REMARK  0 active torsions:
REMARK  status: ('A' for Active; 'I' for Inactive)
ROOT
ATOM      1  C   UNL d   1      -1.414   1.706   2.254  0.00  0.00     0.172 C 
ATOM      2  N   UNL d   1      -1.724   0.400   2.787  0.00  0.00    -0.070 N 
ATOM      3  C1  UNL d   1      -0.915  -0.341   3.606  0.00  0.00    -0.004 A 
ATOM      4  C2  UNL d   1      -1.569  -1.520   3.891  0.00  0.00    -0.047 A 
ATOM      5  C3  UNL d   1      -2.814  -1.487   3.220  0.00  0.00    -0.047 A 
ATOM      6  C4  UNL d   1      -2.884  -0.287   2.544  0.00  0.00    -0.004 A 
ENDROOT
TORSDOF 0
ENDMDL
