MODEL 1
REMARK minimizedAffinity -3.7624681
REMARK minimizedRMSD -1
REMARK  0 active torsions:
REMARK  status: ('A' for Active; 'I' for Inactive)
ROOT
ATOM      1  C   UNL d   1      -0.008   1.885   3.570  0.00  0.00     0.172 C 
ATOM      2  N   UNL d   1      -0.236   1.128   2.361  0.00  0.00    -0.070 N 
ATOM      3  C1  UNL d   1      -1.183   0.153   2.196  0.00  0.00    -0.004 A 
ATOM      4  C2  UNL d   1      -1.079  -0.323   0.908  0.00  0.00    -0.047 A 
ATOM      5  C3  UNL d   1      -0.032   0.389   0.276  0.00  0.00    -0.047 A 
ATOM      6  C4  UNL d   1       0.473   1.281   1.199  0.00  0.00    -0.004 A 
ENDROOT
TORSDOF 0
ENDMDL
