MODEL 1
REMARK minimizedAffinity -1.51136303
REMARK minimizedRMSD -1
REMARK  0 active torsions:
REMARK  status: ('A' for Active; 'I' for Inactive)
ROOT
ATOM      1  C   UNL d   1       1.777  -0.713  -0.974  0.00  0.00     0.077 C 
ATOM      2  C1  UNL d   1       1.038  -0.824   0.326  0.00  0.00    -0.074 A 
ATOM      3  C2  UNL d   1       1.673  -1.306   1.475  0.00  0.00    -0.005 A 
ATOM      4  C3  UNL d   1       0.976  -1.394   2.680  0.00  0.00     0.006 A 
ATOM      5  C4  UNL d   1      -0.362  -1.003   2.748  0.00  0.00    -0.005 A 
ATOM      6  C5  UNL d   1      -1.014  -0.518   1.609  0.00  0.00    -0.074 A 
ATOM      7  C6  UNL d   1      -2.448  -0.084   1.667  0.00  0.00     0.077 C 
ATOM      8  C7  UNL d   1      -0.304  -0.425   0.404  0.00  0.00    -0.001 A 
ENDROOT
TORSDOF 0
ENDMDL
