MODEL 1
REMARK minimizedAffinity -3.15502667
REMARK minimizedRMSD -1
REMARK  0 active torsions:
REMARK  status: ('A' for Active; 'I' for Inactive)
ROOT
ATOM      1  C   UNL d   1      -1.890   3.832  -3.012  0.00  0.00     0.077 C 
ATOM      2  C1  UNL d   1      -1.228   2.532  -2.667  0.00  0.00    -0.074 A 
ATOM      3  C2  UNL d   1      -0.366   1.902  -3.570  0.00  0.00    -0.005 A 
ATOM      4  C3  UNL d   1       0.250   0.698  -3.231  0.00  0.00     0.006 A 
ATOM      5  C4  UNL d   1       0.011   0.112  -1.987  0.00  0.00    -0.005 A 
ATOM      6  C5  UNL d   1      -0.848   0.727  -1.071  0.00  0.00    -0.074 A 
ATOM      7  C6  UNL d   1      -1.108   0.116   0.274  0.00  0.00     0.077 C 
ATOM      8  C7  UNL d   1      -1.457   1.941  -1.416  0.00  0.00    -0.001 A 
ENDROOT
TORSDOF 0
ENDMDL
