MODEL 1
REMARK minimizedAffinity -0.253926277
REMARK minimizedRMSD -1
REMARK  0 active torsions:
REMARK  status: ('A' for Active; 'I' for Inactive)
ROOT
ATOM      1  C   UNL d   1      -0.003   0.618  -1.821  0.00  0.00     0.077 C 
ATOM      2  C1  UNL d   1      -0.447   0.217  -0.445  0.00  0.00    -0.074 A 
ATOM      3  C2  UNL d   1      -1.581   0.789   0.139  0.00  0.00    -0.005 A 
ATOM      4  C3  UNL d   1      -1.987   0.399   1.416  0.00  0.00     0.006 A 
ATOM      5  C4  UNL d   1      -1.264  -0.565   2.119  0.00  0.00    -0.005 A 
ATOM      6  C5  UNL d   1      -0.128  -1.148   1.550  0.00  0.00    -0.074 A 
ATOM      7  C6  UNL d   1       0.655  -2.193   2.288  0.00  0.00     0.077 C 
ATOM      8  C7  UNL d   1       0.270  -0.757   0.264  0.00  0.00    -0.001 A 
ENDROOT
TORSDOF 0
ENDMDL
