MODEL 1
REMARK minimizedAffinity -4.81026649
REMARK minimizedRMSD -1
REMARK  0 active torsions:
REMARK  status: ('A' for Active; 'I' for Inactive)
ROOT
ATOM      1  C   UNL d   1      -2.277   0.428   2.280  0.00  0.00     0.077 C 
ATOM      2  C1  UNL d   1      -1.031  -0.048   1.594  0.00  0.00    -0.074 A 
ATOM      3  C2  UNL d   1       0.050  -0.543   2.330  0.00  0.00    -0.005 A 
ATOM      4  C3  UNL d   1       1.199  -0.991   1.678  0.00  0.00     0.006 A 
ATOM      5  C4  UNL d   1       1.278  -0.949   0.285  0.00  0.00    -0.005 A 
ATOM      6  C5  UNL d   1       0.206  -0.459  -0.468  0.00  0.00    -0.074 A 
ATOM      7  C6  UNL d   1       0.270  -0.416  -1.965  0.00  0.00     0.077 C 
ATOM      8  C7  UNL d   1      -0.948  -0.017   0.195  0.00  0.00    -0.001 A 
ENDROOT
TORSDOF 0
ENDMDL
