MODEL 1
REMARK minimizedAffinity -3.12743282
REMARK minimizedRMSD -1
REMARK  0 active torsions:
REMARK  status: ('A' for Active; 'I' for Inactive)
ROOT
ATOM      1  C   UNL d   1      -3.473   2.872  -2.145  0.00  0.00     0.077 C 
ATOM      2  C1  UNL d   1      -2.004   2.613  -2.299  0.00  0.00    -0.074 A 
ATOM      3  C2  UNL d   1      -1.172   3.544  -2.930  0.00  0.00    -0.005 A 
ATOM      4  C3  UNL d   1       0.194   3.294  -3.058  0.00  0.00     0.006 A 
ATOM      5  C4  UNL d   1       0.742   2.113  -2.557  0.00  0.00    -0.005 A 
ATOM      6  C5  UNL d   1      -0.073   1.171  -1.922  0.00  0.00    -0.074 A 
ATOM      7  C6  UNL d   1       0.501  -0.100  -1.369  0.00  0.00     0.077 C 
ATOM      8  C7  UNL d   1      -1.444   1.432  -1.791  0.00  0.00    -0.001 A 
ENDROOT
TORSDOF 0
ENDMDL
