MODEL 1
REMARK minimizedAffinity -3.06001878
REMARK minimizedRMSD -1
REMARK  0 active torsions:
REMARK  status: ('A' for Active; 'I' for Inactive)
ROOT
ATOM      1  C   UNL d   1      -2.007   0.154   1.112  0.00  0.00     0.077 C 
ATOM      2  C1  UNL d   1      -0.691  -0.440   0.704  0.00  0.00    -0.074 A 
ATOM      3  C2  UNL d   1      -0.170  -0.222  -0.575  0.00  0.00    -0.005 A 
ATOM      4  C3  UNL d   1       1.059  -0.773  -0.937  0.00  0.00     0.006 A 
ATOM      5  C4  UNL d   1       1.778  -1.547  -0.025  0.00  0.00    -0.005 A 
ATOM      6  C5  UNL d   1       1.273  -1.776   1.259  0.00  0.00    -0.074 A 
ATOM      7  C6  UNL d   1       2.037  -2.597   2.255  0.00  0.00     0.077 C 
ATOM      8  C7  UNL d   1       0.040  -1.213   1.618  0.00  0.00    -0.001 A 
ENDROOT
TORSDOF 0
ENDMDL
