MODEL 1
REMARK minimizedAffinity -1.3986603
REMARK minimizedRMSD -1
REMARK  0 active torsions:
REMARK  status: ('A' for Active; 'I' for Inactive)
ROOT
ATOM      1  C   UNL d   1      -3.865   3.623  -2.363  0.00  0.00     0.077 C 
ATOM      2  C1  UNL d   1      -2.470   3.080  -2.449  0.00  0.00    -0.074 A 
ATOM      3  C2  UNL d   1      -1.429   3.849  -2.980  0.00  0.00    -0.005 A 
ATOM      4  C3  UNL d   1      -0.135   3.333  -3.044  0.00  0.00     0.006 A 
ATOM      5  C4  UNL d   1       0.132   2.045  -2.578  0.00  0.00    -0.005 A 
ATOM      6  C5  UNL d   1      -0.895   1.262  -2.043  0.00  0.00    -0.074 A 
ATOM      7  C6  UNL d   1      -0.623  -0.121  -1.528  0.00  0.00     0.077 C 
ATOM      8  C7  UNL d   1      -2.192   1.790  -1.975  0.00  0.00    -0.001 A 
ENDROOT
TORSDOF 0
ENDMDL
