MODEL 1
REMARK minimizedAffinity -0.574254096
REMARK minimizedRMSD -1
REMARK  0 active torsions:
REMARK  status: ('A' for Active; 'I' for Inactive)
ROOT
ATOM      1  C   UNL d   1       2.282  -1.662  -0.377  0.00  0.00     0.077 C 
ATOM      2  C1  UNL d   1       1.260  -1.296   0.658  0.00  0.00    -0.074 A 
ATOM      3  C2  UNL d   1       1.258  -1.911   1.914  0.00  0.00    -0.005 A 
ATOM      4  C3  UNL d   1       0.307  -1.554   2.870  0.00  0.00     0.006 A 
ATOM      5  C4  UNL d   1      -0.649  -0.580   2.580  0.00  0.00    -0.005 A 
ATOM      6  C5  UNL d   1      -0.662   0.046   1.330  0.00  0.00    -0.074 A 
ATOM      7  C6  UNL d   1      -1.677   1.102   1.005  0.00  0.00     0.077 C 
ATOM      8  C7  UNL d   1       0.301  -0.313   0.377  0.00  0.00    -0.001 A 
ENDROOT
TORSDOF 0
ENDMDL
