MODEL 1
REMARK minimizedAffinity -2.55886483
REMARK minimizedRMSD -1
REMARK  0 active torsions:
REMARK  status: ('A' for Active; 'I' for Inactive)
ROOT
ATOM      1  C1  DEN d   1      -1.871   1.188   0.370  0.00  0.00     0.130 A 
ATOM      2  C2  DEN d   1      -2.021   2.405  -0.422  0.00  0.00    -0.031 A 
ATOM      3  C3  DEN d   1      -1.171   2.276  -1.623  0.00  0.00     0.027 A 
ATOM      4  C4  DEN d   1       0.350   0.317  -2.331  0.00  0.00     0.027 A 
ATOM      5  C5  DEN d   1       0.813  -0.931  -1.974  0.00  0.00    -0.003 A 
ATOM      6  C6  DEN d   1       0.443  -1.540  -0.804  0.00  0.00     0.001 A 
ATOM      7  C7  DEN d   1      -0.450  -0.921   0.030  0.00  0.00     0.017 A 
ATOM      8  C8  DEN d   1      -0.916   0.340  -0.319  0.00  0.00    -0.094 A 
ATOM      9  C9  DEN d   1      -0.540   0.933  -1.512  0.00  0.00    -0.072 A 
ENDROOT
TORSDOF 0
ENDMDL
