MODEL 1
REMARK minimizedAffinity -2.45347929
REMARK minimizedRMSD -1
REMARK  0 active torsions:
REMARK  status: ('A' for Active; 'I' for Inactive)
ROOT
ATOM      1  C1  DEN d   1       0.205   0.013   1.424  0.00  0.00     0.130 A 
ATOM      2  C2  DEN d   1      -0.606   1.110   1.944  0.00  0.00    -0.031 A 
ATOM      3  C3  DEN d   1      -0.942   2.004   0.817  0.00  0.00     0.027 A 
ATOM      4  C4  DEN d   1      -0.292   1.794  -1.670  0.00  0.00     0.027 A 
ATOM      5  C5  DEN d   1       0.399   1.036  -2.589  0.00  0.00    -0.003 A 
ATOM      6  C6  DEN d   1       1.096  -0.088  -2.233  0.00  0.00     0.001 A 
ATOM      7  C7  DEN d   1       1.081  -0.511  -0.930  0.00  0.00     0.017 A 
ATOM      8  C8  DEN d   1       0.393   0.251   0.004  0.00  0.00    -0.094 A 
ATOM      9  C9  DEN d   1      -0.316   1.378  -0.378  0.00  0.00    -0.072 A 
ENDROOT
TORSDOF 0
ENDMDL
