MODEL 1
REMARK minimizedAffinity -2.91963267
REMARK minimizedRMSD -1
REMARK  0 active torsions:
REMARK  status: ('A' for Active; 'I' for Inactive)
ROOT
ATOM      1  C1  DEN d   1       0.293   0.367  -1.465  0.00  0.00     0.130 A 
ATOM      2  C2  DEN d   1       0.659  -0.773  -0.628  0.00  0.00    -0.031 A 
ATOM      3  C3  DEN d   1       0.373  -0.418   0.776  0.00  0.00     0.027 A 
ATOM      4  C4  DEN d   1      -0.601   1.771   1.731  0.00  0.00     0.027 A 
ATOM      5  C5  DEN d   1      -1.056   3.031   1.411  0.00  0.00    -0.003 A 
ATOM      6  C6  DEN d   1      -1.062   3.500   0.124  0.00  0.00     0.001 A 
ATOM      7  C7  DEN d   1      -0.646   2.686  -0.897  0.00  0.00     0.017 A 
ATOM      8  C8  DEN d   1      -0.178   1.417  -0.581  0.00  0.00    -0.094 A 
ATOM      9  C9  DEN d   1      -0.191   0.957   0.725  0.00  0.00    -0.072 A 
ENDROOT
TORSDOF 0
ENDMDL
