MODEL 1
REMARK minimizedAffinity -2.48879623
REMARK minimizedRMSD -1
REMARK  0 active torsions:
REMARK  status: ('A' for Active; 'I' for Inactive)
ROOT
ATOM      1  C1  DEN d   1       1.006  -0.611   0.148  0.00  0.00     0.130 A 
ATOM      2  C2  DEN d   1       0.921  -0.759  -1.302  0.00  0.00    -0.031 A 
ATOM      3  C3  DEN d   1       0.041   0.310  -1.819  0.00  0.00     0.027 A 
ATOM      4  C4  DEN d   1      -1.186   2.170  -0.521  0.00  0.00     0.027 A 
ATOM      5  C5  DEN d   1      -1.427   2.695   0.729  0.00  0.00    -0.003 A 
ATOM      6  C6  DEN d   1      -0.906   2.139   1.868  0.00  0.00     0.001 A 
ATOM      7  C7  DEN d   1      -0.080   1.050   1.774  0.00  0.00     0.017 A 
ATOM      8  C8  DEN d   1       0.162   0.511   0.517  0.00  0.00    -0.094 A 
ATOM      9  C9  DEN d   1      -0.364   1.095  -0.622  0.00  0.00    -0.072 A 
ENDROOT
TORSDOF 0
ENDMDL
