MODEL 1
REMARK minimizedAffinity -4.77299309
REMARK minimizedRMSD -1
REMARK  0 active torsions:
REMARK  status: ('A' for Active; 'I' for Inactive)
ROOT
ATOM      1  C   UNL d   1       0.824   3.075   0.149  0.00  0.00     0.078 C 
ATOM      2  C1  UNL d   1       0.266   1.685   0.220  0.00  0.00    -0.077 A 
ATOM      3  C2  UNL d   1      -1.067   1.461   0.585  0.00  0.00    -0.001 A 
ATOM      4  C3  UNL d   1      -1.570   0.161   0.657  0.00  0.00     0.003 A 
ATOM      5  C4  UNL d   1      -0.746  -0.925   0.367  0.00  0.00    -0.005 A 
ATOM      6  C5  UNL d   1       0.583  -0.712   0.005  0.00  0.00     0.003 A 
ATOM      7  C6  UNL d   1       1.087   0.587  -0.068  0.00  0.00    -0.001 A 
ENDROOT
TORSDOF 0
ENDMDL
