MODEL 1
REMARK minimizedAffinity -4.71081495
REMARK minimizedRMSD -1
REMARK  0 active torsions:
REMARK  status: ('A' for Active; 'I' for Inactive)
ROOT
ATOM      1  C   UNL d   1      -0.084  -1.073  -0.143  0.00  0.00     0.078 C 
ATOM      2  C1  UNL d   1      -0.089   0.426  -0.098  0.00  0.00    -0.077 A 
ATOM      3  C2  UNL d   1      -1.254   1.134   0.219  0.00  0.00    -0.001 A 
ATOM      4  C3  UNL d   1      -1.246   2.530   0.249  0.00  0.00     0.003 A 
ATOM      5  C4  UNL d   1      -0.076   3.229  -0.040  0.00  0.00    -0.005 A 
ATOM      6  C5  UNL d   1       1.088   2.532  -0.359  0.00  0.00     0.003 A 
ATOM      7  C6  UNL d   1       1.082   1.137  -0.389  0.00  0.00    -0.001 A 
ENDROOT
TORSDOF 0
ENDMDL
