MODEL 1
REMARK minimizedAffinity -5.04232073
REMARK minimizedRMSD -1
REMARK  0 active torsions:
REMARK  status: ('A' for Active; 'I' for Inactive)
ROOT
ATOM      1  C   UNL d   1      -0.074  -1.663   0.023  0.00  0.00     0.078 C 
ATOM      2  C1  UNL d   1      -0.174  -0.170   0.117  0.00  0.00    -0.077 A 
ATOM      3  C2  UNL d   1      -1.290   0.443   0.699  0.00  0.00    -0.001 A 
ATOM      4  C3  UNL d   1      -1.374   1.834   0.772  0.00  0.00     0.003 A 
ATOM      5  C4  UNL d   1      -0.345   2.624   0.263  0.00  0.00    -0.005 A 
ATOM      6  C5  UNL d   1       0.769   2.024  -0.320  0.00  0.00     0.003 A 
ATOM      7  C6  UNL d   1       0.854   0.632  -0.394  0.00  0.00    -0.001 A 
ENDROOT
TORSDOF 0
ENDMDL
