MODEL 1
REMARK minimizedAffinity -5.27086496
REMARK minimizedRMSD -1
REMARK  0 active torsions:
REMARK  status: ('A' for Active; 'I' for Inactive)
ROOT
ATOM      1  C   UNL d   1       0.688   3.532   0.196  0.00  0.00     0.078 C 
ATOM      2  C1  UNL d   1       0.722   2.040   0.339  0.00  0.00    -0.077 A 
ATOM      3  C2  UNL d   1       1.938   1.346   0.380  0.00  0.00    -0.001 A 
ATOM      4  C3  UNL d   1       1.954  -0.044   0.504  0.00  0.00     0.003 A 
ATOM      5  C4  UNL d   1       0.757  -0.753   0.585  0.00  0.00    -0.005 A 
ATOM      6  C5  UNL d   1      -0.458  -0.072   0.542  0.00  0.00     0.003 A 
ATOM      7  C6  UNL d   1      -0.476   1.319   0.419  0.00  0.00    -0.001 A 
ENDROOT
TORSDOF 0
ENDMDL
