MODEL 1
REMARK minimizedAffinity -5.27741528
REMARK minimizedRMSD -1
REMARK  0 active torsions:
REMARK  status: ('A' for Active; 'I' for Inactive)
ROOT
ATOM      1  C   UNL d   1      -0.051  -1.202  -0.403  0.00  0.00     0.078 C 
ATOM      2  C1  UNL d   1      -0.092   0.281  -0.184  0.00  0.00    -0.077 A 
ATOM      3  C2  UNL d   1      -1.202   0.892   0.412  0.00  0.00    -0.001 A 
ATOM      4  C3  UNL d   1      -1.230   2.275   0.601  0.00  0.00     0.003 A 
ATOM      5  C4  UNL d   1      -0.151   3.058   0.196  0.00  0.00    -0.005 A 
ATOM      6  C5  UNL d   1       0.957   2.460  -0.401  0.00  0.00     0.003 A 
ATOM      7  C6  UNL d   1       0.987   1.077  -0.591  0.00  0.00    -0.001 A 
ENDROOT
TORSDOF 0
ENDMDL
