MODEL 1
REMARK minimizedAffinity -3.60753417
REMARK minimizedRMSD -1
REMARK  0 active torsions:
REMARK  status: ('A' for Active; 'I' for Inactive)
ROOT
ATOM      1  C   UNL d   1      -1.593  -0.559   0.977  0.00  0.00     0.078 C 
ATOM      2  C1  UNL d   1      -0.705   0.464   0.333  0.00  0.00    -0.077 A 
ATOM      3  C2  UNL d   1      -1.052   1.821   0.331  0.00  0.00    -0.001 A 
ATOM      4  C3  UNL d   1      -0.221   2.761  -0.281  0.00  0.00     0.003 A 
ATOM      5  C4  UNL d   1       0.961   2.355  -0.895  0.00  0.00    -0.005 A 
ATOM      6  C5  UNL d   1       1.314   1.007  -0.900  0.00  0.00     0.003 A 
ATOM      7  C6  UNL d   1       0.484   0.065  -0.289  0.00  0.00    -0.001 A 
ENDROOT
TORSDOF 0
ENDMDL
