MODEL 1
REMARK minimizedAffinity -3.01184416
REMARK minimizedRMSD -1
REMARK  0 active torsions:
REMARK  status: ('A' for Active; 'I' for Inactive)
ROOT
ATOM      1  C   UNL d   1      -0.361  -0.641  -0.400  0.00  0.00     0.078 C 
ATOM      2  C1  UNL d   1      -0.163   0.825  -0.155  0.00  0.00    -0.077 A 
ATOM      3  C2  UNL d   1       0.565   1.615  -1.054  0.00  0.00    -0.001 A 
ATOM      4  C3  UNL d   1       0.750   2.976  -0.808  0.00  0.00     0.003 A 
ATOM      5  C4  UNL d   1       0.211   3.560   0.337  0.00  0.00    -0.005 A 
ATOM      6  C5  UNL d   1      -0.512   2.782   1.238  0.00  0.00     0.003 A 
ATOM      7  C6  UNL d   1      -0.698   1.420   0.994  0.00  0.00    -0.001 A 
ENDROOT
TORSDOF 0
ENDMDL
