MODEL 1
REMARK minimizedAffinity -5.63984156
REMARK minimizedRMSD -1
REMARK  0 active torsions:
REMARK  status: ('A' for Active; 'I' for Inactive)
ROOT
ATOM      1  C   UNL d   1       0.014  -0.927  -0.235  0.00  0.00     0.078 C 
ATOM      2  C1  UNL d   1       0.132   0.567  -0.184  0.00  0.00    -0.077 A 
ATOM      3  C2  UNL d   1      -0.918   1.357   0.298  0.00  0.00    -0.001 A 
ATOM      4  C3  UNL d   1      -0.798   2.748   0.331  0.00  0.00     0.003 A 
ATOM      5  C4  UNL d   1       0.370   3.360  -0.118  0.00  0.00    -0.005 A 
ATOM      6  C5  UNL d   1       1.420   2.582  -0.602  0.00  0.00     0.003 A 
ATOM      7  C6  UNL d   1       1.302   1.191  -0.635  0.00  0.00    -0.001 A 
ENDROOT
TORSDOF 0
ENDMDL
