MODEL 1
REMARK minimizedAffinity -4.08593512
REMARK minimizedRMSD -1
REMARK  0 active torsions:
REMARK  status: ('A' for Active; 'I' for Inactive)
ROOT
ATOM      1  C   UNL d   1       0.207  -1.355  -0.416  0.00  0.00     0.078 C 
ATOM      2  C1  UNL d   1      -0.132   0.056  -0.036  0.00  0.00    -0.077 A 
ATOM      3  C2  UNL d   1      -1.464   0.461   0.116  0.00  0.00    -0.001 A 
ATOM      4  C3  UNL d   1      -1.765   1.780   0.461  0.00  0.00     0.003 A 
ATOM      5  C4  UNL d   1      -0.740   2.704   0.654  0.00  0.00    -0.005 A 
ATOM      6  C5  UNL d   1       0.588   2.310   0.503  0.00  0.00     0.003 A 
ATOM      7  C6  UNL d   1       0.891   0.992   0.159  0.00  0.00    -0.001 A 
ENDROOT
TORSDOF 0
ENDMDL
