MODEL 1
REMARK minimizedAffinity -4.11662197
REMARK minimizedRMSD -1
REMARK  0 active torsions:
REMARK  status: ('A' for Active; 'I' for Inactive)
ROOT
ATOM      1  C   UNL d   1       0.326  -1.491   0.367  0.00  0.00     0.078 C 
ATOM      2  C1  UNL d   1      -0.072  -0.054   0.215  0.00  0.00    -0.077 A 
ATOM      3  C2  UNL d   1       0.870   0.923  -0.130  0.00  0.00    -0.001 A 
ATOM      4  C3  UNL d   1       0.487   2.259  -0.259  0.00  0.00     0.003 A 
ATOM      5  C4  UNL d   1      -0.839   2.631  -0.043  0.00  0.00    -0.005 A 
ATOM      6  C5  UNL d   1      -1.783   1.667   0.303  0.00  0.00     0.003 A 
ATOM      7  C6  UNL d   1      -1.402   0.330   0.432  0.00  0.00    -0.001 A 
ENDROOT
TORSDOF 0
ENDMDL
