MODEL 1
REMARK minimizedAffinity -3.03518772
REMARK minimizedRMSD -1
REMARK  0 active torsions:
REMARK  status: ('A' for Active; 'I' for Inactive)
ROOT
ATOM      1  C   UNL d   1      -0.510  -0.944  -0.071  0.00  0.00     0.078 C 
ATOM      2  C1  UNL d   1      -0.098   0.490   0.074  0.00  0.00    -0.077 A 
ATOM      3  C2  UNL d   1       0.772   1.087  -0.847  0.00  0.00    -0.001 A 
ATOM      4  C3  UNL d   1       1.154   2.421  -0.694  0.00  0.00     0.003 A 
ATOM      5  C4  UNL d   1       0.672   3.169   0.378  0.00  0.00    -0.005 A 
ATOM      6  C5  UNL d   1      -0.192   2.583   1.301  0.00  0.00     0.003 A 
ATOM      7  C6  UNL d   1      -0.576   1.249   1.150  0.00  0.00    -0.001 A 
ENDROOT
TORSDOF 0
ENDMDL
