MODEL 1
REMARK minimizedAffinity 5.58920956
REMARK minimizedRMSD -1
REMARK  0 active torsions:
REMARK  status: ('A' for Active; 'I' for Inactive)
ROOT
ATOM      1  C   UNL d   1      -4.699  -5.563   1.054  0.00  0.00     0.078 C 
ATOM      2  C1  UNL d   1      -3.711  -4.983   0.086  0.00  0.00    -0.077 A 
ATOM      3  C2  UNL d   1      -2.388  -4.732   0.470  0.00  0.00    -0.001 A 
ATOM      4  C3  UNL d   1      -1.482  -4.183  -0.439  0.00  0.00     0.003 A 
ATOM      5  C4  UNL d   1      -1.890  -3.878  -1.736  0.00  0.00    -0.005 A 
ATOM      6  C5  UNL d   1      -3.205  -4.122  -2.126  0.00  0.00     0.003 A 
ATOM      7  C6  UNL d   1      -4.113  -4.671  -1.219  0.00  0.00    -0.001 A 
ENDROOT
TORSDOF 0
ENDMDL
