MODEL 1
REMARK minimizedAffinity -5.1064868
REMARK minimizedRMSD -1
REMARK  0 active torsions:
REMARK  status: ('A' for Active; 'I' for Inactive)
ROOT
ATOM      1  C   UNL d   1       0.383   3.410  -0.230  0.00  0.00     0.078 C 
ATOM      2  C1  UNL d   1       0.245   1.939   0.022  0.00  0.00    -0.077 A 
ATOM      3  C2  UNL d   1       1.245   1.042  -0.373  0.00  0.00    -0.001 A 
ATOM      4  C3  UNL d   1       1.099  -0.326  -0.141  0.00  0.00     0.003 A 
ATOM      5  C4  UNL d   1      -0.047  -0.811   0.487  0.00  0.00    -0.005 A 
ATOM      6  C5  UNL d   1      -1.049   0.074   0.882  0.00  0.00     0.003 A 
ATOM      7  C6  UNL d   1      -0.904   1.442   0.650  0.00  0.00    -0.001 A 
ENDROOT
TORSDOF 0
ENDMDL
