MODEL 1
REMARK minimizedAffinity -0.592001498
REMARK minimizedRMSD -1
REMARK  0 active torsions:
REMARK  status: ('A' for Active; 'I' for Inactive)
ROOT
ATOM      1  C   UNL d   1       2.043   1.107  -0.233  0.00  0.00     0.078 C 
ATOM      2  C1  UNL d   1       0.811   0.256  -0.143  0.00  0.00    -0.077 A 
ATOM      3  C2  UNL d   1      -0.390   0.776   0.355  0.00  0.00    -0.001 A 
ATOM      4  C3  UNL d   1      -1.526  -0.030   0.443  0.00  0.00     0.003 A 
ATOM      5  C4  UNL d   1      -1.471  -1.362   0.036  0.00  0.00    -0.005 A 
ATOM      6  C5  UNL d   1      -0.280  -1.889  -0.458  0.00  0.00     0.003 A 
ATOM      7  C6  UNL d   1       0.857  -1.084  -0.547  0.00  0.00    -0.001 A 
ENDROOT
TORSDOF 0
ENDMDL
