MODEL 1
REMARK minimizedAffinity -4.94093466
REMARK minimizedRMSD -1
REMARK  1 active torsions:
REMARK  status: ('A' for Active; 'I' for Inactive)
REMARK    1  A    between atoms: C1_2  and  C2_3 
ROOT
ATOM      1  C2  UNL d   1      -0.182   0.661   0.054  0.00  0.00    -0.081 A 
ATOM      2  C3  UNL d   1       1.165   0.481  -0.283  0.00  0.00     0.006 A 
ATOM      3  C4  UNL d   1       1.842  -0.679   0.100  0.00  0.00     0.002 A 
ATOM      4  C5  UNL d   1       1.183  -1.681   0.820  0.00  0.00    -0.080 A 
ATOM      5  C6  UNL d   1       1.890  -2.944   1.211  0.00  0.00     0.076 C 
ATOM      6  C7  UNL d   1      -0.158  -1.493   1.172  0.00  0.00     0.002 A 
ATOM      7  C8  UNL d   1      -0.836  -0.333   0.789  0.00  0.00     0.006 A 
ENDROOT
BRANCH   1   8
ATOM      8  C1  UNL d   1      -0.932   1.882  -0.414  0.00  0.00     0.054 C 
ATOM      9  C   UNL d   1      -1.947   1.528  -1.492  0.00  0.00     0.018 C 
ENDBRANCH   1   8
TORSDOF 1
ENDMDL
