MODEL 1
REMARK minimizedAffinity -5.37218428
REMARK minimizedRMSD -1
REMARK  1 active torsions:
REMARK  status: ('A' for Active; 'I' for Inactive)
REMARK    1  A    between atoms: C1_2  and  C2_3 
ROOT
ATOM      1  C2  UNL d   1      -0.676   0.811  -0.435  0.00  0.00    -0.081 A 
ATOM      2  C3  UNL d   1       0.371   0.119  -1.057  0.00  0.00     0.006 A 
ATOM      3  C4  UNL d   1       0.945  -0.997  -0.443  0.00  0.00     0.002 A 
ATOM      4  C5  UNL d   1       0.478  -1.444   0.797  0.00  0.00    -0.080 A 
ATOM      5  C6  UNL d   1       1.066  -2.658   1.453  0.00  0.00     0.076 C 
ATOM      6  C7  UNL d   1      -0.556  -0.742   1.427  0.00  0.00     0.002 A 
ATOM      7  C8  UNL d   1      -1.130   0.374   0.814  0.00  0.00     0.006 A 
ENDROOT
BRANCH   1   8
ATOM      8  C1  UNL d   1      -1.341   1.975  -1.123  0.00  0.00     0.054 C 
ATOM      9  C   UNL d   1      -2.118   1.522  -2.351  0.00  0.00     0.018 C 
ENDBRANCH   1   8
TORSDOF 1
ENDMDL
