MODEL 1
REMARK minimizedAffinity -5.12288713
REMARK minimizedRMSD -1
REMARK  1 active torsions:
REMARK  status: ('A' for Active; 'I' for Inactive)
REMARK    1  A    between atoms: C1_2  and  C2_3 
ROOT
ATOM      1  C2  UNL d   1      -0.485   1.396  -0.707  0.00  0.00    -0.081 A 
ATOM      2  C3  UNL d   1       0.804   1.028  -1.113  0.00  0.00     0.006 A 
ATOM      3  C4  UNL d   1       1.456  -0.049  -0.508  0.00  0.00     0.002 A 
ATOM      4  C5  UNL d   1       0.829  -0.780   0.506  0.00  0.00    -0.080 A 
ATOM      5  C6  UNL d   1       1.507  -1.957   1.143  0.00  0.00     0.076 C 
ATOM      6  C7  UNL d   1      -0.451  -0.401   0.925  0.00  0.00     0.002 A 
ATOM      7  C8  UNL d   1      -1.104   0.676   0.321  0.00  0.00     0.006 A 
ENDROOT
BRANCH   1   8
ATOM      8  C1  UNL d   1      -1.216   2.516  -1.401  0.00  0.00     0.054 C 
ATOM      9  C   UNL d   1      -2.519   2.027  -2.018  0.00  0.00     0.018 C 
ENDBRANCH   1   8
TORSDOF 1
ENDMDL
