MODEL 1
REMARK minimizedAffinity -4.61126089
REMARK minimizedRMSD -1
REMARK  1 active torsions:
REMARK  status: ('A' for Active; 'I' for Inactive)
REMARK    1  A    between atoms: C1_2  and  C2_3 
ROOT
ATOM      1  C2  UNL d   1      -0.431   0.786  -0.488  0.00  0.00    -0.081 A 
ATOM      2  C3  UNL d   1       0.910   0.521  -0.793  0.00  0.00     0.006 A 
ATOM      3  C4  UNL d   1       1.552  -0.595  -0.253  0.00  0.00     0.002 A 
ATOM      4  C5  UNL d   1       0.863  -1.470   0.594  0.00  0.00    -0.080 A 
ATOM      5  C6  UNL d   1       1.532  -2.689   1.157  0.00  0.00     0.076 C 
ATOM      6  C7  UNL d   1      -0.471  -1.196   0.914  0.00  0.00     0.002 A 
ATOM      7  C8  UNL d   1      -1.114  -0.079   0.374  0.00  0.00     0.006 A 
ENDROOT
BRANCH   1   8
ATOM      8  C1  UNL d   1      -1.145   1.953  -1.120  0.00  0.00     0.054 C 
ATOM      9  C   UNL d   1      -1.831   1.546  -2.416  0.00  0.00     0.018 C 
ENDBRANCH   1   8
TORSDOF 1
ENDMDL
