MODEL 1
REMARK minimizedAffinity -4.64194822
REMARK minimizedRMSD -1
REMARK  1 active torsions:
REMARK  status: ('A' for Active; 'I' for Inactive)
REMARK    1  A    between atoms: C1_2  and  C2_3 
ROOT
ATOM      1  C2  UNL d   1      -0.325   0.775  -0.414  0.00  0.00    -0.081 A 
ATOM      2  C3  UNL d   1       0.961   0.410  -0.832  0.00  0.00     0.006 A 
ATOM      3  C4  UNL d   1       1.540  -0.779  -0.383  0.00  0.00     0.002 A 
ATOM      4  C5  UNL d   1       0.842  -1.626   0.485  0.00  0.00    -0.080 A 
ATOM      5  C6  UNL d   1       1.441  -2.920   0.950  0.00  0.00     0.076 C 
ATOM      6  C7  UNL d   1      -0.435  -1.252   0.916  0.00  0.00     0.002 A 
ATOM      7  C8  UNL d   1      -1.015  -0.064   0.468  0.00  0.00     0.006 A 
ENDROOT
BRANCH   1   8
ATOM      8  C1  UNL d   1      -0.978   2.024  -0.948  0.00  0.00     0.054 C 
ATOM      9  C   UNL d   1      -2.110   1.689  -1.909  0.00  0.00     0.018 C 
ENDBRANCH   1   8
TORSDOF 1
ENDMDL
