MODEL 1
REMARK minimizedAffinity -4.93669939
REMARK minimizedRMSD -1
REMARK  1 active torsions:
REMARK  status: ('A' for Active; 'I' for Inactive)
REMARK    1  A    between atoms: C1_2  and  C2_3 
ROOT
ATOM      1  C2  UNL d   1      -0.087   0.859  -0.635  0.00  0.00    -0.081 A 
ATOM      2  C3  UNL d   1       1.225   0.507  -0.974  0.00  0.00     0.006 A 
ATOM      3  C4  UNL d   1       1.801  -0.657  -0.460  0.00  0.00     0.002 A 
ATOM      4  C5  UNL d   1       1.073  -1.491   0.396  0.00  0.00    -0.080 A 
ATOM      5  C6  UNL d   1       1.669  -2.759   0.931  0.00  0.00     0.076 C 
ATOM      6  C7  UNL d   1      -0.232  -1.130   0.748  0.00  0.00     0.002 A 
ATOM      7  C8  UNL d   1      -0.808   0.034   0.234  0.00  0.00     0.006 A 
ENDROOT
BRANCH   1   8
ATOM      8  C1  UNL d   1      -0.734   2.079  -1.240  0.00  0.00     0.054 C 
ATOM      9  C   UNL d   1      -1.602   1.711  -2.435  0.00  0.00     0.018 C 
ENDBRANCH   1   8
TORSDOF 1
ENDMDL
