MODEL 1
REMARK minimizedAffinity -4.52547693
REMARK minimizedRMSD -1
REMARK  1 active torsions:
REMARK  status: ('A' for Active; 'I' for Inactive)
REMARK    1  A    between atoms: C1_2  and  C2_3 
ROOT
ATOM      1  C2  UNL d   1      -1.398   0.327  -1.069  0.00  0.00    -0.081 A 
ATOM      2  C3  UNL d   1      -0.303   1.145  -0.769  0.00  0.00     0.006 A 
ATOM      3  C4  UNL d   1       0.792   0.633  -0.068  0.00  0.00     0.002 A 
ATOM      4  C5  UNL d   1       0.813  -0.706   0.337  0.00  0.00    -0.080 A 
ATOM      5  C6  UNL d   1       1.995  -1.275   1.063  0.00  0.00     0.076 C 
ATOM      6  C7  UNL d   1      -0.289  -1.519   0.052  0.00  0.00     0.002 A 
ATOM      7  C8  UNL d   1      -1.384  -1.008  -0.648  0.00  0.00     0.006 A 
ENDROOT
BRANCH   1   8
ATOM      8  C1  UNL d   1      -2.552   0.858  -1.881  0.00  0.00     0.054 C 
ATOM      9  C   UNL d   1      -2.123   1.186  -3.304  0.00  0.00     0.018 C 
ENDBRANCH   1   8
TORSDOF 1
ENDMDL
