MODEL 1
REMARK minimizedAffinity -5.71257019
REMARK minimizedRMSD -1
REMARK  1 active torsions:
REMARK  status: ('A' for Active; 'I' for Inactive)
REMARK    1  A    between atoms: C1_2  and  C2_3 
ROOT
ATOM      1  C2  UNL d   1      -0.586   0.435  -0.469  0.00  0.00    -0.081 A 
ATOM      2  C3  UNL d   1      -1.138  -0.504   0.411  0.00  0.00     0.006 A 
ATOM      3  C4  UNL d   1      -0.347  -1.523   0.948  0.00  0.00     0.002 A 
ATOM      4  C5  UNL d   1       1.010  -1.614   0.622  0.00  0.00    -0.080 A 
ATOM      5  C6  UNL d   1       1.878  -2.684   1.215  0.00  0.00     0.076 C 
ATOM      6  C7  UNL d   1       1.558  -0.686  -0.270  0.00  0.00     0.002 A 
ATOM      7  C8  UNL d   1       0.768   0.332  -0.808  0.00  0.00     0.006 A 
ENDROOT
BRANCH   1   8
ATOM      8  C1  UNL d   1      -1.421   1.572  -0.999  0.00  0.00     0.054 C 
ATOM      9  C   UNL d   1      -2.297   1.121  -2.159  0.00  0.00     0.018 C 
ENDBRANCH   1   8
TORSDOF 1
ENDMDL
