MODEL 1
REMARK minimizedAffinity -4.20274305
REMARK minimizedRMSD -1
REMARK  1 active torsions:
REMARK  status: ('A' for Active; 'I' for Inactive)
REMARK    1  A    between atoms: C1_2  and  C2_3 
ROOT
ATOM      1  C2  UNL d   1      -0.329   0.714  -0.438  0.00  0.00    -0.081 A 
ATOM      2  C3  UNL d   1       0.957   0.424  -0.909  0.00  0.00     0.006 A 
ATOM      3  C4  UNL d   1       1.675  -0.655  -0.389  0.00  0.00     0.002 A 
ATOM      4  C5  UNL d   1       1.117  -1.467   0.604  0.00  0.00    -0.080 A 
ATOM      5  C6  UNL d   1       1.865  -2.647   1.149  0.00  0.00     0.076 C 
ATOM      6  C7  UNL d   1      -0.161  -1.167   1.087  0.00  0.00     0.002 A 
ATOM      7  C8  UNL d   1      -0.880  -0.087   0.569  0.00  0.00     0.006 A 
ENDROOT
BRANCH   1   8
ATOM      8  C1  UNL d   1      -1.131   1.838  -1.042  0.00  0.00     0.054 C 
ATOM      9  C   UNL d   1      -1.809   1.403  -2.333  0.00  0.00     0.018 C 
ENDBRANCH   1   8
TORSDOF 1
ENDMDL
