MODEL 1
REMARK minimizedAffinity -4.6625185
REMARK minimizedRMSD -1
REMARK  0 active torsions:
REMARK  status: ('A' for Active; 'I' for Inactive)
ROOT
ATOM      1  C   UNL d   1      -0.179  -0.952   0.266  0.00  0.00    -0.002 A 
ATOM      2  C1  UNL d   1       0.473   0.125   0.851  0.00  0.00     0.010 A 
ATOM      3  C2  UNL d   1       0.435   1.387   0.255  0.00  0.00     0.041 A 
ATOM      4  C3  UNL d   1      -0.279   1.552  -0.948  0.00  0.00    -0.075 A 
ATOM      5  S   UNL d   1      -0.465   3.006  -1.856  0.00  0.00     0.015 SA
ATOM      6  C4  UNL d   1      -1.415   2.232  -3.041  0.00  0.00     0.022 A 
ATOM      7  C5  UNL d   1      -1.595   0.897  -2.767  0.00  0.00     0.026 A 
ATOM      8  C6  UNL d   1      -0.944   0.483  -1.556  0.00  0.00    -0.082 A 
ATOM      9  C7  UNL d   1      -0.885  -0.784  -0.928  0.00  0.00     0.045 A 
ENDROOT
TORSDOF 0
ENDMDL
