MODEL 1
REMARK minimizedAffinity -0.723190248
REMARK minimizedRMSD -1
REMARK  0 active torsions:
REMARK  status: ('A' for Active; 'I' for Inactive)
ROOT
ATOM      1  C   UNL d   1       0.839   0.137   1.905  0.00  0.00    -0.002 A 
ATOM      2  C1  UNL d   1       1.517  -0.935   1.342  0.00  0.00     0.010 A 
ATOM      3  C2  UNL d   1       1.358  -1.245  -0.011  0.00  0.00     0.041 A 
ATOM      4  C3  UNL d   1       0.500  -0.450  -0.796  0.00  0.00    -0.075 A 
ATOM      5  S   UNL d   1       0.152  -0.640  -2.473  0.00  0.00     0.015 SA
ATOM      6  C4  UNL d   1      -0.904   0.697  -2.483  0.00  0.00     0.022 A 
ATOM      7  C5  UNL d   1      -1.001   1.286  -1.244  0.00  0.00     0.026 A 
ATOM      8  C6  UNL d   1      -0.193   0.635  -0.252  0.00  0.00    -0.082 A 
ATOM      9  C7  UNL d   1      -0.012   0.923   1.123  0.00  0.00     0.045 A 
ENDROOT
TORSDOF 0
ENDMDL
