MODEL 1
REMARK minimizedAffinity -0.998086572
REMARK minimizedRMSD -1
REMARK  0 active torsions:
REMARK  status: ('A' for Active; 'I' for Inactive)
ROOT
ATOM      1  C   UNL d   1      -0.703  -0.765   1.493  0.00  0.00    -0.002 A 
ATOM      2  C1  UNL d   1       0.637  -0.950   1.184  0.00  0.00     0.010 A 
ATOM      3  C2  UNL d   1       1.192  -0.362   0.046  0.00  0.00     0.041 A 
ATOM      4  C3  UNL d   1       0.369   0.424  -0.785  0.00  0.00    -0.075 A 
ATOM      5  S   UNL d   1       0.830   1.242  -2.230  0.00  0.00     0.015 SA
ATOM      6  C4  UNL d   1      -0.741   1.857  -2.472  0.00  0.00     0.022 A 
ATOM      7  C5  UNL d   1      -1.609   1.458  -1.484  0.00  0.00     0.026 A 
ATOM      8  C6  UNL d   1      -0.983   0.625  -0.495  0.00  0.00    -0.082 A 
ATOM      9  C7  UNL d   1      -1.516   0.015   0.666  0.00  0.00     0.045 A 
ENDROOT
TORSDOF 0
ENDMDL
