MODEL 1
REMARK minimizedAffinity 19.1355362
REMARK minimizedRMSD -1
REMARK  0 active torsions:
REMARK  status: ('A' for Active; 'I' for Inactive)
ROOT
ATOM      1  C   UNL d   1       1.557  -2.998   2.610  0.00  0.00     0.020 A 
ATOM      2  C1  UNL d   1       1.891  -2.393   3.821  0.00  0.00     0.020 A 
ATOM      3  C2  UNL d   1       1.038  -1.441   4.384  0.00  0.00     0.034 A 
ATOM      4  C3  UNL d   1      -0.152  -1.091   3.736  0.00  0.00     0.017 A 
ATOM      5  C4  UNL d   1      -0.486  -1.699   2.520  0.00  0.00     0.017 A 
ATOM      6  C5  UNL d   1       0.371  -2.652   1.961  0.00  0.00     0.034 A 
ATOM      7 Cl   UNL d   1      -1.938  -1.320   1.662  0.00  0.00    -0.070 Cl
ATOM      8 Cl1  UNL d   1      -1.159   0.094   4.489  0.00  0.00    -0.070 Cl
ENDROOT
TORSDOF 0
ENDMDL
