MODEL 1
REMARK minimizedAffinity 10.4766016
REMARK minimizedRMSD -1
REMARK  0 active torsions:
REMARK  status: ('A' for Active; 'I' for Inactive)
ROOT
ATOM      1  C   UNL d   1       1.722   2.432  -4.012  0.00  0.00     0.020 A 
ATOM      2  C1  UNL d   1       2.363   2.963  -2.894  0.00  0.00     0.020 A 
ATOM      3  C2  UNL d   1       1.815   4.064  -2.232  0.00  0.00     0.034 A 
ATOM      4  C3  UNL d   1       0.622   4.637  -2.687  0.00  0.00     0.017 A 
ATOM      5  C4  UNL d   1      -0.021   4.103  -3.809  0.00  0.00     0.017 A 
ATOM      6  C5  UNL d   1       0.532   3.001  -4.468  0.00  0.00     0.034 A 
ATOM      7 Cl   UNL d   1      -1.496   4.756  -4.430  0.00  0.00    -0.070 Cl
ATOM      8 Cl1  UNL d   1       0.002   5.997  -1.820  0.00  0.00    -0.070 Cl
ENDROOT
TORSDOF 0
ENDMDL
