MODEL 1
REMARK minimizedAffinity 8.89837265
REMARK minimizedRMSD -1
REMARK  0 active torsions:
REMARK  status: ('A' for Active; 'I' for Inactive)
ROOT
ATOM      1  C   UNL d   1       6.000   3.377   0.572  0.00  0.00     0.020 A 
ATOM      2  C1  UNL d   1       5.349   4.239   1.453  0.00  0.00     0.020 A 
ATOM      3  C2  UNL d   1       3.991   4.063   1.726  0.00  0.00     0.034 A 
ATOM      4  C3  UNL d   1       3.279   3.024   1.117  0.00  0.00     0.017 A 
ATOM      5  C4  UNL d   1       3.933   2.159   0.232  0.00  0.00     0.017 A 
ATOM      6  C5  UNL d   1       5.293   2.339  -0.038  0.00  0.00     0.034 A 
ATOM      7 Cl   UNL d   1       3.121   0.853  -0.558  0.00  0.00    -0.070 Cl
ATOM      8 Cl1  UNL d   1       1.602   2.866   1.501  0.00  0.00    -0.070 Cl
ENDROOT
TORSDOF 0
ENDMDL
