MODEL 1
REMARK minimizedAffinity 15.2483454
REMARK minimizedRMSD -1
REMARK  0 active torsions:
REMARK  status: ('A' for Active; 'I' for Inactive)
ROOT
ATOM      1  C   UNL d   1      -0.217  -1.263   2.306  0.00  0.00     0.020 A 
ATOM      2  C1  UNL d   1      -0.874  -1.968   1.299  0.00  0.00     0.020 A 
ATOM      3  C2  UNL d   1      -2.176  -1.616   0.937  0.00  0.00     0.034 A 
ATOM      4  C3  UNL d   1      -2.825  -0.557   1.582  0.00  0.00     0.017 A 
ATOM      5  C4  UNL d   1      -2.164   0.150   2.593  0.00  0.00     0.017 A 
ATOM      6  C5  UNL d   1      -0.860  -0.206   2.952  0.00  0.00     0.034 A 
ATOM      7 Cl   UNL d   1      -2.899   1.469   3.434  0.00  0.00    -0.070 Cl
ATOM      8 Cl1  UNL d   1      -4.435  -0.177   1.082  0.00  0.00    -0.070 Cl
ENDROOT
TORSDOF 0
ENDMDL
