MODEL 1
REMARK minimizedAffinity 11.8290014
REMARK minimizedRMSD -1
REMARK  0 active torsions:
REMARK  status: ('A' for Active; 'I' for Inactive)
ROOT
ATOM      1  C   UNL d   1       3.023   3.328  -2.622  0.00  0.00     0.020 A 
ATOM      2  C1  UNL d   1       2.529   2.654  -3.738  0.00  0.00     0.020 A 
ATOM      3  C2  UNL d   1       1.290   3.008  -4.275  0.00  0.00     0.034 A 
ATOM      4  C3  UNL d   1       0.541   4.040  -3.697  0.00  0.00     0.017 A 
ATOM      5  C4  UNL d   1       1.038   4.716  -2.578  0.00  0.00     0.017 A 
ATOM      6  C5  UNL d   1       2.279   4.357  -2.043  0.00  0.00     0.034 A 
ATOM      7 Cl   UNL d   1       0.171   5.999  -1.810  0.00  0.00    -0.070 Cl
ATOM      8 Cl1  UNL d   1      -0.983   4.425  -4.415  0.00  0.00    -0.070 Cl
ENDROOT
TORSDOF 0
ENDMDL
