MODEL 1
REMARK minimizedAffinity 14.2455091
REMARK minimizedRMSD -1
REMARK  0 active torsions:
REMARK  status: ('A' for Active; 'I' for Inactive)
ROOT
ATOM      1  C   UNL d   1      -0.951  -2.834   1.212  0.00  0.00     0.020 A 
ATOM      2  C1  UNL d   1      -0.909  -1.743   2.080  0.00  0.00     0.020 A 
ATOM      3  C2  UNL d   1       0.310  -1.327   2.619  0.00  0.00     0.034 A 
ATOM      4  C3  UNL d   1       1.492  -2.002   2.292  0.00  0.00     0.017 A 
ATOM      5  C4  UNL d   1       1.448  -3.096   1.420  0.00  0.00     0.017 A 
ATOM      6  C5  UNL d   1       0.225  -3.509   0.883  0.00  0.00     0.034 A 
ATOM      7 Cl   UNL d   1       2.864  -3.979   0.970  0.00  0.00    -0.070 Cl
ATOM      8 Cl1  UNL d   1       2.963  -1.433   2.996  0.00  0.00    -0.070 Cl
ENDROOT
TORSDOF 0
ENDMDL
