MODEL 1
REMARK minimizedAffinity 13.48351
REMARK minimizedRMSD -1
REMARK  0 active torsions:
REMARK  status: ('A' for Active; 'I' for Inactive)
ROOT
ATOM      1  C   UNL d   1       1.825   3.702  -2.669  0.00  0.00     0.020 A 
ATOM      2  C1  UNL d   1       2.596   4.667  -2.021  0.00  0.00     0.020 A 
ATOM      3  C2  UNL d   1       3.834   5.041  -2.547  0.00  0.00     0.034 A 
ATOM      4  C3  UNL d   1       4.305   4.450  -3.725  0.00  0.00     0.017 A 
ATOM      5  C4  UNL d   1       3.531   3.482  -4.375  0.00  0.00     0.017 A 
ATOM      6  C5  UNL d   1       2.292   3.111  -3.843  0.00  0.00     0.034 A 
ATOM      7 Cl   UNL d   1       4.046   2.708  -5.832  0.00  0.00    -0.070 Cl
ATOM      8 Cl1  UNL d   1       5.845   4.960  -4.320  0.00  0.00    -0.070 Cl
ENDROOT
TORSDOF 0
ENDMDL
