MODEL 1
REMARK minimizedAffinity 13.4343367
REMARK minimizedRMSD -1
REMARK  0 active torsions:
REMARK  status: ('A' for Active; 'I' for Inactive)
ROOT
ATOM      1  C   UNL d   1      -0.603  -1.507   2.396  0.00  0.00     0.020 A 
ATOM      2  C1  UNL d   1      -1.476  -2.374   1.740  0.00  0.00     0.020 A 
ATOM      3  C2  UNL d   1      -2.769  -1.953   1.422  0.00  0.00     0.034 A 
ATOM      4  C3  UNL d   1      -3.193  -0.663   1.760  0.00  0.00     0.017 A 
ATOM      5  C4  UNL d   1      -2.316   0.206   2.419  0.00  0.00     0.017 A 
ATOM      6  C5  UNL d   1      -1.022  -0.220   2.735  0.00  0.00     0.034 A 
ATOM      7 Cl   UNL d   1      -2.767   1.813   2.868  0.00  0.00    -0.070 Cl
ATOM      8 Cl1  UNL d   1      -4.806  -0.210   1.336  0.00  0.00    -0.070 Cl
ENDROOT
TORSDOF 0
ENDMDL
