MODEL 1
REMARK minimizedAffinity 7.70437288
REMARK minimizedRMSD -1
REMARK  0 active torsions:
REMARK  status: ('A' for Active; 'I' for Inactive)
ROOT
ATOM      1  C   UNL d   1       2.234   4.506  -2.578  0.00  0.00     0.020 A 
ATOM      2  C1  UNL d   1       3.336   5.266  -2.187  0.00  0.00     0.020 A 
ATOM      3  C2  UNL d   1       4.488   5.282  -2.975  0.00  0.00     0.034 A 
ATOM      4  C3  UNL d   1       4.542   4.537  -4.159  0.00  0.00     0.017 A 
ATOM      5  C4  UNL d   1       3.435   3.774  -4.550  0.00  0.00     0.017 A 
ATOM      6  C5  UNL d   1       2.284   3.762  -3.757  0.00  0.00     0.034 A 
ATOM      7 Cl   UNL d   1       3.426   2.829  -5.998  0.00  0.00    -0.070 Cl
ATOM      8 Cl1  UNL d   1       5.999   4.603  -5.085  0.00  0.00    -0.070 Cl
ENDROOT
TORSDOF 0
ENDMDL
