MODEL 1
REMARK minimizedAffinity 17.4146576
REMARK minimizedRMSD -1
REMARK  0 active torsions:
REMARK  status: ('A' for Active; 'I' for Inactive)
ROOT
ATOM      1  C   UNL d   1       2.977   4.078  -5.992  0.00  0.00     0.020 A 
ATOM      2  C1  UNL d   1       3.932   3.184  -5.510  0.00  0.00     0.020 A 
ATOM      3  C2  UNL d   1       3.758   2.582  -4.262  0.00  0.00     0.034 A 
ATOM      4  C3  UNL d   1       2.627   2.874  -3.492  0.00  0.00     0.017 A 
ATOM      5  C4  UNL d   1       1.669   3.771  -3.976  0.00  0.00     0.017 A 
ATOM      6  C5  UNL d   1       1.847   4.371  -5.226  0.00  0.00     0.034 A 
ATOM      7 Cl   UNL d   1       0.247   4.181  -3.082  0.00  0.00    -0.070 Cl
ATOM      8 Cl1  UNL d   1       2.476   2.092  -1.958  0.00  0.00    -0.070 Cl
ENDROOT
TORSDOF 0
ENDMDL
