MODEL 1
REMARK minimizedAffinity 18.9196682
REMARK minimizedRMSD -1
REMARK  0 active torsions:
REMARK  status: ('A' for Active; 'I' for Inactive)
ROOT
ATOM      1  C   UNL d   1      -4.670   5.622   5.876  0.00  0.00     0.020 A 
ATOM      2  C1  UNL d   1      -5.757   5.583   5.003  0.00  0.00     0.020 A 
ATOM      3  C2  UNL d   1      -5.997   4.440   4.238  0.00  0.00     0.034 A 
ATOM      4  C3  UNL d   1      -5.150   3.331   4.344  0.00  0.00     0.017 A 
ATOM      5  C4  UNL d   1      -4.060   3.371   5.221  0.00  0.00     0.017 A 
ATOM      6  C5  UNL d   1      -3.824   4.518   5.985  0.00  0.00     0.034 A 
ATOM      7 Cl   UNL d   1      -2.971   2.041   5.406  0.00  0.00    -0.070 Cl
ATOM      8 Cl1  UNL d   1      -5.508   1.951   3.368  0.00  0.00    -0.070 Cl
ENDROOT
TORSDOF 0
ENDMDL
