MODEL 1
REMARK minimizedAffinity 18.5771942
REMARK minimizedRMSD -1
REMARK  0 active torsions:
REMARK  status: ('A' for Active; 'I' for Inactive)
ROOT
ATOM      1  C   UNL d   1       2.264   2.825  -3.151  0.00  0.00     0.020 A 
ATOM      2  C1  UNL d   1       2.743   2.643  -4.448  0.00  0.00     0.020 A 
ATOM      3  C2  UNL d   1       3.898   3.308  -4.865  0.00  0.00     0.034 A 
ATOM      4  C3  UNL d   1       4.578   4.157  -3.985  0.00  0.00     0.017 A 
ATOM      5  C4  UNL d   1       4.096   4.339  -2.683  0.00  0.00     0.017 A 
ATOM      6  C5  UNL d   1       2.939   3.670  -2.271  0.00  0.00     0.034 A 
ATOM      7 Cl   UNL d   1       4.881   5.370  -1.540  0.00  0.00    -0.070 Cl
ATOM      8 Cl1  UNL d   1       6.000   4.947  -4.568  0.00  0.00    -0.070 Cl
ENDROOT
TORSDOF 0
ENDMDL
