MODEL 1
REMARK minimizedAffinity 11.2888374
REMARK minimizedRMSD -1
REMARK  0 active torsions:
REMARK  status: ('A' for Active; 'I' for Inactive)
ROOT
ATOM      1  C   UNL d   1      -0.843  -0.967   2.174  0.00  0.00     0.020 A 
ATOM      2  C1  UNL d   1      -1.861  -0.141   1.698  0.00  0.00     0.020 A 
ATOM      3  C2  UNL d   1      -2.469   0.780   2.553  0.00  0.00     0.034 A 
ATOM      4  C3  UNL d   1      -2.061   0.878   3.888  0.00  0.00     0.017 A 
ATOM      5  C4  UNL d   1      -1.039   0.048   4.365  0.00  0.00     0.017 A 
ATOM      6  C5  UNL d   1      -0.433  -0.872   3.504  0.00  0.00     0.034 A 
ATOM      7 Cl   UNL d   1      -0.481   0.111   5.999  0.00  0.00    -0.070 Cl
ATOM      8 Cl1  UNL d   1      -2.857   2.039   4.889  0.00  0.00    -0.070 Cl
ENDROOT
TORSDOF 0
ENDMDL
