MODEL 1
REMARK minimizedAffinity 10.672102
REMARK minimizedRMSD -1
REMARK  0 active torsions:
REMARK  status: ('A' for Active; 'I' for Inactive)
ROOT
ATOM      1  C   UNL d   1       0.383  -2.291   2.642  0.00  0.00     0.020 A 
ATOM      2  C1  UNL d   1       0.684  -1.582   3.804  0.00  0.00     0.020 A 
ATOM      3  C2  UNL d   1      -0.113  -0.501   4.188  0.00  0.00     0.034 A 
ATOM      4  C3  UNL d   1      -1.215  -0.127   3.410  0.00  0.00     0.017 A 
ATOM      5  C4  UNL d   1      -1.516  -0.840   2.244  0.00  0.00     0.017 A 
ATOM      6  C5  UNL d   1      -0.715  -1.921   1.864  0.00  0.00     0.034 A 
ATOM      7 Cl   UNL d   1      -2.859  -0.438   1.233  0.00  0.00    -0.070 Cl
ATOM      8 Cl1  UNL d   1      -2.156   1.219   3.945  0.00  0.00    -0.070 Cl
ENDROOT
TORSDOF 0
ENDMDL
