MODEL 1
REMARK minimizedAffinity 13.0976152
REMARK minimizedRMSD -1
REMARK  0 active torsions:
REMARK  status: ('A' for Active; 'I' for Inactive)
ROOT
ATOM      1  C   UNL d   1       0.305  -1.368   2.883  0.00  0.00     0.020 A 
ATOM      2  C1  UNL d   1      -0.300  -2.121   1.877  0.00  0.00     0.020 A 
ATOM      3  C2  UNL d   1      -1.525  -1.717   1.343  0.00  0.00     0.034 A 
ATOM      4  C3  UNL d   1      -2.150  -0.557   1.814  0.00  0.00     0.017 A 
ATOM      5  C4  UNL d   1      -1.543   0.199   2.824  0.00  0.00     0.017 A 
ATOM      6  C5  UNL d   1      -0.316  -0.210   3.355  0.00  0.00     0.034 A 
ATOM      7 Cl   UNL d   1      -2.253   1.642   3.456  0.00  0.00    -0.070 Cl
ATOM      8 Cl1  UNL d   1      -3.665  -0.116   1.108  0.00  0.00    -0.070 Cl
ENDROOT
TORSDOF 0
ENDMDL
