MODEL 1
REMARK minimizedAffinity 9.98496056
REMARK minimizedRMSD -1
REMARK  0 active torsions:
REMARK  status: ('A' for Active; 'I' for Inactive)
ROOT
ATOM      1  C   UNL d   1      -1.145   2.064   2.427  0.00  0.00     0.020 A 
ATOM      2  C1  UNL d   1      -1.658   0.921   3.040  0.00  0.00     0.020 A 
ATOM      3  C2  UNL d   1      -1.004  -0.304   2.893  0.00  0.00     0.034 A 
ATOM      4  C3  UNL d   1       0.167  -0.389   2.131  0.00  0.00     0.017 A 
ATOM      5  C4  UNL d   1       0.681   0.759   1.516  0.00  0.00     0.017 A 
ATOM      6  C5  UNL d   1       0.022   1.983   1.667  0.00  0.00     0.034 A 
ATOM      7 Cl   UNL d   1       2.121   0.733   0.561  0.00  0.00    -0.070 Cl
ATOM      8 Cl1  UNL d   1       0.925  -1.935   1.991  0.00  0.00    -0.070 Cl
ENDROOT
TORSDOF 0
ENDMDL
