MODEL 1
REMARK minimizedAffinity 9.84014988
REMARK minimizedRMSD -1
REMARK  0 active torsions:
REMARK  status: ('A' for Active; 'I' for Inactive)
ROOT
ATOM      1  C   UNL d   1      -0.891  -1.998   1.237  0.00  0.00     0.020 A 
ATOM      2  C1  UNL d   1      -0.144  -1.357   2.224  0.00  0.00     0.020 A 
ATOM      3  C2  UNL d   1      -0.703  -0.299   2.946  0.00  0.00     0.034 A 
ATOM      4  C3  UNL d   1      -2.011   0.120   2.681  0.00  0.00     0.017 A 
ATOM      5  C4  UNL d   1      -2.760  -0.524   1.690  0.00  0.00     0.017 A 
ATOM      6  C5  UNL d   1      -2.196  -1.582   0.970  0.00  0.00     0.034 A 
ATOM      7 Cl   UNL d   1      -4.381  -0.063   1.306  0.00  0.00    -0.070 Cl
ATOM      8 Cl1  UNL d   1      -2.638   1.434   3.612  0.00  0.00    -0.070 Cl
ENDROOT
TORSDOF 0
ENDMDL
