MODEL 1
REMARK minimizedAffinity 10.4166231
REMARK minimizedRMSD -1
REMARK  0 active torsions:
REMARK  status: ('A' for Active; 'I' for Inactive)
ROOT
ATOM      1  C   UNL d   1      -0.944  -0.757   2.633  0.00  0.00     0.020 A 
ATOM      2  C1  UNL d   1      -1.612  -1.163   1.478  0.00  0.00     0.020 A 
ATOM      3  C2  UNL d   1      -2.784  -0.514   1.085  0.00  0.00     0.034 A 
ATOM      4  C3  UNL d   1      -3.292   0.545   1.846  0.00  0.00     0.017 A 
ATOM      5  C4  UNL d   1      -2.621   0.952   3.005  0.00  0.00     0.017 A 
ATOM      6  C5  UNL d   1      -1.447   0.298   3.394  0.00  0.00     0.034 A 
ATOM      7 Cl   UNL d   1      -3.186   2.251   3.996  0.00  0.00    -0.070 Cl
ATOM      8 Cl1  UNL d   1      -4.746   1.303   1.300  0.00  0.00    -0.070 Cl
ENDROOT
TORSDOF 0
ENDMDL
