MODEL 1
REMARK minimizedAffinity 11.8522911
REMARK minimizedRMSD -1
REMARK  0 active torsions:
REMARK  status: ('A' for Active; 'I' for Inactive)
ROOT
ATOM      1  C   UNL d   1       1.756   3.434  -2.413  0.00  0.00     0.020 A 
ATOM      2  C1  UNL d   1       2.323   2.632  -3.402  0.00  0.00     0.020 A 
ATOM      3  C2  UNL d   1       3.634   2.862  -3.823  0.00  0.00     0.034 A 
ATOM      4  C3  UNL d   1       4.384   3.898  -3.253  0.00  0.00     0.017 A 
ATOM      5  C4  UNL d   1       3.815   4.703  -2.260  0.00  0.00     0.017 A 
ATOM      6  C5  UNL d   1       2.501   4.468  -1.843  0.00  0.00     0.034 A 
ATOM      7 Cl   UNL d   1       4.678   6.000  -1.511  0.00  0.00    -0.070 Cl
ATOM      8 Cl1  UNL d   1       6.000   4.125  -3.821  0.00  0.00    -0.070 Cl
ENDROOT
TORSDOF 0
ENDMDL
