MODEL 1
REMARK minimizedAffinity 13.646904
REMARK minimizedRMSD -1
REMARK  0 active torsions:
REMARK  status: ('A' for Active; 'I' for Inactive)
ROOT
ATOM      1  C   UNL d   1       5.999   5.166  -3.200  0.00  0.00     0.020 A 
ATOM      2  C1  UNL d   1       5.209   5.230  -2.053  0.00  0.00     0.020 A 
ATOM      3  C2  UNL d   1       3.972   4.584  -2.020  0.00  0.00     0.034 A 
ATOM      4  C3  UNL d   1       3.521   3.870  -3.137  0.00  0.00     0.017 A 
ATOM      5  C4  UNL d   1       4.315   3.806  -4.288  0.00  0.00     0.017 A 
ATOM      6  C5  UNL d   1       5.553   4.455  -4.315  0.00  0.00     0.034 A 
ATOM      7 Cl   UNL d   1       3.826   2.945  -5.704  0.00  0.00    -0.070 Cl
ATOM      8 Cl1  UNL d   1       1.981   3.095  -3.027  0.00  0.00    -0.070 Cl
ENDROOT
TORSDOF 0
ENDMDL
