MODEL 1
REMARK minimizedAffinity 10.1880369
REMARK minimizedRMSD -1
REMARK  1 active torsions:
REMARK  status: ('A' for Active; 'I' for Inactive)
REMARK    1  A    between atoms: C1_2  and  C2_3 
ROOT
ATOM      1  C2  UNL d   1      -2.134   0.602  -3.391  0.00  0.00    -0.077 A 
ATOM      2  C3  UNL d   1      -2.869   0.248  -2.251  0.00  0.00     0.002 A 
ATOM      3  C4  UNL d   1      -4.227   0.556  -2.162  0.00  0.00     0.002 A 
ATOM      4  C5  UNL d   1      -4.864   1.217  -3.211  0.00  0.00    -0.004 A 
ATOM      5  C6  UNL d   1      -4.142   1.575  -4.348  0.00  0.00     0.002 A 
ATOM      6  C7  UNL d   1      -2.783   1.268  -4.439  0.00  0.00     0.002 A 
ENDROOT
BRANCH   1   7
ATOM      7  C1  UNL d   1      -0.680   0.226  -3.510  0.00  0.00     0.055 C 
ATOM      8  C   UNL d   1       0.093   0.599  -2.254  0.00  0.00     0.019 C 
ENDBRANCH   1   7
TORSDOF 1
ENDMDL
