MODEL 1
REMARK minimizedAffinity 3.75417995
REMARK minimizedRMSD -1
REMARK  1 active torsions:
REMARK  status: ('A' for Active; 'I' for Inactive)
REMARK    1  A    between atoms: C1_2  and  C2_3 
ROOT
ATOM      1  C2  UNL d   1      -2.725  -2.660   0.013  0.00  0.00    -0.077 A 
ATOM      2  C3  UNL d   1      -1.640  -2.332  -0.812  0.00  0.00     0.002 A 
ATOM      3  C4  UNL d   1      -0.477  -3.105  -0.790  0.00  0.00     0.002 A 
ATOM      4  C5  UNL d   1      -0.390  -4.212   0.051  0.00  0.00    -0.004 A 
ATOM      5  C6  UNL d   1      -1.463  -4.545   0.877  0.00  0.00     0.002 A 
ATOM      6  C7  UNL d   1      -2.625  -3.774   0.857  0.00  0.00     0.002 A 
ENDROOT
BRANCH   1   7
ATOM      7  C1  UNL d   1      -3.998  -1.857  -0.045  0.00  0.00     0.055 C 
ATOM      8  C   UNL d   1      -5.220  -2.743   0.152  0.00  0.00     0.019 C 
ENDBRANCH   1   7
TORSDOF 1
ENDMDL
