MODEL 1
REMARK minimizedAffinity 2.43087173
REMARK minimizedRMSD -1
REMARK  1 active torsions:
REMARK  status: ('A' for Active; 'I' for Inactive)
REMARK    1  A    between atoms: C1_2  and  C2_3 
ROOT
ATOM      1  C2  UNL d   1      -2.830  -1.709  -0.643  0.00  0.00    -0.077 A 
ATOM      2  C3  UNL d   1      -2.333  -0.551  -1.257  0.00  0.00     0.002 A 
ATOM      3  C4  UNL d   1      -3.163   0.236  -2.058  0.00  0.00     0.002 A 
ATOM      4  C5  UNL d   1      -4.495  -0.123  -2.248  0.00  0.00    -0.004 A 
ATOM      5  C6  UNL d   1      -4.999  -1.274  -1.644  0.00  0.00     0.002 A 
ATOM      6  C7  UNL d   1      -4.170  -2.063  -0.844  0.00  0.00     0.002 A 
ENDROOT
BRANCH   1   7
ATOM      7  C1  UNL d   1      -1.950  -2.532   0.260  0.00  0.00     0.055 C 
ATOM      8  C   UNL d   1      -1.208  -3.607  -0.520  0.00  0.00     0.019 C 
ENDBRANCH   1   7
TORSDOF 1
ENDMDL
