MODEL 1
REMARK minimizedAffinity 2.99755335
REMARK minimizedRMSD -1
REMARK  1 active torsions:
REMARK  status: ('A' for Active; 'I' for Inactive)
REMARK    1  A    between atoms: C1_2  and  C2_3 
ROOT
ATOM      1  C2  UNL d   1       1.728  -2.325   4.794  0.00  0.00    -0.077 A 
ATOM      2  C3  UNL d   1       1.282  -1.868   3.546  0.00  0.00     0.002 A 
ATOM      3  C4  UNL d   1       2.104  -1.971   2.422  0.00  0.00     0.002 A 
ATOM      4  C5  UNL d   1       3.373  -2.535   2.534  0.00  0.00    -0.004 A 
ATOM      5  C6  UNL d   1       3.826  -2.991   3.771  0.00  0.00     0.002 A 
ATOM      6  C7  UNL d   1       3.007  -2.887   4.896  0.00  0.00     0.002 A 
ENDROOT
BRANCH   1   7
ATOM      7  C1  UNL d   1       0.824  -2.259   5.998  0.00  0.00     0.055 C 
ATOM      8  C   UNL d   1      -0.004  -0.983   6.000  0.00  0.00     0.019 C 
ENDBRANCH   1   7
TORSDOF 1
ENDMDL
