MODEL 1
REMARK minimizedAffinity -1.83341813
REMARK minimizedRMSD -1
REMARK  1 active torsions:
REMARK  status: ('A' for Active; 'I' for Inactive)
REMARK    1  A    between atoms: C1_2  and  C2_3 
ROOT
ATOM      1  C2  UNL d   1       0.707   0.213   1.599  0.00  0.00    -0.077 A 
ATOM      2  C3  UNL d   1       1.008  -0.085   0.263  0.00  0.00     0.002 A 
ATOM      3  C4  UNL d   1       0.437   0.658  -0.772  0.00  0.00     0.002 A 
ATOM      4  C5  UNL d   1      -0.435   1.705  -0.482  0.00  0.00    -0.004 A 
ATOM      5  C6  UNL d   1      -0.742   2.008   0.844  0.00  0.00     0.002 A 
ATOM      6  C7  UNL d   1      -0.173   1.266   1.880  0.00  0.00     0.002 A 
ENDROOT
BRANCH   1   7
ATOM      7  C1  UNL d   1       1.360  -0.555   2.719  0.00  0.00     0.055 C 
ATOM      8  C   UNL d   1       2.800  -0.913   2.378  0.00  0.00     0.019 C 
ENDBRANCH   1   7
TORSDOF 1
ENDMDL
