MODEL 1
REMARK minimizedAffinity 1.25558853
REMARK minimizedRMSD -1
REMARK  2 active torsions:
REMARK  status: ('A' for Active; 'I' for Inactive)
REMARK    1  A    between atoms: C2'_3  and  C1'_4 
REMARK    2  A    between atoms: C1'_4  and  C1_5 
ROOT
ATOM      1  C1  I4B d   1       0.992   2.970  -1.248  0.00  0.00    -0.075 A 
ATOM      2  C2  I4B d   1       0.720   2.511   0.017  0.00  0.00     0.003 A 
ATOM      3  C3  I4B d   1       0.792   1.127   0.303  0.00  0.00     0.002 A 
ATOM      4  C4  I4B d   1       1.088   0.237  -0.709  0.00  0.00    -0.004 A 
ATOM      5  C5  I4B d   1       1.386   0.706  -1.986  0.00  0.00     0.002 A 
ATOM      6  C6  I4B d   1       1.350   2.082  -2.254  0.00  0.00     0.003 A 
ENDROOT
BRANCH   1   7
ATOM      7  C1' I4B d   1       0.874   4.435  -1.524  0.00  0.00     0.060 C 
BRANCH   7   8
ATOM      8  C2' I4B d   1       1.880   5.157  -0.650  0.00  0.00    -0.013 C 
ATOM      9  C4' I4B d   1       2.817   5.997  -1.477  0.00  0.00     0.013 C 
ATOM     10  C3' I4B d   1       1.120   6.000   0.330  0.00  0.00     0.013 C 
ENDBRANCH   7   8
ENDBRANCH   1   7
TORSDOF 2
ENDMDL
