MODEL 1
REMARK minimizedAffinity -5.60342169
REMARK minimizedRMSD -1
REMARK  2 active torsions:
REMARK  status: ('A' for Active; 'I' for Inactive)
REMARK    1  A    between atoms: C2'_3  and  C1'_4 
REMARK    2  A    between atoms: C1'_4  and  C1_5 
ROOT
ATOM      1  C1  I4B d   1       1.123   0.487  -1.192  0.00  0.00    -0.075 A 
ATOM      2  C2  I4B d   1       1.397   1.548  -2.019  0.00  0.00     0.003 A 
ATOM      3  C3  I4B d   1       1.549   2.849  -1.482  0.00  0.00     0.002 A 
ATOM      4  C4  I4B d   1       1.370   3.051  -0.128  0.00  0.00    -0.004 A 
ATOM      5  C5  I4B d   1       1.115   1.970   0.711  0.00  0.00     0.002 A 
ATOM      6  C6  I4B d   1       1.003   0.678   0.178  0.00  0.00     0.003 A 
ENDROOT
BRANCH   1   7
ATOM      7  C1' I4B d   1       0.937  -0.869  -1.797  0.00  0.00     0.060 C 
BRANCH   7   8
ATOM      8  C2' I4B d   1       0.761  -1.864  -0.668  0.00  0.00    -0.013 C 
ATOM      9  C4' I4B d   1      -0.134  -3.003  -1.080  0.00  0.00     0.013 C 
ATOM     10  C3' I4B d   1       2.120  -2.359  -0.272  0.00  0.00     0.013 C 
ENDBRANCH   7   8
ENDBRANCH   1   7
TORSDOF 2
ENDMDL
