MODEL 1
REMARK minimizedAffinity 1.01398551
REMARK minimizedRMSD -1
REMARK  2 active torsions:
REMARK  status: ('A' for Active; 'I' for Inactive)
REMARK    1  A    between atoms: C2'_3  and  C1'_4 
REMARK    2  A    between atoms: C1'_4  and  C1_5 
ROOT
ATOM      1  C1  I4B d   1       1.235   1.896  -0.173  0.00  0.00    -0.075 A 
ATOM      2  C2  I4B d   1       0.913   1.240  -1.335  0.00  0.00     0.003 A 
ATOM      3  C3  I4B d   1       0.896  -0.175  -1.373  0.00  0.00     0.002 A 
ATOM      4  C4  I4B d   1       1.254  -0.890  -0.247  0.00  0.00    -0.004 A 
ATOM      5  C5  I4B d   1       1.557  -0.223   0.936  0.00  0.00     0.002 A 
ATOM      6  C6  I4B d   1       1.536   1.179   0.978  0.00  0.00     0.003 A 
ENDROOT
BRANCH   1   7
ATOM      7  C1' I4B d   1       1.276   3.391  -0.177  0.00  0.00     0.060 C 
BRANCH   7   8
ATOM      8  C2' I4B d   1       1.886   3.838  -1.490  0.00  0.00    -0.013 C 
ATOM      9  C4' I4B d   1       1.066   3.365  -2.661  0.00  0.00     0.013 C 
ATOM     10  C3' I4B d   1       1.986   5.334  -1.469  0.00  0.00     0.013 C 
ENDBRANCH   7   8
ENDBRANCH   1   7
TORSDOF 2
ENDMDL
