MODEL 1
REMARK minimizedAffinity -0.690820813
REMARK minimizedRMSD -1
REMARK  2 active torsions:
REMARK  status: ('A' for Active; 'I' for Inactive)
REMARK    1  A    between atoms: C2'_3  and  C1'_4 
REMARK    2  A    between atoms: C1'_4  and  C1_5 
ROOT
ATOM      1  C1  I4B d   1       1.992   0.668  -0.788  0.00  0.00    -0.075 A 
ATOM      2  C2  I4B d   1       2.062   1.373   0.388  0.00  0.00     0.003 A 
ATOM      3  C3  I4B d   1       1.462   2.652   0.489  0.00  0.00     0.002 A 
ATOM      4  C4  I4B d   1       0.851   3.205  -0.618  0.00  0.00    -0.004 A 
ATOM      5  C5  I4B d   1       0.761   2.479  -1.802  0.00  0.00     0.002 A 
ATOM      6  C6  I4B d   1       1.325   1.198  -1.885  0.00  0.00     0.003 A 
ENDROOT
BRANCH   1   7
ATOM      7  C1' I4B d   1       2.665  -0.665  -0.869  0.00  0.00     0.060 C 
BRANCH   7   8
ATOM      8  C2' I4B d   1       3.970  -0.577  -0.105  0.00  0.00    -0.013 C 
ATOM      9  C4' I4B d   1       4.496  -1.946   0.237  0.00  0.00     0.013 C 
ATOM     10  C3' I4B d   1       4.950   0.184  -0.947  0.00  0.00     0.013 C 
ENDBRANCH   7   8
ENDBRANCH   1   7
TORSDOF 2
ENDMDL
