MODEL 1
REMARK minimizedAffinity 6.60523367
REMARK minimizedRMSD -1
REMARK  2 active torsions:
REMARK  status: ('A' for Active; 'I' for Inactive)
REMARK    1  A    between atoms: C2'_3  and  C1'_4 
REMARK    2  A    between atoms: C1'_4  and  C1_5 
ROOT
ATOM      1  C1  I4B d   1      -2.799   2.747   2.800  0.00  0.00    -0.075 A 
ATOM      2  C2  I4B d   1      -2.642   3.415   1.611  0.00  0.00     0.003 A 
ATOM      3  C3  I4B d   1      -3.528   3.171   0.534  0.00  0.00     0.002 A 
ATOM      4  C4  I4B d   1      -4.518   2.220   0.671  0.00  0.00    -0.004 A 
ATOM      5  C5  I4B d   1      -4.690   1.560   1.884  0.00  0.00     0.002 A 
ATOM      6  C6  I4B d   1      -3.833   1.834   2.960  0.00  0.00     0.003 A 
ENDROOT
BRANCH   1   7
ATOM      7  C1' I4B d   1      -1.826   3.006   3.906  0.00  0.00     0.060 C 
BRANCH   7   8
ATOM      8  C2' I4B d   1      -2.573   2.901   5.220  0.00  0.00    -0.013 C 
ATOM      9  C4' I4B d   1      -2.145   1.683   5.995  0.00  0.00     0.013 C 
ATOM     10  C3' I4B d   1      -2.318   4.157   5.999  0.00  0.00     0.013 C 
ENDBRANCH   7   8
ENDBRANCH   1   7
TORSDOF 2
ENDMDL
