MODEL 1
REMARK minimizedAffinity 5.64414072
REMARK minimizedRMSD -1
REMARK  2 active torsions:
REMARK  status: ('A' for Active; 'I' for Inactive)
REMARK    1  A    between atoms: C2'_3  and  C1'_4 
REMARK    2  A    between atoms: C1'_4  and  C1_5 
ROOT
ATOM      1  C1  I4B d   1       1.577   2.727  -1.394  0.00  0.00    -0.075 A 
ATOM      2  C2  I4B d   1       1.266   2.855  -0.063  0.00  0.00     0.003 A 
ATOM      3  C3  I4B d   1       1.071   4.138   0.503  0.00  0.00     0.002 A 
ATOM      4  C4  I4B d   1       1.244   5.260  -0.281  0.00  0.00    -0.004 A 
ATOM      5  C5  I4B d   1       1.537   5.128  -1.636  0.00  0.00     0.002 A 
ATOM      6  C6  I4B d   1       1.693   3.853  -2.199  0.00  0.00     0.003 A 
ENDROOT
BRANCH   1   7
ATOM      7  C1' I4B d   1       1.809   1.358  -1.951  0.00  0.00     0.060 C 
BRANCH   7   8
ATOM      8  C2' I4B d   1       1.503   0.352  -0.861  0.00  0.00    -0.013 C 
ATOM      9  C4' I4B d   1       0.865  -0.889  -1.427  0.00  0.00     0.013 C 
ATOM     10  C3' I4B d   1       2.787   0.028  -0.157  0.00  0.00     0.013 C 
ENDBRANCH   7   8
ENDBRANCH   1   7
TORSDOF 2
ENDMDL
