MODEL 1
REMARK minimizedAffinity -3.74158549
REMARK minimizedRMSD -1
REMARK  2 active torsions:
REMARK  status: ('A' for Active; 'I' for Inactive)
REMARK    1  A    between atoms: C2'_3  and  C1'_4 
REMARK    2  A    between atoms: C1'_4  and  C1_5 
ROOT
ATOM      1  C1  I4B d   1       0.832   2.293  -0.743  0.00  0.00    -0.075 A 
ATOM      2  C2  I4B d   1       1.381   2.980  -1.798  0.00  0.00     0.003 A 
ATOM      3  C3  I4B d   1       1.923   4.273  -1.602  0.00  0.00     0.002 A 
ATOM      4  C4  I4B d   1       1.851   4.859  -0.355  0.00  0.00    -0.004 A 
ATOM      5  C5  I4B d   1       1.315   4.153   0.718  0.00  0.00     0.002 A 
ATOM      6  C6  I4B d   1       0.814   2.857   0.526  0.00  0.00     0.003 A 
ENDROOT
BRANCH   1   7
ATOM      7  C1' I4B d   1       0.239   0.943  -0.992  0.00  0.00     0.060 C 
BRANCH   7   8
ATOM      8  C2' I4B d   1       1.242  -0.098  -0.537  0.00  0.00    -0.013 C 
ATOM      9  C4' I4B d   1       1.512   0.014   0.940  0.00  0.00     0.013 C 
ATOM     10  C3' I4B d   1       0.695  -1.450  -0.887  0.00  0.00     0.013 C 
ENDBRANCH   7   8
ENDBRANCH   1   7
TORSDOF 2
ENDMDL
