MODEL 1
REMARK minimizedAffinity 0.458045632
REMARK minimizedRMSD -1
REMARK  0 active torsions:
REMARK  status: ('A' for Active; 'I' for Inactive)
ROOT
ATOM      1  C1  BNZ d   1       0.871   0.454   0.684  0.00  0.00     0.000 A 
ATOM      2  C2  BNZ d   1       1.380   1.605   0.143  0.00  0.00     0.000 A 
ATOM      3  C3  BNZ d   1       0.669   2.772   0.187  0.00  0.00     0.000 A 
ATOM      4  C4  BNZ d   1      -0.563   2.778   0.735  0.00  0.00     0.000 A 
ATOM      5  C5  BNZ d   1      -1.093   1.624   1.277  0.00  0.00     0.000 A 
ATOM      6  C6  BNZ d   1      -0.359   0.460   1.265  0.00  0.00     0.000 A 
ENDROOT
TORSDOF 0
ENDMDL
