MODEL 1
REMARK minimizedAffinity 1.97862077
REMARK minimizedRMSD -1
REMARK  0 active torsions:
REMARK  status: ('A' for Active; 'I' for Inactive)
ROOT
ATOM      1  C1  BNZ d   1       1.711   0.697  -1.586  0.00  0.00     0.000 A 
ATOM      2  C2  BNZ d   1       1.521  -0.138  -2.655  0.00  0.00     0.000 A 
ATOM      3  C3  BNZ d   1       1.933  -1.441  -2.608  0.00  0.00     0.000 A 
ATOM      4  C4  BNZ d   1       2.570  -1.895  -1.510  0.00  0.00     0.000 A 
ATOM      5  C5  BNZ d   1       2.778  -1.063  -0.428  0.00  0.00     0.000 A 
ATOM      6  C6  BNZ d   1       2.327   0.236  -0.463  0.00  0.00     0.000 A 
ENDROOT
TORSDOF 0
ENDMDL
