MODEL 1
REMARK minimizedAffinity -3.48678112
REMARK minimizedRMSD -1
REMARK  0 active torsions:
REMARK  status: ('A' for Active; 'I' for Inactive)
ROOT
ATOM      1  C1  BNZ d   1       0.891   4.663   0.174  0.00  0.00     0.000 A 
ATOM      2  C2  BNZ d   1      -0.217   3.860   0.120  0.00  0.00     0.000 A 
ATOM      3  C3  BNZ d   1      -0.099   2.500   0.191  0.00  0.00     0.000 A 
ATOM      4  C4  BNZ d   1       1.127   1.944   0.274  0.00  0.00     0.000 A 
ATOM      5  C5  BNZ d   1       2.254   2.740   0.320  0.00  0.00     0.000 A 
ATOM      6  C6  BNZ d   1       2.129   4.110   0.288  0.00  0.00     0.000 A 
ENDROOT
TORSDOF 0
ENDMDL
