MODEL 1
REMARK minimizedAffinity 1.28634572
REMARK minimizedRMSD -1
REMARK  0 active torsions:
REMARK  status: ('A' for Active; 'I' for Inactive)
ROOT
ATOM      1  C1  BNZ d   1      -0.702   3.022   0.374  0.00  0.00     0.000 A 
ATOM      2  C2  BNZ d   1      -1.968   2.994  -0.147  0.00  0.00     0.000 A 
ATOM      3  C3  BNZ d   1      -2.791   1.925   0.073  0.00  0.00     0.000 A 
ATOM      4  C4  BNZ d   1      -2.334   0.870   0.778  0.00  0.00     0.000 A 
ATOM      5  C5  BNZ d   1      -1.057   0.880   1.302  0.00  0.00     0.000 A 
ATOM      6  C6  BNZ d   1      -0.245   1.974   1.112  0.00  0.00     0.000 A 
ENDROOT
TORSDOF 0
ENDMDL
