MODEL 1
REMARK minimizedAffinity 0.962000251
REMARK minimizedRMSD -1
REMARK  0 active torsions:
REMARK  status: ('A' for Active; 'I' for Inactive)
ROOT
ATOM      1  C1  BNZ d   1      -0.910   2.024   2.659  0.00  0.00     0.000 A 
ATOM      2  C2  BNZ d   1      -0.457   3.102   1.946  0.00  0.00     0.000 A 
ATOM      3  C3  BNZ d   1       0.230   2.930   0.777  0.00  0.00     0.000 A 
ATOM      4  C4  BNZ d   1       0.498   1.681   0.343  0.00  0.00     0.000 A 
ATOM      5  C5  BNZ d   1       0.056   0.584   1.055  0.00  0.00     0.000 A 
ATOM      6  C6  BNZ d   1      -0.669   0.762   2.211  0.00  0.00     0.000 A 
ENDROOT
TORSDOF 0
ENDMDL
