MODEL 1
REMARK minimizedAffinity 3.33716369
REMARK minimizedRMSD -1
REMARK  0 active torsions:
REMARK  status: ('A' for Active; 'I' for Inactive)
ROOT
ATOM      1  C1  BNZ d   1       1.541  -0.968  -0.460  0.00  0.00     0.000 A 
ATOM      2  C2  BNZ d   1       0.896  -1.073  -1.663  0.00  0.00     0.000 A 
ATOM      3  C3  BNZ d   1       1.076  -0.132  -2.639  0.00  0.00     0.000 A 
ATOM      4  C4  BNZ d   1       1.869   0.931  -2.395  0.00  0.00     0.000 A 
ATOM      5  C5  BNZ d   1       2.519   1.056  -1.184  0.00  0.00     0.000 A 
ATOM      6  C6  BNZ d   1       2.365   0.087  -0.219  0.00  0.00     0.000 A 
ENDROOT
TORSDOF 0
ENDMDL
