MODEL 1
REMARK minimizedAffinity 4.24036407
REMARK minimizedRMSD -1
REMARK  0 active torsions:
REMARK  status: ('A' for Active; 'I' for Inactive)
ROOT
ATOM      1  C1  BNZ d   1      -5.458   2.181   1.011  0.00  0.00     0.000 A 
ATOM      2  C2  BNZ d   1      -4.482   3.069   0.645  0.00  0.00     0.000 A 
ATOM      3  C3  BNZ d   1      -3.166   2.699   0.641  0.00  0.00     0.000 A 
ATOM      4  C4  BNZ d   1      -2.825   1.457   1.041  0.00  0.00     0.000 A 
ATOM      5  C5  BNZ d   1      -3.797   0.554   1.422  0.00  0.00     0.000 A 
ATOM      6  C6  BNZ d   1      -5.124   0.917   1.387  0.00  0.00     0.000 A 
ENDROOT
TORSDOF 0
ENDMDL
