MODEL 1
REMARK minimizedAffinity -0.324122697
REMARK minimizedRMSD -1
REMARK  0 active torsions:
REMARK  status: ('A' for Active; 'I' for Inactive)
ROOT
ATOM      1  C1  BNZ d   1      -4.943   1.936   1.190  0.00  0.00     0.000 A 
ATOM      2  C2  BNZ d   1      -4.273   2.892   0.475  0.00  0.00     0.000 A 
ATOM      3  C3  BNZ d   1      -2.926   2.793   0.262  0.00  0.00     0.000 A 
ATOM      4  C4  BNZ d   1      -2.245   1.760   0.798  0.00  0.00     0.000 A 
ATOM      5  C5  BNZ d   1      -2.904   0.792   1.530  0.00  0.00     0.000 A 
ATOM      6  C6  BNZ d   1      -4.266   0.875   1.709  0.00  0.00     0.000 A 
ENDROOT
TORSDOF 0
ENDMDL
