MODEL 1
REMARK minimizedAffinity 2.54236674
REMARK minimizedRMSD -1
REMARK  0 active torsions:
REMARK  status: ('A' for Active; 'I' for Inactive)
ROOT
ATOM      1  C1  BNZ d   1       4.093   0.884  -1.382  0.00  0.00     0.000 A 
ATOM      2  C2  BNZ d   1       3.806   0.560  -2.681  0.00  0.00     0.000 A 
ATOM      3  C3  BNZ d   1       2.513   0.512  -3.122  0.00  0.00     0.000 A 
ATOM      4  C4  BNZ d   1       1.508   0.750  -2.254  0.00  0.00     0.000 A 
ATOM      5  C5  BNZ d   1       1.781   1.069  -0.939  0.00  0.00     0.000 A 
ATOM      6  C6  BNZ d   1       3.085   1.154  -0.509  0.00  0.00     0.000 A 
ENDROOT
TORSDOF 0
ENDMDL
