MODEL 1
REMARK minimizedAffinity 0.443293422
REMARK minimizedRMSD -1
REMARK  0 active torsions:
REMARK  status: ('A' for Active; 'I' for Inactive)
ROOT
ATOM      1  C1  BNZ d   1      -1.521   0.882   1.405  0.00  0.00     0.000 A 
ATOM      2  C2  BNZ d   1      -0.237   1.350   1.311  0.00  0.00     0.000 A 
ATOM      3  C3  BNZ d   1       0.074   2.375   0.462  0.00  0.00     0.000 A 
ATOM      4  C4  BNZ d   1      -0.889   2.903  -0.321  0.00  0.00     0.000 A 
ATOM      5  C5  BNZ d   1      -2.186   2.437  -0.244  0.00  0.00     0.000 A 
ATOM      6  C6  BNZ d   1      -2.504   1.431   0.640  0.00  0.00     0.000 A 
ENDROOT
TORSDOF 0
ENDMDL
