MODEL 1
REMARK minimizedAffinity -1.5590266
REMARK minimizedRMSD -1
REMARK  0 active torsions:
REMARK  status: ('A' for Active; 'I' for Inactive)
ROOT
ATOM      1  C1  BNZ d   1       1.638   3.579  -0.156  0.00  0.00     0.000 A 
ATOM      2  C2  BNZ d   1       2.968   3.305  -0.334  0.00  0.00     0.000 A 
ATOM      3  C3  BNZ d   1       3.527   2.176   0.197  0.00  0.00     0.000 A 
ATOM      4  C4  BNZ d   1       2.766   1.344   0.938  0.00  0.00     0.000 A 
ATOM      5  C5  BNZ d   1       1.426   1.612   1.134  0.00  0.00     0.000 A 
ATOM      6  C6  BNZ d   1       0.858   2.728   0.566  0.00  0.00     0.000 A 
ENDROOT
TORSDOF 0
ENDMDL
