MODEL 1
REMARK minimizedAffinity 0.964664817
REMARK minimizedRMSD -1
REMARK  0 active torsions:
REMARK  status: ('A' for Active; 'I' for Inactive)
ROOT
ATOM      1  C1  BNZ d   1      -1.268   1.560   0.997  0.00  0.00     0.000 A 
ATOM      2  C2  BNZ d   1      -2.467   1.772   0.370  0.00  0.00     0.000 A 
ATOM      3  C3  BNZ d   1      -2.571   2.663  -0.660  0.00  0.00     0.000 A 
ATOM      4  C4  BNZ d   1      -1.486   3.371  -1.036  0.00  0.00     0.000 A 
ATOM      5  C5  BNZ d   1      -0.272   3.177  -0.407  0.00  0.00     0.000 A 
ATOM      6  C6  BNZ d   1      -0.163   2.250   0.604  0.00  0.00     0.000 A 
ENDROOT
TORSDOF 0
ENDMDL
