MODEL 1
REMARK minimizedAffinity -1.22531414
REMARK minimizedRMSD -1
REMARK  0 active torsions:
REMARK  status: ('A' for Active; 'I' for Inactive)
ROOT
ATOM      1  C1  BNZ d   1       3.716   3.361   1.637  0.00  0.00     0.000 A 
ATOM      2  C2  BNZ d   1       2.510   3.239   1.000  0.00  0.00     0.000 A 
ATOM      3  C3  BNZ d   1       2.144   2.060   0.413  0.00  0.00     0.000 A 
ATOM      4  C4  BNZ d   1       3.000   1.018   0.428  0.00  0.00     0.000 A 
ATOM      5  C5  BNZ d   1       4.224   1.128   1.058  0.00  0.00     0.000 A 
ATOM      6  C6  BNZ d   1       4.573   2.304   1.682  0.00  0.00     0.000 A 
ENDROOT
TORSDOF 0
ENDMDL
