MODEL 1
REMARK minimizedAffinity 4.9531827
REMARK minimizedRMSD -1
REMARK  0 active torsions:
REMARK  status: ('A' for Active; 'I' for Inactive)
ROOT
ATOM      1  C1  BNZ d   1       0.307   3.747   0.051  0.00  0.00     0.000 A 
ATOM      2  C2  BNZ d   1       1.633   3.458  -0.131  0.00  0.00     0.000 A 
ATOM      3  C3  BNZ d   1       2.200   2.367   0.467  0.00  0.00     0.000 A 
ATOM      4  C4  BNZ d   1       1.452   1.592   1.278  0.00  0.00     0.000 A 
ATOM      5  C5  BNZ d   1       0.116   1.875   1.479  0.00  0.00     0.000 A 
ATOM      6  C6  BNZ d   1      -0.461   2.951   0.845  0.00  0.00     0.000 A 
ENDROOT
TORSDOF 0
ENDMDL
