MODEL 1
REMARK minimizedAffinity 6.36024952
REMARK minimizedRMSD -1
REMARK  0 active torsions:
REMARK  status: ('A' for Active; 'I' for Inactive)
ROOT
ATOM      1  C1  BNZ d   1       3.689   0.189   0.472  0.00  0.00     0.000 A 
ATOM      2  C2  BNZ d   1       3.849   1.504   0.818  0.00  0.00     0.000 A 
ATOM      3  C3  BNZ d   1       2.812   2.388   0.709  0.00  0.00     0.000 A 
ATOM      4  C4  BNZ d   1       1.630   1.966   0.217  0.00  0.00     0.000 A 
ATOM      5  C5  BNZ d   1       1.455   0.645  -0.146  0.00  0.00     0.000 A 
ATOM      6  C6  BNZ d   1       2.489  -0.250   0.002  0.00  0.00     0.000 A 
ENDROOT
TORSDOF 0
ENDMDL
