MODEL 1
REMARK minimizedAffinity -0.370121658
REMARK minimizedRMSD -1
REMARK  0 active torsions:
REMARK  status: ('A' for Active; 'I' for Inactive)
ROOT
ATOM      1  C1  BNZ d   1      -1.685  -5.408  -0.683  0.00  0.00     0.000 A 
ATOM      2  C2  BNZ d   1      -0.948  -5.886   0.368  0.00  0.00     0.000 A 
ATOM      3  C3  BNZ d   1      -1.190  -5.460   1.644  0.00  0.00     0.000 A 
ATOM      4  C4  BNZ d   1      -2.141  -4.528   1.863  0.00  0.00     0.000 A 
ATOM      5  C5  BNZ d   1      -2.886  -4.030   0.812  0.00  0.00     0.000 A 
ATOM      6  C6  BNZ d   1      -2.666  -4.490  -0.465  0.00  0.00     0.000 A 
ENDROOT
TORSDOF 0
ENDMDL
