MODEL 1
REMARK minimizedAffinity 1.24538994
REMARK minimizedRMSD -1
REMARK  0 active torsions:
REMARK  status: ('A' for Active; 'I' for Inactive)
ROOT
ATOM      1  C1  BNZ d   1      -0.124   3.715   0.161  0.00  0.00     0.000 A 
ATOM      2  C2  BNZ d   1       1.212   3.434   0.057  0.00  0.00     0.000 A 
ATOM      3  C3  BNZ d   1       1.868   2.772   1.056  0.00  0.00     0.000 A 
ATOM      4  C4  BNZ d   1       1.198   2.426   2.174  0.00  0.00     0.000 A 
ATOM      5  C5  BNZ d   1      -0.147   2.711   2.299  0.00  0.00     0.000 A 
ATOM      6  C6  BNZ d   1      -0.813   3.343   1.274  0.00  0.00     0.000 A 
ENDROOT
TORSDOF 0
ENDMDL
