MODEL 1
REMARK minimizedAffinity -2.61748052
REMARK minimizedRMSD -1
REMARK  0 active torsions:
REMARK  status: ('A' for Active; 'I' for Inactive)
ROOT
ATOM      1  C   UNL d   1       0.515  -0.987  -0.372  0.00  0.00     0.078 C 
ATOM      2  C1  UNL d   1       0.350  -0.002   0.747  0.00  0.00    -0.077 A 
ATOM      3  C2  UNL d   1       0.263   1.372   0.490  0.00  0.00    -0.001 A 
ATOM      4  C3  UNL d   1       0.120   2.279   1.542  0.00  0.00     0.003 A 
ATOM      5  C4  UNL d   1       0.063   1.821   2.857  0.00  0.00    -0.005 A 
ATOM      6  C5  UNL d   1       0.151   0.456   3.122  0.00  0.00     0.003 A 
ATOM      7  C6  UNL d   1       0.294  -0.452   2.072  0.00  0.00    -0.001 A 
ENDROOT
TORSDOF 0
ENDMDL
