MODEL 1
REMARK minimizedAffinity -2.9694531
REMARK minimizedRMSD -1
REMARK  0 active torsions:
REMARK  status: ('A' for Active; 'I' for Inactive)
ROOT
ATOM      1  C   UNL d   1      -0.254  -0.181   0.942  0.00  0.00     0.078 C 
ATOM      2  C1  UNL d   1      -0.156  -1.160  -0.190  0.00  0.00    -0.077 A 
ATOM      3  C2  UNL d   1      -1.118  -2.163  -0.361  0.00  0.00    -0.001 A 
ATOM      4  C3  UNL d   1      -1.009  -3.074  -1.413  0.00  0.00     0.003 A 
ATOM      5  C4  UNL d   1       0.062  -2.992  -2.301  0.00  0.00    -0.005 A 
ATOM      6  C5  UNL d   1       1.025  -1.999  -2.137  0.00  0.00     0.003 A 
ATOM      7  C6  UNL d   1       0.918  -1.087  -1.086  0.00  0.00    -0.001 A 
ENDROOT
TORSDOF 0
ENDMDL
