MODEL 1
REMARK minimizedAffinity -4.73466969
REMARK minimizedRMSD -1
REMARK  0 active torsions:
REMARK  status: ('A' for Active; 'I' for Inactive)
ROOT
ATOM      1  C   UNL d   1      -1.211   3.443   1.377  0.00  0.00     0.078 C 
ATOM      2  C1  UNL d   1      -0.624   2.099   1.061  0.00  0.00    -0.077 A 
ATOM      3  C2  UNL d   1      -1.026   1.386  -0.075  0.00  0.00    -0.001 A 
ATOM      4  C3  UNL d   1      -0.479   0.132  -0.351  0.00  0.00     0.003 A 
ATOM      5  C4  UNL d   1       0.472  -0.421   0.505  0.00  0.00    -0.005 A 
ATOM      6  C5  UNL d   1       0.876   0.280   1.639  0.00  0.00     0.003 A 
ATOM      7  C6  UNL d   1       0.330   1.535   1.917  0.00  0.00    -0.001 A 
ENDROOT
TORSDOF 0
ENDMDL
