MODEL 1
REMARK minimizedAffinity -3.35849738
REMARK minimizedRMSD -1
REMARK  0 active torsions:
REMARK  status: ('A' for Active; 'I' for Inactive)
ROOT
ATOM      1  C   UNL d   1       0.464  -1.434  -0.772  0.00  0.00     0.078 C 
ATOM      2  C1  UNL d   1       0.138  -0.332   0.191  0.00  0.00    -0.077 A 
ATOM      3  C2  UNL d   1       0.766  -0.257   1.440  0.00  0.00    -0.001 A 
ATOM      4  C3  UNL d   1       0.446   0.769   2.331  0.00  0.00     0.003 A 
ATOM      5  C4  UNL d   1      -0.504   1.727   1.982  0.00  0.00    -0.005 A 
ATOM      6  C5  UNL d   1      -1.135   1.659   0.742  0.00  0.00     0.003 A 
ATOM      7  C6  UNL d   1      -0.816   0.634  -0.150  0.00  0.00    -0.001 A 
ENDROOT
TORSDOF 0
ENDMDL
