MODEL 1
REMARK minimizedAffinity -4.38138962
REMARK minimizedRMSD -1
REMARK  0 active torsions:
REMARK  status: ('A' for Active; 'I' for Inactive)
ROOT
ATOM      1  C   UNL d   1       0.200  -1.545  -0.727  0.00  0.00     0.078 C 
ATOM      2  C1  UNL d   1       0.157  -0.469   0.317  0.00  0.00    -0.077 A 
ATOM      3  C2  UNL d   1      -0.749   0.594   0.220  0.00  0.00    -0.001 A 
ATOM      4  C3  UNL d   1      -0.771   1.594   1.193  0.00  0.00     0.003 A 
ATOM      5  C4  UNL d   1       0.112   1.541   2.270  0.00  0.00    -0.005 A 
ATOM      6  C5  UNL d   1       1.018   0.488   2.374  0.00  0.00     0.003 A 
ATOM      7  C6  UNL d   1       1.042  -0.512   1.402  0.00  0.00    -0.001 A 
ENDROOT
TORSDOF 0
ENDMDL
