MODEL 1
REMARK minimizedAffinity -4.85092211
REMARK minimizedRMSD -1
REMARK  0 active torsions:
REMARK  status: ('A' for Active; 'I' for Inactive)
ROOT
ATOM      1  C   UNL d   1       0.372  -1.293  -0.715  0.00  0.00     0.078 C 
ATOM      2  C1  UNL d   1       0.018  -0.175   0.219  0.00  0.00    -0.077 A 
ATOM      3  C2  UNL d   1       0.693  -0.010   1.434  0.00  0.00    -0.001 A 
ATOM      4  C3  UNL d   1       0.347   1.030   2.299  0.00  0.00     0.003 A 
ATOM      5  C4  UNL d   1      -0.677   1.912   1.958  0.00  0.00    -0.005 A 
ATOM      6  C5  UNL d   1      -1.356   1.754   0.751  0.00  0.00     0.003 A 
ATOM      7  C6  UNL d   1      -1.010   0.715  -0.114  0.00  0.00    -0.001 A 
ENDROOT
TORSDOF 0
ENDMDL
