MODEL 1
REMARK minimizedAffinity -5.33633471
REMARK minimizedRMSD -1
REMARK  0 active torsions:
REMARK  status: ('A' for Active; 'I' for Inactive)
ROOT
ATOM      1  C1  DEN d   1      -1.864  -1.101  -3.117  0.00  0.00     0.130 A 
ATOM      2  C2  DEN d   1      -2.539  -0.110  -3.950  0.00  0.00    -0.031 A 
ATOM      3  C3  DEN d   1      -2.432   1.200  -3.278  0.00  0.00     0.027 A 
ATOM      4  C4  DEN d   1      -1.287   1.789  -1.043  0.00  0.00     0.027 A 
ATOM      5  C5  DEN d   1      -0.589   1.279   0.029  0.00  0.00    -0.003 A 
ATOM      6  C6  DEN d   1      -0.299  -0.055   0.143  0.00  0.00     0.001 A 
ATOM      7  C7  DEN d   1      -0.669  -0.918  -0.854  0.00  0.00     0.017 A 
ATOM      8  C8  DEN d   1      -1.380  -0.412  -1.934  0.00  0.00    -0.094 A 
ATOM      9  C9  DEN d   1      -1.653   0.941  -2.038  0.00  0.00    -0.072 A 
ENDROOT
TORSDOF 0
ENDMDL
