MODEL 1
REMARK minimizedAffinity -5.14204073
REMARK minimizedRMSD -1
REMARK  0 active torsions:
REMARK  status: ('A' for Active; 'I' for Inactive)
ROOT
ATOM      1  C1  DEN d   1      -0.351  -2.605   1.133  0.00  0.00     0.130 A 
ATOM      2  C2  DEN d   1       0.449  -3.060  -0.001  0.00  0.00    -0.031 A 
ATOM      3  C3  DEN d   1       0.639  -1.915  -0.914  0.00  0.00     0.027 A 
ATOM      4  C4  DEN d   1      -0.218   0.506  -0.681  0.00  0.00     0.027 A 
ATOM      5  C5  DEN d   1      -0.950   1.367   0.107  0.00  0.00    -0.003 A 
ATOM      6  C6  DEN d   1      -1.556   0.959   1.265  0.00  0.00     0.001 A 
ATOM      7  C7  DEN d   1      -1.405  -0.333   1.692  0.00  0.00     0.017 A 
ATOM      8  C8  DEN d   1      -0.675  -1.209   0.900  0.00  0.00    -0.094 A 
ATOM      9  C9  DEN d   1      -0.059  -0.774  -0.262  0.00  0.00    -0.072 A 
ENDROOT
TORSDOF 0
ENDMDL
