MODEL 1
REMARK minimizedAffinity -1.38121831
REMARK minimizedRMSD -1
REMARK  0 active torsions:
REMARK  status: ('A' for Active; 'I' for Inactive)
ROOT
ATOM      1  C1  DEN d   1       2.420  -0.826  -0.381  0.00  0.00     0.130 A 
ATOM      2  C2  DEN d   1       3.100  -1.532   0.701  0.00  0.00    -0.031 A 
ATOM      3  C3  DEN d   1       2.096  -1.865   1.732  0.00  0.00     0.027 A 
ATOM      4  C4  DEN d   1      -0.434  -1.361   1.754  0.00  0.00     0.027 A 
ATOM      5  C5  DEN d   1      -1.467  -0.771   1.060  0.00  0.00    -0.003 A 
ATOM      6  C6  DEN d   1      -1.273  -0.135  -0.137  0.00  0.00     0.001 A 
ATOM      7  C7  DEN d   1      -0.024  -0.111  -0.699  0.00  0.00     0.017 A 
ATOM      8  C8  DEN d   1       1.025  -0.697  -0.001  0.00  0.00    -0.094 A 
ATOM      9  C9  DEN d   1       0.806  -1.346   1.202  0.00  0.00    -0.072 A 
ENDROOT
TORSDOF 0
ENDMDL
