MODEL 1
REMARK minimizedAffinity -2.97545981
REMARK minimizedRMSD -1
REMARK  0 active torsions:
REMARK  status: ('A' for Active; 'I' for Inactive)
ROOT
ATOM      1  C1  DEN d   1       0.888   0.597  -0.711  0.00  0.00     0.130 A 
ATOM      2  C2  DEN d   1       2.344   0.572  -0.820  0.00  0.00    -0.031 A 
ATOM      3  C3  DEN d   1       2.843  -0.550  -0.000  0.00  0.00     0.027 A 
ATOM      4  C4  DEN d   1       1.510  -2.245   1.416  0.00  0.00     0.027 A 
ATOM      5  C5  DEN d   1       0.250  -2.617   1.828  0.00  0.00    -0.003 A 
ATOM      6  C6  DEN d   1      -0.874  -1.930   1.454  0.00  0.00     0.001 A 
ATOM      7  C7  DEN d   1      -0.764  -0.860   0.606  0.00  0.00     0.017 A 
ATOM      8  C8  DEN d   1       0.504  -0.473   0.192  0.00  0.00    -0.094 A 
ATOM      9  C9  DEN d   1       1.627  -1.189   0.572  0.00  0.00    -0.072 A 
ENDROOT
TORSDOF 0
ENDMDL
