MODEL 1
REMARK minimizedAffinity -5.12248516
REMARK minimizedRMSD -1
REMARK  0 active torsions:
REMARK  status: ('A' for Active; 'I' for Inactive)
ROOT
ATOM      1  C1  DEN d   1      -1.095  -0.436  -1.153  0.00  0.00     0.130 A 
ATOM      2  C2  DEN d   1      -1.071   1.002  -0.904  0.00  0.00    -0.031 A 
ATOM      3  C3  DEN d   1       0.157   1.314  -0.145  0.00  0.00     0.027 A 
ATOM      4  C4  DEN d   1       2.015  -0.282   0.662  0.00  0.00     0.027 A 
ATOM      5  C5  DEN d   1       2.429  -1.595   0.699  0.00  0.00    -0.003 A 
ATOM      6  C6  DEN d   1       1.687  -2.610   0.156  0.00  0.00     0.001 A 
ATOM      7  C7  DEN d   1       0.512  -2.323  -0.488  0.00  0.00     0.017 A 
ATOM      8  C8  DEN d   1       0.085  -1.002  -0.523  0.00  0.00    -0.094 A 
ATOM      9  C9  DEN d   1       0.855   0.012   0.021  0.00  0.00    -0.072 A 
ENDROOT
TORSDOF 0
ENDMDL
