MODEL 1
REMARK minimizedAffinity -5.47413015
REMARK minimizedRMSD -1
REMARK  0 active torsions:
REMARK  status: ('A' for Active; 'I' for Inactive)
ROOT
ATOM      1  C1  DEN d   1      -0.820   0.199  -0.457  0.00  0.00     0.130 A 
ATOM      2  C2  DEN d   1       0.054   1.337  -0.730  0.00  0.00    -0.031 A 
ATOM      3  C3  DEN d   1       1.431   0.955  -0.355  0.00  0.00     0.027 A 
ATOM      4  C4  DEN d   1       2.290  -1.276   0.613  0.00  0.00     0.027 A 
ATOM      5  C5  DEN d   1       1.919  -2.535   1.029  0.00  0.00    -0.003 A 
ATOM      6  C6  DEN d   1       0.616  -2.957   1.011  0.00  0.00     0.001 A 
ATOM      7  C7  DEN d   1      -0.359  -2.126   0.525  0.00  0.00     0.017 A 
ATOM      8  C8  DEN d   1       0.005  -0.852   0.111  0.00  0.00    -0.094 A 
ATOM      9  C9  DEN d   1       1.330  -0.449   0.126  0.00  0.00    -0.072 A 
ENDROOT
TORSDOF 0
ENDMDL
