MODEL 1
REMARK minimizedAffinity -4.13689423
REMARK minimizedRMSD -1
REMARK  0 active torsions:
REMARK  status: ('A' for Active; 'I' for Inactive)
ROOT
ATOM      1  C1  DEN d   1      -1.017  -0.263  -1.315  0.00  0.00     0.130 A 
ATOM      2  C2  DEN d   1      -1.058   1.157  -0.977  0.00  0.00    -0.031 A 
ATOM      3  C3  DEN d   1       0.082   1.448  -0.085  0.00  0.00     0.027 A 
ATOM      4  C4  DEN d   1       1.900  -0.155   0.798  0.00  0.00     0.027 A 
ATOM      5  C5  DEN d   1       2.346  -1.458   0.795  0.00  0.00    -0.003 A 
ATOM      6  C6  DEN d   1       1.688  -2.453   0.121  0.00  0.00     0.001 A 
ATOM      7  C7  DEN d   1       0.573  -2.151  -0.615  0.00  0.00     0.017 A 
ATOM      8  C8  DEN d   1       0.113  -0.841  -0.610  0.00  0.00    -0.094 A 
ATOM      9  C9  DEN d   1       0.799   0.153   0.067  0.00  0.00    -0.072 A 
ENDROOT
TORSDOF 0
ENDMDL
