MODEL 1
REMARK minimizedAffinity -5.01019049
REMARK minimizedRMSD -1
REMARK  0 active torsions:
REMARK  status: ('A' for Active; 'I' for Inactive)
ROOT
ATOM      1  C1  DEN d   1      -1.532  -1.067  -0.341  0.00  0.00     0.130 A 
ATOM      2  C2  DEN d   1      -1.595   0.160  -1.131  0.00  0.00    -0.031 A 
ATOM      3  C3  DEN d   1      -0.218   0.665  -1.300  0.00  0.00     0.027 A 
ATOM      4  C4  DEN d   1       1.995  -0.331  -0.425  0.00  0.00     0.027 A 
ATOM      5  C5  DEN d   1       2.553  -1.357   0.304  0.00  0.00    -0.003 A 
ATOM      6  C6  DEN d   1       1.792  -2.332   0.894  0.00  0.00     0.001 A 
ATOM      7  C7  DEN d   1       0.433  -2.326   0.726  0.00  0.00     0.017 A 
ATOM      8  C8  DEN d   1      -0.138  -1.290  -0.002  0.00  0.00    -0.094 A 
ATOM      9  C9  DEN d   1       0.649  -0.321  -0.601  0.00  0.00    -0.072 A 
ENDROOT
TORSDOF 0
ENDMDL
