MODEL 1
REMARK minimizedAffinity -2.29841137
REMARK minimizedRMSD -1
REMARK  0 active torsions:
REMARK  status: ('A' for Active; 'I' for Inactive)
ROOT
ATOM      1  C1  DEN d   1       0.030   0.563  -1.816  0.00  0.00     0.130 A 
ATOM      2  C2  DEN d   1      -0.867   1.359  -0.984  0.00  0.00    -0.031 A 
ATOM      3  C3  DEN d   1      -0.601   1.020   0.429  0.00  0.00     0.027 A 
ATOM      4  C4  DEN d   1       1.108  -0.649   1.402  0.00  0.00     0.027 A 
ATOM      5  C5  DEN d   1       2.084  -1.567   1.087  0.00  0.00    -0.003 A 
ATOM      6  C6  DEN d   1       2.419  -1.863  -0.208  0.00  0.00     0.001 A 
ATOM      7  C7  DEN d   1       1.802  -1.200  -1.236  0.00  0.00     0.017 A 
ATOM      8  C8  DEN d   1       0.811  -0.278  -0.926  0.00  0.00    -0.094 A 
ATOM      9  C9  DEN d   1       0.496   0.016   0.390  0.00  0.00    -0.072 A 
ENDROOT
TORSDOF 0
ENDMDL
