MODEL 1
REMARK minimizedAffinity -1.89863074
REMARK minimizedRMSD -1
REMARK  0 active torsions:
REMARK  status: ('A' for Active; 'I' for Inactive)
ROOT
ATOM      1  C1  DEN d   1      -0.283   1.518  -1.571  0.00  0.00     0.130 A 
ATOM      2  C2  DEN d   1      -1.466   2.229  -1.095  0.00  0.00    -0.031 A 
ATOM      3  C3  DEN d   1      -1.834   1.672   0.223  0.00  0.00     0.027 A 
ATOM      4  C4  DEN d   1      -0.690  -0.209   1.566  0.00  0.00     0.027 A 
ATOM      5  C5  DEN d   1       0.342  -1.122   1.564  0.00  0.00    -0.003 A 
ATOM      6  C6  DEN d   1       1.210  -1.241   0.511  0.00  0.00     0.001 A 
ATOM      7  C7  DEN d   1       1.090  -0.402  -0.566  0.00  0.00     0.017 A 
ATOM      8  C8  DEN d   1       0.048   0.515  -0.575  0.00  0.00    -0.094 A 
ATOM      9  C9  DEN d   1      -0.812   0.628   0.505  0.00  0.00    -0.072 A 
ENDROOT
TORSDOF 0
ENDMDL
