MODEL 1
REMARK minimizedAffinity -3.71632099
REMARK minimizedRMSD -1
REMARK  0 active torsions:
REMARK  status: ('A' for Active; 'I' for Inactive)
ROOT
ATOM      1  C1  DEN d   1       0.563   0.896  -0.918  0.00  0.00     0.130 A 
ATOM      2  C2  DEN d   1      -0.830   0.457  -0.910  0.00  0.00    -0.031 A 
ATOM      3  C3  DEN d   1      -0.913  -0.781  -0.110  0.00  0.00     0.027 A 
ATOM      4  C4  DEN d   1       0.968  -2.053   1.113  0.00  0.00     0.027 A 
ATOM      5  C5  DEN d   1       2.318  -2.071   1.384  0.00  0.00    -0.003 A 
ATOM      6  C6  DEN d   1       3.176  -1.128   0.883  0.00  0.00     0.001 A 
ATOM      7  C7  DEN d   1       2.686  -0.101   0.121  0.00  0.00     0.017 A 
ATOM      8  C8  DEN d   1       1.327  -0.080  -0.163  0.00  0.00    -0.094 A 
ATOM      9  C9  DEN d   1       0.474  -1.035   0.363  0.00  0.00    -0.072 A 
ENDROOT
TORSDOF 0
ENDMDL
