MODEL 1
REMARK minimizedAffinity 3.08283162
REMARK minimizedRMSD -1
REMARK  0 active torsions:
REMARK  status: ('A' for Active; 'I' for Inactive)
ROOT
ATOM      1  C1  DEN d   1       1.860  -1.825   0.811  0.00  0.00     0.130 A 
ATOM      2  C2  DEN d   1       2.091  -1.838   2.253  0.00  0.00    -0.031 A 
ATOM      3  C3  DEN d   1       1.032  -1.031   2.892  0.00  0.00     0.027 A 
ATOM      4  C4  DEN d   1      -0.935   0.226   1.795  0.00  0.00     0.027 A 
ATOM      5  C5  DEN d   1      -1.539   0.539   0.598  0.00  0.00    -0.003 A 
ATOM      6  C6  DEN d   1      -1.038   0.117  -0.605  0.00  0.00     0.001 A 
ATOM      7  C7  DEN d   1       0.076  -0.679  -0.635  0.00  0.00     0.017 A 
ATOM      8  C8  DEN d   1       0.695  -0.993   0.568  0.00  0.00    -0.094 A 
ATOM      9  C9  DEN d   1       0.166  -0.567   1.775  0.00  0.00    -0.072 A 
ENDROOT
TORSDOF 0
ENDMDL
