MODEL 1
REMARK minimizedAffinity -2.55857849
REMARK minimizedRMSD -1
REMARK  0 active torsions:
REMARK  status: ('A' for Active; 'I' for Inactive)
ROOT
ATOM      1  C1  DEN d   1      -1.257  -0.040   0.068  0.00  0.00     0.130 A 
ATOM      2  C2  DEN d   1      -1.141   1.240  -0.625  0.00  0.00    -0.031 A 
ATOM      3  C3  DEN d   1       0.275   1.432  -0.997  0.00  0.00     0.027 A 
ATOM      4  C4  DEN d   1       2.288  -0.124  -0.573  0.00  0.00     0.027 A 
ATOM      5  C5  DEN d   1       2.686  -1.317  -0.012  0.00  0.00    -0.003 A 
ATOM      6  C6  DEN d   1       1.811  -2.146   0.640  0.00  0.00     0.001 A 
ATOM      7  C7  DEN d   1       0.484  -1.813   0.707  0.00  0.00     0.017 A 
ATOM      8  C8  DEN d   1       0.076  -0.608   0.150  0.00  0.00    -0.094 A 
ATOM      9  C9  DEN d   1       0.974   0.210  -0.515  0.00  0.00    -0.072 A 
ENDROOT
TORSDOF 0
ENDMDL
