MODEL 1
REMARK minimizedAffinity 4.57377529
REMARK minimizedRMSD -1
REMARK  1 active torsions:
REMARK  status: ('A' for Active; 'I' for Inactive)
REMARK    1  A    between atoms: C1_2  and  C2_3 
ROOT
ATOM      1  C2  UNL d   1       0.237   3.940   0.805  0.00  0.00    -0.077 A 
ATOM      2  C3  UNL d   1       1.463   3.753   1.460  0.00  0.00     0.002 A 
ATOM      3  C4  UNL d   1       1.568   2.845   2.515  0.00  0.00     0.002 A 
ATOM      4  C5  UNL d   1       0.454   2.114   2.922  0.00  0.00    -0.004 A 
ATOM      5  C6  UNL d   1      -0.770   2.295   2.279  0.00  0.00     0.002 A 
ATOM      6  C7  UNL d   1      -0.878   3.203   1.225  0.00  0.00     0.002 A 
ENDROOT
BRANCH   1   7
ATOM      7  C1  UNL d   1       0.132   4.883  -0.365  0.00  0.00     0.055 C 
ATOM      8  C   UNL d   1      -0.864   6.000  -0.089  0.00  0.00     0.019 C 
ENDBRANCH   1   7
TORSDOF 1
ENDMDL
