MODEL 1
REMARK minimizedAffinity 7.19907999
REMARK minimizedRMSD -1
REMARK  1 active torsions:
REMARK  status: ('A' for Active; 'I' for Inactive)
REMARK    1  A    between atoms: C1_2  and  C2_3 
ROOT
ATOM      1  C2  UNL d   1       4.978  -4.082   0.213  0.00  0.00    -0.077 A 
ATOM      2  C3  UNL d   1       5.496  -3.135  -0.682  0.00  0.00     0.002 A 
ATOM      3  C4  UNL d   1       5.061  -1.809  -0.637  0.00  0.00     0.002 A 
ATOM      4  C5  UNL d   1       4.110  -1.417   0.302  0.00  0.00    -0.004 A 
ATOM      5  C6  UNL d   1       3.587  -2.352   1.196  0.00  0.00     0.002 A 
ATOM      6  C7  UNL d   1       4.020  -3.678   1.152  0.00  0.00     0.002 A 
ENDROOT
BRANCH   1   7
ATOM      7  C1  UNL d   1       5.482  -5.501   0.200  0.00  0.00     0.055 C 
ATOM      8  C   UNL d   1       5.831  -5.979   1.602  0.00  0.00     0.019 C 
ENDBRANCH   1   7
TORSDOF 1
ENDMDL
