MODEL 1
REMARK minimizedAffinity 3.08444619
REMARK minimizedRMSD -1
REMARK  1 active torsions:
REMARK  status: ('A' for Active; 'I' for Inactive)
REMARK    1  A    between atoms: C1_2  and  C2_3 
ROOT
ATOM      1  C2  UNL d   1      -0.453   5.380  -1.399  0.00  0.00    -0.077 A 
ATOM      2  C3  UNL d   1      -0.849   4.200  -0.752  0.00  0.00     0.002 A 
ATOM      3  C4  UNL d   1      -0.060   3.652   0.261  0.00  0.00     0.002 A 
ATOM      4  C5  UNL d   1       1.125   4.278   0.640  0.00  0.00    -0.004 A 
ATOM      5  C6  UNL d   1       1.528   5.451   0.001  0.00  0.00     0.002 A 
ATOM      6  C7  UNL d   1       0.742   5.999  -1.013  0.00  0.00     0.002 A 
ENDROOT
BRANCH   1   7
ATOM      7  C1  UNL d   1      -1.327   5.999  -2.458  0.00  0.00     0.055 C 
ATOM      8  C   UNL d   1      -2.646   5.253  -2.594  0.00  0.00     0.019 C 
ENDBRANCH   1   7
TORSDOF 1
ENDMDL
