MODEL 1
REMARK minimizedAffinity 10.1725988
REMARK minimizedRMSD -1
REMARK  1 active torsions:
REMARK  status: ('A' for Active; 'I' for Inactive)
REMARK    1  A    between atoms: C1_2  and  C2_3 
ROOT
ATOM      1  C2  UNL d   1       5.491  -2.669  -1.836  0.00  0.00    -0.077 A 
ATOM      2  C3  UNL d   1       5.774  -3.693  -0.920  0.00  0.00     0.002 A 
ATOM      3  C4  UNL d   1       5.264  -3.639   0.378  0.00  0.00     0.002 A 
ATOM      4  C5  UNL d   1       4.465  -2.568   0.771  0.00  0.00    -0.004 A 
ATOM      5  C6  UNL d   1       4.179  -1.544  -0.131  0.00  0.00     0.002 A 
ATOM      6  C7  UNL d   1       4.689  -1.595  -1.429  0.00  0.00     0.002 A 
ENDROOT
BRANCH   1   7
ATOM      7  C1  UNL d   1       6.000  -2.749  -3.252  0.00  0.00     0.055 C 
ATOM      8  C   UNL d   1       5.699  -4.106  -3.872  0.00  0.00     0.019 C 
ENDBRANCH   1   7
TORSDOF 1
ENDMDL
