MODEL 1
REMARK minimizedAffinity 7.59935904
REMARK minimizedRMSD -1
REMARK  1 active torsions:
REMARK  status: ('A' for Active; 'I' for Inactive)
REMARK    1  A    between atoms: C1_2  and  C2_3 
ROOT
ATOM      1  C2  UNL d   1      -0.109   5.241  -1.322  0.00  0.00    -0.077 A 
ATOM      2  C3  UNL d   1       0.582   5.528  -2.508  0.00  0.00     0.002 A 
ATOM      3  C4  UNL d   1      -0.117   5.832  -3.678  0.00  0.00     0.002 A 
ATOM      4  C5  UNL d   1      -1.510   5.856  -3.672  0.00  0.00    -0.004 A 
ATOM      5  C6  UNL d   1      -2.207   5.570  -2.499  0.00  0.00     0.002 A 
ATOM      6  C7  UNL d   1      -1.510   5.265  -1.329  0.00  0.00     0.002 A 
ENDROOT
BRANCH   1   7
ATOM      7  C1  UNL d   1       0.643   4.962  -0.048  0.00  0.00     0.055 C 
ATOM      8  C   UNL d   1       0.200   3.648   0.580  0.00  0.00     0.019 C 
ENDBRANCH   1   7
TORSDOF 1
ENDMDL
