MODEL 1
REMARK minimizedAffinity 11.9628544
REMARK minimizedRMSD -1
REMARK  1 active torsions:
REMARK  status: ('A' for Active; 'I' for Inactive)
REMARK    1  A    between atoms: C1_2  and  C2_3 
ROOT
ATOM      1  C2  UNL d   1      -0.390   1.514  -0.594  0.00  0.00    -0.077 A 
ATOM      2  C3  UNL d   1       0.585   0.625  -1.067  0.00  0.00     0.002 A 
ATOM      3  C4  UNL d   1       0.220  -0.638  -1.538  0.00  0.00     0.002 A 
ATOM      4  C5  UNL d   1      -1.119  -1.021  -1.544  0.00  0.00    -0.004 A 
ATOM      5  C6  UNL d   1      -2.096  -0.145  -1.073  0.00  0.00     0.002 A 
ATOM      6  C7  UNL d   1      -1.734   1.117  -0.601  0.00  0.00     0.002 A 
ENDROOT
BRANCH   1   7
ATOM      7  C1  UNL d   1      -0.004   2.895  -0.132  0.00  0.00     0.055 C 
ATOM      8  C   UNL d   1      -0.026   2.997   1.386  0.00  0.00     0.019 C 
ENDBRANCH   1   7
TORSDOF 1
ENDMDL
