MODEL 1
REMARK minimizedAffinity -4.96750879
REMARK minimizedRMSD -1
REMARK  1 active torsions:
REMARK  status: ('A' for Active; 'I' for Inactive)
REMARK    1  A    between atoms: C1_2  and  C2_3 
ROOT
ATOM      1  C2  UNL d   1       0.519   0.372   0.675  0.00  0.00    -0.081 A 
ATOM      2  C3  UNL d   1       1.523   1.267   1.065  0.00  0.00     0.006 A 
ATOM      3  C4  UNL d   1       2.860   0.864   1.091  0.00  0.00     0.002 A 
ATOM      4  C5  UNL d   1       3.216  -0.438   0.721  0.00  0.00    -0.080 A 
ATOM      5  C6  UNL d   1       4.651  -0.875   0.715  0.00  0.00     0.076 C 
ATOM      6  C7  UNL d   1       2.211  -1.337   0.348  0.00  0.00     0.002 A 
ATOM      7  C8  UNL d   1       0.874  -0.934   0.323  0.00  0.00     0.006 A 
ENDROOT
BRANCH   1   8
ATOM      8  C1  UNL d   1      -0.916   0.824   0.584  0.00  0.00     0.054 C 
ATOM      9  C   UNL d   1      -1.439   0.722  -0.842  0.00  0.00     0.018 C 
ENDBRANCH   1   8
TORSDOF 1
ENDMDL
