MODEL 1
REMARK minimizedAffinity -6.00146341
REMARK minimizedRMSD -1
REMARK  1 active torsions:
REMARK  status: ('A' for Active; 'I' for Inactive)
REMARK    1  A    between atoms: C1_2  and  C2_3 
ROOT
ATOM      1  C2  UNL d   1      -0.129   0.303   0.034  0.00  0.00    -0.081 A 
ATOM      2  C3  UNL d   1       0.838   1.250   0.395  0.00  0.00     0.006 A 
ATOM      3  C4  UNL d   1       2.152   0.856   0.658  0.00  0.00     0.002 A 
ATOM      4  C5  UNL d   1       2.522  -0.490   0.558  0.00  0.00    -0.080 A 
ATOM      5  C6  UNL d   1       3.936  -0.922   0.808  0.00  0.00     0.076 C 
ATOM      6  C7  UNL d   1       1.553  -1.438   0.214  0.00  0.00     0.002 A 
ATOM      7  C8  UNL d   1       0.239  -1.044  -0.049  0.00  0.00     0.006 A 
ENDROOT
BRANCH   1   8
ATOM      8  C1  UNL d   1      -1.531   0.734  -0.314  0.00  0.00     0.054 C 
ATOM      9  C   UNL d   1      -2.480   0.526   0.858  0.00  0.00     0.018 C 
ENDBRANCH   1   8
TORSDOF 1
ENDMDL
