MODEL 1
REMARK minimizedAffinity -1.00883996
REMARK minimizedRMSD -1
REMARK  1 active torsions:
REMARK  status: ('A' for Active; 'I' for Inactive)
REMARK    1  A    between atoms: C1_2  and  C2_3 
ROOT
ATOM      1  C2  UNL d   1      -1.691  -0.046  -0.487  0.00  0.00    -0.081 A 
ATOM      2  C3  UNL d   1      -1.295  -1.120  -1.294  0.00  0.00     0.006 A 
ATOM      3  C4  UNL d   1       0.012  -1.610  -1.229  0.00  0.00     0.002 A 
ATOM      4  C5  UNL d   1       0.941  -1.042  -0.351  0.00  0.00    -0.080 A 
ATOM      5  C6  UNL d   1       2.338  -1.579  -0.250  0.00  0.00     0.076 C 
ATOM      6  C7  UNL d   1       0.550   0.042   0.442  0.00  0.00     0.002 A 
ATOM      7  C8  UNL d   1      -0.755   0.533   0.378  0.00  0.00     0.006 A 
ENDROOT
BRANCH   1   8
ATOM      8  C1  UNL d   1      -3.116   0.443  -0.507  0.00  0.00     0.054 C 
ATOM      9  C   UNL d   1      -3.753   0.350   0.872  0.00  0.00     0.018 C 
ENDBRANCH   1   8
TORSDOF 1
ENDMDL
