MODEL 1
REMARK minimizedAffinity -3.42445159
REMARK minimizedRMSD -1
REMARK  1 active torsions:
REMARK  status: ('A' for Active; 'I' for Inactive)
REMARK    1  A    between atoms: C1_2  and  C2_3 
ROOT
ATOM      1  C2  UNL d   1       0.341   0.770  -0.283  0.00  0.00    -0.081 A 
ATOM      2  C3  UNL d   1       0.397  -0.625  -0.397  0.00  0.00     0.006 A 
ATOM      3  C4  UNL d   1       1.537  -1.323   0.006  0.00  0.00     0.002 A 
ATOM      4  C5  UNL d   1       2.637  -0.641   0.538  0.00  0.00    -0.080 A 
ATOM      5  C6  UNL d   1       3.855  -1.382   1.004  0.00  0.00     0.076 C 
ATOM      6  C7  UNL d   1       2.588   0.754   0.637  0.00  0.00     0.002 A 
ATOM      7  C8  UNL d   1       1.448   1.453   0.233  0.00  0.00     0.006 A 
ENDROOT
BRANCH   1   8
ATOM      8  C1  UNL d   1      -0.911   1.520  -0.657  0.00  0.00     0.054 C 
ATOM      9  C   UNL d   1      -2.137   0.923   0.020  0.00  0.00     0.018 C 
ENDBRANCH   1   8
TORSDOF 1
ENDMDL
