MODEL 1
REMARK minimizedAffinity -4.35478067
REMARK minimizedRMSD -1
REMARK  1 active torsions:
REMARK  status: ('A' for Active; 'I' for Inactive)
REMARK    1  A    between atoms: C1_2  and  C2_3 
ROOT
ATOM      1  C2  UNL d   1      -0.027   0.243  -0.499  0.00  0.00    -0.081 A 
ATOM      2  C3  UNL d   1       0.294  -1.118  -0.427  0.00  0.00     0.006 A 
ATOM      3  C4  UNL d   1       1.531  -1.528   0.075  0.00  0.00     0.002 A 
ATOM      4  C5  UNL d   1       2.464  -0.585   0.521  0.00  0.00    -0.080 A 
ATOM      5  C6  UNL d   1       3.784  -1.013   1.090  0.00  0.00     0.076 C 
ATOM      6  C7  UNL d   1       2.150   0.775   0.433  0.00  0.00     0.002 A 
ATOM      7  C8  UNL d   1       0.914   1.186  -0.070  0.00  0.00     0.006 A 
ENDROOT
BRANCH   1   8
ATOM      8  C1  UNL d   1      -1.386   0.686  -0.979  0.00  0.00     0.054 C 
ATOM      9  C   UNL d   1      -2.428   0.568   0.124  0.00  0.00     0.018 C 
ENDBRANCH   1   8
TORSDOF 1
ENDMDL
