MODEL 1
REMARK minimizedAffinity -3.99512911
REMARK minimizedRMSD -1
REMARK  1 active torsions:
REMARK  status: ('A' for Active; 'I' for Inactive)
REMARK    1  A    between atoms: C1_2  and  C2_3 
ROOT
ATOM      1  C2  UNL d   1      -1.741   0.528   0.239  0.00  0.00    -0.081 A 
ATOM      2  C3  UNL d   1      -0.739   1.223  -0.449  0.00  0.00     0.006 A 
ATOM      3  C4  UNL d   1       0.512   0.638  -0.659  0.00  0.00     0.002 A 
ATOM      4  C5  UNL d   1       0.779  -0.653  -0.192  0.00  0.00    -0.080 A 
ATOM      5  C6  UNL d   1       2.108  -1.305  -0.437  0.00  0.00     0.076 C 
ATOM      6  C7  UNL d   1      -0.216  -1.341   0.511  0.00  0.00     0.002 A 
ATOM      7  C8  UNL d   1      -1.467  -0.757   0.722  0.00  0.00     0.006 A 
ENDROOT
BRANCH   1   8
ATOM      8  C1  UNL d   1      -3.112   1.130   0.411  0.00  0.00     0.054 C 
ATOM      9  C   UNL d   1      -3.878   0.452   1.538  0.00  0.00     0.018 C 
ENDBRANCH   1   8
TORSDOF 1
ENDMDL
