MODEL 1
REMARK minimizedAffinity -4.09474421
REMARK minimizedRMSD -1
REMARK  1 active torsions:
REMARK  status: ('A' for Active; 'I' for Inactive)
REMARK    1  A    between atoms: C1_2  and  C2_3 
ROOT
ATOM      1  C2  UNL d   1      -0.886   0.180  -0.091  0.00  0.00    -0.081 A 
ATOM      2  C3  UNL d   1      -0.698  -1.205  -0.180  0.00  0.00     0.006 A 
ATOM      3  C4  UNL d   1       0.566  -1.763   0.025  0.00  0.00     0.002 A 
ATOM      4  C5  UNL d   1       1.661  -0.947   0.329  0.00  0.00    -0.080 A 
ATOM      5  C6  UNL d   1       3.017  -1.536   0.581  0.00  0.00     0.076 C 
ATOM      6  C7  UNL d   1       1.477   0.438   0.400  0.00  0.00     0.002 A 
ATOM      7  C8  UNL d   1       0.214   0.997   0.195  0.00  0.00     0.006 A 
ENDROOT
BRANCH   1   8
ATOM      8  C1  UNL d   1      -2.260   0.779  -0.248  0.00  0.00     0.054 C 
ATOM      9  C   UNL d   1      -3.027   0.755   1.067  0.00  0.00     0.018 C 
ENDBRANCH   1   8
TORSDOF 1
ENDMDL
