MODEL 1
REMARK minimizedAffinity 6.4284234
REMARK minimizedRMSD -1
REMARK  1 active torsions:
REMARK  status: ('A' for Active; 'I' for Inactive)
REMARK    1  A    between atoms: C1_2  and  C2_3 
ROOT
ATOM      1  C2  UNL d   1       0.842  -2.149  -0.206  0.00  0.00    -0.081 A 
ATOM      2  C3  UNL d   1       0.631  -0.765  -0.246  0.00  0.00     0.006 A 
ATOM      3  C4  UNL d   1      -0.635  -0.234   0.012  0.00  0.00     0.002 A 
ATOM      4  C5  UNL d   1      -1.709  -1.076   0.320  0.00  0.00    -0.080 A 
ATOM      5  C6  UNL d   1      -3.066  -0.517   0.628  0.00  0.00     0.076 C 
ATOM      6  C7  UNL d   1      -1.502  -2.460   0.343  0.00  0.00     0.002 A 
ATOM      7  C8  UNL d   1      -0.237  -2.991   0.085  0.00  0.00     0.006 A 
ENDROOT
BRANCH   1   8
ATOM      8  C1  UNL d   1       2.220  -2.720  -0.419  0.00  0.00     0.054 C 
ATOM      9  C   UNL d   1       2.835  -2.213  -1.716  0.00  0.00     0.018 C 
ENDBRANCH   1   8
TORSDOF 1
ENDMDL
