MODEL 1
REMARK minimizedAffinity -0.113025188
REMARK minimizedRMSD -1
REMARK  1 active torsions:
REMARK  status: ('A' for Active; 'I' for Inactive)
REMARK    1  A    between atoms: C1_2  and  C2_3 
ROOT
ATOM      1  C2  UNL d   1       2.443  -0.893  -0.474  0.00  0.00    -0.081 A 
ATOM      2  C3  UNL d   1       3.753  -0.771  -0.953  0.00  0.00     0.006 A 
ATOM      3  C4  UNL d   1       4.377   0.477  -0.998  0.00  0.00     0.002 A 
ATOM      4  C5  UNL d   1       3.706   1.623  -0.559  0.00  0.00    -0.080 A 
ATOM      5  C6  UNL d   1       4.375   2.965  -0.574  0.00  0.00     0.076 C 
ATOM      6  C7  UNL d   1       2.391   1.504  -0.096  0.00  0.00     0.002 A 
ATOM      7  C8  UNL d   1       1.766   0.256  -0.051  0.00  0.00     0.006 A 
ENDROOT
BRANCH   1   8
ATOM      8  C1  UNL d   1       1.790  -2.247  -0.363  0.00  0.00     0.054 C 
ATOM      9  C   UNL d   1       0.307  -2.175  -0.696  0.00  0.00     0.018 C 
ENDBRANCH   1   8
TORSDOF 1
ENDMDL
