MODEL 1
REMARK minimizedAffinity -4.50854301
REMARK minimizedRMSD -1
REMARK  1 active torsions:
REMARK  status: ('A' for Active; 'I' for Inactive)
REMARK    1  A    between atoms: C3_4  and  O_7 
ROOT
ATOM      1  C   UNL d   1      -1.658   0.954   2.122  0.00  0.00    -0.033 A 
ATOM      2  C1  UNL d   1      -1.425   1.035   3.497  0.00  0.00     0.039 A 
ATOM      3  C2  UNL d   1      -1.856   0.010   4.341  0.00  0.00    -0.080 A 
ATOM      4  C3  UNL d   1      -2.516  -1.090   3.800  0.00  0.00     0.150 A 
ATOM      5  C4  UNL d   1      -2.747  -1.179   2.431  0.00  0.00    -0.007 A 
ATOM      6  C5  UNL d   1      -2.317  -0.154   1.589  0.00  0.00     0.039 A 
ENDROOT
BRANCH   4   7
ATOM      7  O   UNL d   1      -2.959  -2.113   4.584  0.00  0.00    -0.526 OA
ATOM      8  H5  UNL d   1      -2.754  -1.901   5.511  0.00  0.00     0.418 HD
ENDBRANCH   4   7
TORSDOF 1
ENDMDL
