MODEL 1
REMARK minimizedAffinity -2.13294125
REMARK minimizedRMSD -1
REMARK  1 active torsions:
REMARK  status: ('A' for Active; 'I' for Inactive)
REMARK    1  A    between atoms: C3_4  and  O_7 
ROOT
ATOM      1  C   UNL d   1       2.052   0.768  -0.179  0.00  0.00    -0.033 A 
ATOM      2  C1  UNL d   1       1.258  -0.337  -0.490  0.00  0.00     0.039 A 
ATOM      3  C2  UNL d   1      -0.079  -0.160  -0.851  0.00  0.00    -0.080 A 
ATOM      4  C3  UNL d   1      -0.609   1.127  -0.897  0.00  0.00     0.150 A 
ATOM      5  C4  UNL d   1       0.177   2.233  -0.592  0.00  0.00    -0.007 A 
ATOM      6  C5  UNL d   1       1.512   2.054  -0.231  0.00  0.00     0.039 A 
ENDROOT
BRANCH   4   7
ATOM      7  O   UNL d   1      -1.910   1.349  -1.239  0.00  0.00    -0.526 OA
ATOM      8  H5  UNL d   1      -2.338   0.491  -1.395  0.00  0.00     0.418 HD
ENDBRANCH   4   7
TORSDOF 1
ENDMDL
