MODEL 1
REMARK minimizedAffinity -0.358711898
REMARK minimizedRMSD -1
REMARK  1 active torsions:
REMARK  status: ('A' for Active; 'I' for Inactive)
REMARK    1  A    between atoms: C3_4  and  O_7 
ROOT
ATOM      1  C   UNL d   1       4.896   0.517   4.772  0.00  0.00    -0.033 A 
ATOM      2  C1  UNL d   1       4.535   1.430   3.779  0.00  0.00     0.039 A 
ATOM      3  C2  UNL d   1       4.900   2.772   3.896  0.00  0.00    -0.080 A 
ATOM      4  C3  UNL d   1       5.625   3.189   5.009  0.00  0.00     0.150 A 
ATOM      5  C4  UNL d   1       5.992   2.284   6.000  0.00  0.00    -0.007 A 
ATOM      6  C5  UNL d   1       5.626   0.944   5.882  0.00  0.00     0.039 A 
ENDROOT
BRANCH   4   7
ATOM      7  O   UNL d   1       6.000   4.490   5.169  0.00  0.00    -0.526 OA
ATOM      8  H5  UNL d   1       5.653   5.004   4.422  0.00  0.00     0.418 HD
ENDBRANCH   4   7
TORSDOF 1
ENDMDL
