MODEL 1
REMARK minimizedAffinity -0.963880956
REMARK minimizedRMSD -1
REMARK  1 active torsions:
REMARK  status: ('A' for Active; 'I' for Inactive)
REMARK    1  A    between atoms: C3_4  and  O_7 
ROOT
ATOM      1  C   UNL d   1       0.399   0.378   0.284  0.00  0.00    -0.033 A 
ATOM      2  C1  UNL d   1       1.091   1.453  -0.279  0.00  0.00     0.039 A 
ATOM      3  C2  UNL d   1       1.435   1.432  -1.632  0.00  0.00    -0.080 A 
ATOM      4  C3  UNL d   1       1.082   0.333  -2.410  0.00  0.00     0.150 A 
ATOM      5  C4  UNL d   1       0.389  -0.739  -1.857  0.00  0.00    -0.007 A 
ATOM      6  C5  UNL d   1       0.047  -0.717  -0.505  0.00  0.00     0.039 A 
ENDROOT
BRANCH   4   7
ATOM      7  O   UNL d   1       1.400   0.265  -3.734  0.00  0.00    -0.526 OA
ATOM      8  H5  UNL d   1       1.902   1.063  -3.971  0.00  0.00     0.418 HD
ENDBRANCH   4   7
TORSDOF 1
ENDMDL
