MODEL 1
REMARK minimizedAffinity -3.30625153
REMARK minimizedRMSD -1
REMARK  1 active torsions:
REMARK  status: ('A' for Active; 'I' for Inactive)
REMARK    1  A    between atoms: C3_4  and  O_7 
ROOT
ATOM      1  C   UNL d   1      -1.641   1.912   1.622  0.00  0.00    -0.033 A 
ATOM      2  C1  UNL d   1      -1.876   1.913   2.998  0.00  0.00     0.039 A 
ATOM      3  C2  UNL d   1      -2.324   0.752   3.632  0.00  0.00    -0.080 A 
ATOM      4  C3  UNL d   1      -2.531  -0.401   2.879  0.00  0.00     0.150 A 
ATOM      5  C4  UNL d   1      -2.295  -0.410   1.508  0.00  0.00    -0.007 A 
ATOM      6  C5  UNL d   1      -1.849   0.751   0.877  0.00  0.00     0.039 A 
ENDROOT
BRANCH   4   7
ATOM      7  O   UNL d   1      -2.972  -1.557   3.453  0.00  0.00    -0.526 OA
ATOM      8  H5  UNL d   1      -3.120  -1.393   4.399  0.00  0.00     0.418 HD
ENDBRANCH   4   7
TORSDOF 1
ENDMDL
