MODEL 1
REMARK minimizedAffinity -4.74107647
REMARK minimizedRMSD -1
REMARK  1 active torsions:
REMARK  status: ('A' for Active; 'I' for Inactive)
REMARK    1  A    between atoms: C3_4  and  O_7 
ROOT
ATOM      1  C   UNL d   1       1.873  -1.774  -1.403  0.00  0.00    -0.033 A 
ATOM      2  C1  UNL d   1       1.459  -0.453  -1.582  0.00  0.00     0.039 A 
ATOM      3  C2  UNL d   1       0.593   0.140  -0.661  0.00  0.00    -0.080 A 
ATOM      4  C3  UNL d   1       0.150  -0.598   0.433  0.00  0.00     0.150 A 
ATOM      5  C4  UNL d   1       0.561  -1.913   0.620  0.00  0.00    -0.007 A 
ATOM      6  C5  UNL d   1       1.425  -2.504  -0.301  0.00  0.00     0.039 A 
ENDROOT
BRANCH   4   7
ATOM      7  O   UNL d   1      -0.700  -0.063   1.356  0.00  0.00    -0.526 OA
ATOM      8  H5  UNL d   1      -0.921   0.842   1.082  0.00  0.00     0.418 HD
ENDBRANCH   4   7
TORSDOF 1
ENDMDL
