MODEL 1
REMARK minimizedAffinity -4.49385786
REMARK minimizedRMSD -1
REMARK  1 active torsions:
REMARK  status: ('A' for Active; 'I' for Inactive)
REMARK    1  A    between atoms: C3_4  and  O_7 
ROOT
ATOM      1  C   UNL d   1       1.124   0.634  -0.728  0.00  0.00    -0.033 A 
ATOM      2  C1  UNL d   1       2.436   0.275  -1.039  0.00  0.00     0.039 A 
ATOM      3  C2  UNL d   1       2.825  -1.065  -0.990  0.00  0.00    -0.080 A 
ATOM      4  C3  UNL d   1       1.893  -2.035  -0.631  0.00  0.00     0.150 A 
ATOM      5  C4  UNL d   1       0.583  -1.684  -0.323  0.00  0.00    -0.007 A 
ATOM      6  C5  UNL d   1       0.196  -0.345  -0.372  0.00  0.00     0.039 A 
ENDROOT
BRANCH   4   7
ATOM      7  O   UNL d   1       2.227  -3.355  -0.564  0.00  0.00    -0.526 OA
ATOM      8  H5  UNL d   1       3.172  -3.444  -0.775  0.00  0.00     0.418 HD
ENDBRANCH   4   7
TORSDOF 1
ENDMDL
