MODEL 1
REMARK minimizedAffinity -4.21924782
REMARK minimizedRMSD -1
REMARK  1 active torsions:
REMARK  status: ('A' for Active; 'I' for Inactive)
REMARK    1  A    between atoms: C3_4  and  O_7 
ROOT
ATOM      1  C   UNL d   1       3.019  -1.074  -1.240  0.00  0.00    -0.033 A 
ATOM      2  C1  UNL d   1       2.511   0.130  -1.730  0.00  0.00     0.039 A 
ATOM      3  C2  UNL d   1       1.206   0.518  -1.416  0.00  0.00    -0.080 A 
ATOM      4  C3  UNL d   1       0.423  -0.306  -0.613  0.00  0.00     0.150 A 
ATOM      5  C4  UNL d   1       0.925  -1.505  -0.119  0.00  0.00    -0.007 A 
ATOM      6  C5  UNL d   1       2.227  -1.891  -0.434  0.00  0.00     0.039 A 
ENDROOT
BRANCH   4   7
ATOM      7  O   UNL d   1      -0.857   0.028  -0.284  0.00  0.00    -0.526 OA
ATOM      8  H5  UNL d   1      -1.078   0.869  -0.720  0.00  0.00     0.418 HD
ENDBRANCH   4   7
TORSDOF 1
ENDMDL
