MODEL 1
REMARK minimizedAffinity -5.20488691
REMARK minimizedRMSD -1
REMARK  1 active torsions:
REMARK  status: ('A' for Active; 'I' for Inactive)
REMARK    1  A    between atoms: C3_4  and  O_7 
ROOT
ATOM      1  C   UNL d   1       3.027  -0.884  -1.532  0.00  0.00    -0.033 A 
ATOM      2  C1  UNL d   1       2.774   0.324  -0.879  0.00  0.00     0.039 A 
ATOM      3  C2  UNL d   1       1.537   0.545  -0.271  0.00  0.00    -0.080 A 
ATOM      4  C3  UNL d   1       0.563  -0.448  -0.321  0.00  0.00     0.150 A 
ATOM      5  C4  UNL d   1       0.810  -1.656  -0.966  0.00  0.00    -0.007 A 
ATOM      6  C5  UNL d   1       2.045  -1.874  -1.574  0.00  0.00     0.039 A 
ENDROOT
BRANCH   4   7
ATOM      7  O   UNL d   1      -0.660  -0.277   0.255  0.00  0.00    -0.526 OA
ATOM      8  H5  UNL d   1      -0.698   0.615   0.638  0.00  0.00     0.418 HD
ENDBRANCH   4   7
TORSDOF 1
ENDMDL
