MODEL 1
REMARK minimizedAffinity -3.99111009
REMARK minimizedRMSD -1
REMARK  1 active torsions:
REMARK  status: ('A' for Active; 'I' for Inactive)
REMARK    1  A    between atoms: C3_4  and  O_7 
ROOT
ATOM      1  C   UNL d   1      -1.238   1.909   1.438  0.00  0.00    -0.033 A 
ATOM      2  C1  UNL d   1      -0.821   0.701   0.876  0.00  0.00     0.039 A 
ATOM      3  C2  UNL d   1      -1.423  -0.497   1.267  0.00  0.00    -0.080 A 
ATOM      4  C3  UNL d   1      -2.438  -0.472   2.219  0.00  0.00     0.150 A 
ATOM      5  C4  UNL d   1      -2.861   0.728   2.781  0.00  0.00    -0.007 A 
ATOM      6  C5  UNL d   1      -2.258   1.923   2.389  0.00  0.00     0.039 A 
ENDROOT
BRANCH   4   7
ATOM      7  O   UNL d   1      -3.052  -1.616   2.636  0.00  0.00    -0.526 OA
ATOM      8  H5  UNL d   1      -2.638  -2.370   2.184  0.00  0.00     0.418 HD
ENDBRANCH   4   7
TORSDOF 1
ENDMDL
