MODEL 1
REMARK minimizedAffinity 3.81861544
REMARK minimizedRMSD -1
REMARK  1 active torsions:
REMARK  status: ('A' for Active; 'I' for Inactive)
REMARK    1  A    between atoms: C3_4  and  O_7 
ROOT
ATOM      1  C   UNL d   1      -1.039   1.810   2.553  0.00  0.00    -0.033 A 
ATOM      2  C1  UNL d   1      -1.196   1.826   3.940  0.00  0.00     0.039 A 
ATOM      3  C2  UNL d   1      -1.580   0.665   4.614  0.00  0.00    -0.080 A 
ATOM      4  C3  UNL d   1      -1.803  -0.503   3.891  0.00  0.00     0.150 A 
ATOM      5  C4  UNL d   1      -1.645  -0.527   2.509  0.00  0.00    -0.007 A 
ATOM      6  C5  UNL d   1      -1.262   0.634   1.837  0.00  0.00     0.039 A 
ENDROOT
BRANCH   4   7
ATOM      7  O   UNL d   1      -2.183  -1.659   4.504  0.00  0.00    -0.526 OA
ATOM      8  H5  UNL d   1      -2.281  -1.486   5.455  0.00  0.00     0.418 HD
ENDBRANCH   4   7
TORSDOF 1
ENDMDL
