MODEL 1
REMARK minimizedAffinity -2.13849759
REMARK minimizedRMSD -1
REMARK  1 active torsions:
REMARK  status: ('A' for Active; 'I' for Inactive)
REMARK    1  A    between atoms: C3_4  and  O_7 
ROOT
ATOM      1  C   UNL d   1      -1.753   0.177   2.616  0.00  0.00    -0.033 A 
ATOM      2  C1  UNL d   1      -2.544   0.812   3.576  0.00  0.00     0.039 A 
ATOM      3  C2  UNL d   1      -3.340   0.055   4.438  0.00  0.00    -0.080 A 
ATOM      4  C3  UNL d   1      -3.335  -1.333   4.331  0.00  0.00     0.150 A 
ATOM      5  C4  UNL d   1      -2.546  -1.972   3.380  0.00  0.00    -0.007 A 
ATOM      6  C5  UNL d   1      -1.753  -1.215   2.519  0.00  0.00     0.039 A 
ENDROOT
BRANCH   4   7
ATOM      7  O   UNL d   1      -4.099  -2.113   5.147  0.00  0.00    -0.526 OA
ATOM      8  H5  UNL d   1      -4.612  -1.534   5.735  0.00  0.00     0.418 HD
ENDBRANCH   4   7
TORSDOF 1
ENDMDL
