MODEL 1
REMARK minimizedAffinity -5.39600754
REMARK minimizedRMSD -1
REMARK  1 active torsions:
REMARK  status: ('A' for Active; 'I' for Inactive)
REMARK    1  A    between atoms: C3_4  and  O_7 
ROOT
ATOM      1  C   UNL d   1      -2.093  -0.074   2.967  0.00  0.00    -0.033 A 
ATOM      2  C1  UNL d   1      -3.209   0.740   3.168  0.00  0.00     0.039 A 
ATOM      3  C2  UNL d   1      -4.390   0.196   3.677  0.00  0.00    -0.080 A 
ATOM      4  C3  UNL d   1      -4.441  -1.162   3.981  0.00  0.00     0.150 A 
ATOM      5  C4  UNL d   1      -3.331  -1.978   3.787  0.00  0.00    -0.007 A 
ATOM      6  C5  UNL d   1      -2.153  -1.433   3.278  0.00  0.00     0.039 A 
ENDROOT
BRANCH   4   7
ATOM      7  O   UNL d   1      -5.572  -1.739   4.476  0.00  0.00    -0.526 OA
ATOM      8  H5  UNL d   1      -6.266  -1.060   4.530  0.00  0.00     0.418 HD
ENDBRANCH   4   7
TORSDOF 1
ENDMDL
