MODEL 1
REMARK minimizedAffinity -5.12468576
REMARK minimizedRMSD -1
REMARK  1 active torsions:
REMARK  status: ('A' for Active; 'I' for Inactive)
REMARK    1  A    between atoms: C3_4  and  O_7 
ROOT
ATOM      1  C   UNL d   1       2.533  -0.567  -2.043  0.00  0.00    -0.033 A 
ATOM      2  C1  UNL d   1       1.805  -1.627  -1.498  0.00  0.00     0.039 A 
ATOM      3  C2  UNL d   1       0.750  -1.372  -0.619  0.00  0.00    -0.080 A 
ATOM      4  C3  UNL d   1       0.434  -0.056  -0.295  0.00  0.00     0.150 A 
ATOM      5  C4  UNL d   1       1.153   1.005  -0.837  0.00  0.00    -0.007 A 
ATOM      6  C5  UNL d   1       2.206   0.748  -1.714  0.00  0.00     0.039 A 
ENDROOT
BRANCH   4   7
ATOM      7  O   UNL d   1      -0.584   0.242   0.562  0.00  0.00    -0.526 OA
ATOM      8  H5  UNL d   1      -0.972  -0.590   0.880  0.00  0.00     0.418 HD
ENDBRANCH   4   7
TORSDOF 1
ENDMDL
