MODEL 1
REMARK minimizedAffinity -1.45330274
REMARK minimizedRMSD -1
REMARK  1 active torsions:
REMARK  status: ('A' for Active; 'I' for Inactive)
REMARK    1  A    between atoms: C3_4  and  O_7 
ROOT
ATOM      1  C   UNL d   1       1.029  -2.030  -0.783  0.00  0.00    -0.033 A 
ATOM      2  C1  UNL d   1      -0.010  -1.428  -0.070  0.00  0.00     0.039 A 
ATOM      3  C2  UNL d   1      -0.542  -0.212  -0.501  0.00  0.00    -0.080 A 
ATOM      4  C3  UNL d   1      -0.029   0.391  -1.646  0.00  0.00     0.150 A 
ATOM      5  C4  UNL d   1       1.004  -0.205  -2.364  0.00  0.00    -0.007 A 
ATOM      6  C5  UNL d   1       1.535  -1.419  -1.930  0.00  0.00     0.039 A 
ENDROOT
BRANCH   4   7
ATOM      7  O   UNL d   1      -0.513   1.581  -2.103  0.00  0.00    -0.526 OA
ATOM      8  H5  UNL d   1      -1.203   1.888  -1.492  0.00  0.00     0.418 HD
ENDBRANCH   4   7
TORSDOF 1
ENDMDL
