MODEL 1
REMARK minimizedAffinity -3.64529896
REMARK minimizedRMSD -1
REMARK  2 active torsions:
REMARK  status: ('A' for Active; 'I' for Inactive)
REMARK    1  A    between atoms: C1_2  and  C2_3 
REMARK    2  A    between atoms: C2_3  and  C3_4 
ROOT
ATOM      1  C3  UNL d   1      -0.805   0.709  -0.956  0.00  0.00    -0.075 A 
ATOM      2  C4  UNL d   1      -1.338   0.074  -2.086  0.00  0.00     0.002 A 
ATOM      3  C5  UNL d   1      -2.248   0.738  -2.909  0.00  0.00     0.002 A 
ATOM      4  C6  UNL d   1      -2.643   2.039  -2.608  0.00  0.00    -0.004 A 
ATOM      5  C7  UNL d   1      -2.133   2.674  -1.478  0.00  0.00     0.002 A 
ATOM      6  C8  UNL d   1      -1.219   2.014  -0.655  0.00  0.00     0.002 A 
ENDROOT
BRANCH   1   7
ATOM      7  C2  UNL d   1       0.203   0.007  -0.077  0.00  0.00     0.056 C 
BRANCH   7   8
ATOM      8  C1  UNL d   1      -0.291  -1.326   0.495  0.00  0.00     0.007 C 
ATOM      9  C   UNL d   1       0.811  -2.138   1.163  0.00  0.00     0.009 C 
ENDBRANCH   7   8
ENDBRANCH   1   7
TORSDOF 2
ENDMDL
