MODEL 1
REMARK minimizedAffinity -4.64329243
REMARK minimizedRMSD -1
REMARK  2 active torsions:
REMARK  status: ('A' for Active; 'I' for Inactive)
REMARK    1  A    between atoms: C1_2  and  C2_3 
REMARK    2  A    between atoms: C2_3  and  C3_4 
ROOT
ATOM      1  C3  UNL d   1       0.192   0.219   0.019  0.00  0.00    -0.075 A 
ATOM      2  C4  UNL d   1       1.411   0.301  -0.668  0.00  0.00     0.002 A 
ATOM      3  C5  UNL d   1       2.346  -0.731  -0.577  0.00  0.00     0.002 A 
ATOM      4  C6  UNL d   1       2.079  -1.850   0.209  0.00  0.00    -0.004 A 
ATOM      5  C7  UNL d   1       0.878  -1.934   0.909  0.00  0.00     0.002 A 
ATOM      6  C8  UNL d   1      -0.061  -0.905   0.816  0.00  0.00     0.002 A 
ENDROOT
BRANCH   1   7
ATOM      7  C2  UNL d   1      -0.837   1.318  -0.099  0.00  0.00     0.056 C 
BRANCH   7   8
ATOM      8  C1  UNL d   1      -0.847   2.019  -1.461  0.00  0.00     0.007 C 
ATOM      9  C   UNL d   1      -2.089   1.710  -2.286  0.00  0.00     0.009 C 
ENDBRANCH   7   8
ENDBRANCH   1   7
TORSDOF 2
ENDMDL
