MODEL 1
REMARK minimizedAffinity 0.771706998
REMARK minimizedRMSD -1
REMARK  2 active torsions:
REMARK  status: ('A' for Active; 'I' for Inactive)
REMARK    1  A    between atoms: C1_2  and  C2_3 
REMARK    2  A    between atoms: C2_3  and  C3_4 
ROOT
ATOM      1  C3  UNL d   1       1.428  -1.484   1.144  0.00  0.00    -0.075 A 
ATOM      2  C4  UNL d   1       1.691  -0.312   0.421  0.00  0.00     0.002 A 
ATOM      3  C5  UNL d   1       0.644   0.440  -0.114  0.00  0.00     0.002 A 
ATOM      4  C6  UNL d   1      -0.674   0.025   0.058  0.00  0.00    -0.004 A 
ATOM      5  C7  UNL d   1      -0.946  -1.147   0.760  0.00  0.00     0.002 A 
ATOM      6  C8  UNL d   1       0.099  -1.899   1.300  0.00  0.00     0.002 A 
ENDROOT
BRANCH   1   7
ATOM      7  C2  UNL d   1       2.555  -2.286   1.750  0.00  0.00     0.056 C 
BRANCH   7   8
ATOM      8  C1  UNL d   1       3.741  -1.438   2.223  0.00  0.00     0.007 C 
ATOM      9  C   UNL d   1       3.715  -1.150   3.718  0.00  0.00     0.009 C 
ENDBRANCH   7   8
ENDBRANCH   1   7
TORSDOF 2
ENDMDL
