MODEL 1
REMARK minimizedAffinity -3.53377819
REMARK minimizedRMSD -1
REMARK  2 active torsions:
REMARK  status: ('A' for Active; 'I' for Inactive)
REMARK    1  A    between atoms: C1_2  and  C2_3 
REMARK    2  A    between atoms: C2_3  and  C3_4 
ROOT
ATOM      1  C3  UNL d   1      -0.205   0.905  -0.448  0.00  0.00    -0.075 A 
ATOM      2  C4  UNL d   1       1.171   1.175  -0.445  0.00  0.00     0.002 A 
ATOM      3  C5  UNL d   1       2.075   0.245   0.069  0.00  0.00     0.002 A 
ATOM      4  C6  UNL d   1       1.615  -0.960   0.596  0.00  0.00    -0.004 A 
ATOM      5  C7  UNL d   1       0.248  -1.232   0.614  0.00  0.00     0.002 A 
ATOM      6  C8  UNL d   1      -0.658  -0.305   0.096  0.00  0.00     0.002 A 
ENDROOT
BRANCH   1   7
ATOM      7  C2  UNL d   1      -1.185   1.895  -1.030  0.00  0.00     0.056 C 
BRANCH   7   8
ATOM      8  C1  UNL d   1      -2.375   1.246  -1.746  0.00  0.00     0.007 C 
ATOM      9  C   UNL d   1      -2.366   1.472  -3.252  0.00  0.00     0.009 C 
ENDBRANCH   7   8
ENDBRANCH   1   7
TORSDOF 2
ENDMDL
