MODEL 1
REMARK minimizedAffinity -0.82638365
REMARK minimizedRMSD -1
REMARK  2 active torsions:
REMARK  status: ('A' for Active; 'I' for Inactive)
REMARK    1  A    between atoms: C1_2  and  C2_3 
REMARK    2  A    between atoms: C2_3  and  C3_4 
ROOT
ATOM      1  C3  UNL d   1       0.093   0.402  -0.407  0.00  0.00    -0.075 A 
ATOM      2  C4  UNL d   1       1.463   0.114  -0.488  0.00  0.00     0.002 A 
ATOM      3  C5  UNL d   1       1.994  -0.996   0.170  0.00  0.00     0.002 A 
ATOM      4  C6  UNL d   1       1.166  -1.824   0.924  0.00  0.00    -0.004 A 
ATOM      5  C7  UNL d   1      -0.194  -1.537   1.026  0.00  0.00     0.002 A 
ATOM      6  C8  UNL d   1      -0.729  -0.430   0.365  0.00  0.00     0.002 A 
ENDROOT
BRANCH   1   7
ATOM      7  C2  UNL d   1      -0.493   1.585  -1.141  0.00  0.00     0.056 C 
BRANCH   7   8
ATOM      8  C1  UNL d   1      -1.591   1.215  -2.144  0.00  0.00     0.007 C 
ATOM      9  C   UNL d   1      -1.610   2.116  -3.372  0.00  0.00     0.009 C 
ENDBRANCH   7   8
ENDBRANCH   1   7
TORSDOF 2
ENDMDL
