MODEL 1
REMARK minimizedAffinity -5.2146945
REMARK minimizedRMSD -1
REMARK  2 active torsions:
REMARK  status: ('A' for Active; 'I' for Inactive)
REMARK    1  A    between atoms: C1_2  and  C2_3 
REMARK    2  A    between atoms: C2_3  and  C3_4 
ROOT
ATOM      1  C3  UNL d   1       0.132   0.176  -0.122  0.00  0.00    -0.075 A 
ATOM      2  C4  UNL d   1       1.502  -0.015  -0.354  0.00  0.00     0.002 A 
ATOM      3  C5  UNL d   1       2.169  -1.107   0.202  0.00  0.00     0.002 A 
ATOM      4  C6  UNL d   1       1.479  -2.013   1.005  0.00  0.00    -0.004 A 
ATOM      5  C7  UNL d   1       0.122  -1.823   1.257  0.00  0.00     0.002 A 
ATOM      6  C8  UNL d   1      -0.549  -0.734   0.697  0.00  0.00     0.002 A 
ENDROOT
BRANCH   1   7
ATOM      7  C2  UNL d   1      -0.602   1.339  -0.746  0.00  0.00     0.056 C 
BRANCH   7   8
ATOM      8  C1  UNL d   1      -1.852   0.937  -1.535  0.00  0.00     0.007 C 
ATOM      9  C   UNL d   1      -2.164   1.880  -2.689  0.00  0.00     0.009 C 
ENDBRANCH   7   8
ENDBRANCH   1   7
TORSDOF 2
ENDMDL
