MODEL 1
REMARK minimizedAffinity -5.1569972
REMARK minimizedRMSD -1
REMARK  2 active torsions:
REMARK  status: ('A' for Active; 'I' for Inactive)
REMARK    1  A    between atoms: C1_2  and  C2_3 
REMARK    2  A    between atoms: C2_3  and  C3_4 
ROOT
ATOM      1  C3  UNL d   1      -0.010   0.216  -0.295  0.00  0.00    -0.075 A 
ATOM      2  C4  UNL d   1      -0.658  -0.823   0.388  0.00  0.00     0.002 A 
ATOM      3  C5  UNL d   1       0.080  -1.795   1.065  0.00  0.00     0.002 A 
ATOM      4  C6  UNL d   1       1.472  -1.746   1.058  0.00  0.00    -0.004 A 
ATOM      5  C7  UNL d   1       2.127  -0.728   0.369  0.00  0.00     0.002 A 
ATOM      6  C8  UNL d   1       1.391   0.248  -0.305  0.00  0.00     0.002 A 
ENDROOT
BRANCH   1   7
ATOM      7  C2  UNL d   1      -0.804   1.287  -1.004  0.00  0.00     0.056 C 
BRANCH   7   8
ATOM      8  C1  UNL d   1      -1.908   0.744  -1.917  0.00  0.00     0.007 C 
ATOM      9  C   UNL d   1      -2.324   1.724  -3.006  0.00  0.00     0.009 C 
ENDBRANCH   7   8
ENDBRANCH   1   7
TORSDOF 2
ENDMDL
