MODEL 1
REMARK minimizedAffinity -3.91225743
REMARK minimizedRMSD -1
REMARK  2 active torsions:
REMARK  status: ('A' for Active; 'I' for Inactive)
REMARK    1  A    between atoms: C1_2  and  C2_3 
REMARK    2  A    between atoms: C2_3  and  C3_4 
ROOT
ATOM      1  C3  UNL d   1      -0.008  -0.515  -0.295  0.00  0.00    -0.075 A 
ATOM      2  C4  UNL d   1       1.360  -0.228  -0.180  0.00  0.00     0.002 A 
ATOM      3  C5  UNL d   1       2.232  -1.153   0.394  0.00  0.00     0.002 A 
ATOM      4  C6  UNL d   1       1.748  -2.370   0.870  0.00  0.00    -0.004 A 
ATOM      5  C7  UNL d   1       0.388  -2.658   0.777  0.00  0.00     0.002 A 
ATOM      6  C8  UNL d   1      -0.486  -1.737   0.198  0.00  0.00     0.002 A 
ENDROOT
BRANCH   1   7
ATOM      7  C2  UNL d   1      -0.952   0.469  -0.943  0.00  0.00     0.056 C 
BRANCH   7   8
ATOM      8  C1  UNL d   1      -0.907   0.462  -2.474  0.00  0.00     0.007 C 
ATOM      9  C   UNL d   1      -2.209   0.922  -3.116  0.00  0.00     0.009 C 
ENDBRANCH   7   8
ENDBRANCH   1   7
TORSDOF 2
ENDMDL
