MODEL 1
REMARK minimizedAffinity -3.98729372
REMARK minimizedRMSD -1
REMARK  2 active torsions:
REMARK  status: ('A' for Active; 'I' for Inactive)
REMARK    1  A    between atoms: C1_2  and  C2_3 
REMARK    2  A    between atoms: C2_3  and  C3_4 
ROOT
ATOM      1  C3  UNL d   1      -1.008   0.561  -0.152  0.00  0.00    -0.075 A 
ATOM      2  C4  UNL d   1       0.050  -0.331  -0.380  0.00  0.00     0.002 A 
ATOM      3  C5  UNL d   1       0.290  -1.386   0.501  0.00  0.00     0.002 A 
ATOM      4  C6  UNL d   1      -0.516  -1.556   1.624  0.00  0.00    -0.004 A 
ATOM      5  C7  UNL d   1      -1.559  -0.666   1.870  0.00  0.00     0.002 A 
ATOM      6  C8  UNL d   1      -1.804   0.388   0.988  0.00  0.00     0.002 A 
ENDROOT
BRANCH   1   7
ATOM      7  C2  UNL d   1      -1.291   1.688  -1.117  0.00  0.00     0.056 C 
BRANCH   7   8
ATOM      8  C1  UNL d   1      -1.988   1.243  -2.407  0.00  0.00     0.007 C 
ATOM      9  C   UNL d   1      -3.358   0.623  -2.166  0.00  0.00     0.009 C 
ENDBRANCH   7   8
ENDBRANCH   1   7
TORSDOF 2
ENDMDL
