MODEL 1
REMARK minimizedAffinity -5.38667822
REMARK minimizedRMSD -1
REMARK  2 active torsions:
REMARK  status: ('A' for Active; 'I' for Inactive)
REMARK    1  A    between atoms: C1_2  and  C2_3 
REMARK    2  A    between atoms: C2_3  and  C3_4 
ROOT
ATOM      1  C3  UNL d   1      -0.109   0.005   0.336  0.00  0.00    -0.075 A 
ATOM      2  C4  UNL d   1      -0.658  -0.961   1.192  0.00  0.00     0.002 A 
ATOM      3  C5  UNL d   1       0.002  -2.170   1.411  0.00  0.00     0.002 A 
ATOM      4  C6  UNL d   1       1.211  -2.434   0.770  0.00  0.00    -0.004 A 
ATOM      5  C7  UNL d   1       1.757  -1.488  -0.096  0.00  0.00     0.002 A 
ATOM      6  C8  UNL d   1       1.101  -0.275  -0.313  0.00  0.00     0.002 A 
ENDROOT
BRANCH   1   7
ATOM      7  C2  UNL d   1      -0.804   1.328   0.119  0.00  0.00     0.056 C 
BRANCH   7   8
ATOM      8  C1  UNL d   1      -0.802   1.801  -1.339  0.00  0.00     0.007 C 
ATOM      9  C   UNL d   1      -2.051   1.389  -2.106  0.00  0.00     0.009 C 
ENDBRANCH   7   8
ENDBRANCH   1   7
TORSDOF 2
ENDMDL
