MODEL 1
REMARK minimizedAffinity -3.11935234
REMARK minimizedRMSD -1
REMARK  0 active torsions:
REMARK  status: ('A' for Active; 'I' for Inactive)
ROOT
ATOM      1  C2' OXE d   1      -2.461   1.229  -2.069  0.00  0.00     0.078 C 
ATOM      2  C1' OXE d   1      -3.861   1.394  -4.497  0.00  0.00     0.078 C 
ATOM      3  C1  OXE d   1      -3.076   2.603  -4.054  0.00  0.00    -0.078 A 
ATOM      4  C2  OXE d   1      -2.432   2.530  -2.842  0.00  0.00    -0.078 A 
ATOM      5  C3  OXE d   1      -1.649   3.597  -2.413  0.00  0.00     0.003 A 
ATOM      6  C4  OXE d   1      -1.635   4.800  -3.129  0.00  0.00    -0.002 A 
ATOM      7  C5  OXE d   1      -2.316   4.909  -4.346  0.00  0.00    -0.002 A 
ATOM      8  C6  OXE d   1      -3.005   3.808  -4.843  0.00  0.00     0.003 A 
ENDROOT
TORSDOF 0
ENDMDL
