MODEL 1
REMARK minimizedAffinity 1.94163311
REMARK minimizedRMSD -1
REMARK  0 active torsions:
REMARK  status: ('A' for Active; 'I' for Inactive)
ROOT
ATOM      1  C2' OXE d   1      -3.513   5.890  -1.946  0.00  0.00     0.078 C 
ATOM      2  C1' OXE d   1      -1.637   3.823  -2.247  0.00  0.00     0.078 C 
ATOM      3  C1  OXE d   1      -2.245   4.409  -3.497  0.00  0.00    -0.078 A 
ATOM      4  C2  OXE d   1      -3.197   5.388  -3.338  0.00  0.00    -0.078 A 
ATOM      5  C3  OXE d   1      -3.749   6.000  -4.460  0.00  0.00     0.003 A 
ATOM      6  C4  OXE d   1      -3.459   5.522  -5.743  0.00  0.00    -0.002 A 
ATOM      7  C5  OXE d   1      -2.522   4.499  -5.925  0.00  0.00    -0.002 A 
ATOM      8  C6  OXE d   1      -1.876   3.962  -4.817  0.00  0.00     0.003 A 
ENDROOT
TORSDOF 0
ENDMDL
