MODEL 1
REMARK minimizedAffinity -3.58122087
REMARK minimizedRMSD -1
REMARK  0 active torsions:
REMARK  status: ('A' for Active; 'I' for Inactive)
ROOT
ATOM      1  C2' OXE d   1       0.650  -1.934   1.207  0.00  0.00     0.078 C 
ATOM      2  C1' OXE d   1      -1.595  -1.669  -0.457  0.00  0.00     0.078 C 
ATOM      3  C1  OXE d   1      -1.704  -1.158   0.958  0.00  0.00    -0.078 A 
ATOM      4  C2  OXE d   1      -0.616  -1.334   1.779  0.00  0.00    -0.078 A 
ATOM      5  C3  OXE d   1      -0.644  -0.833   3.077  0.00  0.00     0.003 A 
ATOM      6  C4  OXE d   1      -1.822  -0.288   3.602  0.00  0.00    -0.002 A 
ATOM      7  C5  OXE d   1      -2.954  -0.135   2.794  0.00  0.00    -0.002 A 
ATOM      8  C6  OXE d   1      -2.898  -0.525   1.461  0.00  0.00     0.003 A 
ENDROOT
TORSDOF 0
ENDMDL
