MODEL 1
REMARK minimizedAffinity 0.200935274
REMARK minimizedRMSD -1
REMARK  0 active torsions:
REMARK  status: ('A' for Active; 'I' for Inactive)
ROOT
ATOM      1  C2' OXE d   1      -2.720   4.206  -5.465  0.00  0.00     0.078 C 
ATOM      2  C1' OXE d   1      -2.897   5.912  -3.243  0.00  0.00     0.078 C 
ATOM      3  C1  OXE d   1      -2.963   4.426  -2.996  0.00  0.00    -0.078 A 
ATOM      4  C2  OXE d   1      -2.923   3.600  -4.094  0.00  0.00    -0.078 A 
ATOM      5  C3  OXE d   1      -2.926   2.219  -3.918  0.00  0.00     0.003 A 
ATOM      6  C4  OXE d   1      -3.124   1.667  -2.647  0.00  0.00    -0.002 A 
ATOM      7  C5  OXE d   1      -3.207   2.491  -1.520  0.00  0.00    -0.002 A 
ATOM      8  C6  OXE d   1      -3.086   3.868  -1.672  0.00  0.00     0.003 A 
ENDROOT
TORSDOF 0
ENDMDL
