MODEL 1
REMARK minimizedAffinity -1.17917168
REMARK minimizedRMSD -1
REMARK  0 active torsions:
REMARK  status: ('A' for Active; 'I' for Inactive)
ROOT
ATOM      1  C2' OXE d   1      -4.222   3.732  -0.690  0.00  0.00     0.078 C 
ATOM      2  C1' OXE d   1      -2.484   1.739  -1.632  0.00  0.00     0.078 C 
ATOM      3  C1  OXE d   1      -2.572   3.024  -2.417  0.00  0.00    -0.078 A 
ATOM      4  C2  OXE d   1      -3.460   3.975  -1.975  0.00  0.00    -0.078 A 
ATOM      5  C3  OXE d   1      -3.540   5.201  -2.631  0.00  0.00     0.003 A 
ATOM      6  C4  OXE d   1      -2.839   5.414  -3.824  0.00  0.00    -0.002 A 
ATOM      7  C5  OXE d   1      -1.959   4.442  -4.313  0.00  0.00    -0.002 A 
ATOM      8  C6  OXE d   1      -1.782   3.262  -3.600  0.00  0.00     0.003 A 
ENDROOT
TORSDOF 0
ENDMDL
