MODEL 1
REMARK minimizedAffinity -0.847994626
REMARK minimizedRMSD -1
REMARK  0 active torsions:
REMARK  status: ('A' for Active; 'I' for Inactive)
ROOT
ATOM      1  C2' OXE d   1       0.660  -1.672   1.020  0.00  0.00     0.078 C 
ATOM      2  C1' OXE d   1      -1.809  -1.713  -0.314  0.00  0.00     0.078 C 
ATOM      3  C1  OXE d   1      -1.750  -1.043   1.036  0.00  0.00    -0.078 A 
ATOM      4  C2  OXE d   1      -0.548  -1.069   1.702  0.00  0.00    -0.078 A 
ATOM      5  C3  OXE d   1      -0.425  -0.419   2.927  0.00  0.00     0.003 A 
ATOM      6  C4  OXE d   1      -1.550   0.128   3.556  0.00  0.00    -0.002 A 
ATOM      7  C5  OXE d   1      -2.792   0.130   2.912  0.00  0.00    -0.002 A 
ATOM      8  C6  OXE d   1      -2.900  -0.412   1.637  0.00  0.00     0.003 A 
ENDROOT
TORSDOF 0
ENDMDL
