MODEL 1
REMARK minimizedAffinity 2.43375134
REMARK minimizedRMSD -1
REMARK  0 active torsions:
REMARK  status: ('A' for Active; 'I' for Inactive)
ROOT
ATOM      1  C2' OXE d   1      -2.309   1.801  -1.329  0.00  0.00     0.078 C 
ATOM      2  C1' OXE d   1      -4.962   2.617  -0.908  0.00  0.00     0.078 C 
ATOM      3  C1  OXE d   1      -4.190   3.281  -2.020  0.00  0.00    -0.078 A 
ATOM      4  C2  OXE d   1      -2.878   2.909  -2.189  0.00  0.00    -0.078 A 
ATOM      5  C3  OXE d   1      -2.137   3.451  -3.235  0.00  0.00     0.003 A 
ATOM      6  C4  OXE d   1      -2.667   4.482  -4.020  0.00  0.00    -0.002 A 
ATOM      7  C5  OXE d   1      -3.988   4.904  -3.839  0.00  0.00    -0.002 A 
ATOM      8  C6  OXE d   1      -4.775   4.285  -2.874  0.00  0.00     0.003 A 
ENDROOT
TORSDOF 0
ENDMDL
