MODEL 1
REMARK minimizedAffinity 2.61362505
REMARK minimizedRMSD -1
REMARK  0 active torsions:
REMARK  status: ('A' for Active; 'I' for Inactive)
ROOT
ATOM      1  C2' OXE d   1       0.640  -2.064  -2.645  0.00  0.00     0.078 C 
ATOM      2  C1' OXE d   1      -1.818  -1.259  -1.554  0.00  0.00     0.078 C 
ATOM      3  C1  OXE d   1      -0.699  -1.592  -0.599  0.00  0.00    -0.078 A 
ATOM      4  C2  OXE d   1       0.485  -2.029  -1.140  0.00  0.00    -0.078 A 
ATOM      5  C3  OXE d   1       1.567  -2.297  -0.306  0.00  0.00     0.003 A 
ATOM      6  C4  OXE d   1       1.413  -2.272   1.085  0.00  0.00    -0.002 A 
ATOM      7  C5  OXE d   1       0.203  -1.867   1.658  0.00  0.00    -0.002 A 
ATOM      8  C6  OXE d   1      -0.848  -1.483   0.832  0.00  0.00     0.003 A 
ENDROOT
TORSDOF 0
ENDMDL
