MODEL 1
REMARK minimizedAffinity -1.87330675
REMARK minimizedRMSD -1
REMARK  0 active torsions:
REMARK  status: ('A' for Active; 'I' for Inactive)
ROOT
ATOM      1  C2' OXE d   1      -0.896   1.158  -2.401  0.00  0.00     0.078 C 
ATOM      2  C1' OXE d   1       0.104   3.762  -2.719  0.00  0.00     0.078 C 
ATOM      3  C1  OXE d   1      -1.364   3.536  -2.980  0.00  0.00    -0.078 A 
ATOM      4  C2  OXE d   1      -1.835   2.250  -2.867  0.00  0.00    -0.078 A 
ATOM      5  C3  OXE d   1      -3.192   1.995  -3.043  0.00  0.00     0.003 A 
ATOM      6  C4  OXE d   1      -4.052   3.008  -3.484  0.00  0.00    -0.002 A 
ATOM      7  C5  OXE d   1      -3.585   4.316  -3.644  0.00  0.00    -0.002 A 
ATOM      8  C6  OXE d   1      -2.256   4.605  -3.356  0.00  0.00     0.003 A 
ENDROOT
TORSDOF 0
ENDMDL
