MODEL 1
REMARK minimizedAffinity -2.86814737
REMARK minimizedRMSD -1
REMARK  0 active torsions:
REMARK  status: ('A' for Active; 'I' for Inactive)
ROOT
ATOM      1  C2' OXE d   1      -1.019   4.228  -4.789  0.00  0.00     0.078 C 
ATOM      2  C1' OXE d   1      -3.012   5.409  -3.203  0.00  0.00     0.078 C 
ATOM      3  C1  OXE d   1      -2.593   3.999  -2.871  0.00  0.00    -0.078 A 
ATOM      4  C2  OXE d   1      -1.650   3.412  -3.681  0.00  0.00    -0.078 A 
ATOM      5  C3  OXE d   1      -1.189   2.132  -3.387  0.00  0.00     0.003 A 
ATOM      6  C4  OXE d   1      -1.785   1.381  -2.367  0.00  0.00    -0.002 A 
ATOM      7  C5  OXE d   1      -2.774   1.945  -1.555  0.00  0.00    -0.002 A 
ATOM      8  C6  OXE d   1      -3.158   3.265  -1.766  0.00  0.00     0.003 A 
ENDROOT
TORSDOF 0
ENDMDL
