MODEL 1
REMARK minimizedAffinity -2.12824464
REMARK minimizedRMSD -1
REMARK  0 active torsions:
REMARK  status: ('A' for Active; 'I' for Inactive)
ROOT
ATOM      1  C2' OXE d   1      -1.211  -1.385  -0.320  0.00  0.00     0.078 C 
ATOM      2  C1' OXE d   1       1.278  -2.682  -0.362  0.00  0.00     0.078 C 
ATOM      3  C1  OXE d   1       0.763  -2.191   0.968  0.00  0.00    -0.078 A 
ATOM      4  C2  OXE d   1      -0.434  -1.516   0.972  0.00  0.00    -0.078 A 
ATOM      5  C3  OXE d   1      -0.981  -1.090   2.179  0.00  0.00     0.003 A 
ATOM      6  C4  OXE d   1      -0.251  -1.207   3.368  0.00  0.00    -0.002 A 
ATOM      7  C5  OXE d   1       0.988  -1.856   3.380  0.00  0.00    -0.002 A 
ATOM      8  C6  OXE d   1       1.489  -2.390   2.198  0.00  0.00     0.003 A 
ENDROOT
TORSDOF 0
ENDMDL
