MODEL 1
REMARK minimizedAffinity -2.46497226
REMARK minimizedRMSD -1
REMARK  1 active torsions:
REMARK  status: ('A' for Active; 'I' for Inactive)
REMARK    1  A    between atoms: C1_2  and  C2_3 
ROOT
ATOM      1  C2  UNL d   1       0.430   0.722  -0.182  0.00  0.00    -0.077 A 
ATOM      2  C3  UNL d   1      -0.280   1.643  -0.966  0.00  0.00     0.002 A 
ATOM      3  C4  UNL d   1      -1.425   1.246  -1.659  0.00  0.00     0.002 A 
ATOM      4  C5  UNL d   1      -1.872  -0.071  -1.572  0.00  0.00    -0.004 A 
ATOM      5  C6  UNL d   1      -1.172  -0.995  -0.797  0.00  0.00     0.002 A 
ATOM      6  C7  UNL d   1      -0.026  -0.600  -0.105  0.00  0.00     0.002 A 
ENDROOT
BRANCH   1   7
ATOM      7  C1  UNL d   1       1.637   1.161   0.605  0.00  0.00     0.055 C 
ATOM      8  C   UNL d   1       2.734   1.687  -0.309  0.00  0.00     0.019 C 
ENDBRANCH   1   7
TORSDOF 1
ENDMDL
