MODEL 1
REMARK minimizedAffinity -5.49897575
REMARK minimizedRMSD -1
REMARK  1 active torsions:
REMARK  status: ('A' for Active; 'I' for Inactive)
REMARK    1  A    between atoms: C1_2  and  C2_3 
ROOT
ATOM      1  C2  UNL d   1       1.093   0.992   0.774  0.00  0.00    -0.077 A 
ATOM      2  C3  UNL d   1       0.473   1.999   1.528  0.00  0.00     0.002 A 
ATOM      3  C4  UNL d   1       1.189   3.132   1.918  0.00  0.00     0.002 A 
ATOM      4  C5  UNL d   1       2.528   3.271   1.557  0.00  0.00    -0.004 A 
ATOM      5  C6  UNL d   1       3.154   2.274   0.809  0.00  0.00     0.002 A 
ATOM      6  C7  UNL d   1       2.440   1.141   0.419  0.00  0.00     0.002 A 
ENDROOT
BRANCH   1   7
ATOM      7  C1  UNL d   1       0.309  -0.207   0.310  0.00  0.00     0.055 C 
ATOM      8  C   UNL d   1      -0.655   0.161  -0.809  0.00  0.00     0.019 C 
ENDBRANCH   1   7
TORSDOF 1
ENDMDL
