MODEL 1
REMARK minimizedAffinity -3.89019537
REMARK minimizedRMSD -1
REMARK  1 active torsions:
REMARK  status: ('A' for Active; 'I' for Inactive)
REMARK    1  A    between atoms: C1_2  and  C2_3 
ROOT
ATOM      1  C2  UNL d   1      -1.572  -1.915  -0.270  0.00  0.00    -0.077 A 
ATOM      2  C3  UNL d   1      -0.345  -1.408   0.179  0.00  0.00     0.002 A 
ATOM      3  C4  UNL d   1       0.129  -0.183  -0.294  0.00  0.00     0.002 A 
ATOM      4  C5  UNL d   1      -0.619   0.547  -1.215  0.00  0.00    -0.004 A 
ATOM      5  C6  UNL d   1      -1.840   0.051  -1.670  0.00  0.00     0.002 A 
ATOM      6  C7  UNL d   1      -2.315  -1.174  -1.199  0.00  0.00     0.002 A 
ENDROOT
BRANCH   1   7
ATOM      7  C1  UNL d   1      -2.109  -3.212   0.276  0.00  0.00     0.055 C 
ATOM      8  C   UNL d   1      -1.422  -3.589   1.580  0.00  0.00     0.019 C 
ENDBRANCH   1   7
TORSDOF 1
ENDMDL
