MODEL 1
REMARK minimizedAffinity -4.05387306
REMARK minimizedRMSD -1
REMARK  1 active torsions:
REMARK  status: ('A' for Active; 'I' for Inactive)
REMARK    1  A    between atoms: C1_2  and  C2_3 
ROOT
ATOM      1  C2  UNL d   1      -0.757  -0.508   0.224  0.00  0.00    -0.077 A 
ATOM      2  C3  UNL d   1      -1.995  -0.580  -0.431  0.00  0.00     0.002 A 
ATOM      3  C4  UNL d   1      -2.878  -1.626  -0.157  0.00  0.00     0.002 A 
ATOM      4  C5  UNL d   1      -2.536  -2.604   0.774  0.00  0.00    -0.004 A 
ATOM      5  C6  UNL d   1      -1.306  -2.542   1.429  0.00  0.00     0.002 A 
ATOM      6  C7  UNL d   1      -0.421  -1.499   1.156  0.00  0.00     0.002 A 
ENDROOT
BRANCH   1   7
ATOM      7  C1  UNL d   1       0.176   0.646  -0.034  0.00  0.00     0.055 C 
ATOM      8  C   UNL d   1       1.556   0.383   0.553  0.00  0.00     0.019 C 
ENDBRANCH   1   7
TORSDOF 1
ENDMDL
