MODEL 1
REMARK minimizedAffinity -3.79845905
REMARK minimizedRMSD -1
REMARK  1 active torsions:
REMARK  status: ('A' for Active; 'I' for Inactive)
REMARK    1  A    between atoms: C1_2  and  C2_3 
ROOT
ATOM      1  C2  UNL d   1       0.302   0.343   0.056  0.00  0.00    -0.077 A 
ATOM      2  C3  UNL d   1      -0.102   1.617   0.479  0.00  0.00     0.002 A 
ATOM      3  C4  UNL d   1       0.848   2.583   0.815  0.00  0.00     0.002 A 
ATOM      4  C5  UNL d   1       2.207   2.287   0.729  0.00  0.00    -0.004 A 
ATOM      5  C6  UNL d   1       2.618   1.021   0.312  0.00  0.00     0.002 A 
ATOM      6  C7  UNL d   1       1.670   0.054  -0.023  0.00  0.00     0.002 A 
ENDROOT
BRANCH   1   7
ATOM      7  C1  UNL d   1      -0.720  -0.685  -0.354  0.00  0.00     0.055 C 
ATOM      8  C   UNL d   1      -1.538  -0.207  -1.546  0.00  0.00     0.019 C 
ENDBRANCH   1   7
TORSDOF 1
ENDMDL
