MODEL 1
REMARK minimizedAffinity -5.20623493
REMARK minimizedRMSD -1
REMARK  1 active torsions:
REMARK  status: ('A' for Active; 'I' for Inactive)
REMARK    1  A    between atoms: C1_2  and  C2_3 
ROOT
ATOM      1  C2  UNL d   1      -1.813  -1.346  -0.079  0.00  0.00    -0.077 A 
ATOM      2  C3  UNL d   1      -0.561  -0.838   0.295  0.00  0.00     0.002 A 
ATOM      3  C4  UNL d   1      -0.122   0.392  -0.196  0.00  0.00     0.002 A 
ATOM      4  C5  UNL d   1      -0.930   1.127  -1.061  0.00  0.00    -0.004 A 
ATOM      5  C6  UNL d   1      -2.176   0.630  -1.442  0.00  0.00     0.002 A 
ATOM      6  C7  UNL d   1      -2.616  -0.600  -0.952  0.00  0.00     0.002 A 
ENDROOT
BRANCH   1   7
ATOM      7  C1  UNL d   1      -2.310  -2.650   0.489  0.00  0.00     0.055 C 
ATOM      8  C   UNL d   1      -1.506  -3.062   1.713  0.00  0.00     0.019 C 
ENDBRANCH   1   7
TORSDOF 1
ENDMDL
