MODEL 1
REMARK minimizedAffinity -3.21245956
REMARK minimizedRMSD -1
REMARK  1 active torsions:
REMARK  status: ('A' for Active; 'I' for Inactive)
REMARK    1  A    between atoms: C1_2  and  C2_3 
ROOT
ATOM      1  C2  UNL d   1       0.646  -0.003   0.591  0.00  0.00    -0.077 A 
ATOM      2  C3  UNL d   1      -0.299   1.031   0.534  0.00  0.00     0.002 A 
ATOM      3  C4  UNL d   1      -1.612   0.812   0.957  0.00  0.00     0.002 A 
ATOM      4  C5  UNL d   1      -1.989  -0.438   1.444  0.00  0.00    -0.004 A 
ATOM      5  C6  UNL d   1      -1.057  -1.473   1.502  0.00  0.00     0.002 A 
ATOM      6  C7  UNL d   1       0.255  -1.257   1.078  0.00  0.00     0.002 A 
ENDROOT
BRANCH   1   7
ATOM      7  C1  UNL d   1       2.074   0.245   0.181  0.00  0.00     0.055 C 
ATOM      8  C   UNL d   1       2.499   1.673   0.490  0.00  0.00     0.019 C 
ENDBRANCH   1   7
TORSDOF 1
ENDMDL
