MODEL 1
REMARK minimizedAffinity -3.60596299
REMARK minimizedRMSD -1
REMARK  1 active torsions:
REMARK  status: ('A' for Active; 'I' for Inactive)
REMARK    1  A    between atoms: C1_2  and  C2_3 
ROOT
ATOM      1  C2  UNL d   1       1.033   1.552  -0.010  0.00  0.00    -0.077 A 
ATOM      2  C3  UNL d   1       1.036   0.179  -0.291  0.00  0.00     0.002 A 
ATOM      3  C4  UNL d   1      -0.130  -0.456  -0.724  0.00  0.00     0.002 A 
ATOM      4  C5  UNL d   1      -1.305   0.275  -0.883  0.00  0.00    -0.004 A 
ATOM      5  C6  UNL d   1      -1.319   1.641  -0.603  0.00  0.00     0.002 A 
ATOM      6  C7  UNL d   1      -0.155   2.277  -0.170  0.00  0.00     0.002 A 
ENDROOT
BRANCH   1   7
ATOM      7  C1  UNL d   1       2.301   2.248   0.410  0.00  0.00     0.055 C 
ATOM      8  C   UNL d   1       2.159   2.874   1.789  0.00  0.00     0.019 C 
ENDBRANCH   1   7
TORSDOF 1
ENDMDL
