MODEL 1
REMARK minimizedAffinity -0.638405859
REMARK minimizedRMSD -1
REMARK  1 active torsions:
REMARK  status: ('A' for Active; 'I' for Inactive)
REMARK    1  A    between atoms: C1_2  and  C2_3 
ROOT
ATOM      1  C2  UNL d   1       0.045   0.530  -0.500  0.00  0.00    -0.077 A 
ATOM      2  C3  UNL d   1      -0.687   0.674  -1.687  0.00  0.00     0.002 A 
ATOM      3  C4  UNL d   1      -1.756  -0.179  -1.966  0.00  0.00     0.002 A 
ATOM      4  C5  UNL d   1      -2.105  -1.180  -1.061  0.00  0.00    -0.004 A 
ATOM      5  C6  UNL d   1      -1.382  -1.333   0.121  0.00  0.00     0.002 A 
ATOM      6  C7  UNL d   1      -0.312  -0.482   0.401  0.00  0.00     0.002 A 
ENDROOT
BRANCH   1   7
ATOM      7  C1  UNL d   1       1.167   1.481  -0.175  0.00  0.00     0.055 C 
ATOM      8  C   UNL d   1       2.272   1.412  -1.219  0.00  0.00     0.019 C 
ENDBRANCH   1   7
TORSDOF 1
ENDMDL
