MODEL 1
REMARK minimizedAffinity 3.6517415
REMARK minimizedRMSD -1
REMARK  1 active torsions:
REMARK  status: ('A' for Active; 'I' for Inactive)
REMARK    1  A    between atoms: N_2  and  C1_3 
ROOT
ATOM      1  C1  UNL d   1       4.400  -2.763   0.785  0.00  0.00     0.143 A 
ATOM      2  C2  UNL d   1       4.244  -1.496   0.212  0.00  0.00    -0.057 A 
ATOM      3  C3  UNL d   1       2.979  -0.911   0.077  0.00  0.00     0.033 A 
ATOM      4  C4  UNL d   1       1.841  -1.597   0.488  0.00  0.00    -0.042 A 
ATOM      5  C5  UNL d   1       1.970  -2.868   1.038  0.00  0.00     0.033 A 
ATOM      6  C6  UNL d   1       3.236  -3.444   1.175  0.00  0.00    -0.057 A 
ENDROOT
BRANCH   1   7
ATOM      7  N   UNL d   1       5.620  -3.440   0.856  0.00  0.00    -0.732 N 
ATOM      8  C   UNL d   1       5.731  -4.809   0.402  0.00  0.00     0.284 C 
ATOM      9  H3  UNL d   1       6.407  -2.850   0.595  0.00  0.00     0.395 HD
ENDBRANCH   1   7
TORSDOF 1
ENDMDL
