MODEL 1
REMARK minimizedAffinity 7.95940208
REMARK minimizedRMSD -1
REMARK  1 active torsions:
REMARK  status: ('A' for Active; 'I' for Inactive)
REMARK    1  A    between atoms: N_2  and  C1_3 
ROOT
ATOM      1  C1  UNL d   1      -3.638   1.767  -4.453  0.00  0.00     0.143 A 
ATOM      2  C2  UNL d   1      -3.626   1.132  -5.700  0.00  0.00    -0.057 A 
ATOM      3  C3  UNL d   1      -3.828  -0.249  -5.813  0.00  0.00     0.033 A 
ATOM      4  C4  UNL d   1      -4.016  -1.026  -4.675  0.00  0.00    -0.042 A 
ATOM      5  C5  UNL d   1      -4.007  -0.420  -3.424  0.00  0.00     0.033 A 
ATOM      6  C6  UNL d   1      -3.811   0.960  -3.317  0.00  0.00    -0.057 A 
ENDROOT
BRANCH   1   7
ATOM      7  N   UNL d   1      -3.345   3.120  -4.266  0.00  0.00    -0.732 N 
ATOM      8  C   UNL d   1      -2.552   3.554  -3.136  0.00  0.00     0.284 C 
ATOM      9  H3  UNL d   1      -3.119   3.593  -5.139  0.00  0.00     0.395 HD
ENDBRANCH   1   7
TORSDOF 1
ENDMDL
