MODEL 1
REMARK minimizedAffinity 0.418336898
REMARK minimizedRMSD -1
REMARK  1 active torsions:
REMARK  status: ('A' for Active; 'I' for Inactive)
REMARK    1  A    between atoms: N_2  and  C1_3 
ROOT
ATOM      1  C1  UNL d   1      -4.308  -0.383  -4.869  0.00  0.00     0.143 A 
ATOM      2  C2  UNL d   1      -2.995  -0.341  -4.386  0.00  0.00    -0.057 A 
ATOM      3  C3  UNL d   1      -2.621  -1.047  -3.237  0.00  0.00     0.033 A 
ATOM      4  C4  UNL d   1      -3.564  -1.787  -2.531  0.00  0.00    -0.042 A 
ATOM      5  C5  UNL d   1      -4.880  -1.823  -2.978  0.00  0.00     0.033 A 
ATOM      6  C6  UNL d   1      -5.246  -1.121  -4.130  0.00  0.00    -0.057 A 
ENDROOT
BRANCH   1   7
ATOM      7  N   UNL d   1      -4.764   0.377  -5.949  0.00  0.00    -0.732 N 
ATOM      8  C   UNL d   1      -4.527   1.803  -6.000  0.00  0.00     0.284 C 
ATOM      9  H3  UNL d   1      -4.634  -0.098  -6.840  0.00  0.00     0.395 HD
ENDBRANCH   1   7
TORSDOF 1
ENDMDL
