MODEL 1
REMARK minimizedAffinity 7.97487211
REMARK minimizedRMSD -1
REMARK  1 active torsions:
REMARK  status: ('A' for Active; 'I' for Inactive)
REMARK    1  A    between atoms: N_2  and  C1_3 
ROOT
ATOM      1  C1  UNL d   1       2.387  -0.907   0.040  0.00  0.00     0.143 A 
ATOM      2  C2  UNL d   1       3.698  -0.545  -0.287  0.00  0.00    -0.057 A 
ATOM      3  C3  UNL d   1       4.058   0.796  -0.467  0.00  0.00     0.033 A 
ATOM      4  C4  UNL d   1       3.103   1.800  -0.349  0.00  0.00    -0.042 A 
ATOM      5  C5  UNL d   1       1.788   1.462  -0.049  0.00  0.00     0.033 A 
ATOM      6  C6  UNL d   1       1.437   0.121   0.135  0.00  0.00    -0.057 A 
ENDROOT
BRANCH   1   7
ATOM      7  N   UNL d   1       1.946  -2.229   0.134  0.00  0.00    -0.732 N 
ATOM      8  C   UNL d   1       2.747  -3.228   0.810  0.00  0.00     0.284 C 
ATOM      9  H3  UNL d   1       0.950  -2.293   0.331  0.00  0.00     0.395 HD
ENDBRANCH   1   7
TORSDOF 1
ENDMDL
