MODEL 1
REMARK minimizedAffinity 1.74434662
REMARK minimizedRMSD -1
REMARK  1 active torsions:
REMARK  status: ('A' for Active; 'I' for Inactive)
REMARK    1  A    between atoms: N_2  and  C1_3 
ROOT
ATOM      1  C1  UNL d   1      -3.936   1.046  -3.642  0.00  0.00     0.143 A 
ATOM      2  C2  UNL d   1      -4.228  -0.166  -4.278  0.00  0.00    -0.057 A 
ATOM      3  C3  UNL d   1      -4.123  -1.386  -3.599  0.00  0.00     0.033 A 
ATOM      4  C4  UNL d   1      -3.696  -1.418  -2.275  0.00  0.00    -0.042 A 
ATOM      5  C5  UNL d   1      -3.376  -0.228  -1.631  0.00  0.00     0.033 A 
ATOM      6  C6  UNL d   1      -3.489   0.988  -2.312  0.00  0.00    -0.057 A 
ENDROOT
BRANCH   1   7
ATOM      7  N   UNL d   1      -3.925   2.282  -4.291  0.00  0.00    -0.732 N 
ATOM      8  C   UNL d   1      -3.239   3.416  -3.708  0.00  0.00     0.284 C 
ATOM      9  H3  UNL d   1      -3.798   2.192  -5.297  0.00  0.00     0.395 HD
ENDBRANCH   1   7
TORSDOF 1
ENDMDL
