MODEL 1
REMARK minimizedAffinity -5.60081053
REMARK minimizedRMSD -1
REMARK  1 active torsions:
REMARK  status: ('A' for Active; 'I' for Inactive)
REMARK    1  A    between atoms: C1_2  and  C2_3 
ROOT
ATOM      1  C2  UNL d   1      -0.158   0.512   0.118  0.00  0.00    -0.073 A 
ATOM      2  C3  UNL d   1      -0.242   1.096   1.387  0.00  0.00    -0.002 A 
ATOM      3  C4  UNL d   1       0.864   1.743   1.940  0.00  0.00     0.004 A 
ATOM      4  C5  UNL d   1       2.061   1.820   1.228  0.00  0.00    -0.004 A 
ATOM      5  C6  UNL d   1       2.160   1.253  -0.047  0.00  0.00    -0.075 A 
ATOM      6  C7  UNL d   1       3.441   1.325  -0.826  0.00  0.00     0.076 C 
ATOM      7  C8  UNL d   1       1.046   0.602  -0.594  0.00  0.00     0.001 A 
ENDROOT
BRANCH   1   8
ATOM      8  C1  UNL d   1      -1.352  -0.182  -0.485  0.00  0.00     0.053 C 
ATOM      9  C   UNL d   1      -0.966  -1.052  -1.671  0.00  0.00     0.018 C 
ENDBRANCH   1   8
TORSDOF 1
ENDMDL
