MODEL 1
REMARK minimizedAffinity 1.86471319
REMARK minimizedRMSD -1
REMARK  1 active torsions:
REMARK  status: ('A' for Active; 'I' for Inactive)
REMARK    1  A    between atoms: C1_2  and  C2_3 
ROOT
ATOM      1  C2  UNL d   1      -4.870  -3.691  -0.315  0.00  0.00    -0.073 A 
ATOM      2  C3  UNL d   1      -5.492  -3.320  -1.513  0.00  0.00    -0.002 A 
ATOM      3  C4  UNL d   1      -4.813  -2.533  -2.444  0.00  0.00     0.004 A 
ATOM      4  C5  UNL d   1      -3.507  -2.116  -2.192  0.00  0.00    -0.004 A 
ATOM      5  C6  UNL d   1      -2.865  -2.486  -1.006  0.00  0.00    -0.075 A 
ATOM      6  C7  UNL d   1      -1.460  -2.043  -0.718  0.00  0.00     0.076 C 
ATOM      7  C8  UNL d   1      -3.554  -3.274  -0.074  0.00  0.00     0.001 A 
ENDROOT
BRANCH   1   8
ATOM      8  C1  UNL d   1      -5.597  -4.546   0.691  0.00  0.00     0.053 C 
ATOM      9  C   UNL d   1      -5.680  -5.999   0.250  0.00  0.00     0.018 C 
ENDBRANCH   1   8
TORSDOF 1
ENDMDL
