MODEL 1
REMARK minimizedAffinity -5.37172413
REMARK minimizedRMSD -1
REMARK  1 active torsions:
REMARK  status: ('A' for Active; 'I' for Inactive)
REMARK    1  A    between atoms: C1_2  and  C2_3 
ROOT
ATOM      1  C2  UNL d   1       1.691   1.217   0.158  0.00  0.00    -0.073 A 
ATOM      2  C3  UNL d   1       2.874   0.624  -0.296  0.00  0.00    -0.002 A 
ATOM      3  C4  UNL d   1       2.841  -0.617  -0.933  0.00  0.00     0.004 A 
ATOM      4  C5  UNL d   1       1.626  -1.274  -1.129  0.00  0.00    -0.004 A 
ATOM      5  C6  UNL d   1       0.431  -0.691  -0.692  0.00  0.00    -0.075 A 
ATOM      6  C7  UNL d   1      -0.884  -1.386  -0.893  0.00  0.00     0.076 C 
ATOM      7  C8  UNL d   1       0.473   0.554  -0.051  0.00  0.00     0.001 A 
ENDROOT
BRANCH   1   8
ATOM      8  C1  UNL d   1       1.721   2.560   0.841  0.00  0.00     0.053 C 
ATOM      9  C   UNL d   1       1.716   2.430   2.356  0.00  0.00     0.018 C 
ENDBRANCH   1   8
TORSDOF 1
ENDMDL
