MODEL 1
REMARK minimizedAffinity -3.42122054
REMARK minimizedRMSD -1
REMARK  1 active torsions:
REMARK  status: ('A' for Active; 'I' for Inactive)
REMARK    1  A    between atoms: C1_2  and  C2_3 
ROOT
ATOM      1  C2  UNL d   1       0.984   0.775   0.146  0.00  0.00    -0.073 A 
ATOM      2  C3  UNL d   1       2.043   1.571  -0.304  0.00  0.00    -0.002 A 
ATOM      3  C4  UNL d   1       2.822   2.289   0.605  0.00  0.00     0.004 A 
ATOM      4  C5  UNL d   1       2.555   2.212   1.972  0.00  0.00    -0.004 A 
ATOM      5  C6  UNL d   1       1.509   1.412   2.442  0.00  0.00    -0.075 A 
ATOM      6  C7  UNL d   1       1.207   1.320   3.910  0.00  0.00     0.076 C 
ATOM      7  C8  UNL d   1       0.730   0.697   1.523  0.00  0.00     0.001 A 
ENDROOT
BRANCH   1   8
ATOM      8  C1  UNL d   1       0.145  -0.007  -0.831  0.00  0.00     0.053 C 
ATOM      9  C   UNL d   1      -0.639  -1.117  -0.148  0.00  0.00     0.018 C 
ENDBRANCH   1   8
TORSDOF 1
ENDMDL
