MODEL 1
REMARK minimizedAffinity -4.0335741
REMARK minimizedRMSD -1
REMARK  1 active torsions:
REMARK  status: ('A' for Active; 'I' for Inactive)
REMARK    1  A    between atoms: C1_2  and  C2_3 
ROOT
ATOM      1  C2  UNL d   1       1.310   1.279   0.327  0.00  0.00    -0.073 A 
ATOM      2  C3  UNL d   1       2.470   0.832  -0.316  0.00  0.00    -0.002 A 
ATOM      3  C4  UNL d   1       2.472  -0.383  -1.002  0.00  0.00     0.004 A 
ATOM      4  C5  UNL d   1       1.314  -1.159  -1.060  0.00  0.00    -0.004 A 
ATOM      5  C6  UNL d   1       0.141  -0.723  -0.434  0.00  0.00    -0.075 A 
ATOM      6  C7  UNL d   1      -1.112  -1.547  -0.485  0.00  0.00     0.076 C 
ATOM      7  C8  UNL d   1       0.148   0.496   0.256  0.00  0.00     0.001 A 
ENDROOT
BRANCH   1   8
ATOM      8  C1  UNL d   1       1.301   2.593   1.064  0.00  0.00     0.053 C 
ATOM      9  C   UNL d   1       1.524   2.410   2.557  0.00  0.00     0.018 C 
ENDBRANCH   1   8
TORSDOF 1
ENDMDL
