MODEL 1
REMARK minimizedAffinity -3.065907
REMARK minimizedRMSD -1
REMARK  1 active torsions:
REMARK  status: ('A' for Active; 'I' for Inactive)
REMARK    1  A    between atoms: C1_2  and  C2_3 
ROOT
ATOM      1  C2  UNL d   1      -0.221  -0.197  -0.025  0.00  0.00    -0.073 A 
ATOM      2  C3  UNL d   1      -1.297  -0.334   0.860  0.00  0.00    -0.002 A 
ATOM      3  C4  UNL d   1      -1.623   0.699   1.739  0.00  0.00     0.004 A 
ATOM      4  C5  UNL d   1      -0.883   1.882   1.738  0.00  0.00    -0.004 A 
ATOM      5  C6  UNL d   1       0.188   2.043   0.853  0.00  0.00    -0.075 A 
ATOM      6  C7  UNL d   1       0.995   3.308   0.841  0.00  0.00     0.076 C 
ATOM      7  C8  UNL d   1       0.511   0.999  -0.025  0.00  0.00     0.001 A 
ENDROOT
BRANCH   1   8
ATOM      8  C1  UNL d   1       0.131  -1.307  -0.980  0.00  0.00     0.053 C 
ATOM      9  C   UNL d   1      -1.085  -1.813  -1.740  0.00  0.00     0.018 C 
ENDBRANCH   1   8
TORSDOF 1
ENDMDL
