MODEL 1
REMARK minimizedAffinity -1.89526033
REMARK minimizedRMSD -1
REMARK  1 active torsions:
REMARK  status: ('A' for Active; 'I' for Inactive)
REMARK    1  A    between atoms: C1_2  and  C2_3 
ROOT
ATOM      1  C2  UNL d   1       0.773  -0.470  -0.452  0.00  0.00    -0.073 A 
ATOM      2  C3  UNL d   1      -0.457  -1.135  -0.523  0.00  0.00    -0.002 A 
ATOM      3  C4  UNL d   1      -1.488  -0.804   0.357  0.00  0.00     0.004 A 
ATOM      4  C5  UNL d   1      -1.304   0.197   1.311  0.00  0.00    -0.004 A 
ATOM      5  C6  UNL d   1      -0.086   0.880   1.389  0.00  0.00    -0.075 A 
ATOM      6  C7  UNL d   1       0.129   1.958   2.411  0.00  0.00     0.076 C 
ATOM      7  C8  UNL d   1       0.945   0.541   0.504  0.00  0.00     0.001 A 
ENDROOT
BRANCH   1   8
ATOM      8  C1  UNL d   1       1.887  -0.819  -1.405  0.00  0.00     0.053 C 
ATOM      9  C   UNL d   1       3.145  -0.010  -1.131  0.00  0.00     0.018 C 
ENDBRANCH   1   8
TORSDOF 1
ENDMDL
