MODEL 1
REMARK minimizedAffinity -5.56877804
REMARK minimizedRMSD -1
REMARK  1 active torsions:
REMARK  status: ('A' for Active; 'I' for Inactive)
REMARK    1  A    between atoms: C1_2  and  C2_3 
ROOT
ATOM      1  C2  UNL d   1       0.050  -0.048   0.044  0.00  0.00    -0.073 A 
ATOM      2  C3  UNL d   1      -0.778   0.835   0.747  0.00  0.00    -0.002 A 
ATOM      3  C4  UNL d   1      -0.241   1.969   1.357  0.00  0.00     0.004 A 
ATOM      4  C5  UNL d   1       1.125   2.236   1.266  0.00  0.00    -0.004 A 
ATOM      5  C6  UNL d   1       1.966   1.371   0.558  0.00  0.00    -0.075 A 
ATOM      6  C7  UNL d   1       3.438   1.643   0.453  0.00  0.00     0.076 C 
ATOM      7  C8  UNL d   1       1.420   0.233  -0.050  0.00  0.00     0.001 A 
ENDROOT
BRANCH   1   8
ATOM      8  C1  UNL d   1      -0.526  -1.271  -0.622  0.00  0.00     0.053 C 
ATOM      9  C   UNL d   1      -1.174  -0.940  -1.957  0.00  0.00     0.018 C 
ENDBRANCH   1   8
TORSDOF 1
ENDMDL
