MODEL 1
REMARK minimizedAffinity -2.92361355
REMARK minimizedRMSD -1
REMARK  1 active torsions:
REMARK  status: ('A' for Active; 'I' for Inactive)
REMARK    1  A    between atoms: C1_2  and  C2_3 
ROOT
ATOM      1  C2  UNL d   1       1.714   0.601   0.545  0.00  0.00    -0.073 A 
ATOM      2  C3  UNL d   1       1.193   1.468   1.512  0.00  0.00    -0.002 A 
ATOM      3  C4  UNL d   1      -0.174   1.473   1.792  0.00  0.00     0.004 A 
ATOM      4  C5  UNL d   1      -1.032   0.608   1.113  0.00  0.00    -0.004 A 
ATOM      5  C6  UNL d   1      -0.529  -0.274   0.151  0.00  0.00    -0.075 A 
ATOM      6  C7  UNL d   1      -1.439  -1.210  -0.589  0.00  0.00     0.076 C 
ATOM      7  C8  UNL d   1       0.845  -0.271  -0.125  0.00  0.00     0.001 A 
ENDROOT
BRANCH   1   8
ATOM      8  C1  UNL d   1       3.191   0.588   0.245  0.00  0.00     0.053 C 
ATOM      9  C   UNL d   1       3.994   1.326   1.304  0.00  0.00     0.018 C 
ENDBRANCH   1   8
TORSDOF 1
ENDMDL
