MODEL 1
REMARK minimizedAffinity -3.29626012
REMARK minimizedRMSD -1
REMARK  1 active torsions:
REMARK  status: ('A' for Active; 'I' for Inactive)
REMARK    1  A    between atoms: C1_2  and  C2_3 
ROOT
ATOM      1  C2  UNL d   1       1.165  -0.151   0.241  0.00  0.00    -0.073 A 
ATOM      2  C3  UNL d   1       0.486   0.361   1.352  0.00  0.00    -0.002 A 
ATOM      3  C4  UNL d   1      -0.907   0.310   1.411  0.00  0.00     0.004 A 
ATOM      4  C5  UNL d   1      -1.634  -0.259   0.366  0.00  0.00    -0.004 A 
ATOM      5  C6  UNL d   1      -0.972  -0.788  -0.747  0.00  0.00    -0.075 A 
ATOM      6  C7  UNL d   1      -1.740  -1.402  -1.881  0.00  0.00     0.076 C 
ATOM      7  C8  UNL d   1       0.427  -0.730  -0.801  0.00  0.00     0.001 A 
ENDROOT
BRANCH   1   8
ATOM      8  C1  UNL d   1       2.670  -0.104   0.176  0.00  0.00     0.053 C 
ATOM      9  C   UNL d   1       3.256   0.855   1.200  0.00  0.00     0.018 C 
ENDBRANCH   1   8
TORSDOF 1
ENDMDL
