MODEL 1
REMARK minimizedAffinity -5.62179232
REMARK minimizedRMSD -1
REMARK  1 active torsions:
REMARK  status: ('A' for Active; 'I' for Inactive)
REMARK    1  A    between atoms: C1_2  and  C2_3 
ROOT
ATOM      1  C2  UNL d   1       0.793  -0.143  -0.878  0.00  0.00    -0.073 A 
ATOM      2  C3  UNL d   1      -0.217  -0.748  -0.120  0.00  0.00    -0.002 A 
ATOM      3  C4  UNL d   1      -0.719  -0.114   1.017  0.00  0.00     0.004 A 
ATOM      4  C5  UNL d   1      -0.224   1.131   1.404  0.00  0.00    -0.004 A 
ATOM      5  C6  UNL d   1       0.776   1.756   0.653  0.00  0.00    -0.075 A 
ATOM      6  C7  UNL d   1       1.321   3.095   1.056  0.00  0.00     0.076 C 
ATOM      7  C8  UNL d   1       1.278   1.113  -0.487  0.00  0.00     0.001 A 
ENDROOT
BRANCH   1   8
ATOM      8  C1  UNL d   1       1.334  -0.821  -2.111  0.00  0.00     0.053 C 
ATOM      9  C   UNL d   1       0.300  -0.890  -3.224  0.00  0.00     0.018 C 
ENDBRANCH   1   8
TORSDOF 1
ENDMDL
