MODEL 1
REMARK minimizedAffinity -6.43080521
REMARK minimizedRMSD -1
REMARK  2 active torsions:
REMARK  status: ('A' for Active; 'I' for Inactive)
REMARK    1  A    between atoms: C2'_3  and  C1'_4 
REMARK    2  A    between atoms: C1'_4  and  C1_5 
ROOT
ATOM      1  C1  I4B d   1      -1.428   4.378   0.179  0.00  0.00    -0.075 A 
ATOM      2  C2  I4B d   1      -1.905   3.445  -0.708  0.00  0.00     0.003 A 
ATOM      3  C3  I4B d   1      -2.938   3.786  -1.614  0.00  0.00     0.002 A 
ATOM      4  C4  I4B d   1      -3.497   5.047  -1.565  0.00  0.00    -0.004 A 
ATOM      5  C5  I4B d   1      -2.996   5.998  -0.681  0.00  0.00     0.002 A 
ATOM      6  C6  I4B d   1      -1.947   5.666   0.188  0.00  0.00     0.003 A 
ENDROOT
BRANCH   1   7
ATOM      7  C1' I4B d   1      -0.359   3.974   1.144  0.00  0.00     0.060 C 
BRANCH   7   8
ATOM      8  C2' I4B d   1       0.531   5.176   1.384  0.00  0.00    -0.013 C 
ATOM      9  C4' I4B d   1       0.634   5.493   2.853  0.00  0.00     0.013 C 
ATOM     10  C3' I4B d   1       1.879   4.878   0.799  0.00  0.00     0.013 C 
ENDBRANCH   7   8
ENDBRANCH   1   7
TORSDOF 2
ENDMDL
