MODEL 1
REMARK minimizedAffinity -1.62228131
REMARK minimizedRMSD -1
REMARK  2 active torsions:
REMARK  status: ('A' for Active; 'I' for Inactive)
REMARK    1  A    between atoms: C2'_3  and  C1'_4 
REMARK    2  A    between atoms: C1'_4  and  C1_5 
ROOT
ATOM      1  C1  I4B d   1       2.111   3.095   0.811  0.00  0.00    -0.075 A 
ATOM      2  C2  I4B d   1       3.367   3.451   1.235  0.00  0.00     0.003 A 
ATOM      3  C3  I4B d   1       4.353   2.459   1.455  0.00  0.00     0.002 A 
ATOM      4  C4  I4B d   1       4.028   1.128   1.288  0.00  0.00    -0.004 A 
ATOM      5  C5  I4B d   1       2.761   0.771   0.836  0.00  0.00     0.002 A 
ATOM      6  C6  I4B d   1       1.800   1.760   0.584  0.00  0.00     0.003 A 
ENDROOT
BRANCH   1   7
ATOM      7  C1' I4B d   1       1.084   4.165   0.620  0.00  0.00     0.060 C 
BRANCH   7   8
ATOM      8  C2' I4B d   1       0.146   4.130   1.810  0.00  0.00    -0.013 C 
ATOM      9  C4' I4B d   1       0.833   4.610   3.061  0.00  0.00     0.013 C 
ATOM     10  C3' I4B d   1      -1.045   4.981   1.485  0.00  0.00     0.013 C 
ENDBRANCH   7   8
ENDBRANCH   1   7
TORSDOF 2
ENDMDL
