MODEL 1
REMARK minimizedAffinity -2.25246787
REMARK minimizedRMSD -1
REMARK  2 active torsions:
REMARK  status: ('A' for Active; 'I' for Inactive)
REMARK    1  A    between atoms: C2'_3  and  C1'_4 
REMARK    2  A    between atoms: C1'_4  and  C1_5 
ROOT
ATOM      1  C1  I4B d   1      -1.213   2.268   0.216  0.00  0.00    -0.075 A 
ATOM      2  C2  I4B d   1      -1.625   0.980   0.448  0.00  0.00     0.003 A 
ATOM      3  C3  I4B d   1      -1.034  -0.096  -0.259  0.00  0.00     0.002 A 
ATOM      4  C4  I4B d   1      -0.078   0.166  -1.219  0.00  0.00    -0.004 A 
ATOM      5  C5  I4B d   1       0.354   1.471  -1.437  0.00  0.00     0.002 A 
ATOM      6  C6  I4B d   1      -0.208   2.528  -0.707  0.00  0.00     0.003 A 
ENDROOT
BRANCH   1   7
ATOM      7  C1' I4B d   1      -1.881   3.383   0.957  0.00  0.00     0.060 C 
BRANCH   7   8
ATOM      8  C2' I4B d   1      -1.057   4.638   0.754  0.00  0.00    -0.013 C 
ATOM      9  C4' I4B d   1      -1.930   5.864   0.716  0.00  0.00     0.013 C 
ATOM     10  C3' I4B d   1      -0.057   4.720   1.869  0.00  0.00     0.013 C 
ENDBRANCH   7   8
ENDBRANCH   1   7
TORSDOF 2
ENDMDL
