MODEL 1
REMARK minimizedAffinity -4.66572666
REMARK minimizedRMSD -1
REMARK  2 active torsions:
REMARK  status: ('A' for Active; 'I' for Inactive)
REMARK    1  A    between atoms: C2'_3  and  C1'_4 
REMARK    2  A    between atoms: C1'_4  and  C1_5 
ROOT
ATOM      1  C1  I4B d   1      -0.470   1.035  -0.370  0.00  0.00    -0.075 A 
ATOM      2  C2  I4B d   1       0.006   0.299  -1.425  0.00  0.00     0.003 A 
ATOM      3  C3  I4B d   1      -0.191  -1.103  -1.463  0.00  0.00     0.002 A 
ATOM      4  C4  I4B d   1      -0.820  -1.729  -0.407  0.00  0.00    -0.004 A 
ATOM      5  C5  I4B d   1      -1.323  -0.978   0.652  0.00  0.00     0.002 A 
ATOM      6  C6  I4B d   1      -1.158   0.415   0.665  0.00  0.00     0.003 A 
ENDROOT
BRANCH   1   7
ATOM      7  C1' I4B d   1      -0.216   2.509  -0.346  0.00  0.00     0.060 C 
BRANCH   7   8
ATOM      8  C2' I4B d   1       1.236   2.738  -0.715  0.00  0.00    -0.013 C 
ATOM      9  C4' I4B d   1       1.356   3.547  -1.980  0.00  0.00     0.013 C 
ATOM     10  C3' I4B d   1       1.902   3.432   0.436  0.00  0.00     0.013 C 
ENDBRANCH   7   8
ENDBRANCH   1   7
TORSDOF 2
ENDMDL
