MODEL 1
REMARK minimizedAffinity -5.2858305
REMARK minimizedRMSD -1
REMARK  2 active torsions:
REMARK  status: ('A' for Active; 'I' for Inactive)
REMARK    1  A    between atoms: C2'_3  and  C1'_4 
REMARK    2  A    between atoms: C1'_4  and  C1_5 
ROOT
ATOM      1  C1  I4B d   1      -0.294   2.951   0.143  0.00  0.00    -0.075 A 
ATOM      2  C2  I4B d   1      -1.171   3.766   0.814  0.00  0.00     0.003 A 
ATOM      3  C3  I4B d   1      -0.687   4.802   1.648  0.00  0.00     0.002 A 
ATOM      4  C4  I4B d   1       0.674   4.954   1.822  0.00  0.00    -0.004 A 
ATOM      5  C5  I4B d   1       1.562   4.142   1.124  0.00  0.00     0.002 A 
ATOM      6  C6  I4B d   1       1.076   3.141   0.269  0.00  0.00     0.003 A 
ENDROOT
BRANCH   1   7
ATOM      7  C1' I4B d   1      -0.840   1.846  -0.704  0.00  0.00     0.060 C 
BRANCH   7   8
ATOM      8  C2' I4B d   1      -0.540   0.533  -0.009  0.00  0.00    -0.013 C 
ATOM      9  C4' I4B d   1      -1.714   0.072   0.816  0.00  0.00     0.013 C 
ATOM     10  C3' I4B d   1      -0.187  -0.477  -1.059  0.00  0.00     0.013 C 
ENDBRANCH   7   8
ENDBRANCH   1   7
TORSDOF 2
ENDMDL
