MODEL 1
REMARK minimizedAffinity -3.87170577
REMARK minimizedRMSD -1
REMARK  2 active torsions:
REMARK  status: ('A' for Active; 'I' for Inactive)
REMARK    1  A    between atoms: C2'_3  and  C1'_4 
REMARK    2  A    between atoms: C1'_4  and  C1_5 
ROOT
ATOM      1  C1  I4B d   1       0.175   2.012   0.432  0.00  0.00    -0.075 A 
ATOM      2  C2  I4B d   1      -1.189   1.929   0.562  0.00  0.00     0.003 A 
ATOM      3  C3  I4B d   1      -1.812   0.673   0.756  0.00  0.00     0.002 A 
ATOM      4  C4  I4B d   1      -1.043  -0.473   0.763  0.00  0.00    -0.004 A 
ATOM      5  C5  I4B d   1       0.342  -0.386   0.653  0.00  0.00     0.002 A 
ATOM      6  C6  I4B d   1       0.956   0.865   0.499  0.00  0.00     0.003 A 
ENDROOT
BRANCH   1   7
ATOM      7  C1' I4B d   1       0.797   3.351   0.196  0.00  0.00     0.060 C 
BRANCH   7   8
ATOM      8  C2' I4B d   1       2.191   3.129  -0.354  0.00  0.00    -0.013 C 
ATOM      9  C4' I4B d   1       2.350   3.764  -1.710  0.00  0.00     0.013 C 
ATOM     10  C3' I4B d   1       3.172   3.696   0.628  0.00  0.00     0.013 C 
ENDBRANCH   7   8
ENDBRANCH   1   7
TORSDOF 2
ENDMDL
