MODEL 1
REMARK minimizedAffinity -0.992863953
REMARK minimizedRMSD -1
REMARK  2 active torsions:
REMARK  status: ('A' for Active; 'I' for Inactive)
REMARK    1  A    between atoms: C2'_3  and  C1'_4 
REMARK    2  A    between atoms: C1'_4  and  C1_5 
ROOT
ATOM      1  C1  I4B d   1      -0.896   1.104  -0.304  0.00  0.00    -0.075 A 
ATOM      2  C2  I4B d   1      -0.350   0.821  -1.532  0.00  0.00     0.003 A 
ATOM      3  C3  I4B d   1       0.162  -0.470  -1.803  0.00  0.00     0.002 A 
ATOM      4  C4  I4B d   1       0.155  -1.427  -0.809  0.00  0.00    -0.004 A 
ATOM      5  C5  I4B d   1      -0.419  -1.145   0.428  0.00  0.00     0.002 A 
ATOM      6  C6  I4B d   1      -0.959   0.124   0.678  0.00  0.00     0.003 A 
ENDROOT
BRANCH   1   7
ATOM      7  C1' I4B d   1      -1.398   2.489  -0.040  0.00  0.00     0.060 C 
BRANCH   7   8
ATOM      8  C2' I4B d   1      -0.469   3.138   0.966  0.00  0.00    -0.013 C 
ATOM      9  C4' I4B d   1       0.914   3.314   0.397  0.00  0.00     0.013 C 
ATOM     10  C3' I4B d   1      -1.064   4.457   1.360  0.00  0.00     0.013 C 
ENDBRANCH   7   8
ENDBRANCH   1   7
TORSDOF 2
ENDMDL
