MODEL 1
REMARK minimizedAffinity -6.05389118
REMARK minimizedRMSD -1
REMARK  1 active torsions:
REMARK  status: ('A' for Active; 'I' for Inactive)
REMARK    1  A    between atoms: C1_2  and  C2_3 
ROOT
ATOM      1  C2  UNL d   1      -0.171   0.057  -0.325  0.00  0.00    -0.073 A 
ATOM      2  C3  UNL d   1      -0.202   0.275  -1.708  0.00  0.00    -0.002 A 
ATOM      3  C4  UNL d   1      -1.341  -0.047  -2.446  0.00  0.00     0.004 A 
ATOM      4  C5  UNL d   1      -2.461  -0.583  -1.811  0.00  0.00    -0.004 A 
ATOM      5  C6  UNL d   1      -2.454  -0.797  -0.429  0.00  0.00    -0.075 A 
ATOM      6  C7  UNL d   1      -3.650  -1.375   0.268  0.00  0.00     0.076 C 
ATOM      7  C8  UNL d   1      -1.305  -0.474   0.305  0.00  0.00     0.001 A 
ENDROOT
BRANCH   1   8
ATOM      8  C1  UNL d   1       1.055   0.409   0.478  0.00  0.00     0.053 C 
ATOM      9  C   UNL d   1       1.829  -0.827   0.907  0.00  0.00     0.018 C 
ENDBRANCH   1   8
TORSDOF 1
ENDMDL
