MODEL 1
REMARK minimizedAffinity -2.11864686
REMARK minimizedRMSD -1
REMARK  1 active torsions:
REMARK  status: ('A' for Active; 'I' for Inactive)
REMARK    1  A    between atoms: C1_2  and  C2_3 
ROOT
ATOM      1  C2  UNL d   1       0.574   0.286  -0.149  0.00  0.00    -0.073 A 
ATOM      2  C3  UNL d   1      -0.268   0.534  -1.239  0.00  0.00    -0.002 A 
ATOM      3  C4  UNL d   1      -1.587   0.080  -1.229  0.00  0.00     0.004 A 
ATOM      4  C5  UNL d   1      -2.080  -0.620  -0.128  0.00  0.00    -0.004 A 
ATOM      5  C6  UNL d   1      -1.258  -0.869   0.975  0.00  0.00    -0.075 A 
ATOM      6  C7  UNL d   1      -1.772  -1.622   2.167  0.00  0.00     0.076 C 
ATOM      7  C8  UNL d   1       0.067  -0.411   0.957  0.00  0.00     0.001 A 
ENDROOT
BRANCH   1   8
ATOM      8  C1  UNL d   1       1.997   0.780  -0.153  0.00  0.00     0.053 C 
ATOM      9  C   UNL d   1       2.171   2.025   0.702  0.00  0.00     0.018 C 
ENDBRANCH   1   8
TORSDOF 1
ENDMDL
