MODEL 1
REMARK minimizedAffinity -2.9556284
REMARK minimizedRMSD -1
REMARK  1 active torsions:
REMARK  status: ('A' for Active; 'I' for Inactive)
REMARK    1  A    between atoms: C1_2  and  C2_3 
ROOT
ATOM      1  C2  UNL d   1      -0.442  -0.586   0.237  0.00  0.00    -0.073 A 
ATOM      2  C3  UNL d   1      -0.492  -0.505  -1.159  0.00  0.00    -0.002 A 
ATOM      3  C4  UNL d   1       0.307   0.414  -1.841  0.00  0.00     0.004 A 
ATOM      4  C5  UNL d   1       1.168   1.255  -1.136  0.00  0.00    -0.004 A 
ATOM      5  C6  UNL d   1       1.241   1.181   0.259  0.00  0.00    -0.075 A 
ATOM      6  C7  UNL d   1       2.160   2.081   1.032  0.00  0.00     0.076 C 
ATOM      7  C8  UNL d   1       0.433   0.258   0.936  0.00  0.00     0.001 A 
ENDROOT
BRANCH   1   8
ATOM      8  C1  UNL d   1      -1.298  -1.580   0.977  0.00  0.00     0.053 C 
ATOM      9  C   UNL d   1      -0.477  -2.456   1.911  0.00  0.00     0.018 C 
ENDBRANCH   1   8
TORSDOF 1
ENDMDL
