MODEL 1
REMARK minimizedAffinity -5.87792587
REMARK minimizedRMSD -1
REMARK  1 active torsions:
REMARK  status: ('A' for Active; 'I' for Inactive)
REMARK    1  A    between atoms: C1_2  and  C2_3 
ROOT
ATOM      1  C2  UNL d   1       0.653   0.131   0.336  0.00  0.00    -0.073 A 
ATOM      2  C3  UNL d   1       1.126  -0.812   1.256  0.00  0.00    -0.002 A 
ATOM      3  C4  UNL d   1       0.262  -1.767   1.793  0.00  0.00     0.004 A 
ATOM      4  C5  UNL d   1      -1.079  -1.795   1.411  0.00  0.00    -0.004 A 
ATOM      5  C6  UNL d   1      -1.567  -0.868   0.484  0.00  0.00    -0.075 A 
ATOM      6  C7  UNL d   1      -3.008  -0.883   0.064  0.00  0.00     0.076 C 
ATOM      7  C8  UNL d   1      -0.694   0.090  -0.049  0.00  0.00     0.001 A 
ENDROOT
BRANCH   1   8
ATOM      8  C1  UNL d   1       1.584   1.161  -0.250  0.00  0.00     0.053 C 
ATOM      9  C   UNL d   1       1.896   2.275   0.736  0.00  0.00     0.018 C 
ENDBRANCH   1   8
TORSDOF 1
ENDMDL
