MODEL 1
REMARK minimizedAffinity -2.95326376
REMARK minimizedRMSD -1
REMARK  1 active torsions:
REMARK  status: ('A' for Active; 'I' for Inactive)
REMARK    1  A    between atoms: C1_2  and  C2_3 
ROOT
ATOM      1  C2  UNL d   1       1.913   1.066   0.438  0.00  0.00    -0.073 A 
ATOM      2  C3  UNL d   1       2.003   1.869   1.580  0.00  0.00    -0.002 A 
ATOM      3  C4  UNL d   1       2.885   2.950   1.613  0.00  0.00     0.004 A 
ATOM      4  C5  UNL d   1       3.679   3.243   0.504  0.00  0.00    -0.004 A 
ATOM      5  C6  UNL d   1       3.595   2.458  -0.651  0.00  0.00    -0.075 A 
ATOM      6  C7  UNL d   1       4.444   2.758  -1.851  0.00  0.00     0.076 C 
ATOM      7  C8  UNL d   1       2.709   1.373  -0.675  0.00  0.00     0.001 A 
ENDROOT
BRANCH   1   8
ATOM      8  C1  UNL d   1       0.957  -0.099   0.395  0.00  0.00     0.053 C 
ATOM      9  C   UNL d   1      -0.468   0.344   0.102  0.00  0.00     0.018 C 
ENDBRANCH   1   8
TORSDOF 1
ENDMDL
