MODEL 1
REMARK minimizedAffinity -3.38381648
REMARK minimizedRMSD -1
REMARK  1 active torsions:
REMARK  status: ('A' for Active; 'I' for Inactive)
REMARK    1  A    between atoms: C1_2  and  C2_3 
ROOT
ATOM      1  C2  UNL d   1       0.012   0.954   0.676  0.00  0.00    -0.073 A 
ATOM      2  C3  UNL d   1       0.651   0.791  -0.558  0.00  0.00    -0.002 A 
ATOM      3  C4  UNL d   1       0.042   0.057  -1.576  0.00  0.00     0.004 A 
ATOM      4  C5  UNL d   1      -1.215  -0.515  -1.374  0.00  0.00    -0.004 A 
ATOM      5  C6  UNL d   1      -1.875  -0.353  -0.152  0.00  0.00    -0.075 A 
ATOM      6  C7  UNL d   1      -3.225  -0.963   0.083  0.00  0.00     0.076 C 
ATOM      7  C8  UNL d   1      -1.255   0.384   0.867  0.00  0.00     0.001 A 
ENDROOT
BRANCH   1   8
ATOM      8  C1  UNL d   1       0.664   1.751   1.776  0.00  0.00     0.053 C 
ATOM      9  C   UNL d   1       1.522   2.881   1.230  0.00  0.00     0.018 C 
ENDBRANCH   1   8
TORSDOF 1
ENDMDL
