MODEL 1
REMARK minimizedAffinity -3.99121237
REMARK minimizedRMSD -1
REMARK  0 active torsions:
REMARK  status: ('A' for Active; 'I' for Inactive)
ROOT
ATOM      1  C   UNL d   1       0.374  -0.555  -0.778  0.00  0.00     0.172 C 
ATOM      2  N   UNL d   1      -0.419   0.354   0.015  0.00  0.00    -0.070 N 
ATOM      3  C1  UNL d   1      -1.388   1.195  -0.465  0.00  0.00    -0.004 A 
ATOM      4  C2  UNL d   1      -1.908   1.893   0.604  0.00  0.00    -0.047 A 
ATOM      5  C3  UNL d   1      -1.227   1.457   1.766  0.00  0.00    -0.047 A 
ATOM      6  C4  UNL d   1      -0.311   0.505   1.372  0.00  0.00    -0.004 A 
ENDROOT
TORSDOF 0
ENDMDL
