MODEL 1
REMARK minimizedAffinity -2.59181213
REMARK minimizedRMSD -1
REMARK  0 active torsions:
REMARK  status: ('A' for Active; 'I' for Inactive)
ROOT
ATOM      1  C   UNL d   1       0.965  -2.920  -1.549  0.00  0.00     0.172 C 
ATOM      2  N   UNL d   1       0.515  -1.725  -0.874  0.00  0.00    -0.070 N 
ATOM      3  C1  UNL d   1      -0.664  -1.590  -0.192  0.00  0.00    -0.004 A 
ATOM      4  C2  UNL d   1      -0.720  -0.305   0.304  0.00  0.00    -0.047 A 
ATOM      5  C3  UNL d   1       0.467   0.355  -0.095  0.00  0.00    -0.047 A 
ATOM      6  C4  UNL d   1       1.213  -0.547  -0.823  0.00  0.00    -0.004 A 
ENDROOT
TORSDOF 0
ENDMDL
