MODEL 1
REMARK minimizedAffinity -3.60190916
REMARK minimizedRMSD -1
REMARK  0 active torsions:
REMARK  status: ('A' for Active; 'I' for Inactive)
ROOT
ATOM      1  C   UNL d   1       0.595   0.275  -0.677  0.00  0.00     0.172 C 
ATOM      2  N   UNL d   1      -0.245   1.059   0.198  0.00  0.00    -0.070 N 
ATOM      3  C1  UNL d   1      -0.851   0.607   1.339  0.00  0.00    -0.004 A 
ATOM      4  C2  UNL d   1      -1.560   1.655   1.885  0.00  0.00    -0.047 A 
ATOM      5  C3  UNL d   1      -1.375   2.776   1.041  0.00  0.00    -0.047 A 
ATOM      6  C4  UNL d   1      -0.557   2.379   0.004  0.00  0.00    -0.004 A 
ENDROOT
TORSDOF 0
ENDMDL
