MODEL 1
REMARK minimizedAffinity -4.20880938
REMARK minimizedRMSD -1
REMARK  0 active torsions:
REMARK  status: ('A' for Active; 'I' for Inactive)
ROOT
ATOM      1  C   UNL d   1       0.562   0.427  -0.335  0.00  0.00     0.172 C 
ATOM      2  N   UNL d   1      -0.306   1.348   0.359  0.00  0.00    -0.070 N 
ATOM      3  C1  UNL d   1      -0.960   1.096   1.536  0.00  0.00    -0.004 A 
ATOM      4  C2  UNL d   1      -1.683   2.222   1.866  0.00  0.00    -0.047 A 
ATOM      5  C3  UNL d   1      -1.455   3.184   0.854  0.00  0.00    -0.047 A 
ATOM      6  C4  UNL d   1      -0.599   2.617  -0.067  0.00  0.00    -0.004 A 
ENDROOT
TORSDOF 0
ENDMDL
