MODEL 1
REMARK minimizedAffinity -0.477326721
REMARK minimizedRMSD -1
REMARK  0 active torsions:
REMARK  status: ('A' for Active; 'I' for Inactive)
ROOT
ATOM      1  C   UNL d   1       0.432  -3.100  -3.806  0.00  0.00     0.172 C 
ATOM      2  N   UNL d   1       0.219  -1.682  -3.971  0.00  0.00    -0.070 N 
ATOM      3  C1  UNL d   1       0.806  -0.694  -3.226  0.00  0.00    -0.004 A 
ATOM      4  C2  UNL d   1       0.346   0.518  -3.694  0.00  0.00    -0.047 A 
ATOM      5  C3  UNL d   1      -0.548   0.249  -4.757  0.00  0.00    -0.047 A 
ATOM      6  C4  UNL d   1      -0.608  -1.120  -4.908  0.00  0.00    -0.004 A 
ENDROOT
TORSDOF 0
ENDMDL
