MODEL 1
REMARK minimizedAffinity -2.59327531
REMARK minimizedRMSD -1
REMARK  0 active torsions:
REMARK  status: ('A' for Active; 'I' for Inactive)
ROOT
ATOM      1  C   UNL d   1      -0.773   1.154  -1.848  0.00  0.00     0.172 C 
ATOM      2  N   UNL d   1      -0.985   1.350  -0.433  0.00  0.00    -0.070 N 
ATOM      3  C1  UNL d   1      -0.257   0.768   0.571  0.00  0.00    -0.004 A 
ATOM      4  C2  UNL d   1      -0.769   1.208   1.772  0.00  0.00    -0.047 A 
ATOM      5  C3  UNL d   1      -1.841   2.084   1.481  0.00  0.00    -0.047 A 
ATOM      6  C4  UNL d   1      -1.953   2.154   0.108  0.00  0.00    -0.004 A 
ENDROOT
TORSDOF 0
ENDMDL
