MODEL 1
REMARK minimizedAffinity 2.95196056
REMARK minimizedRMSD -1
REMARK  0 active torsions:
REMARK  status: ('A' for Active; 'I' for Inactive)
ROOT
ATOM      1  C   UNL d   1       0.598   1.947  -0.976  0.00  0.00     0.172 C 
ATOM      2  N   UNL d   1       0.105   1.429   0.279  0.00  0.00    -0.070 N 
ATOM      3  C1  UNL d   1       0.014   0.105   0.616  0.00  0.00    -0.004 A 
ATOM      4  C2  UNL d   1      -0.502   0.029   1.891  0.00  0.00    -0.047 A 
ATOM      5  C3  UNL d   1      -0.729   1.353   2.336  0.00  0.00    -0.047 A 
ATOM      6  C4  UNL d   1      -0.345   2.200   1.318  0.00  0.00    -0.004 A 
ENDROOT
TORSDOF 0
ENDMDL
