MODEL 1
REMARK minimizedAffinity 1.04651082
REMARK minimizedRMSD -1
REMARK  0 active torsions:
REMARK  status: ('A' for Active; 'I' for Inactive)
ROOT
ATOM      1  C   UNL d   1      -1.115   1.877   2.303  0.00  0.00     0.172 C 
ATOM      2  N   UNL d   1      -0.496   0.973   1.363  0.00  0.00    -0.070 N 
ATOM      3  C1  UNL d   1       0.342   1.334   0.341  0.00  0.00    -0.004 A 
ATOM      4  C2  UNL d   1       0.717   0.186  -0.322  0.00  0.00    -0.047 A 
ATOM      5  C3  UNL d   1       0.082  -0.903   0.322  0.00  0.00    -0.047 A 
ATOM      6  C4  UNL d   1      -0.662  -0.387   1.361  0.00  0.00    -0.004 A 
ENDROOT
TORSDOF 0
ENDMDL
