MODEL 1
REMARK minimizedAffinity -1.29248905
REMARK minimizedRMSD -1
REMARK  0 active torsions:
REMARK  status: ('A' for Active; 'I' for Inactive)
ROOT
ATOM      1  C   UNL d   1       0.731   1.806  -0.878  0.00  0.00     0.172 C 
ATOM      2  N   UNL d   1       0.275   1.298   0.394  0.00  0.00    -0.070 N 
ATOM      3  C1  UNL d   1       0.127  -0.024   0.719  0.00  0.00    -0.004 A 
ATOM      4  C2  UNL d   1      -0.326  -0.092   2.018  0.00  0.00    -0.047 A 
ATOM      5  C3  UNL d   1      -0.456   1.236   2.491  0.00  0.00    -0.047 A 
ATOM      6  C4  UNL d   1      -0.077   2.076   1.465  0.00  0.00    -0.004 A 
ENDROOT
TORSDOF 0
ENDMDL
