MODEL 1
REMARK minimizedAffinity -2.18347907
REMARK minimizedRMSD -1
REMARK  0 active torsions:
REMARK  status: ('A' for Active; 'I' for Inactive)
ROOT
ATOM      1  C   UNL d   1      -0.953   1.269  -1.345  0.00  0.00     0.172 C 
ATOM      2  N   UNL d   1      -1.264   1.417   0.057  0.00  0.00    -0.070 N 
ATOM      3  C1  UNL d   1      -0.448   1.061   1.098  0.00  0.00    -0.004 A 
ATOM      4  C2  UNL d   1      -1.105   1.361   2.271  0.00  0.00    -0.047 A 
ATOM      5  C3  UNL d   1      -2.360   1.916   1.924  0.00  0.00    -0.047 A 
ATOM      6  C4  UNL d   1      -2.432   1.938   0.547  0.00  0.00    -0.004 A 
ENDROOT
TORSDOF 0
ENDMDL
