MODEL 1
REMARK minimizedAffinity 3.77728724
REMARK minimizedRMSD -1
REMARK  0 active torsions:
REMARK  status: ('A' for Active; 'I' for Inactive)
ROOT
ATOM      1  C   UNL d   1      -2.124   3.376   2.854  0.00  0.00     0.172 C 
ATOM      2  N   UNL d   1      -1.515   2.068   2.792  0.00  0.00    -0.070 N 
ATOM      3  C1  UNL d   1      -0.262   1.793   2.312  0.00  0.00    -0.004 A 
ATOM      4  C2  UNL d   1      -0.056   0.435   2.425  0.00  0.00    -0.047 A 
ATOM      5  C3  UNL d   1      -1.225  -0.126   2.992  0.00  0.00    -0.047 A 
ATOM      6  C4  UNL d   1      -2.112   0.908   3.208  0.00  0.00    -0.004 A 
ENDROOT
TORSDOF 0
ENDMDL
