MODEL 1
REMARK minimizedAffinity -3.21019745
REMARK minimizedRMSD -1
REMARK  0 active torsions:
REMARK  status: ('A' for Active; 'I' for Inactive)
ROOT
ATOM      1  C   UNL d   1      -1.412   0.449  -1.349  0.00  0.00     0.172 C 
ATOM      2  N   UNL d   1      -1.379   0.969  -0.002  0.00  0.00    -0.070 N 
ATOM      3  C1  UNL d   1      -0.507   0.585   0.981  0.00  0.00    -0.004 A 
ATOM      4  C2  UNL d   1      -0.801   1.313   2.114  0.00  0.00    -0.047 A 
ATOM      5  C3  UNL d   1      -1.888   2.164   1.800  0.00  0.00    -0.047 A 
ATOM      6  C4  UNL d   1      -2.226   1.930   0.484  0.00  0.00    -0.004 A 
ENDROOT
TORSDOF 0
ENDMDL
