MODEL 1
REMARK minimizedAffinity -3.19530392
REMARK minimizedRMSD -1
REMARK  0 active torsions:
REMARK  status: ('A' for Active; 'I' for Inactive)
ROOT
ATOM      1  C   UNL d   1      -1.869   2.010   0.605  0.00  0.00     0.172 C 
ATOM      2  N   UNL d   1      -0.816   1.278  -0.058  0.00  0.00    -0.070 N 
ATOM      3  C1  UNL d   1      -0.452   1.414  -1.371  0.00  0.00    -0.004 A 
ATOM      4  C2  UNL d   1       0.588   0.544  -1.613  0.00  0.00    -0.047 A 
ATOM      5  C3  UNL d   1       0.858  -0.141  -0.404  0.00  0.00    -0.047 A 
ATOM      6  C4  UNL d   1      -0.026   0.333   0.542  0.00  0.00    -0.004 A 
ENDROOT
TORSDOF 0
ENDMDL
