MODEL 1
REMARK minimizedAffinity -1.50847125
REMARK minimizedRMSD -1
REMARK  0 active torsions:
REMARK  status: ('A' for Active; 'I' for Inactive)
ROOT
ATOM      1  C   UNL d   1       0.465  -0.428  -0.510  0.00  0.00     0.172 C 
ATOM      2  N   UNL d   1      -0.319   0.385   0.390  0.00  0.00    -0.070 N 
ATOM      3  C1  UNL d   1      -0.205   0.402   1.754  0.00  0.00    -0.004 A 
ATOM      4  C2  UNL d   1      -1.124   1.306   2.243  0.00  0.00    -0.047 A 
ATOM      5  C3  UNL d   1      -1.813   1.851   1.134  0.00  0.00    -0.047 A 
ATOM      6  C4  UNL d   1      -1.295   1.264  -0.001  0.00  0.00    -0.004 A 
ENDROOT
TORSDOF 0
ENDMDL
