MODEL 1
REMARK minimizedAffinity 1.30456901
REMARK minimizedRMSD -1
REMARK  0 active torsions:
REMARK  status: ('A' for Active; 'I' for Inactive)
ROOT
ATOM      1  C   UNL d   1       2.176  -0.991   0.875  0.00  0.00     0.124 A 
ATOM      2  C1  UNL d   1       1.429  -1.119  -0.288  0.00  0.00     0.062 A 
ATOM      3  C2  UNL d   1       0.039  -1.131  -0.229  0.00  0.00     0.162 A 
ATOM      4  C3  UNL d   1      -0.615  -1.015   0.998  0.00  0.00    -0.034 A 
ATOM      5  C4  UNL d   1       0.143  -0.888   2.164  0.00  0.00     0.162 A 
ATOM      6  C5  UNL d   1       1.533  -0.876   2.100  0.00  0.00     0.062 A 
ATOM      7  F   UNL d   1       2.253  -0.753   3.224  0.00  0.00    -0.097 F 
ATOM      8  F1  UNL d   1      -0.453  -0.773   3.360  0.00  0.00    -0.096 F 
ATOM      9  I   UNL d   1      -2.694  -1.032   1.090  0.00  0.00    -0.060 I 
ATOM     10  F2  UNL d   1      -0.657  -1.256  -1.368  0.00  0.00    -0.096 F 
ATOM     11  F3  UNL d   1       2.049  -1.232  -1.471  0.00  0.00    -0.097 F 
ATOM     12  F4  UNL d   1       3.514  -0.981   0.816  0.00  0.00    -0.092 F 
ENDROOT
TORSDOF 0
ENDMDL
