MODEL 1
REMARK minimizedAffinity 4.78544855
REMARK minimizedRMSD -1
REMARK  0 active torsions:
REMARK  status: ('A' for Active; 'I' for Inactive)
ROOT
ATOM      1  C   UNL d   1       0.831  -1.125   1.514  0.00  0.00     0.124 A 
ATOM      2  C1  UNL d   1      -0.504  -0.859   1.783  0.00  0.00     0.062 A 
ATOM      3  C2  UNL d   1      -1.301  -0.237   0.826  0.00  0.00     0.162 A 
ATOM      4  C3  UNL d   1      -0.764   0.122  -0.411  0.00  0.00    -0.034 A 
ATOM      5  C4  UNL d   1       0.580  -0.149  -0.674  0.00  0.00     0.162 A 
ATOM      6  C5  UNL d   1       1.372  -0.770   0.286  0.00  0.00     0.062 A 
ATOM      7  F   UNL d   1       2.662  -1.027   0.024  0.00  0.00    -0.097 F 
ATOM      8  F1  UNL d   1       1.128   0.183  -1.853  0.00  0.00    -0.096 F 
ATOM      9  I   UNL d   1      -1.952   1.051  -1.845  0.00  0.00    -0.060 I 
ATOM     10  F2  UNL d   1      -2.588   0.008   1.113  0.00  0.00    -0.096 F 
ATOM     11  F3  UNL d   1      -1.028  -1.200   2.969  0.00  0.00    -0.097 F 
ATOM     12  F4  UNL d   1       1.596  -1.722   2.437  0.00  0.00    -0.092 F 
ENDROOT
TORSDOF 0
ENDMDL
