MODEL 1
REMARK minimizedAffinity 14.0712605
REMARK minimizedRMSD -1
REMARK  0 active torsions:
REMARK  status: ('A' for Active; 'I' for Inactive)
ROOT
ATOM      1  C   UNL d   1       1.185  -3.706   1.036  0.00  0.00     0.124 A 
ATOM      2  C1  UNL d   1      -0.097  -3.975   1.495  0.00  0.00     0.062 A 
ATOM      3  C2  UNL d   1      -0.885  -2.950   2.010  0.00  0.00     0.162 A 
ATOM      4  C3  UNL d   1      -0.395  -1.645   2.067  0.00  0.00    -0.034 A 
ATOM      5  C4  UNL d   1       0.896  -1.383   1.604  0.00  0.00     0.162 A 
ATOM      6  C5  UNL d   1       1.680  -2.411   1.091  0.00  0.00     0.062 A 
ATOM      7  F   UNL d   1       2.919  -2.149   0.648  0.00  0.00    -0.097 F 
ATOM      8  F1  UNL d   1       1.399  -0.140   1.644  0.00  0.00    -0.096 F 
ATOM      9  I   UNL d   1      -1.571  -0.110   2.835  0.00  0.00    -0.060 I 
ATOM     10  F2  UNL d   1      -2.120  -3.238   2.446  0.00  0.00    -0.096 F 
ATOM     11  F3  UNL d   1      -0.577  -5.225   1.444  0.00  0.00    -0.097 F 
ATOM     12  F4  UNL d   1       1.942  -4.694   0.543  0.00  0.00    -0.092 F 
ENDROOT
TORSDOF 0
ENDMDL
