MODEL 1
REMARK minimizedAffinity 4.72050047
REMARK minimizedRMSD -1
REMARK  0 active torsions:
REMARK  status: ('A' for Active; 'I' for Inactive)
ROOT
ATOM      1  C   UNL d   1       1.047  -4.706   1.798  0.00  0.00     0.124 A 
ATOM      2  C1  UNL d   1       1.473  -3.561   1.139  0.00  0.00     0.062 A 
ATOM      3  C2  UNL d   1       0.672  -2.423   1.122  0.00  0.00     0.162 A 
ATOM      4  C3  UNL d   1      -0.564  -2.423   1.769  0.00  0.00    -0.034 A 
ATOM      5  C4  UNL d   1      -0.987  -3.579   2.428  0.00  0.00     0.162 A 
ATOM      6  C5  UNL d   1      -0.183  -4.714   2.442  0.00  0.00     0.062 A 
ATOM      7  F   UNL d   1      -0.597  -5.819   3.079  0.00  0.00    -0.097 F 
ATOM      8  F1  UNL d   1      -2.170  -3.613   3.060  0.00  0.00    -0.096 F 
ATOM      9  I   UNL d   1      -1.765  -0.724   1.747  0.00  0.00    -0.060 I 
ATOM     10  F2  UNL d   1       1.110  -1.331   0.478  0.00  0.00    -0.096 F 
ATOM     11  F3  UNL d   1       2.660  -3.551   0.515  0.00  0.00    -0.097 F 
ATOM     12  F4  UNL d   1       1.819  -5.800   1.811  0.00  0.00    -0.092 F 
ENDROOT
TORSDOF 0
ENDMDL
