MODEL 1
REMARK minimizedAffinity 20.802866
REMARK minimizedRMSD -1
REMARK  0 active torsions:
REMARK  status: ('A' for Active; 'I' for Inactive)
ROOT
ATOM      1  C   UNL d   1       0.019  -2.738   2.473  0.00  0.00     0.124 A 
ATOM      2  C1  UNL d   1      -0.151  -1.399   2.152  0.00  0.00     0.062 A 
ATOM      3  C2  UNL d   1       0.646  -0.805   1.178  0.00  0.00     0.162 A 
ATOM      4  C3  UNL d   1       1.620  -1.551   0.515  0.00  0.00    -0.034 A 
ATOM      5  C4  UNL d   1       1.787  -2.898   0.843  0.00  0.00     0.162 A 
ATOM      6  C5  UNL d   1       0.988  -3.487   1.818  0.00  0.00     0.062 A 
ATOM      7  F   UNL d   1       1.154  -4.781   2.126  0.00  0.00    -0.097 F 
ATOM      8  F1  UNL d   1       2.714  -3.645   0.226  0.00  0.00    -0.096 F 
ATOM      9  I   UNL d   1       2.814  -0.668  -0.943  0.00  0.00    -0.060 I 
ATOM     10  F2  UNL d   1       0.459   0.491   0.888  0.00  0.00    -0.096 F 
ATOM     11  F3  UNL d   1      -1.085  -0.673   2.784  0.00  0.00    -0.097 F 
ATOM     12  F4  UNL d   1      -0.748  -3.307   3.411  0.00  0.00    -0.092 F 
ENDROOT
TORSDOF 0
ENDMDL
