MODEL 1
REMARK minimizedAffinity 6.98910666
REMARK minimizedRMSD -1
REMARK  0 active torsions:
REMARK  status: ('A' for Active; 'I' for Inactive)
ROOT
ATOM      1  C   UNL d   1      -0.524  -2.365   2.094  0.00  0.00     0.124 A 
ATOM      2  C1  UNL d   1      -0.549  -3.731   2.340  0.00  0.00     0.062 A 
ATOM      3  C2  UNL d   1       0.551  -4.520   2.020  0.00  0.00     0.162 A 
ATOM      4  C3  UNL d   1       1.688  -3.946   1.451  0.00  0.00    -0.034 A 
ATOM      5  C4  UNL d   1       1.706  -2.571   1.206  0.00  0.00     0.162 A 
ATOM      6  C5  UNL d   1       0.603  -1.787   1.528  0.00  0.00     0.062 A 
ATOM      7  F   UNL d   1       0.630  -0.467   1.289  0.00  0.00    -0.097 F 
ATOM      8  F1  UNL d   1       2.783  -1.987   0.660  0.00  0.00    -0.096 F 
ATOM      9  I   UNL d   1       3.336  -5.123   0.971  0.00  0.00    -0.060 I 
ATOM     10  F2  UNL d   1       0.499  -5.837   2.268  0.00  0.00    -0.096 F 
ATOM     11  F3  UNL d   1      -1.637  -4.292   2.887  0.00  0.00    -0.097 F 
ATOM     12  F4  UNL d   1      -1.584  -1.608   2.402  0.00  0.00    -0.092 F 
ENDROOT
TORSDOF 0
ENDMDL
