MODEL 1
REMARK minimizedAffinity -0.220774561
REMARK minimizedRMSD -1
REMARK  0 active torsions:
REMARK  status: ('A' for Active; 'I' for Inactive)
ROOT
ATOM      1  C   UNL d   1       0.884  -1.825   0.946  0.00  0.00     0.124 A 
ATOM      2  C1  UNL d   1       0.143  -1.664  -0.217  0.00  0.00     0.062 A 
ATOM      3  C2  UNL d   1      -1.173  -1.215  -0.152  0.00  0.00     0.162 A 
ATOM      4  C3  UNL d   1      -1.757  -0.924   1.081  0.00  0.00    -0.034 A 
ATOM      5  C4  UNL d   1      -1.006  -1.089   2.246  0.00  0.00     0.162 A 
ATOM      6  C5  UNL d   1       0.309  -1.537   2.176  0.00  0.00     0.062 A 
ATOM      7  F   UNL d   1       1.024  -1.693   3.300  0.00  0.00    -0.097 F 
ATOM      8  F1  UNL d   1      -1.536  -0.818   3.448  0.00  0.00    -0.096 F 
ATOM      9  I   UNL d   1      -3.725  -0.253   1.183  0.00  0.00    -0.060 I 
ATOM     10  F2  UNL d   1      -1.866  -1.069  -1.291  0.00  0.00    -0.096 F 
ATOM     11  F3  UNL d   1       0.695  -1.941  -1.407  0.00  0.00    -0.097 F 
ATOM     12  F4  UNL d   1       2.150  -2.257   0.880  0.00  0.00    -0.092 F 
ENDROOT
TORSDOF 0
ENDMDL
