MODEL 1
REMARK minimizedAffinity 13.2707834
REMARK minimizedRMSD -1
REMARK  0 active torsions:
REMARK  status: ('A' for Active; 'I' for Inactive)
ROOT
ATOM      1  C   UNL d   1      -1.874  -0.094   1.241  0.00  0.00     0.124 A 
ATOM      2  C1  UNL d   1      -1.242  -0.540   2.393  0.00  0.00     0.062 A 
ATOM      3  C2  UNL d   1      -0.079  -1.299   2.304  0.00  0.00     0.162 A 
ATOM      4  C3  UNL d   1       0.460  -1.618   1.058  0.00  0.00    -0.034 A 
ATOM      5  C4  UNL d   1      -0.183  -1.167  -0.097  0.00  0.00     0.162 A 
ATOM      6  C5  UNL d   1      -1.345  -0.408  -0.003  0.00  0.00     0.062 A 
ATOM      7  F   UNL d   1      -1.954   0.021  -1.117  0.00  0.00    -0.097 F 
ATOM      8  F1  UNL d   1       0.308  -1.456  -1.311  0.00  0.00    -0.096 F 
ATOM      9  I   UNL d   1       2.198  -2.754   0.920  0.00  0.00    -0.060 I 
ATOM     10  F2  UNL d   1       0.511  -1.716   3.434  0.00  0.00    -0.096 F 
ATOM     11  F3  UNL d   1      -1.752  -0.238   3.596  0.00  0.00    -0.097 F 
ATOM     12  F4  UNL d   1      -2.994   0.636   1.329  0.00  0.00    -0.092 F 
ENDROOT
TORSDOF 0
ENDMDL
