MODEL 1
REMARK minimizedAffinity 3.87012291
REMARK minimizedRMSD -1
REMARK  0 active torsions:
REMARK  status: ('A' for Active; 'I' for Inactive)
ROOT
ATOM      1  C   UNL d   1      -0.154  -0.113   0.881  0.00  0.00     0.124 A 
ATOM      2  C1  UNL d   1       1.022  -0.364   0.188  0.00  0.00     0.062 A 
ATOM      3  C2  UNL d   1       1.774  -1.500   0.474  0.00  0.00     0.162 A 
ATOM      4  C3  UNL d   1       1.351  -2.395   1.458  0.00  0.00    -0.034 A 
ATOM      5  C4  UNL d   1       0.168  -2.135   2.151  0.00  0.00     0.162 A 
ATOM      6  C5  UNL d   1      -0.580  -0.998   1.862  0.00  0.00     0.062 A 
ATOM      7  F   UNL d   1      -1.716  -0.757   2.532  0.00  0.00    -0.097 F 
ATOM      8  F1  UNL d   1      -0.268  -2.974   3.103  0.00  0.00    -0.096 F 
ATOM      9  I   UNL d   1       2.472  -4.095   1.888  0.00  0.00    -0.060 I 
ATOM     10  F2  UNL d   1       2.906  -1.718  -0.211  0.00  0.00    -0.096 F 
ATOM     11  F3  UNL d   1       1.436   0.490  -0.759  0.00  0.00    -0.097 F 
ATOM     12  F4  UNL d   1      -0.875   0.981   0.605  0.00  0.00    -0.092 F 
ENDROOT
TORSDOF 0
ENDMDL
