MODEL 1
REMARK minimizedAffinity 0.829809904
REMARK minimizedRMSD -1
REMARK  3 active torsions:
REMARK  status: ('A' for Active; 'I' for Inactive)
REMARK    1  A    between atoms: C3'_2  and  C2'_3 
REMARK    2  A    between atoms: C2'_3  and  C1'_4 
REMARK    3  A    between atoms: C1'_4  and  C1_5 
ROOT
ATOM      1  C1  N4B d   1       3.280   0.734   4.864  0.00  0.00    -0.075 A 
ATOM      2  C2  N4B d   1       2.670   0.158   6.000  0.00  0.00     0.002 A 
ATOM      3  C3  N4B d   1       2.207  -1.134   5.949  0.00  0.00     0.002 A 
ATOM      4  C4  N4B d   1       2.325  -1.859   4.773  0.00  0.00    -0.004 A 
ATOM      5  C5  N4B d   1       2.938  -1.304   3.688  0.00  0.00     0.002 A 
ATOM      6  C6  N4B d   1       3.412  -0.008   3.726  0.00  0.00     0.002 A 
ENDROOT
BRANCH   1   7
ATOM      7  C1' N4B d   1       3.725   2.171   4.845  0.00  0.00     0.057 C 
BRANCH   7   8
ATOM      8  C2' N4B d   1       3.020   2.929   5.966  0.00  0.00     0.009 C 
BRANCH   8   9
ATOM      9  C3' N4B d   1       2.792   4.388   5.610  0.00  0.00     0.004 C 
ATOM     10  C4' N4B d   1       1.426   4.873   5.995  0.00  0.00     0.003 C 
ENDBRANCH   8   9
ENDBRANCH   7   8
ENDBRANCH   1   7
TORSDOF 3
ENDMDL
