MODEL 1
REMARK minimizedAffinity 0.66784668
REMARK minimizedRMSD -1
REMARK  3 active torsions:
REMARK  status: ('A' for Active; 'I' for Inactive)
REMARK    1  A    between atoms: C3'_2  and  C2'_3 
REMARK    2  A    between atoms: C2'_3  and  C1'_4 
REMARK    3  A    between atoms: C1'_4  and  C1_5 
ROOT
ATOM      1  C1  N4B d   1      -0.150  -3.850   4.839  0.00  0.00    -0.075 A 
ATOM      2  C2  N4B d   1      -0.895  -4.152   5.999  0.00  0.00     0.002 A 
ATOM      3  C3  N4B d   1      -1.764  -5.216   6.000  0.00  0.00     0.002 A 
ATOM      4  C4  N4B d   1      -1.918  -5.977   4.850  0.00  0.00    -0.004 A 
ATOM      5  C5  N4B d   1      -1.175  -5.693   3.741  0.00  0.00     0.002 A 
ATOM      6  C6  N4B d   1      -0.296  -4.630   3.728  0.00  0.00     0.002 A 
ENDROOT
BRANCH   1   7
ATOM      7  C1' N4B d   1       0.748  -2.645   4.763  0.00  0.00     0.057 C 
BRANCH   7   8
ATOM      8  C2' N4B d   1       1.921  -2.953   3.837  0.00  0.00     0.009 C 
BRANCH   8   9
ATOM      9  C3' N4B d   1       2.048  -1.929   2.722  0.00  0.00     0.004 C 
ATOM     10  C4' N4B d   1       2.673  -2.495   1.482  0.00  0.00     0.003 C 
ENDBRANCH   8   9
ENDBRANCH   7   8
ENDBRANCH   1   7
TORSDOF 3
ENDMDL
