MODEL 1
REMARK minimizedAffinity 0.135591045
REMARK minimizedRMSD -1
REMARK  3 active torsions:
REMARK  status: ('A' for Active; 'I' for Inactive)
REMARK    1  A    between atoms: C3'_2  and  C2'_3 
REMARK    2  A    between atoms: C2'_3  and  C1'_4 
REMARK    3  A    between atoms: C1'_4  and  C1_5 
ROOT
ATOM      1  C1  N4B d   1       3.816   2.071   5.935  0.00  0.00    -0.075 A 
ATOM      2  C2  N4B d   1       3.278   3.377   5.905  0.00  0.00     0.002 A 
ATOM      3  C3  N4B d   1       4.116   4.465   5.926  0.00  0.00     0.002 A 
ATOM      4  C4  N4B d   1       5.488   4.273   5.997  0.00  0.00    -0.004 A 
ATOM      5  C5  N4B d   1       6.000   3.009   6.000  0.00  0.00     0.002 A 
ATOM      6  C6  N4B d   1       5.170   1.906   5.975  0.00  0.00     0.002 A 
ENDROOT
BRANCH   1   7
ATOM      7  C1' N4B d   1       2.937   0.852   5.999  0.00  0.00     0.057 C 
BRANCH   7   8
ATOM      8  C2' N4B d   1       3.681  -0.334   5.392  0.00  0.00     0.009 C 
BRANCH   8   9
ATOM      9  C3' N4B d   1       2.741  -1.476   5.046  0.00  0.00     0.004 C 
ATOM     10  C4' N4B d   1       2.570  -1.660   3.568  0.00  0.00     0.003 C 
ENDBRANCH   8   9
ENDBRANCH   7   8
ENDBRANCH   1   7
TORSDOF 3
ENDMDL
