MODEL 1
REMARK minimizedAffinity -3.05448771
REMARK minimizedRMSD -1
REMARK  3 active torsions:
REMARK  status: ('A' for Active; 'I' for Inactive)
REMARK    1  A    between atoms: C3'_2  and  C2'_3 
REMARK    2  A    between atoms: C2'_3  and  C1'_4 
REMARK    3  A    between atoms: C1'_4  and  C1_5 
ROOT
ATOM      1  C1  N4B d   1       3.516   2.174   5.868  0.00  0.00    -0.075 A 
ATOM      2  C2  N4B d   1       2.602   3.242   6.000  0.00  0.00     0.002 A 
ATOM      3  C3  N4B d   1       3.052   4.539   5.970  0.00  0.00     0.002 A 
ATOM      4  C4  N4B d   1       4.408   4.792   5.829  0.00  0.00    -0.004 A 
ATOM      5  C5  N4B d   1       5.282   3.755   5.676  0.00  0.00     0.002 A 
ATOM      6  C6  N4B d   1       4.843   2.446   5.700  0.00  0.00     0.002 A 
ENDROOT
BRANCH   1   7
ATOM      7  C1' N4B d   1       3.082   0.738   5.980  0.00  0.00     0.057 C 
BRANCH   7   8
ATOM      8  C2' N4B d   1       3.536  -0.021   4.737  0.00  0.00     0.009 C 
BRANCH   8   9
ATOM      9  C3' N4B d   1       3.106  -1.478   4.773  0.00  0.00     0.004 C 
ATOM     10  C4' N4B d   1       2.394  -1.903   3.524  0.00  0.00     0.003 C 
ENDBRANCH   8   9
ENDBRANCH   7   8
ENDBRANCH   1   7
TORSDOF 3
ENDMDL
