MODEL 1
REMARK minimizedAffinity 12.0476046
REMARK minimizedRMSD -1
REMARK  1 active torsions:
REMARK  status: ('A' for Active; 'I' for Inactive)
REMARK    1  A    between atoms: C1_2  and  C2_3 
ROOT
ATOM      1  C2  UNL d   1       1.955  -0.350   1.062  0.00  0.00    -0.073 A 
ATOM      2  C3  UNL d   1       0.976  -0.363   2.061  0.00  0.00    -0.002 A 
ATOM      3  C4  UNL d   1       0.320  -1.550   2.391  0.00  0.00     0.004 A 
ATOM      4  C5  UNL d   1       0.641  -2.736   1.731  0.00  0.00    -0.004 A 
ATOM      5  C6  UNL d   1       1.625  -2.746   0.738  0.00  0.00    -0.075 A 
ATOM      6  C7  UNL d   1       1.981  -4.013   0.017  0.00  0.00     0.076 C 
ATOM      7  C8  UNL d   1       2.277  -1.549   0.410  0.00  0.00     0.001 A 
ENDROOT
BRANCH   1   8
ATOM      8  C1  UNL d   1       2.670   0.928   0.706  0.00  0.00     0.053 C 
ATOM      9  C   UNL d   1       1.769   1.896  -0.044  0.00  0.00     0.018 C 
ENDBRANCH   1   8
TORSDOF 1
ENDMDL
