MODEL 1
REMARK minimizedAffinity 16.9555836
REMARK minimizedRMSD -1
REMARK  1 active torsions:
REMARK  status: ('A' for Active; 'I' for Inactive)
REMARK    1  A    between atoms: C1_2  and  C2_3 
ROOT
ATOM      1  C2  UNL d   1      -3.697   4.347  -1.571  0.00  0.00    -0.073 A 
ATOM      2  C3  UNL d   1      -3.416   2.997  -1.809  0.00  0.00    -0.002 A 
ATOM      3  C4  UNL d   1      -2.642   2.622  -2.908  0.00  0.00     0.004 A 
ATOM      4  C5  UNL d   1      -2.136   3.590  -3.775  0.00  0.00    -0.004 A 
ATOM      5  C6  UNL d   1      -2.396   4.946  -3.547  0.00  0.00    -0.075 A 
ATOM      6  C7  UNL d   1      -1.862   6.000  -4.471  0.00  0.00     0.076 C 
ATOM      7  C8  UNL d   1      -3.176   5.315  -2.443  0.00  0.00     0.001 A 
ENDROOT
BRANCH   1   8
ATOM      8  C1  UNL d   1      -4.526   4.758  -0.382  0.00  0.00     0.053 C 
ATOM      9  C   UNL d   1      -6.000   4.889  -0.733  0.00  0.00     0.018 C 
ENDBRANCH   1   8
TORSDOF 1
ENDMDL
