MODEL 1
REMARK minimizedAffinity 9.28154373
REMARK minimizedRMSD -1
REMARK  1 active torsions:
REMARK  status: ('A' for Active; 'I' for Inactive)
REMARK    1  A    between atoms: C1_2  and  C2_3 
ROOT
ATOM      1  C2  UNL d   1      -0.190  -1.645   2.318  0.00  0.00    -0.073 A 
ATOM      2  C3  UNL d   1       0.630  -2.777   2.256  0.00  0.00    -0.002 A 
ATOM      3  C4  UNL d   1       1.882  -2.708   1.642  0.00  0.00     0.004 A 
ATOM      4  C5  UNL d   1       2.328  -1.507   1.091  0.00  0.00    -0.004 A 
ATOM      5  C6  UNL d   1       1.528  -0.362   1.153  0.00  0.00    -0.075 A 
ATOM      6  C7  UNL d   1       1.992   0.937   0.563  0.00  0.00     0.076 C 
ATOM      7  C8  UNL d   1       0.271  -0.440   1.769  0.00  0.00     0.001 A 
ENDROOT
BRANCH   1   8
ATOM      8  C1  UNL d   1      -1.539  -1.713   2.985  0.00  0.00     0.053 C 
ATOM      9  C   UNL d   1      -2.516  -2.582   2.209  0.00  0.00     0.018 C 
ENDBRANCH   1   8
TORSDOF 1
ENDMDL
