MODEL 1
REMARK minimizedAffinity 0.944926202
REMARK minimizedRMSD -1
REMARK  1 active torsions:
REMARK  status: ('A' for Active; 'I' for Inactive)
REMARK    1  A    between atoms: C1_2  and  C2_3 
ROOT
ATOM      1  C2  UNL d   1      -4.898  -4.960   0.192  0.00  0.00    -0.073 A 
ATOM      2  C3  UNL d   1      -5.708  -5.946   0.765  0.00  0.00    -0.002 A 
ATOM      3  C4  UNL d   1      -5.883  -6.000   2.149  0.00  0.00     0.004 A 
ATOM      4  C5  UNL d   1      -5.255  -5.065   2.972  0.00  0.00    -0.004 A 
ATOM      5  C6  UNL d   1      -4.451  -4.064   2.417  0.00  0.00    -0.075 A 
ATOM      6  C7  UNL d   1      -3.767  -3.052   3.289  0.00  0.00     0.076 C 
ATOM      7  C8  UNL d   1      -4.279  -4.019   1.027  0.00  0.00     0.001 A 
ENDROOT
BRANCH   1   8
ATOM      8  C1  UNL d   1      -4.712  -4.894  -1.302  0.00  0.00     0.053 C 
ATOM      9  C   UNL d   1      -5.489  -5.985  -2.021  0.00  0.00     0.018 C 
ENDBRANCH   1   8
TORSDOF 1
ENDMDL
