MODEL 1
REMARK minimizedAffinity 13.3866968
REMARK minimizedRMSD -1
REMARK  1 active torsions:
REMARK  status: ('A' for Active; 'I' for Inactive)
REMARK    1  A    between atoms: C1_2  and  C2_3 
ROOT
ATOM      1  C2  UNL d   1      -2.692   5.231  -2.896  0.00  0.00    -0.073 A 
ATOM      2  C3  UNL d   1      -2.467   5.895  -4.107  0.00  0.00    -0.002 A 
ATOM      3  C4  UNL d   1      -2.011   5.191  -5.223  0.00  0.00     0.004 A 
ATOM      4  C5  UNL d   1      -1.782   3.817  -5.140  0.00  0.00    -0.004 A 
ATOM      5  C6  UNL d   1      -2.012   3.134  -3.942  0.00  0.00    -0.075 A 
ATOM      6  C7  UNL d   1      -1.769   1.658  -3.836  0.00  0.00     0.076 C 
ATOM      7  C8  UNL d   1      -2.468   3.849  -2.825  0.00  0.00     0.001 A 
ENDROOT
BRANCH   1   8
ATOM      8  C1  UNL d   1      -3.190   5.987  -1.691  0.00  0.00     0.053 C 
ATOM      9  C   UNL d   1      -4.143   5.152  -0.849  0.00  0.00     0.018 C 
ENDBRANCH   1   8
TORSDOF 1
ENDMDL
