MODEL 1
REMARK minimizedAffinity 7.80913973
REMARK minimizedRMSD -1
REMARK  1 active torsions:
REMARK  status: ('A' for Active; 'I' for Inactive)
REMARK    1  A    between atoms: C1_2  and  C2_3 
ROOT
ATOM      1  C2  UNL d   1      -1.238  -2.379   2.333  0.00  0.00    -0.073 A 
ATOM      2  C3  UNL d   1      -1.359  -1.536   3.445  0.00  0.00    -0.002 A 
ATOM      3  C4  UNL d   1      -0.315  -0.681   3.798  0.00  0.00     0.004 A 
ATOM      4  C5  UNL d   1       0.857  -0.654   3.041  0.00  0.00    -0.004 A 
ATOM      5  C6  UNL d   1       0.992  -1.479   1.920  0.00  0.00    -0.075 A 
ATOM      6  C7  UNL d   1       2.246  -1.463   1.097  0.00  0.00     0.076 C 
ATOM      7  C8  UNL d   1      -0.060  -2.337   1.574  0.00  0.00     0.001 A 
ENDROOT
BRANCH   1   8
ATOM      8  C1  UNL d   1      -2.366  -3.300   1.944  0.00  0.00     0.053 C 
ATOM      9  C   UNL d   1      -3.643  -2.991   2.709  0.00  0.00     0.018 C 
ENDBRANCH   1   8
TORSDOF 1
ENDMDL
