MODEL 1
REMARK minimizedAffinity 2.66146493
REMARK minimizedRMSD -1
REMARK  1 active torsions:
REMARK  status: ('A' for Active; 'I' for Inactive)
REMARK    1  A    between atoms: C1_2  and  C2_3 
ROOT
ATOM      1  C2  UNL d   1      -5.360  -5.480   1.314  0.00  0.00    -0.073 A 
ATOM      2  C3  UNL d   1      -5.967  -5.997   2.465  0.00  0.00    -0.002 A 
ATOM      3  C4  UNL d   1      -5.619  -5.509   3.725  0.00  0.00     0.004 A 
ATOM      4  C5  UNL d   1      -4.668  -4.497   3.848  0.00  0.00    -0.004 A 
ATOM      5  C6  UNL d   1      -4.059  -3.959   2.709  0.00  0.00    -0.075 A 
ATOM      6  C7  UNL d   1      -3.032  -2.871   2.824  0.00  0.00     0.076 C 
ATOM      7  C8  UNL d   1      -4.412  -4.456   1.447  0.00  0.00     0.001 A 
ENDROOT
BRANCH   1   8
ATOM      8  C1  UNL d   1      -5.737  -6.000  -0.049  0.00  0.00     0.053 C 
ATOM      9  C   UNL d   1      -4.562  -5.974  -1.014  0.00  0.00     0.018 C 
ENDBRANCH   1   8
TORSDOF 1
ENDMDL
