MODEL 1
REMARK minimizedAffinity 13.2524605
REMARK minimizedRMSD -1
REMARK  1 active torsions:
REMARK  status: ('A' for Active; 'I' for Inactive)
REMARK    1  A    between atoms: C1_2  and  C2_3 
ROOT
ATOM      1  C2  UNL d   1      -2.928  -4.035   0.469  0.00  0.00    -0.073 A 
ATOM      2  C3  UNL d   1      -3.498  -3.152   1.393  0.00  0.00    -0.002 A 
ATOM      3  C4  UNL d   1      -4.871  -3.183   1.642  0.00  0.00     0.004 A 
ATOM      4  C5  UNL d   1      -5.685  -4.098   0.975  0.00  0.00    -0.004 A 
ATOM      5  C6  UNL d   1      -5.132  -4.996   0.057  0.00  0.00    -0.075 A 
ATOM      6  C7  UNL d   1      -5.994  -5.986  -0.670  0.00  0.00     0.076 C 
ATOM      7  C8  UNL d   1      -3.753  -4.958  -0.189  0.00  0.00     0.001 A 
ENDROOT
BRANCH   1   8
ATOM      8  C1  UNL d   1      -1.445  -4.010   0.203  0.00  0.00     0.053 C 
ATOM      9  C   UNL d   1      -1.115  -3.343  -1.123  0.00  0.00     0.018 C 
ENDBRANCH   1   8
TORSDOF 1
ENDMDL
