MODEL 1
REMARK minimizedAffinity 12.7100124
REMARK minimizedRMSD -1
REMARK  1 active torsions:
REMARK  status: ('A' for Active; 'I' for Inactive)
REMARK    1  A    between atoms: C1_2  and  C2_3 
ROOT
ATOM      1  C2  UNL d   1      -2.513   3.986  -3.504  0.00  0.00    -0.073 A 
ATOM      2  C3  UNL d   1      -2.144   5.311  -3.242  0.00  0.00    -0.002 A 
ATOM      3  C4  UNL d   1      -2.703   5.998  -2.164  0.00  0.00     0.004 A 
ATOM      4  C5  UNL d   1      -3.629   5.368  -1.333  0.00  0.00    -0.004 A 
ATOM      5  C6  UNL d   1      -4.001   4.040  -1.571  0.00  0.00    -0.075 A 
ATOM      6  C7  UNL d   1      -4.997   3.349  -0.688  0.00  0.00     0.076 C 
ATOM      7  C8  UNL d   1      -3.437   3.358  -2.657  0.00  0.00     0.001 A 
ENDROOT
BRANCH   1   8
ATOM      8  C1  UNL d   1      -1.907   3.237  -4.663  0.00  0.00     0.053 C 
ATOM      9  C   UNL d   1      -2.285   3.855  -6.000  0.00  0.00     0.018 C 
ENDBRANCH   1   8
TORSDOF 1
ENDMDL
