MODEL 1
REMARK minimizedAffinity 15.4622078
REMARK minimizedRMSD -1
REMARK  1 active torsions:
REMARK  status: ('A' for Active; 'I' for Inactive)
REMARK    1  A    between atoms: C1_2  and  C2_3 
ROOT
ATOM      1  C2  UNL d   1      -2.015  -2.457   3.352  0.00  0.00    -0.073 A 
ATOM      2  C3  UNL d   1      -1.761  -1.387   4.218  0.00  0.00    -0.002 A 
ATOM      3  C4  UNL d   1      -0.600  -0.626   4.077  0.00  0.00     0.004 A 
ATOM      4  C5  UNL d   1       0.314  -0.921   3.065  0.00  0.00    -0.004 A 
ATOM      5  C6  UNL d   1       0.072  -1.978   2.182  0.00  0.00    -0.075 A 
ATOM      6  C7  UNL d   1       1.046  -2.310   1.090  0.00  0.00     0.076 C 
ATOM      7  C8  UNL d   1      -1.095  -2.740   2.332  0.00  0.00     0.001 A 
ENDROOT
BRANCH   1   8
ATOM      8  C1  UNL d   1      -3.271  -3.277   3.497  0.00  0.00     0.053 C 
ATOM      9  C   UNL d   1      -3.867  -3.650   2.149  0.00  0.00     0.018 C 
ENDBRANCH   1   8
TORSDOF 1
ENDMDL
