MODEL 1
REMARK minimizedAffinity 13.2100029
REMARK minimizedRMSD -1
REMARK  1 active torsions:
REMARK  status: ('A' for Active; 'I' for Inactive)
REMARK    1  A    between atoms: C1_2  and  C2_3 
ROOT
ATOM      1  C2  UNL d   1      -5.283  -4.579   3.566  0.00  0.00    -0.073 A 
ATOM      2  C3  UNL d   1      -5.895  -4.913   2.352  0.00  0.00    -0.002 A 
ATOM      3  C4  UNL d   1      -5.285  -4.586   1.141  0.00  0.00     0.004 A 
ATOM      4  C5  UNL d   1      -4.054  -3.929   1.130  0.00  0.00    -0.004 A 
ATOM      5  C6  UNL d   1      -3.420  -3.598   2.332  0.00  0.00    -0.075 A 
ATOM      6  C7  UNL d   1      -2.097  -2.890   2.337  0.00  0.00     0.076 C 
ATOM      7  C8  UNL d   1      -4.041  -3.927   3.544  0.00  0.00     0.001 A 
ENDROOT
BRANCH   1   8
ATOM      8  C1  UNL d   1      -5.935  -4.935   4.876  0.00  0.00     0.053 C 
ATOM      9  C   UNL d   1      -5.970  -3.756   5.835  0.00  0.00     0.018 C 
ENDBRANCH   1   8
TORSDOF 1
ENDMDL
