MODEL 1
REMARK minimizedAffinity 4.35840464
REMARK minimizedRMSD -1
REMARK  1 active torsions:
REMARK  status: ('A' for Active; 'I' for Inactive)
REMARK    1  A    between atoms: C1_2  and  C2_3 
ROOT
ATOM      1  C2  UNL d   1      -4.469  -5.400   0.707  0.00  0.00    -0.073 A 
ATOM      2  C3  UNL d   1      -5.140  -5.993   1.782  0.00  0.00    -0.002 A 
ATOM      3  C4  UNL d   1      -5.060  -5.434   3.058  0.00  0.00     0.004 A 
ATOM      4  C5  UNL d   1      -4.315  -4.274   3.270  0.00  0.00    -0.004 A 
ATOM      5  C6  UNL d   1      -3.648  -3.659   2.206  0.00  0.00    -0.075 A 
ATOM      6  C7  UNL d   1      -2.841  -2.412   2.418  0.00  0.00     0.076 C 
ATOM      7  C8  UNL d   1      -3.731  -4.228   0.928  0.00  0.00     0.001 A 
ENDROOT
BRANCH   1   8
ATOM      8  C1  UNL d   1      -4.558  -5.996  -0.674  0.00  0.00     0.053 C 
ATOM      9  C   UNL d   1      -3.413  -5.543  -1.566  0.00  0.00     0.018 C 
ENDBRANCH   1   8
TORSDOF 1
ENDMDL
