MODEL 1
REMARK minimizedAffinity 4.80300951
REMARK minimizedRMSD -1
REMARK  1 active torsions:
REMARK  status: ('A' for Active; 'I' for Inactive)
REMARK    1  A    between atoms: C1_2  and  C2_3 
ROOT
ATOM      1  C2  UNL d   1       1.223  -4.031  -4.338  0.00  0.00    -0.073 A 
ATOM      2  C3  UNL d   1       0.945  -5.330  -4.780  0.00  0.00    -0.002 A 
ATOM      3  C4  UNL d   1       1.844  -6.000  -5.610  0.00  0.00     0.004 A 
ATOM      4  C5  UNL d   1       3.033  -5.383  -6.000  0.00  0.00    -0.004 A 
ATOM      5  C6  UNL d   1       3.335  -4.091  -5.559  0.00  0.00    -0.075 A 
ATOM      6  C7  UNL d   1       4.608  -3.412  -5.972  0.00  0.00     0.076 C 
ATOM      7  C8  UNL d   1       2.425  -3.423  -4.728  0.00  0.00     0.001 A 
ENDROOT
BRANCH   1   8
ATOM      8  C1  UNL d   1       0.258  -3.306  -3.436  0.00  0.00     0.053 C 
ATOM      9  C   UNL d   1       0.826  -3.100  -2.041  0.00  0.00     0.018 C 
ENDBRANCH   1   8
TORSDOF 1
ENDMDL
