MODEL 1
REMARK minimizedAffinity -4.00789356
REMARK minimizedRMSD -1
REMARK  0 active torsions:
REMARK  status: ('A' for Active; 'I' for Inactive)
ROOT
ATOM      1  C   UNL d   1      -2.767  -0.106  -3.366  0.00  0.00     0.023 A 
ATOM      2  C1  UNL d   1      -1.425  -0.003  -3.732  0.00  0.00     0.003 A 
ATOM      3  C2  UNL d   1      -0.450   0.226  -2.759  0.00  0.00     0.048 A 
ATOM      4  C3  UNL d   1      -0.824   0.349  -1.421  0.00  0.00     0.023 A 
ATOM      5  C4  UNL d   1      -2.166   0.246  -1.050  0.00  0.00     0.048 A 
ATOM      6  C5  UNL d   1      -3.137   0.018  -2.026  0.00  0.00     0.003 A 
ATOM      7  I   UNL d   1       0.625   0.689   0.030  0.00  0.00    -0.146 I 
ENDROOT
TORSDOF 0
ENDMDL
