MODEL 1
REMARK minimizedAffinity 0.816336989
REMARK minimizedRMSD -1
REMARK  0 active torsions:
REMARK  status: ('A' for Active; 'I' for Inactive)
ROOT
ATOM      1  C   UNL d   1       1.203   0.730   0.779  0.00  0.00     0.023 A 
ATOM      2  C1  UNL d   1       0.548  -0.500   0.830  0.00  0.00     0.003 A 
ATOM      3  C2  UNL d   1      -0.509  -0.767  -0.042  0.00  0.00     0.048 A 
ATOM      4  C3  UNL d   1      -0.905   0.201  -0.965  0.00  0.00     0.023 A 
ATOM      5  C4  UNL d   1      -0.253   1.433  -1.020  0.00  0.00     0.048 A 
ATOM      6  C5  UNL d   1       0.803   1.696  -0.145  0.00  0.00     0.003 A 
ATOM      7  I   UNL d   1      -2.478  -0.194  -2.265  0.00  0.00    -0.146 I 
ENDROOT
TORSDOF 0
ENDMDL
