MODEL 1
REMARK minimizedAffinity -2.90666676
REMARK minimizedRMSD -1
REMARK  0 active torsions:
REMARK  status: ('A' for Active; 'I' for Inactive)
ROOT
ATOM      1  C   UNL d   1       2.128  -0.386   1.781  0.00  0.00     0.023 A 
ATOM      2  C1  UNL d   1       2.022   0.794   1.045  0.00  0.00     0.003 A 
ATOM      3  C2  UNL d   1       0.832   1.102   0.384  0.00  0.00     0.048 A 
ATOM      4  C3  UNL d   1      -0.250   0.225   0.463  0.00  0.00     0.023 A 
ATOM      5  C4  UNL d   1      -0.149  -0.957   1.198  0.00  0.00     0.048 A 
ATOM      6  C5  UNL d   1       1.044  -1.261   1.857  0.00  0.00     0.003 A 
ATOM      7  I   UNL d   1      -2.023   0.681  -0.521  0.00  0.00    -0.146 I 
ENDROOT
TORSDOF 0
ENDMDL
