MODEL 1
REMARK minimizedAffinity -0.572463453
REMARK minimizedRMSD -1
REMARK  0 active torsions:
REMARK  status: ('A' for Active; 'I' for Inactive)
ROOT
ATOM      1  C   UNL d   1      -3.677   0.075  -3.349  0.00  0.00     0.023 A 
ATOM      2  C1  UNL d   1      -3.415   1.341  -2.823  0.00  0.00     0.003 A 
ATOM      3  C2  UNL d   1      -2.557   1.480  -1.731  0.00  0.00     0.048 A 
ATOM      4  C3  UNL d   1      -1.963   0.351  -1.169  0.00  0.00     0.023 A 
ATOM      5  C4  UNL d   1      -2.221  -0.917  -1.692  0.00  0.00     0.048 A 
ATOM      6  C5  UNL d   1      -3.080  -1.052  -2.784  0.00  0.00     0.003 A 
ATOM      7  I   UNL d   1      -0.684   0.556   0.457  0.00  0.00    -0.146 I 
ENDROOT
TORSDOF 0
ENDMDL
