MODEL 1
REMARK minimizedAffinity -2.25150466
REMARK minimizedRMSD -1
REMARK  0 active torsions:
REMARK  status: ('A' for Active; 'I' for Inactive)
ROOT
ATOM      1  C   UNL d   1       2.368   0.346   1.382  0.00  0.00     0.023 A 
ATOM      2  C1  UNL d   1       1.457  -0.677   1.649  0.00  0.00     0.003 A 
ATOM      3  C2  UNL d   1       0.228  -0.708   0.988  0.00  0.00     0.048 A 
ATOM      4  C3  UNL d   1      -0.085   0.285   0.061  0.00  0.00     0.023 A 
ATOM      5  C4  UNL d   1       0.823   1.310  -0.210  0.00  0.00     0.048 A 
ATOM      6  C5  UNL d   1       2.051   1.338   0.454  0.00  0.00     0.003 A 
ATOM      7  I   UNL d   1      -1.915   0.240  -0.923  0.00  0.00    -0.146 I 
ENDROOT
TORSDOF 0
ENDMDL
