MODEL 1
REMARK minimizedAffinity -1.63789487
REMARK minimizedRMSD -1
REMARK  0 active torsions:
REMARK  status: ('A' for Active; 'I' for Inactive)
ROOT
ATOM      1  C   UNL d   1      -3.254   0.249  -3.358  0.00  0.00     0.023 A 
ATOM      2  C1  UNL d   1      -2.328  -0.792  -3.282  0.00  0.00     0.003 A 
ATOM      3  C2  UNL d   1      -1.473  -0.889  -2.182  0.00  0.00     0.048 A 
ATOM      4  C3  UNL d   1      -1.551   0.057  -1.160  0.00  0.00     0.023 A 
ATOM      5  C4  UNL d   1      -2.477   1.099  -1.231  0.00  0.00     0.048 A 
ATOM      6  C5  UNL d   1      -3.328   1.193  -2.334  0.00  0.00     0.003 A 
ATOM      7  I   UNL d   1      -0.281  -0.086   0.479  0.00  0.00    -0.146 I 
ENDROOT
TORSDOF 0
ENDMDL
