MODEL 1
REMARK minimizedAffinity 10.6252337
REMARK minimizedRMSD -1
REMARK  1 active torsions:
REMARK  status: ('A' for Active; 'I' for Inactive)
REMARK    1  A    between atoms: C1_2  and  C2_3 
ROOT
ATOM      1  C2  UNL d   1       1.170  -0.558   2.105  0.00  0.00    -0.076 A 
ATOM      2  C3  UNL d   1       0.191   0.411   2.385  0.00  0.00     0.004 A 
ATOM      3  C4  UNL d   1      -0.500   1.051   1.358  0.00  0.00    -0.003 A 
ATOM      4  C5  UNL d   1      -0.225   0.731   0.033  0.00  0.00     0.000 A 
ATOM      5  C6  UNL d   1       0.730  -0.241  -0.263  0.00  0.00     0.000 A 
ATOM      6  C7  UNL d   1       1.425  -0.907   0.761  0.00  0.00    -0.073 A 
ATOM      7  C8  UNL d   1       2.448  -1.943   0.384  0.00  0.00     0.078 C 
ENDROOT
BRANCH   1   8
ATOM      8  C1  UNL d   1       1.907  -1.199   3.259  0.00  0.00     0.053 C 
ATOM      9  C   UNL d   1       3.412  -1.232   3.044  0.00  0.00     0.018 C 
ENDBRANCH   1   8
TORSDOF 1
ENDMDL
