MODEL 1
REMARK minimizedAffinity 4.58795929
REMARK minimizedRMSD -1
REMARK  1 active torsions:
REMARK  status: ('A' for Active; 'I' for Inactive)
REMARK    1  A    between atoms: C1_2  and  C2_3 
ROOT
ATOM      1  C2  UNL d   1       0.461   0.393  -0.117  0.00  0.00    -0.076 A 
ATOM      2  C3  UNL d   1      -0.206   1.065   0.922  0.00  0.00     0.004 A 
ATOM      3  C4  UNL d   1       0.068   0.774   2.257  0.00  0.00    -0.003 A 
ATOM      4  C5  UNL d   1       1.014  -0.194   2.575  0.00  0.00     0.000 A 
ATOM      5  C6  UNL d   1       1.698  -0.858   1.557  0.00  0.00     0.000 A 
ATOM      6  C7  UNL d   1       1.446  -0.565   0.206  0.00  0.00    -0.073 A 
ATOM      7  C8  UNL d   1       2.208  -1.316  -0.851  0.00  0.00     0.078 C 
ENDROOT
BRANCH   1   8
ATOM      8  C1  UNL d   1       0.103   0.732  -1.546  0.00  0.00     0.053 C 
ATOM      9  C   UNL d   1      -1.207   0.096  -1.985  0.00  0.00     0.018 C 
ENDBRANCH   1   8
TORSDOF 1
ENDMDL
