MODEL 1
REMARK minimizedAffinity 6.40915203
REMARK minimizedRMSD -1
REMARK  1 active torsions:
REMARK  status: ('A' for Active; 'I' for Inactive)
REMARK    1  A    between atoms: C1_2  and  C2_3 
ROOT
ATOM      1  C2  UNL d   1      -3.793   1.834  -4.206  0.00  0.00    -0.076 A 
ATOM      2  C3  UNL d   1      -3.171   2.021  -2.959  0.00  0.00     0.004 A 
ATOM      3  C4  UNL d   1      -2.804   0.932  -2.170  0.00  0.00    -0.003 A 
ATOM      4  C5  UNL d   1      -3.054  -0.362  -2.615  0.00  0.00     0.000 A 
ATOM      5  C6  UNL d   1      -3.654  -0.566  -3.857  0.00  0.00     0.000 A 
ATOM      6  C7  UNL d   1      -4.015   0.521  -4.672  0.00  0.00    -0.073 A 
ATOM      7  C8  UNL d   1      -4.665   0.243  -6.000  0.00  0.00     0.078 C 
ENDROOT
BRANCH   1   8
ATOM      8  C1  UNL d   1      -4.192   3.054  -5.005  0.00  0.00     0.053 C 
ATOM      9  C   UNL d   1      -5.431   3.737  -4.447  0.00  0.00     0.018 C 
ENDBRANCH   1   8
TORSDOF 1
ENDMDL
