MODEL 1
REMARK minimizedAffinity 10.7594156
REMARK minimizedRMSD -1
REMARK  1 active torsions:
REMARK  status: ('A' for Active; 'I' for Inactive)
REMARK    1  A    between atoms: C1_2  and  C2_3 
ROOT
ATOM      1  C2  UNL d   1       2.518  -4.328  -1.883  0.00  0.00    -0.076 A 
ATOM      2  C3  UNL d   1       3.698  -4.869  -1.343  0.00  0.00     0.004 A 
ATOM      3  C4  UNL d   1       3.661  -5.698  -0.223  0.00  0.00    -0.003 A 
ATOM      4  C5  UNL d   1       2.443  -6.000   0.375  0.00  0.00     0.000 A 
ATOM      5  C6  UNL d   1       1.261  -5.486  -0.157  0.00  0.00     0.000 A 
ATOM      6  C7  UNL d   1       1.279  -4.662  -1.295  0.00  0.00    -0.073 A 
ATOM      7  C8  UNL d   1      -0.026  -4.131  -1.823  0.00  0.00     0.078 C 
ENDROOT
BRANCH   1   8
ATOM      8  C1  UNL d   1       2.623  -3.414  -3.082  0.00  0.00     0.053 C 
ATOM      9  C   UNL d   1       4.013  -3.419  -3.699  0.00  0.00     0.018 C 
ENDBRANCH   1   8
TORSDOF 1
ENDMDL
