MODEL 1
REMARK minimizedAffinity 14.1121416
REMARK minimizedRMSD -1
REMARK  1 active torsions:
REMARK  status: ('A' for Active; 'I' for Inactive)
REMARK    1  A    between atoms: C1_2  and  C2_3 
ROOT
ATOM      1  C2  UNL d   1       1.262   0.896   2.658  0.00  0.00    -0.076 A 
ATOM      2  C3  UNL d   1       0.278   1.494   1.851  0.00  0.00     0.004 A 
ATOM      3  C4  UNL d   1      -0.271   0.814   0.766  0.00  0.00    -0.003 A 
ATOM      4  C5  UNL d   1       0.154  -0.476   0.470  0.00  0.00     0.000 A 
ATOM      5  C6  UNL d   1       1.116  -1.092   1.269  0.00  0.00     0.000 A 
ATOM      6  C7  UNL d   1       1.668  -0.426   2.377  0.00  0.00    -0.073 A 
ATOM      7  C8  UNL d   1       2.707  -1.136   3.202  0.00  0.00     0.078 C 
ENDROOT
BRANCH   1   8
ATOM      8  C1  UNL d   1       1.841   1.692   3.805  0.00  0.00     0.053 C 
ATOM      9  C   UNL d   1       2.709   2.849   3.333  0.00  0.00     0.018 C 
ENDBRANCH   1   8
TORSDOF 1
ENDMDL
