MODEL 1
REMARK minimizedAffinity 11.4418726
REMARK minimizedRMSD -1
REMARK  1 active torsions:
REMARK  status: ('A' for Active; 'I' for Inactive)
REMARK    1  A    between atoms: C1_2  and  C2_3 
ROOT
ATOM      1  C2  UNL d   1      -5.911  -0.452   3.398  0.00  0.00    -0.076 A 
ATOM      2  C3  UNL d   1      -5.894   0.484   2.349  0.00  0.00     0.004 A 
ATOM      3  C4  UNL d   1      -5.898   0.070   1.018  0.00  0.00    -0.003 A 
ATOM      4  C5  UNL d   1      -5.920  -1.287   0.715  0.00  0.00     0.000 A 
ATOM      5  C6  UNL d   1      -5.955  -2.229   1.743  0.00  0.00     0.000 A 
ATOM      6  C7  UNL d   1      -5.968  -1.828   3.090  0.00  0.00    -0.073 A 
ATOM      7  C8  UNL d   1      -6.000  -2.886   4.158  0.00  0.00     0.078 C 
ENDROOT
BRANCH   1   8
ATOM      8  C1  UNL d   1      -5.878   0.056   4.822  0.00  0.00     0.053 C 
ATOM      9  C   UNL d   1      -5.501   1.527   4.907  0.00  0.00     0.018 C 
ENDBRANCH   1   8
TORSDOF 1
ENDMDL
