MODEL 1
REMARK minimizedAffinity 7.40667534
REMARK minimizedRMSD -1
REMARK  1 active torsions:
REMARK  status: ('A' for Active; 'I' for Inactive)
REMARK    1  A    between atoms: C1_2  and  C2_3 
ROOT
ATOM      1  C2  UNL d   1      -1.185  -0.560  -0.502  0.00  0.00    -0.076 A 
ATOM      2  C3  UNL d   1      -0.775   0.621   0.141  0.00  0.00     0.004 A 
ATOM      3  C4  UNL d   1       0.299   0.619   1.029  0.00  0.00    -0.003 A 
ATOM      4  C5  UNL d   1       0.982  -0.565   1.288  0.00  0.00     0.000 A 
ATOM      5  C6  UNL d   1       0.600  -1.742   0.646  0.00  0.00     0.000 A 
ATOM      6  C7  UNL d   1      -0.470  -1.754  -0.265  0.00  0.00    -0.073 A 
ATOM      7  C8  UNL d   1      -0.843  -3.053  -0.924  0.00  0.00     0.078 C 
ENDROOT
BRANCH   1   8
ATOM      8  C1  UNL d   1      -2.374  -0.502  -1.434  0.00  0.00     0.053 C 
ATOM      9  C   UNL d   1      -2.313   0.684  -2.384  0.00  0.00     0.018 C 
ENDBRANCH   1   8
TORSDOF 1
ENDMDL
