MODEL 1
REMARK minimizedAffinity 5.42234945
REMARK minimizedRMSD -1
REMARK  1 active torsions:
REMARK  status: ('A' for Active; 'I' for Inactive)
REMARK    1  A    between atoms: C1_2  and  C2_3 
ROOT
ATOM      1  C2  UNL d   1       0.408   0.337   0.460  0.00  0.00    -0.076 A 
ATOM      2  C3  UNL d   1       1.501  -0.505   0.191  0.00  0.00     0.004 A 
ATOM      3  C4  UNL d   1       2.299  -0.995   1.224  0.00  0.00    -0.003 A 
ATOM      4  C5  UNL d   1       2.017  -0.651   2.541  0.00  0.00     0.000 A 
ATOM      5  C6  UNL d   1       0.926   0.170   2.827  0.00  0.00     0.000 A 
ATOM      6  C7  UNL d   1       0.101   0.659   1.799  0.00  0.00    -0.073 A 
ATOM      7  C8  UNL d   1      -1.058   1.545   2.164  0.00  0.00     0.078 C 
ENDROOT
BRANCH   1   8
ATOM      8  C1  UNL d   1      -0.406   0.860  -0.703  0.00  0.00     0.053 C 
ATOM      9  C   UNL d   1      -0.039   2.288  -1.076  0.00  0.00     0.018 C 
ENDBRANCH   1   8
TORSDOF 1
ENDMDL
