MODEL 1
REMARK minimizedAffinity 8.58301258
REMARK minimizedRMSD -1
REMARK  1 active torsions:
REMARK  status: ('A' for Active; 'I' for Inactive)
REMARK    1  A    between atoms: C1_2  and  C2_3 
ROOT
ATOM      1  C2  UNL d   1       0.511   1.077   1.388  0.00  0.00    -0.076 A 
ATOM      2  C3  UNL d   1      -0.420   2.105   1.155  0.00  0.00     0.004 A 
ATOM      3  C4  UNL d   1      -0.957   2.313  -0.114  0.00  0.00    -0.003 A 
ATOM      4  C5  UNL d   1      -0.573   1.496  -1.172  0.00  0.00     0.000 A 
ATOM      5  C6  UNL d   1       0.336   0.461  -0.956  0.00  0.00     0.000 A 
ATOM      6  C7  UNL d   1       0.875   0.228   0.321  0.00  0.00    -0.073 A 
ATOM      7  C8  UNL d   1       1.856  -0.899   0.496  0.00  0.00     0.078 C 
ENDROOT
BRANCH   1   8
ATOM      8  C1  UNL d   1       1.079   0.917   2.779  0.00  0.00     0.053 C 
ATOM      9  C   UNL d   1       1.852   2.143   3.238  0.00  0.00     0.018 C 
ENDBRANCH   1   8
TORSDOF 1
ENDMDL
