MODEL 1
REMARK minimizedAffinity 11.76196
REMARK minimizedRMSD -1
REMARK  0 active torsions:
REMARK  status: ('A' for Active; 'I' for Inactive)
ROOT
ATOM      1  C1  DEN d   1      -4.454  -1.525   1.264  0.00  0.00     0.130 A 
ATOM      2  C2  DEN d   1      -3.209  -2.239   1.534  0.00  0.00    -0.031 A 
ATOM      3  C3  DEN d   1      -2.193  -1.247   1.940  0.00  0.00     0.027 A 
ATOM      4  C4  DEN d   1      -2.427   1.311   2.178  0.00  0.00     0.027 A 
ATOM      5  C5  DEN d   1      -3.290   2.376   2.045  0.00  0.00    -0.003 A 
ATOM      6  C6  DEN d   1      -4.580   2.221   1.614  0.00  0.00     0.001 A 
ATOM      7  C7  DEN d   1      -5.059   0.967   1.343  0.00  0.00     0.017 A 
ATOM      8  C8  DEN d   1      -4.193  -0.111   1.467  0.00  0.00    -0.094 A 
ATOM      9  C9  DEN d   1      -2.895   0.064   1.916  0.00  0.00    -0.072 A 
ENDROOT
TORSDOF 0
ENDMDL
