MODEL 1
REMARK minimizedAffinity 6.29840851
REMARK minimizedRMSD -1
REMARK  0 active torsions:
REMARK  status: ('A' for Active; 'I' for Inactive)
ROOT
ATOM      1  C1  DEN d   1       3.747  -2.685  -1.449  0.00  0.00     0.130 A 
ATOM      2  C2  DEN d   1       2.542  -2.380  -0.682  0.00  0.00    -0.031 A 
ATOM      3  C3  DEN d   1       2.373  -0.913  -0.662  0.00  0.00     0.027 A 
ATOM      4  C4  DEN d   1       3.849   0.906  -1.741  0.00  0.00     0.027 A 
ATOM      5  C5  DEN d   1       4.986   1.134  -2.484  0.00  0.00    -0.003 A 
ATOM      6  C6  DEN d   1       5.802   0.116  -2.901  0.00  0.00     0.001 A 
ATOM      7  C7  DEN d   1       5.468  -1.182  -2.617  0.00  0.00     0.017 A 
ATOM      8  C8  DEN d   1       4.326  -1.419  -1.863  0.00  0.00    -0.094 A 
ATOM      9  C9  DEN d   1       3.508  -0.377  -1.460  0.00  0.00    -0.072 A 
ENDROOT
TORSDOF 0
ENDMDL
