MODEL 1
REMARK minimizedAffinity 7.30292988
REMARK minimizedRMSD -1
REMARK  0 active torsions:
REMARK  status: ('A' for Active; 'I' for Inactive)
ROOT
ATOM      1  C1  DEN d   1       0.269   4.660  -2.897  0.00  0.00     0.130 A 
ATOM      2  C2  DEN d   1      -0.058   5.895  -2.188  0.00  0.00    -0.031 A 
ATOM      3  C3  DEN d   1      -1.520   5.930  -1.983  0.00  0.00     0.027 A 
ATOM      4  C4  DEN d   1      -3.300   4.201  -2.687  0.00  0.00     0.027 A 
ATOM      5  C5  DEN d   1      -3.505   2.997  -3.324  0.00  0.00    -0.003 A 
ATOM      6  C6  DEN d   1      -2.480   2.286  -3.889  0.00  0.00     0.001 A 
ATOM      7  C7  DEN d   1      -1.195   2.751  -3.788  0.00  0.00     0.017 A 
ATOM      8  C8  DEN d   1      -0.981   3.967  -3.154  0.00  0.00    -0.094 A 
ATOM      9  C9  DEN d   1      -2.029   4.665  -2.578  0.00  0.00    -0.072 A 
ENDROOT
TORSDOF 0
ENDMDL
