MODEL 1
REMARK minimizedAffinity 4.45346689
REMARK minimizedRMSD -1
REMARK  0 active torsions:
REMARK  status: ('A' for Active; 'I' for Inactive)
ROOT
ATOM      1  C1  DEN d   1      -0.370   5.198  -2.047  0.00  0.00     0.130 A 
ATOM      2  C2  DEN d   1      -1.473   5.308  -2.999  0.00  0.00    -0.031 A 
ATOM      3  C3  DEN d   1      -2.697   5.641  -2.243  0.00  0.00     0.027 A 
ATOM      4  C4  DEN d   1      -2.990   5.999   0.295  0.00  0.00     0.027 A 
ATOM      5  C5  DEN d   1      -2.342   6.000   1.510  0.00  0.00    -0.003 A 
ATOM      6  C6  DEN d   1      -1.011   5.702   1.629  0.00  0.00     0.001 A 
ATOM      7  C7  DEN d   1      -0.273   5.435   0.506  0.00  0.00     0.017 A 
ATOM      8  C8  DEN d   1      -0.920   5.426  -0.723  0.00  0.00    -0.094 A 
ATOM      9  C9  DEN d   1      -2.264   5.741  -0.823  0.00  0.00    -0.072 A 
ENDROOT
TORSDOF 0
ENDMDL
