MODEL 1
REMARK minimizedAffinity 7.78710651
REMARK minimizedRMSD -1
REMARK  0 active torsions:
REMARK  status: ('A' for Active; 'I' for Inactive)
ROOT
ATOM      1  C1  DEN d   1      -2.665   2.436  -3.923  0.00  0.00     0.130 A 
ATOM      2  C2  DEN d   1      -2.064   1.254  -4.536  0.00  0.00    -0.031 A 
ATOM      3  C3  DEN d   1      -0.602   1.454  -4.577  0.00  0.00     0.027 A 
ATOM      4  C4  DEN d   1       0.784   3.467  -3.752  0.00  0.00     0.027 A 
ATOM      5  C5  DEN d   1       0.717   4.714  -3.171  0.00  0.00    -0.003 A 
ATOM      6  C6  DEN d   1      -0.475   5.298  -2.833  0.00  0.00     0.001 A 
ATOM      7  C7  DEN d   1      -1.646   4.616  -3.033  0.00  0.00     0.017 A 
ATOM      8  C8  DEN d   1      -1.587   3.362  -3.626  0.00  0.00    -0.094 A 
ATOM      9  C9  DEN d   1      -0.371   2.783  -3.949  0.00  0.00    -0.072 A 
ENDROOT
TORSDOF 0
ENDMDL
