MODEL 1
REMARK minimizedAffinity -1.41900337
REMARK minimizedRMSD -1
REMARK  0 active torsions:
REMARK  status: ('A' for Active; 'I' for Inactive)
ROOT
ATOM      1  C1  DEN d   1      -2.898   2.171   1.603  0.00  0.00     0.130 A 
ATOM      2  C2  DEN d   1      -4.013   1.534   0.908  0.00  0.00    -0.031 A 
ATOM      3  C3  DEN d   1      -4.627   2.536   0.014  0.00  0.00     0.027 A 
ATOM      4  C4  DEN d   1      -3.960   4.998  -0.364  0.00  0.00     0.027 A 
ATOM      5  C5  DEN d   1      -3.084   5.994   0.010  0.00  0.00    -0.003 A 
ATOM      6  C6  DEN d   1      -2.115   5.797   0.957  0.00  0.00     0.001 A 
ATOM      7  C7  DEN d   1      -1.969   4.562   1.531  0.00  0.00     0.017 A 
ATOM      8  C8  DEN d   1      -2.852   3.555   1.166  0.00  0.00    -0.094 A 
ATOM      9  C9  DEN d   1      -3.818   3.771   0.197  0.00  0.00    -0.072 A 
ENDROOT
TORSDOF 0
ENDMDL
