MODEL 1
REMARK minimizedAffinity 7.57669353
REMARK minimizedRMSD -1
REMARK  0 active torsions:
REMARK  status: ('A' for Active; 'I' for Inactive)
ROOT
ATOM      1  C1  DEN d   1      -1.777   4.096  -2.771  0.00  0.00     0.130 A 
ATOM      2  C2  DEN d   1      -0.990   5.078  -3.512  0.00  0.00    -0.031 A 
ATOM      3  C3  DEN d   1      -0.375   6.000  -2.537  0.00  0.00     0.027 A 
ATOM      4  C4  DEN d   1      -0.560   6.000   0.036  0.00  0.00     0.027 A 
ATOM      5  C5  DEN d   1      -1.126   5.367   1.121  0.00  0.00    -0.003 A 
ATOM      6  C6  DEN d   1      -1.969   4.297   0.984  0.00  0.00     0.001 A 
ATOM      7  C7  DEN d   1      -2.234   3.797  -0.264  0.00  0.00     0.017 A 
ATOM      8  C8  DEN d   1      -1.673   4.434  -1.363  0.00  0.00    -0.094 A 
ATOM      9  C9  DEN d   1      -0.814   5.508  -1.203  0.00  0.00    -0.072 A 
ENDROOT
TORSDOF 0
ENDMDL
