MODEL 1
REMARK minimizedAffinity 9.74894238
REMARK minimizedRMSD -1
REMARK  0 active torsions:
REMARK  status: ('A' for Active; 'I' for Inactive)
ROOT
ATOM      1  C1  DEN d   1      -2.827   5.045  -1.164  0.00  0.00     0.130 A 
ATOM      2  C2  DEN d   1      -2.066   5.993  -0.356  0.00  0.00    -0.031 A 
ATOM      3  C3  DEN d   1      -0.652   5.919  -0.776  0.00  0.00     0.027 A 
ATOM      4  C4  DEN d   1       0.425   4.439  -2.593  0.00  0.00     0.027 A 
ATOM      5  C5  DEN d   1       0.183   3.465  -3.537  0.00  0.00    -0.003 A 
ATOM      6  C6  DEN d   1      -1.063   2.930  -3.731  0.00  0.00     0.001 A 
ATOM      7  C7  DEN d   1      -2.124   3.398  -3.001  0.00  0.00     0.017 A 
ATOM      8  C8  DEN d   1      -1.886   4.374  -2.043  0.00  0.00    -0.094 A 
ATOM      9  C9  DEN d   1      -0.622   4.911  -1.870  0.00  0.00    -0.072 A 
ENDROOT
TORSDOF 0
ENDMDL
