MODEL 1
REMARK minimizedAffinity 10.9294996
REMARK minimizedRMSD -1
REMARK  0 active torsions:
REMARK  status: ('A' for Active; 'I' for Inactive)
ROOT
ATOM      1  C1  DEN d   1      -4.512  -2.541   2.535  0.00  0.00     0.130 A 
ATOM      2  C2  DEN d   1      -3.908  -1.397   1.856  0.00  0.00    -0.031 A 
ATOM      3  C3  DEN d   1      -3.226  -1.894   0.644  0.00  0.00     0.027 A 
ATOM      4  C4  DEN d   1      -3.052  -4.309  -0.246  0.00  0.00     0.027 A 
ATOM      5  C5  DEN d   1      -3.395  -5.621  -0.005  0.00  0.00    -0.003 A 
ATOM      6  C6  DEN d   1      -4.099  -6.000   1.107  0.00  0.00     0.001 A 
ATOM      7  C7  DEN d   1      -4.523  -5.050   1.999  0.00  0.00     0.017 A 
ATOM      8  C8  DEN d   1      -4.174  -3.726   1.767  0.00  0.00    -0.094 A 
ATOM      9  C9  DEN d   1      -3.473  -3.361   0.630  0.00  0.00    -0.072 A 
ENDROOT
TORSDOF 0
ENDMDL
