MODEL 1
REMARK minimizedAffinity 9.88755608
REMARK minimizedRMSD -1
REMARK  0 active torsions:
REMARK  status: ('A' for Active; 'I' for Inactive)
ROOT
ATOM      1  C1  DEN d   1       2.677   1.680  -1.094  0.00  0.00     0.130 A 
ATOM      2  C2  DEN d   1       2.857   1.794   0.351  0.00  0.00    -0.031 A 
ATOM      3  C3  DEN d   1       1.796   2.678   0.874  0.00  0.00     0.027 A 
ATOM      4  C4  DEN d   1      -0.101   3.870  -0.404  0.00  0.00     0.027 A 
ATOM      5  C5  DEN d   1      -0.655   4.084  -1.647  0.00  0.00    -0.003 A 
ATOM      6  C6  DEN d   1      -0.122   3.544  -2.787  0.00  0.00     0.001 A 
ATOM      7  C7  DEN d   1       0.973   2.726  -2.703  0.00  0.00     0.017 A 
ATOM      8  C8  DEN d   1       1.542   2.511  -1.454  0.00  0.00    -0.094 A 
ATOM      9  C9  DEN d   1       0.981   3.056  -0.312  0.00  0.00    -0.072 A 
ENDROOT
TORSDOF 0
ENDMDL
