MODEL 1
REMARK minimizedAffinity 17.2237244
REMARK minimizedRMSD -1
REMARK  0 active torsions:
REMARK  status: ('A' for Active; 'I' for Inactive)
ROOT
ATOM      1  C1  DEN d   1       1.222   4.594  -3.425  0.00  0.00     0.130 A 
ATOM      2  C2  DEN d   1       2.348   4.184  -4.260  0.00  0.00    -0.031 A 
ATOM      3  C3  DEN d   1       2.037   2.855  -4.825  0.00  0.00     0.027 A 
ATOM      4  C4  DEN d   1      -0.069   1.404  -4.494  0.00  0.00     0.027 A 
ATOM      5  C5  DEN d   1      -1.291   1.326  -3.863  0.00  0.00    -0.003 A 
ATOM      6  C6  DEN d   1      -1.742   2.308  -3.022  0.00  0.00     0.001 A 
ATOM      7  C7  DEN d   1      -0.986   3.433  -2.824  0.00  0.00     0.017 A 
ATOM      8  C8  DEN d   1       0.250   3.515  -3.451  0.00  0.00    -0.094 A 
ATOM      9  C9  DEN d   1       0.684   2.517  -4.308  0.00  0.00    -0.072 A 
ENDROOT
TORSDOF 0
ENDMDL
