MODEL 1
REMARK minimizedAffinity 4.72650528
REMARK minimizedRMSD -1
REMARK  0 active torsions:
REMARK  status: ('A' for Active; 'I' for Inactive)
ROOT
ATOM      1  C1  DEN d   1       4.077  -1.037  -2.553  0.00  0.00     0.130 A 
ATOM      2  C2  DEN d   1       4.403   0.386  -2.603  0.00  0.00    -0.031 A 
ATOM      3  C3  DEN d   1       4.035   0.984  -1.305  0.00  0.00     0.027 A 
ATOM      4  C4  DEN d   1       3.001  -0.148   0.769  0.00  0.00     0.027 A 
ATOM      5  C5  DEN d   1       2.536  -1.338   1.284  0.00  0.00    -0.003 A 
ATOM      6  C6  DEN d   1       2.520  -2.494   0.549  0.00  0.00     0.001 A 
ATOM      7  C7  DEN d   1       3.020  -2.495  -0.726  0.00  0.00     0.017 A 
ATOM      8  C8  DEN d   1       3.485  -1.298  -1.254  0.00  0.00    -0.094 A 
ATOM      9  C9  DEN d   1       3.504  -0.142  -0.491  0.00  0.00    -0.072 A 
ENDROOT
TORSDOF 0
ENDMDL
