MODEL 1
REMARK minimizedAffinity 5.1809783
REMARK minimizedRMSD -1
REMARK  0 active torsions:
REMARK  status: ('A' for Active; 'I' for Inactive)
ROOT
ATOM      1  C1  DEN d   1       5.031  -1.811  -3.947  0.00  0.00     0.130 A 
ATOM      2  C2  DEN d   1       6.000  -0.748  -3.696  0.00  0.00    -0.031 A 
ATOM      3  C3  DEN d   1       5.665  -0.122  -2.401  0.00  0.00     0.027 A 
ATOM      4  C4  DEN d   1       3.754  -0.695  -0.767  0.00  0.00     0.027 A 
ATOM      5  C5  DEN d   1       2.667  -1.514  -0.554  0.00  0.00    -0.003 A 
ATOM      6  C6  DEN d   1       2.275  -2.459  -1.465  0.00  0.00     0.001 A 
ATOM      7  C7  DEN d   1       3.002  -2.639  -2.612  0.00  0.00     0.017 A 
ATOM      8  C8  DEN d   1       4.094  -1.812  -2.837  0.00  0.00    -0.094 A 
ATOM      9  C9  DEN d   1       4.482  -0.871  -1.898  0.00  0.00    -0.072 A 
ENDROOT
TORSDOF 0
ENDMDL
