MODEL 1
REMARK minimizedAffinity 19.709919
REMARK minimizedRMSD -1
REMARK  0 active torsions:
REMARK  status: ('A' for Active; 'I' for Inactive)
ROOT
ATOM      1  C1  DEN d   1       2.317   2.794  -4.924  0.00  0.00     0.130 A 
ATOM      2  C2  DEN d   1       2.765   4.173  -4.754  0.00  0.00    -0.031 A 
ATOM      3  C3  DEN d   1       1.758   4.884  -3.940  0.00  0.00     0.027 A 
ATOM      4  C4  DEN d   1      -0.438   3.985  -2.929  0.00  0.00     0.027 A 
ATOM      5  C5  DEN d   1      -1.250   2.878  -2.814  0.00  0.00    -0.003 A 
ATOM      6  C6  DEN d   1      -0.950   1.686  -3.416  0.00  0.00     0.001 A 
ATOM      7  C7  DEN d   1       0.215   1.558  -4.125  0.00  0.00     0.017 A 
ATOM      8  C8  DEN d   1       1.035   2.671  -4.253  0.00  0.00    -0.094 A 
ATOM      9  C9  DEN d   1       0.720   3.865  -3.626  0.00  0.00    -0.072 A 
ENDROOT
TORSDOF 0
ENDMDL
