MODEL 1
REMARK minimizedAffinity 11.4692974
REMARK minimizedRMSD -1
REMARK  0 active torsions:
REMARK  status: ('A' for Active; 'I' for Inactive)
ROOT
ATOM      1  C1  DEN d   1       2.567  -0.829  -0.721  0.00  0.00     0.130 A 
ATOM      2  C2  DEN d   1       2.444  -2.260  -0.989  0.00  0.00    -0.031 A 
ATOM      3  C3  DEN d   1       3.567  -2.659  -1.861  0.00  0.00     0.027 A 
ATOM      4  C4  DEN d   1       5.476  -1.211  -2.813  0.00  0.00     0.027 A 
ATOM      5  C5  DEN d   1       5.997   0.063  -2.871  0.00  0.00    -0.003 A 
ATOM      6  C6  DEN d   1       5.398   1.126  -2.250  0.00  0.00     0.001 A 
ATOM      7  C7  DEN d   1       4.265   0.927  -1.505  0.00  0.00     0.017 A 
ATOM      8  C8  DEN d   1       3.730  -0.353  -1.448  0.00  0.00    -0.094 A 
ATOM      9  C9  DEN d   1       4.358  -1.417  -2.073  0.00  0.00    -0.072 A 
ENDROOT
TORSDOF 0
ENDMDL
