MODEL 1
REMARK minimizedAffinity -4.14482975
REMARK minimizedRMSD -1
REMARK  0 active torsions:
REMARK  status: ('A' for Active; 'I' for Inactive)
ROOT
ATOM      1  N1  IND d   1      -1.388   1.440   1.534  0.00  0.00    -0.196 N 
ATOM      2  C2  IND d   1      -0.503   2.058   0.697  0.00  0.00     0.054 A 
ATOM      3  C3  IND d   1       0.354   1.156   0.168  0.00  0.00    -0.031 A 
ATOM      4  C4  IND d   1       0.421  -1.401   0.460  0.00  0.00     0.051 A 
ATOM      5  C5  IND d   1      -0.163  -2.422   1.156  0.00  0.00    -0.031 A 
ATOM      6  C6  IND d   1      -1.209  -2.203   2.030  0.00  0.00     0.015 A 
ATOM      7  C7  IND d   1      -1.719  -0.952   2.232  0.00  0.00    -0.016 A 
ATOM      8  C8  IND d   1      -1.123   0.088   1.532  0.00  0.00    -0.047 A 
ATOM      9  C9  IND d   1      -0.034  -0.122   0.676  0.00  0.00    -0.096 A 
ATOM     10  HN1 IND d   1      -2.007   1.829   1.987  0.00  0.00     0.298 HD
ENDROOT
TORSDOF 0
ENDMDL
