MODEL 1
REMARK minimizedAffinity -4.67008781
REMARK minimizedRMSD -1
REMARK  0 active torsions:
REMARK  status: ('A' for Active; 'I' for Inactive)
ROOT
ATOM      1  N1  IND d   1      -0.478   1.282   0.248  0.00  0.00    -0.196 N 
ATOM      2  C2  IND d   1       0.707   1.030  -0.385  0.00  0.00     0.054 A 
ATOM      3  C3  IND d   1       1.025  -0.280  -0.285  0.00  0.00    -0.031 A 
ATOM      4  C4  IND d   1      -0.305  -2.209   0.783  0.00  0.00     0.051 A 
ATOM      5  C5  IND d   1      -1.430  -2.465   1.516  0.00  0.00    -0.031 A 
ATOM      6  C6  IND d   1      -2.314  -1.466   1.869  0.00  0.00     0.015 A 
ATOM      7  C7  IND d   1      -2.111  -0.169   1.490  0.00  0.00    -0.016 A 
ATOM      8  C8  IND d   1      -0.967   0.096   0.752  0.00  0.00    -0.047 A 
ATOM      9  C9  IND d   1      -0.044  -0.907   0.427  0.00  0.00    -0.096 A 
ATOM     10  HN1 IND d   1      -0.855   2.051   0.319  0.00  0.00     0.298 HD
ENDROOT
TORSDOF 0
ENDMDL
