MODEL 1
REMARK minimizedAffinity -1.9412055
REMARK minimizedRMSD -1
REMARK  0 active torsions:
REMARK  status: ('A' for Active; 'I' for Inactive)
ROOT
ATOM      1  N1  IND d   1      -0.910   0.468  -1.040  0.00  0.00    -0.196 N 
ATOM      2  C2  IND d   1      -0.322  -0.094   0.059  0.00  0.00     0.054 A 
ATOM      3  C3  IND d   1       1.012   0.124   0.042  0.00  0.00    -0.031 A 
ATOM      4  C4  IND d   1       2.429   1.464  -1.638  0.00  0.00     0.051 A 
ATOM      5  C5  IND d   1       2.344   2.133  -2.827  0.00  0.00    -0.031 A 
ATOM      6  C6  IND d   1       1.146   2.286  -3.493  0.00  0.00     0.015 A 
ATOM      7  C7  IND d   1      -0.020   1.784  -2.987  0.00  0.00    -0.016 A 
ATOM      8  C8  IND d   1       0.064   1.099  -1.783  0.00  0.00    -0.047 A 
ATOM      9  C9  IND d   1       1.284   0.903  -1.124  0.00  0.00    -0.096 A 
ATOM     10  HN1 IND d   1      -1.747   0.434  -1.234  0.00  0.00     0.298 HD
ENDROOT
TORSDOF 0
ENDMDL
