MODEL 1
REMARK minimizedAffinity -0.708565652
REMARK minimizedRMSD -1
REMARK  0 active torsions:
REMARK  status: ('A' for Active; 'I' for Inactive)
ROOT
ATOM      1  N1  IND d   1      -0.150   1.087  -0.837  0.00  0.00    -0.196 N 
ATOM      2  C2  IND d   1       1.113   1.548  -1.085  0.00  0.00     0.054 A 
ATOM      3  C3  IND d   1       2.031   0.732  -0.518  0.00  0.00    -0.031 A 
ATOM      4  C4  IND d   1       1.688  -1.467   0.776  0.00  0.00     0.051 A 
ATOM      5  C5  IND d   1       0.711  -2.274   1.288  0.00  0.00    -0.031 A 
ATOM      6  C6  IND d   1      -0.630  -1.998   1.112  0.00  0.00     0.015 A 
ATOM      7  C7  IND d   1      -1.045  -0.905   0.404  0.00  0.00    -0.016 A 
ATOM      8  C8  IND d   1      -0.056  -0.080  -0.111  0.00  0.00    -0.047 A 
ATOM      9  C9  IND d   1       1.305  -0.331   0.101  0.00  0.00    -0.096 A 
ATOM     10  HN1 IND d   1      -0.880   1.464  -1.091  0.00  0.00     0.298 HD
ENDROOT
TORSDOF 0
ENDMDL
