MODEL 1
REMARK minimizedAffinity -4.78143978
REMARK minimizedRMSD -1
REMARK  0 active torsions:
REMARK  status: ('A' for Active; 'I' for Inactive)
ROOT
ATOM      1  N1  IND d   1      -1.146   1.354   0.647  0.00  0.00    -0.196 N 
ATOM      2  C2  IND d   1       0.057   1.695   0.096  0.00  0.00     0.054 A 
ATOM      3  C3  IND d   1       0.764   0.586  -0.215  0.00  0.00    -0.031 A 
ATOM      4  C4  IND d   1       0.097  -1.892  -0.000  0.00  0.00     0.051 A 
ATOM      5  C5  IND d   1      -0.892  -2.703   0.481  0.00  0.00    -0.031 A 
ATOM      6  C6  IND d   1      -2.040  -2.194   1.052  0.00  0.00     0.015 A 
ATOM      7  C7  IND d   1      -2.249  -0.847   1.153  0.00  0.00    -0.016 A 
ATOM      8  C8  IND d   1      -1.244  -0.020   0.671  0.00  0.00    -0.047 A 
ATOM      9  C9  IND d   1      -0.058  -0.532   0.129  0.00  0.00    -0.096 A 
ATOM     10  HN1 IND d   1      -1.742   1.905   0.932  0.00  0.00     0.298 HD
ENDROOT
TORSDOF 0
ENDMDL
