MODEL 1
REMARK minimizedAffinity -0.00410171458
REMARK minimizedRMSD -1
REMARK  0 active torsions:
REMARK  status: ('A' for Active; 'I' for Inactive)
ROOT
ATOM      1  N1  IND d   1       0.227  -0.281  -3.173  0.00  0.00    -0.196 N 
ATOM      2  C2  IND d   1       0.337   0.777  -4.033  0.00  0.00     0.054 A 
ATOM      3  C3  IND d   1       0.555   1.921  -3.346  0.00  0.00    -0.031 A 
ATOM      4  C4  IND d   1       0.867   2.275  -0.815  0.00  0.00     0.051 A 
ATOM      5  C5  IND d   1       0.816   1.613   0.380  0.00  0.00    -0.031 A 
ATOM      6  C6  IND d   1       0.563   0.258   0.452  0.00  0.00     0.015 A 
ATOM      7  C7  IND d   1       0.362  -0.490  -0.673  0.00  0.00    -0.016 A 
ATOM      8  C8  IND d   1       0.407   0.180  -1.887  0.00  0.00    -0.047 A 
ATOM      9  C9  IND d   1       0.621   1.562  -1.965  0.00  0.00    -0.096 A 
ATOM     10  HN1 IND d   1       0.071  -1.096  -3.398  0.00  0.00     0.298 HD
ENDROOT
TORSDOF 0
ENDMDL
