MODEL 1
REMARK minimizedAffinity -0.549597144
REMARK minimizedRMSD -1
REMARK  0 active torsions:
REMARK  status: ('A' for Active; 'I' for Inactive)
ROOT
ATOM      1  N1  IND d   1      -1.725   0.703   1.682  0.00  0.00    -0.196 N 
ATOM      2  C2  IND d   1      -2.488  -0.162   2.417  0.00  0.00     0.054 A 
ATOM      3  C3  IND d   1      -2.007  -1.421   2.309  0.00  0.00    -0.031 A 
ATOM      4  C4  IND d   1       0.077  -2.275   1.063  0.00  0.00     0.051 A 
ATOM      5  C5  IND d   1       1.071  -1.866   0.218  0.00  0.00    -0.031 A 
ATOM      6  C6  IND d   1       1.187  -0.552  -0.187  0.00  0.00     0.015 A 
ATOM      7  C7  IND d   1       0.317   0.408   0.247  0.00  0.00    -0.016 A 
ATOM      8  C8  IND d   1      -0.697  -0.006   1.099  0.00  0.00    -0.047 A 
ATOM      9  C9  IND d   1      -0.846  -1.346   1.480  0.00  0.00    -0.096 A 
ATOM     10  HN1 IND d   1      -1.864   1.547   1.597  0.00  0.00     0.298 HD
ENDROOT
TORSDOF 0
ENDMDL
