MODEL 1
REMARK minimizedAffinity -1.73782802
REMARK minimizedRMSD -1
REMARK  0 active torsions:
REMARK  status: ('A' for Active; 'I' for Inactive)
ROOT
ATOM      1  N1  IND d   1       0.241   1.246  -0.019  0.00  0.00    -0.196 N 
ATOM      2  C2  IND d   1       0.954   0.111   0.248  0.00  0.00     0.054 A 
ATOM      3  C3  IND d   1       1.561  -0.339  -0.873  0.00  0.00    -0.031 A 
ATOM      4  C4  IND d   1       1.605   0.689  -3.233  0.00  0.00     0.051 A 
ATOM      5  C5  IND d   1       1.072   1.705  -3.976  0.00  0.00    -0.031 A 
ATOM      6  C6  IND d   1       0.221   2.641  -3.425  0.00  0.00     0.015 A 
ATOM      7  C7  IND d   1      -0.123   2.602  -2.104  0.00  0.00    -0.016 A 
ATOM      8  C8  IND d   1       0.410   1.567  -1.348  0.00  0.00    -0.047 A 
ATOM      9  C9  IND d   1       1.241   0.589  -1.911  0.00  0.00    -0.096 A 
ATOM     10  HN1 IND d   1      -0.233   1.686   0.547  0.00  0.00     0.298 HD
ENDROOT
TORSDOF 0
ENDMDL
