MODEL 1
REMARK minimizedAffinity -5.91805553
REMARK minimizedRMSD -1
REMARK  0 active torsions:
REMARK  status: ('A' for Active; 'I' for Inactive)
ROOT
ATOM      1  N1  IND d   1      -0.031   0.845   0.383  0.00  0.00    -0.196 N 
ATOM      2  C2  IND d   1       0.956   0.066  -0.151  0.00  0.00     0.054 A 
ATOM      3  C3  IND d   1       0.784  -1.226   0.210  0.00  0.00    -0.031 A 
ATOM      4  C4  IND d   1      -1.107  -2.300   1.588  0.00  0.00     0.051 A 
ATOM      5  C5  IND d   1      -2.217  -1.987   2.321  0.00  0.00    -0.031 A 
ATOM      6  C6  IND d   1      -2.666  -0.688   2.446  0.00  0.00     0.015 A 
ATOM      7  C7  IND d   1      -2.025   0.349   1.830  0.00  0.00    -0.016 A 
ATOM      8  C8  IND d   1      -0.893   0.036   1.091  0.00  0.00    -0.047 A 
ATOM      9  C9  IND d   1      -0.408  -1.275   0.996  0.00  0.00    -0.096 A 
ATOM     10  HN1 IND d   1      -0.103   1.697   0.293  0.00  0.00     0.298 HD
ENDROOT
TORSDOF 0
ENDMDL
