MODEL 1
REMARK minimizedAffinity -1.02965939
REMARK minimizedRMSD -1
REMARK  0 active torsions:
REMARK  status: ('A' for Active; 'I' for Inactive)
ROOT
ATOM      1  N1  IND d   1      -0.067  -1.724   1.156  0.00  0.00    -0.196 N 
ATOM      2  C2  IND d   1       1.067  -2.235   0.589  0.00  0.00     0.054 A 
ATOM      3  C3  IND d   1       1.689  -1.291  -0.153  0.00  0.00    -0.031 A 
ATOM      4  C4  IND d   1       1.078   1.186  -0.493  0.00  0.00     0.051 A 
ATOM      5  C5  IND d   1       0.109   2.106  -0.206  0.00  0.00    -0.031 A 
ATOM      6  C6  IND d   1      -0.989   1.791   0.568  0.00  0.00     0.015 A 
ATOM      7  C7  IND d   1      -1.153   0.541   1.095  0.00  0.00    -0.016 A 
ATOM      8  C8  IND d   1      -0.175  -0.397   0.799  0.00  0.00    -0.047 A 
ATOM      9  C9  IND d   1       0.920  -0.095  -0.021  0.00  0.00    -0.096 A 
ATOM     10  HN1 IND d   1      -0.619  -2.157   1.652  0.00  0.00     0.298 HD
ENDROOT
TORSDOF 0
ENDMDL
