MODEL 1
REMARK minimizedAffinity 17.8533764
REMARK minimizedRMSD -1
REMARK  0 active torsions:
REMARK  status: ('A' for Active; 'I' for Inactive)
ROOT
ATOM      1  N1  IND d   1      -3.128  -5.875  -5.643  0.00  0.00    -0.196 N 
ATOM      2  C2  IND d   1      -1.768  -5.999  -5.574  0.00  0.00     0.054 A 
ATOM      3  C3  IND d   1      -1.180  -4.785  -5.666  0.00  0.00    -0.031 A 
ATOM      4  C4  IND d   1      -2.258  -2.453  -5.833  0.00  0.00     0.051 A 
ATOM      5  C5  IND d   1      -3.469  -1.834  -5.966  0.00  0.00    -0.031 A 
ATOM      6  C6  IND d   1      -4.652  -2.543  -5.996  0.00  0.00     0.015 A 
ATOM      7  C7  IND d   1      -4.669  -3.905  -5.882  0.00  0.00    -0.016 A 
ATOM      8  C8  IND d   1      -3.441  -4.538  -5.754  0.00  0.00    -0.047 A 
ATOM      9  C9  IND d   1      -2.234  -3.826  -5.766  0.00  0.00    -0.096 A 
ATOM     10  HN1 IND d   1      -3.692  -6.523  -5.621  0.00  0.00     0.298 HD
ENDROOT
TORSDOF 0
ENDMDL
