MODEL 1
REMARK minimizedAffinity -1.41468072
REMARK minimizedRMSD -1
REMARK  0 active torsions:
REMARK  status: ('A' for Active; 'I' for Inactive)
ROOT
ATOM      1  N1  IND d   1       0.318   1.427  -3.890  0.00  0.00    -0.196 N 
ATOM      2  C2  IND d   1       0.825   2.696  -3.886  0.00  0.00     0.054 A 
ATOM      3  C3  IND d   1       1.132   3.076  -2.625  0.00  0.00    -0.031 A 
ATOM      4  C4  IND d   1       0.980   1.738  -0.431  0.00  0.00     0.051 A 
ATOM      5  C5  IND d   1       0.543   0.546   0.076  0.00  0.00    -0.031 A 
ATOM      6  C6  IND d   1       0.001  -0.434  -0.730  0.00  0.00     0.015 A 
ATOM      7  C7  IND d   1      -0.115  -0.262  -2.081  0.00  0.00    -0.016 A 
ATOM      8  C8  IND d   1       0.321   0.950  -2.598  0.00  0.00    -0.047 A 
ATOM      9  C9  IND d   1       0.833   1.964  -1.779  0.00  0.00    -0.096 A 
ATOM     10  HN1 IND d   1       0.044   0.998  -4.583  0.00  0.00     0.298 HD
ENDROOT
TORSDOF 0
ENDMDL
