MODEL 1
REMARK minimizedAffinity -1.10383642
REMARK minimizedRMSD -1
REMARK  0 active torsions:
REMARK  status: ('A' for Active; 'I' for Inactive)
ROOT
ATOM      1  N1  IND d   1      -2.282   0.818   1.781  0.00  0.00    -0.196 N 
ATOM      2  C2  IND d   1      -3.008   0.007   2.607  0.00  0.00     0.054 A 
ATOM      3  C3  IND d   1      -2.439  -1.218   2.682  0.00  0.00    -0.031 A 
ATOM      4  C4  IND d   1      -0.261  -2.078   1.614  0.00  0.00     0.051 A 
ATOM      5  C5  IND d   1       0.731  -1.713   0.747  0.00  0.00    -0.031 A 
ATOM      6  C6  IND d   1       0.771  -0.460   0.170  0.00  0.00     0.015 A 
ATOM      7  C7  IND d   1      -0.177   0.483   0.450  0.00  0.00    -0.016 A 
ATOM      8  C8  IND d   1      -1.189   0.114   1.325  0.00  0.00    -0.047 A 
ATOM      9  C9  IND d   1      -1.259  -1.170   1.880  0.00  0.00    -0.096 A 
ATOM     10  HN1 IND d   1      -2.475   1.632   1.580  0.00  0.00     0.298 HD
ENDROOT
TORSDOF 0
ENDMDL
