MODEL 1
REMARK minimizedAffinity -0.928816795
REMARK minimizedRMSD -1
REMARK  0 active torsions:
REMARK  status: ('A' for Active; 'I' for Inactive)
ROOT
ATOM      1  N1  IND d   1      -0.339   1.866  -0.758  0.00  0.00    -0.196 N 
ATOM      2  C2  IND d   1       0.451   1.557   0.313  0.00  0.00     0.054 A 
ATOM      3  C3  IND d   1       1.724   1.338  -0.088  0.00  0.00    -0.031 A 
ATOM      4  C4  IND d   1       2.752   1.531  -2.440  0.00  0.00     0.051 A 
ATOM      5  C5  IND d   1       2.419   1.751  -3.747  0.00  0.00    -0.031 A 
ATOM      6  C6  IND d   1       1.123   2.029  -4.132  0.00  0.00     0.015 A 
ATOM      7  C7  IND d   1       0.110   2.109  -3.219  0.00  0.00    -0.016 A 
ATOM      8  C8  IND d   1       0.444   1.879  -1.892  0.00  0.00    -0.047 A 
ATOM      9  C9  IND d   1       1.749   1.555  -1.500  0.00  0.00    -0.096 A 
ATOM     10  HN1 IND d   1      -1.183   2.026  -0.729  0.00  0.00     0.298 HD
ENDROOT
TORSDOF 0
ENDMDL
