MODEL 1
REMARK minimizedAffinity -3.8457725
REMARK minimizedRMSD -1
REMARK  0 active torsions:
REMARK  status: ('A' for Active; 'I' for Inactive)
ROOT
ATOM      1  N1  IND d   1      -0.174   0.758   0.264  0.00  0.00    -0.196 N 
ATOM      2  C2  IND d   1       0.827   0.065  -0.357  0.00  0.00     0.054 A 
ATOM      3  C3  IND d   1       0.759  -1.247  -0.037  0.00  0.00    -0.031 A 
ATOM      4  C4  IND d   1      -0.972  -2.490   1.407  0.00  0.00     0.051 A 
ATOM      5  C5  IND d   1      -2.053  -2.277   2.216  0.00  0.00    -0.031 A 
ATOM      6  C6  IND d   1      -2.575  -1.016   2.417  0.00  0.00     0.015 A 
ATOM      7  C7  IND d   1      -2.040   0.083   1.805  0.00  0.00    -0.016 A 
ATOM      8  C8  IND d   1      -0.938  -0.129   0.989  0.00  0.00    -0.047 A 
ATOM      9  C9  IND d   1      -0.378  -1.401   0.815  0.00  0.00    -0.096 A 
ATOM     10  HN1 IND d   1      -0.305   1.607   0.210  0.00  0.00     0.298 HD
ENDROOT
TORSDOF 0
ENDMDL
