MODEL 1
REMARK minimizedAffinity -4.15714407
REMARK minimizedRMSD -1
REMARK  0 active torsions:
REMARK  status: ('A' for Active; 'I' for Inactive)
ROOT
ATOM      1  N1  IND d   1      -2.129   0.761   1.752  0.00  0.00    -0.196 N 
ATOM      2  C2  IND d   1      -2.736   0.009   2.718  0.00  0.00     0.054 A 
ATOM      3  C3  IND d   1      -2.289  -1.266   2.671  0.00  0.00    -0.031 A 
ATOM      4  C4  IND d   1      -0.488  -2.314   1.159  0.00  0.00     0.051 A 
ATOM      5  C5  IND d   1       0.323  -2.031   0.096  0.00  0.00    -0.031 A 
ATOM      6  C6  IND d   1       0.362  -0.778  -0.479  0.00  0.00     0.015 A 
ATOM      7  C7  IND d   1      -0.405   0.248  -0.003  0.00  0.00    -0.016 A 
ATOM      8  C8  IND d   1      -1.235  -0.037   1.071  0.00  0.00    -0.047 A 
ATOM      9  C9  IND d   1      -1.310  -1.318   1.632  0.00  0.00    -0.096 A 
ATOM     10  HN1 IND d   1      -2.279   1.593   1.595  0.00  0.00     0.298 HD
ENDROOT
TORSDOF 0
ENDMDL
