MODEL 1
REMARK minimizedAffinity -2.24140048
REMARK minimizedRMSD -1
REMARK  0 active torsions:
REMARK  status: ('A' for Active; 'I' for Inactive)
ROOT
ATOM      1  N1  IND d   1      -1.937   0.539   1.512  0.00  0.00    -0.196 N 
ATOM      2  C2  IND d   1      -1.478   1.730   1.022  0.00  0.00     0.054 A 
ATOM      3  C3  IND d   1      -0.248   1.575   0.484  0.00  0.00    -0.031 A 
ATOM      4  C4  IND d   1       1.158  -0.564   0.207  0.00  0.00     0.051 A 
ATOM      5  C5  IND d   1       1.175  -1.891   0.532  0.00  0.00    -0.031 A 
ATOM      6  C6  IND d   1       0.133  -2.489   1.211  0.00  0.00     0.015 A 
ATOM      7  C7  IND d   1      -0.975  -1.781   1.583  0.00  0.00    -0.016 A 
ATOM      8  C8  IND d   1      -0.992  -0.431   1.261  0.00  0.00    -0.047 A 
ATOM      9  C9  IND d   1       0.081   0.191   0.610  0.00  0.00    -0.096 A 
ATOM     10  HN1 IND d   1      -2.689   0.417   1.910  0.00  0.00     0.298 HD
ENDROOT
TORSDOF 0
ENDMDL
