MODEL 1
REMARK minimizedAffinity -0.00408688374
REMARK minimizedRMSD -1
REMARK  0 active torsions:
REMARK  status: ('A' for Active; 'I' for Inactive)
ROOT
ATOM      1  N1  IND d   1      -0.730   1.041  -0.636  0.00  0.00    -0.196 N 
ATOM      2  C2  IND d   1       0.039   0.567   0.391  0.00  0.00     0.054 A 
ATOM      3  C3  IND d   1       1.344   0.562   0.037  0.00  0.00    -0.031 A 
ATOM      4  C4  IND d   1       2.452   1.382  -2.137  0.00  0.00     0.051 A 
ATOM      5  C5  IND d   1       2.157   1.865  -3.381  0.00  0.00    -0.031 A 
ATOM      6  C6  IND d   1       0.859   2.105  -3.781  0.00  0.00     0.015 A 
ATOM      7  C7  IND d   1      -0.197   1.881  -2.943  0.00  0.00    -0.016 A 
ATOM      8  C8  IND d   1       0.098   1.384  -1.682  0.00  0.00    -0.047 A 
ATOM      9  C9  IND d   1       1.411   1.099  -1.285  0.00  0.00    -0.096 A 
ATOM     10  HN1 IND d   1      -1.587   1.113  -0.629  0.00  0.00     0.298 HD
ENDROOT
TORSDOF 0
ENDMDL
