MODEL 1
REMARK minimizedAffinity 3.28772068
REMARK minimizedRMSD -1
REMARK  2 active torsions:
REMARK  status: ('A' for Active; 'I' for Inactive)
REMARK    1  A    between atoms: C2'_3  and  C1'_4 
REMARK    2  A    between atoms: C1'_4  and  C1_5 
ROOT
ATOM      1  C1  I4B d   1       1.815  -3.042   3.886  0.00  0.00    -0.075 A 
ATOM      2  C2  I4B d   1       1.474  -3.508   5.131  0.00  0.00     0.003 A 
ATOM      3  C3  I4B d   1       1.565  -4.891   5.423  0.00  0.00     0.002 A 
ATOM      4  C4  I4B d   1       1.949  -5.771   4.433  0.00  0.00    -0.004 A 
ATOM      5  C5  I4B d   1       2.316  -5.294   3.178  0.00  0.00     0.002 A 
ATOM      6  C6  I4B d   1       2.261  -3.919   2.906  0.00  0.00     0.003 A 
ENDROOT
BRANCH   1   7
ATOM      7  C1' I4B d   1       1.676  -1.580   3.601  0.00  0.00     0.060 C 
BRANCH   7   8
ATOM      8  C2' I4B d   1       1.642  -1.398   2.097  0.00  0.00    -0.013 C 
ATOM      9  C4' I4B d   1       0.270  -1.682   1.544  0.00  0.00     0.013 C 
ATOM     10  C3' I4B d   1       2.070   0.006   1.790  0.00  0.00     0.013 C 
ENDBRANCH   7   8
ENDBRANCH   1   7
TORSDOF 2
ENDMDL
