MODEL 1
REMARK minimizedAffinity 14.6719294
REMARK minimizedRMSD -1
REMARK  2 active torsions:
REMARK  status: ('A' for Active; 'I' for Inactive)
REMARK    1  A    between atoms: C2'_3  and  C1'_4 
REMARK    2  A    between atoms: C1'_4  and  C1_5 
ROOT
ATOM      1  C1  I4B d   1      -4.767  -2.005  -3.431  0.00  0.00    -0.075 A 
ATOM      2  C2  I4B d   1      -3.511  -1.665  -3.868  0.00  0.00     0.003 A 
ATOM      3  C3  I4B d   1      -2.992  -0.373  -3.612  0.00  0.00     0.002 A 
ATOM      4  C4  I4B d   1      -3.778   0.559  -2.965  0.00  0.00    -0.004 A 
ATOM      5  C5  I4B d   1      -5.043   0.205  -2.503  0.00  0.00     0.002 A 
ATOM      6  C6  I4B d   1      -5.536  -1.088  -2.727  0.00  0.00     0.003 A 
ENDROOT
BRANCH   1   7
ATOM      7  C1' I4B d   1      -5.296  -3.368  -3.748  0.00  0.00     0.060 C 
BRANCH   7   8
ATOM      8  C2' I4B d   1      -5.064  -3.628  -5.222  0.00  0.00    -0.013 C 
ATOM      9  C4' I4B d   1      -5.273  -5.081  -5.559  0.00  0.00     0.013 C 
ATOM     10  C3' I4B d   1      -6.000  -2.752  -6.000  0.00  0.00     0.013 C 
ENDBRANCH   7   8
ENDBRANCH   1   7
TORSDOF 2
ENDMDL
