MODEL 1
REMARK minimizedAffinity 14.5195789
REMARK minimizedRMSD -1
REMARK  2 active torsions:
REMARK  status: ('A' for Active; 'I' for Inactive)
REMARK    1  A    between atoms: C2'_3  and  C1'_4 
REMARK    2  A    between atoms: C1'_4  and  C1_5 
ROOT
ATOM      1  C1  I4B d   1      -3.680   1.739  -1.264  0.00  0.00    -0.075 A 
ATOM      2  C2  I4B d   1      -2.910   1.377  -0.188  0.00  0.00     0.003 A 
ATOM      3  C3  I4B d   1      -3.249   1.819   1.113  0.00  0.00     0.002 A 
ATOM      4  C4  I4B d   1      -4.331   2.659   1.285  0.00  0.00    -0.004 A 
ATOM      5  C5  I4B d   1      -5.125   3.006   0.196  0.00  0.00     0.002 A 
ATOM      6  C6  I4B d   1      -4.805   2.534  -1.085  0.00  0.00     0.003 A 
ENDROOT
BRANCH   1   7
ATOM      7  C1' I4B d   1      -3.274   1.281  -2.629  0.00  0.00     0.060 C 
BRANCH   7   8
ATOM      8  C2' I4B d   1      -4.528   1.142  -3.468  0.00  0.00    -0.013 C 
ATOM      9  C4' I4B d   1      -4.535   2.127  -4.607  0.00  0.00     0.013 C 
ATOM     10  C3' I4B d   1      -4.595  -0.269  -3.971  0.00  0.00     0.013 C 
ENDBRANCH   7   8
ENDBRANCH   1   7
TORSDOF 2
ENDMDL
