MODEL 1
REMARK minimizedAffinity 8.89707661
REMARK minimizedRMSD -1
REMARK  2 active torsions:
REMARK  status: ('A' for Active; 'I' for Inactive)
REMARK    1  A    between atoms: C2'_3  and  C1'_4 
REMARK    2  A    between atoms: C1'_4  and  C1_5 
ROOT
ATOM      1  C1  I4B d   1       1.116  -2.130   4.121  0.00  0.00    -0.075 A 
ATOM      2  C2  I4B d   1       1.451  -0.803   4.012  0.00  0.00     0.003 A 
ATOM      3  C3  I4B d   1       1.803  -0.258   2.753  0.00  0.00     0.002 A 
ATOM      4  C4  I4B d   1       1.856  -1.081   1.647  0.00  0.00    -0.004 A 
ATOM      5  C5  I4B d   1       1.493  -2.421   1.755  0.00  0.00     0.002 A 
ATOM      6  C6  I4B d   1       1.109  -2.946   2.997  0.00  0.00     0.003 A 
ENDROOT
BRANCH   1   7
ATOM      7  C1' I4B d   1       0.781  -2.679   5.471  0.00  0.00     0.060 C 
BRANCH   7   8
ATOM      8  C2' I4B d   1       0.710  -4.189   5.356  0.00  0.00    -0.013 C 
ATOM      9  C4' I4B d   1       1.905  -4.841   6.000  0.00  0.00     0.013 C 
ATOM     10  C3' I4B d   1      -0.566  -4.643   5.999  0.00  0.00     0.013 C 
ENDBRANCH   7   8
ENDBRANCH   1   7
TORSDOF 2
ENDMDL
