MODEL 1
REMARK minimizedAffinity 13.3565016
REMARK minimizedRMSD -1
REMARK  2 active torsions:
REMARK  status: ('A' for Active; 'I' for Inactive)
REMARK    1  A    between atoms: C2'_3  and  C1'_4 
REMARK    2  A    between atoms: C1'_4  and  C1_5 
ROOT
ATOM      1  C1  I4B d   1       0.939  -3.926   1.557  0.00  0.00    -0.075 A 
ATOM      2  C2  I4B d   1       0.738  -4.037   0.204  0.00  0.00     0.003 A 
ATOM      3  C3  I4B d   1       1.327  -5.103  -0.519  0.00  0.00     0.002 A 
ATOM      4  C4  I4B d   1       2.144  -6.000   0.138  0.00  0.00    -0.004 A 
ATOM      5  C5  I4B d   1       2.327  -5.899   1.514  0.00  0.00     0.002 A 
ATOM      6  C6  I4B d   1       1.711  -4.863   2.231  0.00  0.00     0.003 A 
ENDROOT
BRANCH   1   7
ATOM      7  C1' I4B d   1       0.329  -2.769   2.284  0.00  0.00     0.060 C 
BRANCH   7   8
ATOM      8  C2' I4B d   1       1.450  -1.846   2.715  0.00  0.00    -0.013 C 
ATOM      9  C4' I4B d   1       1.358  -0.513   2.019  0.00  0.00     0.013 C 
ATOM     10  C3' I4B d   1       1.371  -1.686   4.204  0.00  0.00     0.013 C 
ENDBRANCH   7   8
ENDBRANCH   1   7
TORSDOF 2
ENDMDL
