MODEL 1
REMARK minimizedAffinity 11.721796
REMARK minimizedRMSD -1
REMARK  2 active torsions:
REMARK  status: ('A' for Active; 'I' for Inactive)
REMARK    1  A    between atoms: C2'_3  and  C1'_4 
REMARK    2  A    between atoms: C1'_4  and  C1_5 
ROOT
ATOM      1  C1  I4B d   1      -4.408  -3.292  -5.502  0.00  0.00    -0.075 A 
ATOM      2  C2  I4B d   1      -3.442  -4.239  -5.271  0.00  0.00     0.003 A 
ATOM      3  C3  I4B d   1      -3.742  -5.615  -5.417  0.00  0.00     0.002 A 
ATOM      4  C4  I4B d   1      -5.027  -5.999  -5.744  0.00  0.00    -0.004 A 
ATOM      5  C5  I4B d   1      -6.000  -5.037  -6.000  0.00  0.00     0.002 A 
ATOM      6  C6  I4B d   1      -5.686  -3.674  -5.890  0.00  0.00     0.003 A 
ENDROOT
BRANCH   1   7
ATOM      7  C1' I4B d   1      -4.065  -1.849  -5.306  0.00  0.00     0.060 C 
BRANCH   7   8
ATOM      8  C2' I4B d   1      -3.802  -1.628  -3.830  0.00  0.00    -0.013 C 
ATOM      9  C4' I4B d   1      -3.425  -0.197  -3.553  0.00  0.00     0.013 C 
ATOM     10  C3' I4B d   1      -5.037  -2.019  -3.076  0.00  0.00     0.013 C 
ENDBRANCH   7   8
ENDBRANCH   1   7
TORSDOF 2
ENDMDL
