MODEL 1
REMARK minimizedAffinity 8.91564465
REMARK minimizedRMSD -1
REMARK  2 active torsions:
REMARK  status: ('A' for Active; 'I' for Inactive)
REMARK    1  A    between atoms: C2'_3  and  C1'_4 
REMARK    2  A    between atoms: C1'_4  and  C1_5 
ROOT
ATOM      1  C1  I4B d   1       2.923  -3.683   3.421  0.00  0.00    -0.075 A 
ATOM      2  C2  I4B d   1       2.609  -3.711   4.757  0.00  0.00     0.003 A 
ATOM      3  C3  I4B d   1       1.482  -3.002   5.239  0.00  0.00     0.002 A 
ATOM      4  C4  I4B d   1       0.732  -2.242   4.365  0.00  0.00    -0.004 A 
ATOM      5  C5  I4B d   1       1.038  -2.234   3.007  0.00  0.00     0.002 A 
ATOM      6  C6  I4B d   1       2.133  -2.968   2.530  0.00  0.00     0.003 A 
ENDROOT
BRANCH   1   7
ATOM      7  C1' I4B d   1       4.138  -4.417   2.951  0.00  0.00     0.060 C 
BRANCH   7   8
ATOM      8  C2' I4B d   1       5.154  -3.391   2.490  0.00  0.00    -0.013 C 
ATOM      9  C4' I4B d   1       5.999  -2.907   3.638  0.00  0.00     0.013 C 
ATOM     10  C3' I4B d   1       5.999  -4.023   1.424  0.00  0.00     0.013 C 
ENDBRANCH   7   8
ENDBRANCH   1   7
TORSDOF 2
ENDMDL
