MODEL 1
REMARK minimizedAffinity 4.65844297
REMARK minimizedRMSD -1
REMARK  0 active torsions:
REMARK  status: ('A' for Active; 'I' for Inactive)
ROOT
ATOM      1  C   UNL d   1      -1.293  -5.383  -4.118  0.00  0.00     0.172 C 
ATOM      2  N   UNL d   1      -2.630  -5.628  -4.605  0.00  0.00    -0.070 N 
ATOM      3  C1  UNL d   1      -3.746  -5.786  -3.828  0.00  0.00    -0.004 A 
ATOM      4  C2  UNL d   1      -4.818  -5.999  -4.667  0.00  0.00    -0.047 A 
ATOM      5  C3  UNL d   1      -4.329  -5.970  -5.995  0.00  0.00    -0.047 A 
ATOM      6  C4  UNL d   1      -2.971  -5.738  -5.927  0.00  0.00    -0.004 A 
ENDROOT
TORSDOF 0
ENDMDL
