MODEL 1
REMARK minimizedAffinity 4.54380035
REMARK minimizedRMSD -1
REMARK  0 active torsions:
REMARK  status: ('A' for Active; 'I' for Inactive)
ROOT
ATOM      1  C   UNL d   1       0.377   4.036   0.298  0.00  0.00     0.172 C 
ATOM      2  N   UNL d   1       0.599   3.427   1.588  0.00  0.00    -0.070 N 
ATOM      3  C1  UNL d   1       1.519   3.837   2.516  0.00  0.00    -0.004 A 
ATOM      4  C2  UNL d   1       1.419   3.002   3.608  0.00  0.00    -0.047 A 
ATOM      5  C3  UNL d   1       0.404   2.057   3.326  0.00  0.00    -0.047 A 
ATOM      6  C4  UNL d   1      -0.086   2.343   2.069  0.00  0.00    -0.004 A 
ENDROOT
TORSDOF 0
ENDMDL
