MODEL 1
REMARK minimizedAffinity 3.87482023
REMARK minimizedRMSD -1
REMARK  0 active torsions:
REMARK  status: ('A' for Active; 'I' for Inactive)
ROOT
ATOM      1  C   UNL d   1      -0.337   3.234  -0.787  0.00  0.00     0.172 C 
ATOM      2  N   UNL d   1       0.036   2.986   0.586  0.00  0.00    -0.070 N 
ATOM      3  C1  UNL d   1      -0.641   2.183   1.465  0.00  0.00    -0.004 A 
ATOM      4  C2  UNL d   1       0.034   2.210   2.667  0.00  0.00    -0.047 A 
ATOM      5  C3  UNL d   1       1.154   3.059   2.505  0.00  0.00    -0.047 A 
ATOM      6  C4  UNL d   1       1.131   3.526   1.207  0.00  0.00    -0.004 A 
ENDROOT
TORSDOF 0
ENDMDL
