MODEL 1
REMARK minimizedAffinity 2.00488329
REMARK minimizedRMSD -1
REMARK  0 active torsions:
REMARK  status: ('A' for Active; 'I' for Inactive)
ROOT
ATOM      1  C   UNL d   1      -2.626  -0.886  -1.370  0.00  0.00     0.172 C 
ATOM      2  N   UNL d   1      -1.322  -1.098  -1.952  0.00  0.00    -0.070 N 
ATOM      3  C1  UNL d   1      -1.071  -1.389  -3.266  0.00  0.00    -0.004 A 
ATOM      4  C2  UNL d   1       0.293  -1.516  -3.418  0.00  0.00    -0.047 A 
ATOM      5  C3  UNL d   1       0.882  -1.295  -2.151  0.00  0.00    -0.047 A 
ATOM      6  C4  UNL d   1      -0.140  -1.039  -1.262  0.00  0.00    -0.004 A 
ENDROOT
TORSDOF 0
ENDMDL
