MODEL 1
REMARK minimizedAffinity 7.13012886
REMARK minimizedRMSD -1
REMARK  0 active torsions:
REMARK  status: ('A' for Active; 'I' for Inactive)
ROOT
ATOM      1  C   UNL d   1       0.914  -0.364   3.568  0.00  0.00     0.172 C 
ATOM      2  N   UNL d   1       0.607   0.959   3.078  0.00  0.00    -0.070 N 
ATOM      3  C1  UNL d   1      -0.629   1.397   2.683  0.00  0.00    -0.004 A 
ATOM      4  C2  UNL d   1      -0.505   2.711   2.286  0.00  0.00    -0.047 A 
ATOM      5  C3  UNL d   1       0.853   3.075   2.447  0.00  0.00    -0.047 A 
ATOM      6  C4  UNL d   1       1.519   1.972   2.939  0.00  0.00    -0.004 A 
ENDROOT
TORSDOF 0
ENDMDL
