MODEL 1
REMARK minimizedAffinity -2.30496454
REMARK minimizedRMSD -1
REMARK  0 active torsions:
REMARK  status: ('A' for Active; 'I' for Inactive)
ROOT
ATOM      1  C   UNL d   1       3.398  -3.986  -2.386  0.00  0.00     0.172 C 
ATOM      2  N   UNL d   1       4.074  -3.243  -1.349  0.00  0.00    -0.070 N 
ATOM      3  C1  UNL d   1       5.295  -3.552  -0.813  0.00  0.00    -0.004 A 
ATOM      4  C2  UNL d   1       5.588  -2.604   0.144  0.00  0.00    -0.047 A 
ATOM      5  C3  UNL d   1       4.504  -1.695   0.185  0.00  0.00    -0.047 A 
ATOM      6  C4  UNL d   1       3.581  -2.114  -0.749  0.00  0.00    -0.004 A 
ENDROOT
TORSDOF 0
ENDMDL
