MODEL 1
REMARK minimizedAffinity -2.18212366
REMARK minimizedRMSD -1
REMARK  0 active torsions:
REMARK  status: ('A' for Active; 'I' for Inactive)
ROOT
ATOM      1  C   UNL d   1      -5.939  -4.864   5.904  0.00  0.00     0.172 C 
ATOM      2  N   UNL d   1      -5.964  -3.553   5.300  0.00  0.00    -0.070 N 
ATOM      3  C1  UNL d   1      -5.977  -2.363   5.978  0.00  0.00    -0.004 A 
ATOM      4  C2  UNL d   1      -5.999  -1.347   5.046  0.00  0.00    -0.047 A 
ATOM      5  C3  UNL d   1      -6.000  -1.948   3.765  0.00  0.00    -0.047 A 
ATOM      6  C4  UNL d   1      -5.978  -3.314   3.952  0.00  0.00    -0.004 A 
ENDROOT
TORSDOF 0
ENDMDL
