MODEL 1
REMARK minimizedAffinity 5.32633162
REMARK minimizedRMSD -1
REMARK  0 active torsions:
REMARK  status: ('A' for Active; 'I' for Inactive)
ROOT
ATOM      1  C   UNL d   1       4.640  -5.091  -4.393  0.00  0.00     0.172 C 
ATOM      2  N   UNL d   1       4.773  -4.529  -3.070  0.00  0.00    -0.070 N 
ATOM      3  C1  UNL d   1       4.819  -5.240  -1.901  0.00  0.00    -0.004 A 
ATOM      4  C2  UNL d   1       4.951  -4.342  -0.864  0.00  0.00    -0.047 A 
ATOM      5  C3  UNL d   1       4.985  -3.045  -1.430  0.00  0.00    -0.047 A 
ATOM      6  C4  UNL d   1       4.873  -3.190  -2.797  0.00  0.00    -0.004 A 
ENDROOT
TORSDOF 0
ENDMDL
