MODEL 1
REMARK minimizedAffinity 4.85279655
REMARK minimizedRMSD -1
REMARK  0 active torsions:
REMARK  status: ('A' for Active; 'I' for Inactive)
ROOT
ATOM      1  C   UNL d   1      -0.006   2.978   0.176  0.00  0.00     0.172 C 
ATOM      2  N   UNL d   1      -0.343   4.023  -0.763  0.00  0.00    -0.070 N 
ATOM      3  C1  UNL d   1      -0.350   3.899  -2.126  0.00  0.00    -0.004 A 
ATOM      4  C2  UNL d   1      -0.724   5.114  -2.658  0.00  0.00    -0.047 A 
ATOM      5  C3  UNL d   1      -0.950   5.998  -1.577  0.00  0.00    -0.047 A 
ATOM      6  C4  UNL d   1      -0.706   5.297  -0.415  0.00  0.00    -0.004 A 
ENDROOT
TORSDOF 0
ENDMDL
