MODEL 1
REMARK minimizedAffinity 22.3562088
REMARK minimizedRMSD -1
REMARK  1 active torsions:
REMARK  status: ('A' for Active; 'I' for Inactive)
REMARK    1  A    between atoms: C1_2  and  C2_3 
ROOT
ATOM      1  C2  UNL d   1      -0.594   3.314  -2.097  0.00  0.00    -0.076 A 
ATOM      2  C3  UNL d   1      -1.640   2.745  -1.349  0.00  0.00     0.004 A 
ATOM      3  C4  UNL d   1      -1.399   2.169  -0.102  0.00  0.00    -0.003 A 
ATOM      4  C5  UNL d   1      -0.109   2.153   0.416  0.00  0.00     0.000 A 
ATOM      5  C6  UNL d   1       0.937   2.729  -0.305  0.00  0.00     0.000 A 
ATOM      6  C7  UNL d   1       0.709   3.328  -1.555  0.00  0.00    -0.073 A 
ATOM      7  C8  UNL d   1       1.875   3.928  -2.292  0.00  0.00     0.078 C 
ENDROOT
BRANCH   1   8
ATOM      8  C1  UNL d   1      -0.911   3.899  -3.455  0.00  0.00     0.053 C 
ATOM      9  C   UNL d   1      -1.800   2.990  -4.289  0.00  0.00     0.018 C 
ENDBRANCH   1   8
TORSDOF 1
ENDMDL
