MODEL 1
REMARK minimizedAffinity 6.79209995
REMARK minimizedRMSD -1
REMARK  1 active torsions:
REMARK  status: ('A' for Active; 'I' for Inactive)
REMARK    1  A    between atoms: C1_2  and  C2_3 
ROOT
ATOM      1  C2  UNL d   1       1.538  -2.445  -4.826  0.00  0.00    -0.076 A 
ATOM      2  C3  UNL d   1       0.713  -2.621  -3.702  0.00  0.00     0.004 A 
ATOM      3  C4  UNL d   1       1.144  -3.362  -2.604  0.00  0.00    -0.003 A 
ATOM      4  C5  UNL d   1       2.409  -3.940  -2.611  0.00  0.00     0.000 A 
ATOM      5  C6  UNL d   1       3.249  -3.761  -3.710  0.00  0.00     0.000 A 
ATOM      6  C7  UNL d   1       2.835  -3.003  -4.819  0.00  0.00    -0.073 A 
ATOM      7  C8  UNL d   1       3.779  -2.847  -5.980  0.00  0.00     0.078 C 
ENDROOT
BRANCH   1   8
ATOM      8  C1  UNL d   1       1.006  -1.654  -5.999  0.00  0.00     0.053 C 
ATOM      9  C   UNL d   1       1.493  -0.213  -6.000  0.00  0.00     0.018 C 
ENDBRANCH   1   8
TORSDOF 1
ENDMDL
