MODEL 1
REMARK minimizedAffinity 23.5328865
REMARK minimizedRMSD -1
REMARK  1 active torsions:
REMARK  status: ('A' for Active; 'I' for Inactive)
REMARK    1  A    between atoms: C1_2  and  C2_3 
ROOT
ATOM      1  C2  UNL d   1       0.287   3.778  -2.829  0.00  0.00    -0.076 A 
ATOM      2  C3  UNL d   1       1.135   4.898  -2.853  0.00  0.00     0.004 A 
ATOM      3  C4  UNL d   1       0.846   6.000  -3.657  0.00  0.00    -0.003 A 
ATOM      4  C5  UNL d   1      -0.297   5.998  -4.449  0.00  0.00     0.000 A 
ATOM      5  C6  UNL d   1      -1.159   4.903  -4.424  0.00  0.00     0.000 A 
ATOM      6  C7  UNL d   1      -0.890   3.791  -3.607  0.00  0.00    -0.073 A 
ATOM      7  C8  UNL d   1      -1.851   2.634  -3.624  0.00  0.00     0.078 C 
ENDROOT
BRANCH   1   8
ATOM      8  C1  UNL d   1       0.666   2.601  -1.958  0.00  0.00     0.053 C 
ATOM      9  C   UNL d   1       0.816   2.984  -0.494  0.00  0.00     0.018 C 
ENDBRANCH   1   8
TORSDOF 1
ENDMDL
