MODEL 1
REMARK minimizedAffinity 24.9305153
REMARK minimizedRMSD -1
REMARK  1 active torsions:
REMARK  status: ('A' for Active; 'I' for Inactive)
REMARK    1  A    between atoms: C1_2  and  C2_3 
ROOT
ATOM      1  C2  UNL d   1      -4.288   5.624   0.782  0.00  0.00    -0.076 A 
ATOM      2  C3  UNL d   1      -5.595   5.990   0.416  0.00  0.00     0.004 A 
ATOM      3  C4  UNL d   1      -5.999   5.968  -0.918  0.00  0.00    -0.003 A 
ATOM      4  C5  UNL d   1      -5.104   5.579  -1.907  0.00  0.00     0.000 A 
ATOM      5  C6  UNL d   1      -3.808   5.195  -1.561  0.00  0.00     0.000 A 
ATOM      6  C7  UNL d   1      -3.389   5.196  -0.219  0.00  0.00    -0.073 A 
ATOM      7  C8  UNL d   1      -1.979   4.778   0.097  0.00  0.00     0.078 C 
ENDROOT
BRANCH   1   8
ATOM      8  C1  UNL d   1      -3.898   5.694   2.241  0.00  0.00     0.053 C 
ATOM      9  C   UNL d   1      -5.082   5.990   3.147  0.00  0.00     0.018 C 
ENDBRANCH   1   8
TORSDOF 1
ENDMDL
