MODEL 1
REMARK minimizedAffinity 14.3281536
REMARK minimizedRMSD -1
REMARK  1 active torsions:
REMARK  status: ('A' for Active; 'I' for Inactive)
REMARK    1  A    between atoms: C1_2  and  C2_3 
ROOT
ATOM      1  C2  UNL d   1       2.392  -3.734  -3.963  0.00  0.00    -0.076 A 
ATOM      2  C3  UNL d   1       2.748  -3.792  -2.604  0.00  0.00     0.004 A 
ATOM      3  C4  UNL d   1       2.437  -4.906  -1.828  0.00  0.00    -0.003 A 
ATOM      4  C5  UNL d   1       1.765  -5.983  -2.397  0.00  0.00     0.000 A 
ATOM      5  C6  UNL d   1       1.420  -5.950  -3.748  0.00  0.00     0.000 A 
ATOM      6  C7  UNL d   1       1.741  -4.841  -4.549  0.00  0.00    -0.073 A 
ATOM      7  C8  UNL d   1       1.339  -4.857  -5.999  0.00  0.00     0.078 C 
ENDROOT
BRANCH   1   8
ATOM      8  C1  UNL d   1       2.732  -2.488  -4.749  0.00  0.00     0.053 C 
ATOM      9  C   UNL d   1       1.880  -2.338  -6.000  0.00  0.00     0.018 C 
ENDBRANCH   1   8
TORSDOF 1
ENDMDL
