MODEL 1
REMARK minimizedAffinity 24.5937538
REMARK minimizedRMSD -1
REMARK  1 active torsions:
REMARK  status: ('A' for Active; 'I' for Inactive)
REMARK    1  A    between atoms: C1_2  and  C2_3 
ROOT
ATOM      1  C2  UNL d   1      -3.062   2.910  -3.326  0.00  0.00    -0.076 A 
ATOM      2  C3  UNL d   1      -3.347   1.700  -3.984  0.00  0.00     0.004 A 
ATOM      3  C4  UNL d   1      -4.658   1.347  -4.300  0.00  0.00    -0.003 A 
ATOM      4  C5  UNL d   1      -5.705   2.198  -3.964  0.00  0.00     0.000 A 
ATOM      5  C6  UNL d   1      -5.439   3.410  -3.327  0.00  0.00     0.000 A 
ATOM      6  C7  UNL d   1      -4.122   3.788  -3.016  0.00  0.00    -0.073 A 
ATOM      7  C8  UNL d   1      -3.893   5.104  -2.323  0.00  0.00     0.078 C 
ENDROOT
BRANCH   1   8
ATOM      8  C1  UNL d   1      -1.624   3.227  -2.985  0.00  0.00     0.053 C 
ATOM      9  C   UNL d   1      -0.673   2.932  -4.135  0.00  0.00     0.018 C 
ENDBRANCH   1   8
TORSDOF 1
ENDMDL
