MODEL 1
REMARK minimizedAffinity 10.4043093
REMARK minimizedRMSD -1
REMARK  1 active torsions:
REMARK  status: ('A' for Active; 'I' for Inactive)
REMARK    1  A    between atoms: C1_2  and  C2_3 
ROOT
ATOM      1  C2  UNL d   1      -0.885   3.046   0.437  0.00  0.00    -0.076 A 
ATOM      2  C3  UNL d   1      -0.287   1.814   0.753  0.00  0.00     0.004 A 
ATOM      3  C4  UNL d   1      -0.867   0.951   1.681  0.00  0.00    -0.003 A 
ATOM      4  C5  UNL d   1      -2.056   1.307   2.309  0.00  0.00     0.000 A 
ATOM      5  C6  UNL d   1      -2.672   2.518   1.996  0.00  0.00     0.000 A 
ATOM      6  C7  UNL d   1      -2.109   3.391   1.050  0.00  0.00    -0.073 A 
ATOM      7  C8  UNL d   1      -2.814   4.687   0.754  0.00  0.00     0.078 C 
ENDROOT
BRANCH   1   8
ATOM      8  C1  UNL d   1      -0.196   3.953  -0.557  0.00  0.00     0.053 C 
ATOM      9  C   UNL d   1      -0.677   3.726  -1.983  0.00  0.00     0.018 C 
ENDBRANCH   1   8
TORSDOF 1
ENDMDL
