MODEL 1
REMARK minimizedAffinity 18.5404453
REMARK minimizedRMSD -1
REMARK  1 active torsions:
REMARK  status: ('A' for Active; 'I' for Inactive)
REMARK    1  A    between atoms: C1_2  and  C2_3 
ROOT
ATOM      1  C2  UNL d   1      -1.305   4.768  -2.739  0.00  0.00    -0.076 A 
ATOM      2  C3  UNL d   1      -0.380   5.439  -1.921  0.00  0.00     0.004 A 
ATOM      3  C4  UNL d   1       0.336   4.756  -0.939  0.00  0.00    -0.003 A 
ATOM      4  C5  UNL d   1       0.139   3.392  -0.760  0.00  0.00     0.000 A 
ATOM      5  C6  UNL d   1      -0.762   2.707  -1.574  0.00  0.00     0.000 A 
ATOM      6  C7  UNL d   1      -1.480   3.376  -2.580  0.00  0.00    -0.073 A 
ATOM      7  C8  UNL d   1      -2.443   2.589  -3.426  0.00  0.00     0.078 C 
ENDROOT
BRANCH   1   8
ATOM      8  C1  UNL d   1      -2.072   5.565  -3.770  0.00  0.00     0.053 C 
ATOM      9  C   UNL d   1      -3.549   5.690  -3.428  0.00  0.00     0.018 C 
ENDBRANCH   1   8
TORSDOF 1
ENDMDL
