MODEL 1
REMARK minimizedAffinity 5.58974791
REMARK minimizedRMSD -1
REMARK  1 active torsions:
REMARK  status: ('A' for Active; 'I' for Inactive)
REMARK    1  A    between atoms: C1_2  and  C2_3 
ROOT
ATOM      1  C2  UNL d   1      -0.434   3.324  -1.223  0.00  0.00    -0.076 A 
ATOM      2  C3  UNL d   1      -0.570   1.959  -0.916  0.00  0.00     0.004 A 
ATOM      3  C4  UNL d   1      -0.543   1.515   0.405  0.00  0.00    -0.003 A 
ATOM      4  C5  UNL d   1      -0.380   2.429   1.440  0.00  0.00     0.000 A 
ATOM      5  C6  UNL d   1      -0.261   3.789   1.155  0.00  0.00     0.000 A 
ATOM      6  C7  UNL d   1      -0.303   4.255  -0.170  0.00  0.00    -0.073 A 
ATOM      7  C8  UNL d   1      -0.164   5.732  -0.421  0.00  0.00     0.078 C 
ENDROOT
BRANCH   1   8
ATOM      8  C1  UNL d   1      -0.444   3.744  -2.676  0.00  0.00     0.053 C 
ATOM      9  C   UNL d   1      -1.624   3.166  -3.441  0.00  0.00     0.018 C 
ENDBRANCH   1   8
TORSDOF 1
ENDMDL
