MODEL 1
REMARK minimizedAffinity 10.2967291
REMARK minimizedRMSD -1
REMARK  1 active torsions:
REMARK  status: ('A' for Active; 'I' for Inactive)
REMARK    1  A    between atoms: C1_2  and  C2_3 
ROOT
ATOM      1  C2  UNL d   1      -0.127   3.255  -0.610  0.00  0.00    -0.076 A 
ATOM      2  C3  UNL d   1       0.546   4.247   0.125  0.00  0.00     0.004 A 
ATOM      3  C4  UNL d   1       0.590   5.566  -0.323  0.00  0.00    -0.003 A 
ATOM      4  C5  UNL d   1      -0.038   5.914  -1.514  0.00  0.00     0.000 A 
ATOM      5  C6  UNL d   1      -0.724   4.947  -2.247  0.00  0.00     0.000 A 
ATOM      6  C7  UNL d   1      -0.793   3.616  -1.800  0.00  0.00    -0.073 A 
ATOM      7  C8  UNL d   1      -1.542   2.613  -2.634  0.00  0.00     0.078 C 
ENDROOT
BRANCH   1   8
ATOM      8  C1  UNL d   1      -0.118   1.836  -0.087  0.00  0.00     0.053 C 
ATOM      9  C   UNL d   1      -1.134   1.618   1.023  0.00  0.00     0.018 C 
ENDBRANCH   1   8
TORSDOF 1
ENDMDL
