MODEL 1
REMARK minimizedAffinity 4.68551874
REMARK minimizedRMSD -1
REMARK  1 active torsions:
REMARK  status: ('A' for Active; 'I' for Inactive)
REMARK    1  A    between atoms: C1_2  and  C2_3 
ROOT
ATOM      1  C2  UNL d   1      -0.280   3.373  -0.269  0.00  0.00    -0.076 A 
ATOM      2  C3  UNL d   1       0.381   4.212   0.645  0.00  0.00     0.004 A 
ATOM      3  C4  UNL d   1       0.746   5.510   0.292  0.00  0.00    -0.003 A 
ATOM      4  C5  UNL d   1       0.456   5.991  -0.980  0.00  0.00     0.000 A 
ATOM      5  C6  UNL d   1      -0.215   5.178  -1.893  0.00  0.00     0.000 A 
ATOM      6  C7  UNL d   1      -0.605   3.872  -1.548  0.00  0.00    -0.073 A 
ATOM      7  C8  UNL d   1      -1.320   3.037  -2.575  0.00  0.00     0.078 C 
ENDROOT
BRANCH   1   8
ATOM      8  C1  UNL d   1      -0.627   1.965   0.161  0.00  0.00     0.053 C 
ATOM      9  C   UNL d   1      -1.533   1.936   1.382  0.00  0.00     0.018 C 
ENDBRANCH   1   8
TORSDOF 1
ENDMDL
