MODEL 1
REMARK minimizedAffinity 5.44726419
REMARK minimizedRMSD -1
REMARK  1 active torsions:
REMARK  status: ('A' for Active; 'I' for Inactive)
REMARK    1  A    between atoms: C1_2  and  C2_3 
ROOT
ATOM      1  C2  UNL d   1      -0.315   3.344  -0.670  0.00  0.00    -0.076 A 
ATOM      2  C3  UNL d   1       0.425   4.084   0.268  0.00  0.00     0.004 A 
ATOM      3  C4  UNL d   1       0.846   5.382  -0.013  0.00  0.00    -0.003 A 
ATOM      4  C5  UNL d   1       0.534   5.962  -1.238  0.00  0.00     0.000 A 
ATOM      5  C6  UNL d   1      -0.214   5.249  -2.174  0.00  0.00     0.000 A 
ATOM      6  C7  UNL d   1      -0.660   3.945  -1.900  0.00  0.00    -0.073 A 
ATOM      7  C8  UNL d   1      -1.458   3.219  -2.948  0.00  0.00     0.078 C 
ENDROOT
BRANCH   1   8
ATOM      8  C1  UNL d   1      -0.721   1.930  -0.320  0.00  0.00     0.053 C 
ATOM      9  C   UNL d   1       0.011   1.399   0.903  0.00  0.00     0.018 C 
ENDBRANCH   1   8
TORSDOF 1
ENDMDL
