MODEL 1
REMARK minimizedAffinity 6.60009336
REMARK minimizedRMSD -1
REMARK  1 active torsions:
REMARK  status: ('A' for Active; 'I' for Inactive)
REMARK    1  A    between atoms: C1_2  and  C2_3 
ROOT
ATOM      1  C2  UNL d   1      -0.291   3.004   0.688  0.00  0.00    -0.076 A 
ATOM      2  C3  UNL d   1      -0.538   1.888  -0.131  0.00  0.00     0.004 A 
ATOM      3  C4  UNL d   1      -0.463   1.987  -1.520  0.00  0.00    -0.003 A 
ATOM      4  C5  UNL d   1      -0.137   3.202  -2.112  0.00  0.00     0.000 A 
ATOM      5  C6  UNL d   1       0.129   4.315  -1.314  0.00  0.00     0.000 A 
ATOM      6  C7  UNL d   1       0.073   4.228   0.088  0.00  0.00    -0.073 A 
ATOM      7  C8  UNL d   1       0.364   5.461   0.899  0.00  0.00     0.078 C 
ENDROOT
BRANCH   1   8
ATOM      8  C1  UNL d   1      -0.414   2.844   2.186  0.00  0.00     0.053 C 
ATOM      9  C   UNL d   1      -1.517   1.873   2.579  0.00  0.00     0.018 C 
ENDBRANCH   1   8
TORSDOF 1
ENDMDL
