MODEL 1
REMARK minimizedAffinity 6.32141161
REMARK minimizedRMSD -1
REMARK  0 active torsions:
REMARK  status: ('A' for Active; 'I' for Inactive)
ROOT
ATOM      1  C2' OXE d   1      -1.502   0.748  -4.877  0.00  0.00     0.078 C 
ATOM      2  C1' OXE d   1      -3.496   1.324  -2.987  0.00  0.00     0.078 C 
ATOM      3  C1  OXE d   1      -3.206   2.362  -4.041  0.00  0.00    -0.078 A 
ATOM      4  C2  OXE d   1      -2.197   2.092  -4.934  0.00  0.00    -0.078 A 
ATOM      5  C3  OXE d   1      -1.925   2.992  -5.960  0.00  0.00     0.003 A 
ATOM      6  C4  OXE d   1      -2.565   4.237  -5.999  0.00  0.00    -0.002 A 
ATOM      7  C5  OXE d   1      -3.568   4.549  -5.075  0.00  0.00    -0.002 A 
ATOM      8  C6  OXE d   1      -3.929   3.607  -4.118  0.00  0.00     0.003 A 
ENDROOT
TORSDOF 0
ENDMDL
