MODEL 1
REMARK minimizedAffinity 8.95823288
REMARK minimizedRMSD -1
REMARK  0 active torsions:
REMARK  status: ('A' for Active; 'I' for Inactive)
ROOT
ATOM      1  C2' OXE d   1       3.639  -0.752   3.064  0.00  0.00     0.078 C 
ATOM      2  C1' OXE d   1       5.750  -2.224   1.943  0.00  0.00     0.078 C 
ATOM      3  C1  OXE d   1       5.353  -2.534   3.365  0.00  0.00    -0.078 A 
ATOM      4  C2  OXE d   1       4.350  -1.777   3.921  0.00  0.00    -0.078 A 
ATOM      5  C3  OXE d   1       3.908  -2.059   5.210  0.00  0.00     0.003 A 
ATOM      6  C4  OXE d   1       4.577  -3.002   5.999  0.00  0.00    -0.002 A 
ATOM      7  C5  OXE d   1       5.627  -3.756   5.465  0.00  0.00    -0.002 A 
ATOM      8  C6  OXE d   1       5.999  -3.565   4.139  0.00  0.00     0.003 A 
ENDROOT
TORSDOF 0
ENDMDL
