MODEL 1
REMARK minimizedAffinity 10.8241148
REMARK minimizedRMSD -1
REMARK  0 active torsions:
REMARK  status: ('A' for Active; 'I' for Inactive)
ROOT
ATOM      1  C2' OXE d   1      -1.542   0.761  -5.102  0.00  0.00     0.078 C 
ATOM      2  C1' OXE d   1      -3.893   0.809  -3.569  0.00  0.00     0.078 C 
ATOM      3  C1  OXE d   1      -3.586   2.013  -4.424  0.00  0.00    -0.078 A 
ATOM      4  C2  OXE d   1      -2.410   2.001  -5.135  0.00  0.00    -0.078 A 
ATOM      5  C3  OXE d   1      -2.105   3.062  -5.982  0.00  0.00     0.003 A 
ATOM      6  C4  OXE d   1      -2.908   4.209  -5.999  0.00  0.00    -0.002 A 
ATOM      7  C5  OXE d   1      -4.090   4.259  -5.252  0.00  0.00    -0.002 A 
ATOM      8  C6  OXE d   1      -4.464   3.155  -4.494  0.00  0.00     0.003 A 
ENDROOT
TORSDOF 0
ENDMDL
