MODEL 1
REMARK minimizedAffinity 10.9397526
REMARK minimizedRMSD -1
REMARK  0 active torsions:
REMARK  status: ('A' for Active; 'I' for Inactive)
ROOT
ATOM      1  C2' OXE d   1       2.670  -5.731   0.982  0.00  0.00     0.078 C 
ATOM      2  C1' OXE d   1       2.932  -3.110   0.012  0.00  0.00     0.078 C 
ATOM      3  C1  OXE d   1       1.758  -3.925  -0.471  0.00  0.00    -0.078 A 
ATOM      4  C2  OXE d   1       1.664  -5.222  -0.027  0.00  0.00    -0.078 A 
ATOM      5  C3  OXE d   1       0.570  -5.999  -0.399  0.00  0.00     0.003 A 
ATOM      6  C4  OXE d   1      -0.351  -5.524  -1.340  0.00  0.00    -0.002 A 
ATOM      7  C5  OXE d   1      -0.250  -4.219  -1.835  0.00  0.00    -0.002 A 
ATOM      8  C6  OXE d   1       0.771  -3.394  -1.379  0.00  0.00     0.003 A 
ENDROOT
TORSDOF 0
ENDMDL
