MODEL 1
REMARK minimizedAffinity 3.83228779
REMARK minimizedRMSD -1
REMARK  0 active torsions:
REMARK  status: ('A' for Active; 'I' for Inactive)
ROOT
ATOM      1  C2' OXE d   1       3.815   3.941   1.339  0.00  0.00     0.078 C 
ATOM      2  C1' OXE d   1       2.643   5.594  -0.603  0.00  0.00     0.078 C 
ATOM      3  C1  OXE d   1       1.847   4.410  -0.114  0.00  0.00    -0.078 A 
ATOM      4  C2  OXE d   1       2.447   3.580   0.802  0.00  0.00    -0.078 A 
ATOM      5  C3  OXE d   1       1.736   2.505   1.327  0.00  0.00     0.003 A 
ATOM      6  C4  OXE d   1       0.475   2.172   0.818  0.00  0.00    -0.002 A 
ATOM      7  C5  OXE d   1      -0.138   2.982  -0.145  0.00  0.00    -0.002 A 
ATOM      8  C6  OXE d   1       0.516   4.126  -0.589  0.00  0.00     0.003 A 
ENDROOT
TORSDOF 0
ENDMDL
