MODEL 1
REMARK minimizedAffinity 10.9235601
REMARK minimizedRMSD -1
REMARK  0 active torsions:
REMARK  status: ('A' for Active; 'I' for Inactive)
ROOT
ATOM      1  C2' OXE d   1       1.915   6.000  -1.619  0.00  0.00     0.078 C 
ATOM      2  C1' OXE d   1      -0.883   5.798  -1.721  0.00  0.00     0.078 C 
ATOM      3  C1  OXE d   1      -0.136   4.801  -0.870  0.00  0.00    -0.078 A 
ATOM      4  C2  OXE d   1       1.236   4.878  -0.863  0.00  0.00    -0.078 A 
ATOM      5  C3  OXE d   1       1.971   4.017  -0.053  0.00  0.00     0.003 A 
ATOM      6  C4  OXE d   1       1.335   2.977   0.635  0.00  0.00    -0.002 A 
ATOM      7  C5  OXE d   1      -0.058   2.856   0.610  0.00  0.00    -0.002 A 
ATOM      8  C6  OXE d   1      -0.810   3.784  -0.102  0.00  0.00     0.003 A 
ENDROOT
TORSDOF 0
ENDMDL
