MODEL 1
REMARK minimizedAffinity 12.2950201
REMARK minimizedRMSD -1
REMARK  0 active torsions:
REMARK  status: ('A' for Active; 'I' for Inactive)
ROOT
ATOM      1  C2' OXE d   1      -4.489   1.491  -0.123  0.00  0.00     0.078 C 
ATOM      2  C1' OXE d   1      -2.114   2.601   0.879  0.00  0.00     0.078 C 
ATOM      3  C1  OXE d   1      -3.403   3.333   1.155  0.00  0.00    -0.078 A 
ATOM      4  C2  OXE d   1      -4.555   2.807   0.621  0.00  0.00    -0.078 A 
ATOM      5  C3  OXE d   1      -5.779   3.412   0.892  0.00  0.00     0.003 A 
ATOM      6  C4  OXE d   1      -5.830   4.635   1.573  0.00  0.00    -0.002 A 
ATOM      7  C5  OXE d   1      -4.664   5.208   2.090  0.00  0.00    -0.002 A 
ATOM      8  C6  OXE d   1      -3.450   4.549   1.927  0.00  0.00     0.003 A 
ENDROOT
TORSDOF 0
ENDMDL
