MODEL 1
REMARK minimizedAffinity 16.2514992
REMARK minimizedRMSD -1
REMARK  0 active torsions:
REMARK  status: ('A' for Active; 'I' for Inactive)
ROOT
ATOM      1  C2' OXE d   1      -1.728   4.216   1.872  0.00  0.00     0.078 C 
ATOM      2  C1' OXE d   1      -3.407   2.164   0.950  0.00  0.00     0.078 C 
ATOM      3  C1  OXE d   1      -4.047   3.469   1.353  0.00  0.00    -0.078 A 
ATOM      4  C2  OXE d   1      -3.222   4.451   1.847  0.00  0.00    -0.078 A 
ATOM      5  C3  OXE d   1      -3.754   5.694   2.181  0.00  0.00     0.003 A 
ATOM      6  C4  OXE d   1      -5.139   5.900   2.164  0.00  0.00    -0.002 A 
ATOM      7  C5  OXE d   1      -6.000   4.899   1.701  0.00  0.00    -0.002 A 
ATOM      8  C6  OXE d   1      -5.467   3.695   1.253  0.00  0.00     0.003 A 
ENDROOT
TORSDOF 0
ENDMDL
