MODEL 1
REMARK minimizedAffinity 8.09884548
REMARK minimizedRMSD -1
REMARK  0 active torsions:
REMARK  status: ('A' for Active; 'I' for Inactive)
ROOT
ATOM      1  C2' OXE d   1       0.238   1.934  -0.247  0.00  0.00     0.078 C 
ATOM      2  C1' OXE d   1      -2.278   3.050  -0.798  0.00  0.00     0.078 C 
ATOM      3  C1  OXE d   1      -1.059   3.903  -1.050  0.00  0.00    -0.078 A 
ATOM      4  C2  OXE d   1       0.165   3.365  -0.733  0.00  0.00    -0.078 A 
ATOM      5  C3  OXE d   1       1.325   4.089  -0.997  0.00  0.00     0.003 A 
ATOM      6  C4  OXE d   1       1.248   5.416  -1.437  0.00  0.00    -0.002 A 
ATOM      7  C5  OXE d   1       0.008   5.997  -1.727  0.00  0.00    -0.002 A 
ATOM      8  C6  OXE d   1      -1.150   5.241  -1.580  0.00  0.00     0.003 A 
ENDROOT
TORSDOF 0
ENDMDL
