MODEL 1
REMARK minimizedAffinity 0.924518228
REMARK minimizedRMSD -1
REMARK  0 active torsions:
REMARK  status: ('A' for Active; 'I' for Inactive)
ROOT
ATOM      1  C2' OXE d   1       4.913  -2.984   0.367  0.00  0.00     0.078 C 
ATOM      2  C1' OXE d   1       2.786  -1.252   0.961  0.00  0.00     0.078 C 
ATOM      3  C1  OXE d   1       3.658  -1.712   2.102  0.00  0.00    -0.078 A 
ATOM      4  C2  OXE d   1       4.669  -2.596   1.809  0.00  0.00    -0.078 A 
ATOM      5  C3  OXE d   1       5.537  -3.009   2.816  0.00  0.00     0.003 A 
ATOM      6  C4  OXE d   1       5.297  -2.654   4.149  0.00  0.00    -0.002 A 
ATOM      7  C5  OXE d   1       4.250  -1.785   4.474  0.00  0.00    -0.002 A 
ATOM      8  C6  OXE d   1       3.449  -1.273   3.460  0.00  0.00     0.003 A 
ENDROOT
TORSDOF 0
ENDMDL
