MODEL 1
REMARK minimizedAffinity 12.8705702
REMARK minimizedRMSD -1
REMARK  0 active torsions:
REMARK  status: ('A' for Active; 'I' for Inactive)
ROOT
ATOM      1  C2' OXE d   1       5.999  -3.993   4.839  0.00  0.00     0.078 C 
ATOM      2  C1' OXE d   1       4.327  -2.059   6.000  0.00  0.00     0.078 C 
ATOM      3  C1  OXE d   1       4.498  -2.034   4.501  0.00  0.00    -0.078 A 
ATOM      4  C2  OXE d   1       5.355  -2.954   3.947  0.00  0.00    -0.078 A 
ATOM      5  C3  OXE d   1       5.507  -3.009   2.564  0.00  0.00     0.003 A 
ATOM      6  C4  OXE d   1       4.916  -2.038   1.747  0.00  0.00    -0.002 A 
ATOM      7  C5  OXE d   1       4.071  -1.067   2.296  0.00  0.00    -0.002 A 
ATOM      8  C6  OXE d   1       3.819  -1.077   3.663  0.00  0.00     0.003 A 
ENDROOT
TORSDOF 0
ENDMDL
