MODEL 1
REMARK minimizedAffinity 6.80190372
REMARK minimizedRMSD -1
REMARK  0 active torsions:
REMARK  status: ('A' for Active; 'I' for Inactive)
ROOT
ATOM      1  C2' OXE d   1      -1.008   2.381  -0.640  0.00  0.00     0.078 C 
ATOM      2  C1' OXE d   1       0.159   0.967  -2.766  0.00  0.00     0.078 C 
ATOM      3  C1  OXE d   1       0.351   0.425  -1.372  0.00  0.00    -0.078 A 
ATOM      4  C2  OXE d   1      -0.184   1.149  -0.333  0.00  0.00    -0.078 A 
ATOM      5  C3  OXE d   1      -0.082   0.665   0.968  0.00  0.00     0.003 A 
ATOM      6  C4  OXE d   1       0.690  -0.470   1.244  0.00  0.00    -0.002 A 
ATOM      7  C5  OXE d   1       1.277  -1.200   0.205  0.00  0.00    -0.002 A 
ATOM      8  C6  OXE d   1       1.082  -0.790  -1.110  0.00  0.00     0.003 A 
ENDROOT
TORSDOF 0
ENDMDL
