MODEL 1
REMARK minimizedAffinity 15.0252419
REMARK minimizedRMSD -1
REMARK  0 active torsions:
REMARK  status: ('A' for Active; 'I' for Inactive)
ROOT
ATOM      1  O1  BZF d   1      -0.748   2.323  -6.000  0.00  0.00    -0.204 OA
ATOM      2  C2  BZF d   1      -1.489   1.471  -5.204  0.00  0.00     0.174 A 
ATOM      3  C3  BZF d   1      -0.712   0.903  -4.258  0.00  0.00    -0.012 A 
ATOM      4  C3A BZF d   1       0.576   1.504  -4.419  0.00  0.00    -0.107 A 
ATOM      5  C4  BZF d   1       1.766   1.363  -3.764  0.00  0.00     0.055 A 
ATOM      6  C5  BZF d   1       2.853   2.042  -4.215  0.00  0.00    -0.016 A 
ATOM      7  C6  BZF d   1       2.788   2.865  -5.320  0.00  0.00     0.022 A 
ATOM      8  C7  BZF d   1       1.628   3.041  -6.000  0.00  0.00     0.029 A 
ATOM      9  C7A BZF d   1       0.520   2.382  -5.526  0.00  0.00     0.058 A 
ENDROOT
TORSDOF 0
ENDMDL
