MODEL 1
REMARK minimizedAffinity -0.931980133
REMARK minimizedRMSD -1
REMARK  0 active torsions:
REMARK  status: ('A' for Active; 'I' for Inactive)
ROOT
ATOM      1  O1  BZF d   1       2.099   2.226   2.919  0.00  0.00    -0.204 OA
ATOM      2  C2  BZF d   1       2.517   1.562   1.783  0.00  0.00     0.174 A 
ATOM      3  C3  BZF d   1       3.096   2.417   0.915  0.00  0.00    -0.012 A 
ATOM      4  C3A BZF d   1       3.119   3.679   1.589  0.00  0.00    -0.107 A 
ATOM      5  C4  BZF d   1       3.585   4.917   1.249  0.00  0.00     0.055 A 
ATOM      6  C5  BZF d   1       3.387   5.955   2.103  0.00  0.00    -0.016 A 
ATOM      7  C6  BZF d   1       2.724   5.792   3.302  0.00  0.00     0.022 A 
ATOM      8  C7  BZF d   1       2.249   4.582   3.685  0.00  0.00     0.029 A 
ATOM      9  C7A BZF d   1       2.476   3.525   2.839  0.00  0.00     0.058 A 
ENDROOT
TORSDOF 0
ENDMDL
