MODEL 1
REMARK minimizedAffinity 17.6894093
REMARK minimizedRMSD -1
REMARK  0 active torsions:
REMARK  status: ('A' for Active; 'I' for Inactive)
ROOT
ATOM      1  O1  BZF d   1       5.594   4.722   2.403  0.00  0.00    -0.204 OA
ATOM      2  C2  BZF d   1       4.535   5.072   1.588  0.00  0.00     0.174 A 
ATOM      3  C3  BZF d   1       3.510   5.559   2.317  0.00  0.00    -0.012 A 
ATOM      4  C3A BZF d   1       3.992   5.596   3.664  0.00  0.00    -0.107 A 
ATOM      5  C4  BZF d   1       3.441   5.999   4.847  0.00  0.00     0.055 A 
ATOM      6  C5  BZF d   1       4.150   5.837   5.995  0.00  0.00    -0.016 A 
ATOM      7  C6  BZF d   1       5.409   5.272   5.997  0.00  0.00     0.022 A 
ATOM      8  C7  BZF d   1       5.999   4.862   4.848  0.00  0.00     0.029 A 
ATOM      9  C7A BZF d   1       5.298   5.055   3.682  0.00  0.00     0.058 A 
ENDROOT
TORSDOF 0
ENDMDL
