MODEL 1
REMARK minimizedAffinity 10.1996632
REMARK minimizedRMSD -1
REMARK  0 active torsions:
REMARK  status: ('A' for Active; 'I' for Inactive)
ROOT
ATOM      1  O1  BZF d   1       0.745  -5.142  -2.562  0.00  0.00    -0.204 OA
ATOM      2  C2  BZF d   1      -0.326  -5.999  -2.401  0.00  0.00     0.174 A 
ATOM      3  C3  BZF d   1      -0.751  -6.000  -1.121  0.00  0.00    -0.012 A 
ATOM      4  C3A BZF d   1       0.049  -5.016  -0.459  0.00  0.00    -0.107 A 
ATOM      5  C4  BZF d   1       0.088  -4.545   0.823  0.00  0.00     0.055 A 
ATOM      6  C5  BZF d   1       1.037  -3.634   1.163  0.00  0.00    -0.016 A 
ATOM      7  C6  BZF d   1       1.964  -3.176   0.250  0.00  0.00     0.022 A 
ATOM      8  C7  BZF d   1       1.962  -3.609  -1.034  0.00  0.00     0.029 A 
ATOM      9  C7A BZF d   1       0.983  -4.505  -1.390  0.00  0.00     0.058 A 
ENDROOT
TORSDOF 0
ENDMDL
