MODEL 1
REMARK minimizedAffinity 13.6602879
REMARK minimizedRMSD -1
REMARK  0 active torsions:
REMARK  status: ('A' for Active; 'I' for Inactive)
ROOT
ATOM      1  O1  BZF d   1      -0.420   0.361  -5.706  0.00  0.00    -0.204 OA
ATOM      2  C2  BZF d   1       0.795   1.018  -5.708  0.00  0.00     0.174 A 
ATOM      3  C3  BZF d   1       0.620   2.347  -5.854  0.00  0.00    -0.012 A 
ATOM      4  C3A BZF d   1      -0.797   2.542  -5.856  0.00  0.00    -0.107 A 
ATOM      5  C4  BZF d   1      -1.593   3.648  -5.954  0.00  0.00     0.055 A 
ATOM      6  C5  BZF d   1      -2.941   3.489  -5.997  0.00  0.00    -0.016 A 
ATOM      7  C6  BZF d   1      -3.528   2.241  -5.951  0.00  0.00     0.022 A 
ATOM      8  C7  BZF d   1      -2.780   1.116  -5.849  0.00  0.00     0.029 A 
ATOM      9  C7A BZF d   1      -1.418   1.274  -5.772  0.00  0.00     0.058 A 
ENDROOT
TORSDOF 0
ENDMDL
