MODEL 1
REMARK minimizedAffinity 7.95364523
REMARK minimizedRMSD -1
REMARK  0 active torsions:
REMARK  status: ('A' for Active; 'I' for Inactive)
ROOT
ATOM      1  O1  BZF d   1       2.112   3.688   0.974  0.00  0.00    -0.204 OA
ATOM      2  C2  BZF d   1       2.187   2.322   1.163  0.00  0.00     0.174 A 
ATOM      3  C3  BZF d   1       3.449   1.949   1.461  0.00  0.00    -0.012 A 
ATOM      4  C3A BZF d   1       4.191   3.169   1.549  0.00  0.00    -0.107 A 
ATOM      5  C4  BZF d   1       5.496   3.456   1.831  0.00  0.00     0.055 A 
ATOM      6  C5  BZF d   1       5.918   4.746   1.763  0.00  0.00    -0.016 A 
ATOM      7  C6  BZF d   1       5.065   5.772   1.412  0.00  0.00     0.022 A 
ATOM      8  C7  BZF d   1       3.761   5.537   1.128  0.00  0.00     0.029 A 
ATOM      9  C7A BZF d   1       3.323   4.239   1.228  0.00  0.00     0.058 A 
ENDROOT
TORSDOF 0
ENDMDL
