MODEL 1
REMARK minimizedAffinity 0.355963409
REMARK minimizedRMSD -1
REMARK  0 active torsions:
REMARK  status: ('A' for Active; 'I' for Inactive)
ROOT
ATOM      1  O1  BZF d   1      -2.485   3.208  -5.960  0.00  0.00    -0.204 OA
ATOM      2  C2  BZF d   1      -2.936   1.902  -5.941  0.00  0.00     0.174 A 
ATOM      3  C3  BZF d   1      -4.283   1.862  -5.886  0.00  0.00    -0.012 A 
ATOM      4  C3A BZF d   1      -4.704   3.228  -5.963  0.00  0.00    -0.107 A 
ATOM      5  C4  BZF d   1      -5.927   3.834  -5.972  0.00  0.00     0.055 A 
ATOM      6  C5  BZF d   1      -5.992   5.191  -5.983  0.00  0.00    -0.016 A 
ATOM      7  C6  BZF d   1      -4.855   5.972  -5.979  0.00  0.00     0.022 A 
ATOM      8  C7  BZF d   1      -3.619   5.416  -5.976  0.00  0.00     0.029 A 
ATOM      9  C7A BZF d   1      -3.550   4.045  -5.999  0.00  0.00     0.058 A 
ENDROOT
TORSDOF 0
ENDMDL
