MODEL 1
REMARK minimizedAffinity 16.213644
REMARK minimizedRMSD -1
REMARK  0 active torsions:
REMARK  status: ('A' for Active; 'I' for Inactive)
ROOT
ATOM      1  O1  BZF d   1       4.456   4.785   0.331  0.00  0.00    -0.204 OA
ATOM      2  C2  BZF d   1       3.407   4.853  -0.565  0.00  0.00     0.174 A 
ATOM      3  C3  BZF d   1       2.362   4.115  -0.136  0.00  0.00    -0.012 A 
ATOM      4  C3A BZF d   1       2.751   3.625   1.151  0.00  0.00    -0.107 A 
ATOM      5  C4  BZF d   1       2.130   2.847   2.085  0.00  0.00     0.055 A 
ATOM      6  C5  BZF d   1       2.812   2.490   3.205  0.00  0.00    -0.016 A 
ATOM      7  C6  BZF d   1       4.114   2.889   3.421  0.00  0.00     0.022 A 
ATOM      8  C7  BZF d   1       4.770   3.667   2.525  0.00  0.00     0.029 A 
ATOM      9  C7A BZF d   1       4.073   4.056   1.407  0.00  0.00     0.058 A 
ENDROOT
TORSDOF 0
ENDMDL
