MODEL 1
REMARK minimizedAffinity 4.73218012
REMARK minimizedRMSD -1
REMARK  0 active torsions:
REMARK  status: ('A' for Active; 'I' for Inactive)
ROOT
ATOM      1  O1  BZF d   1      -2.452   5.187  -5.957  0.00  0.00    -0.204 OA
ATOM      2  C2  BZF d   1      -1.502   4.184  -5.953  0.00  0.00     0.174 A 
ATOM      3  C3  BZF d   1      -2.088   2.970  -5.913  0.00  0.00    -0.012 A 
ATOM      4  C3A BZF d   1      -3.494   3.228  -5.983  0.00  0.00    -0.107 A 
ATOM      5  C4  BZF d   1      -4.596   2.423  -6.000  0.00  0.00     0.055 A 
ATOM      6  C5  BZF d   1      -5.830   2.992  -6.000  0.00  0.00    -0.016 A 
ATOM      7  C6  BZF d   1      -5.998   4.362  -5.978  0.00  0.00     0.022 A 
ATOM      8  C7  BZF d   1      -4.934   5.201  -5.966  0.00  0.00     0.029 A 
ATOM      9  C7A BZF d   1      -3.686   4.629  -5.999  0.00  0.00     0.058 A 
ENDROOT
TORSDOF 0
ENDMDL
