MODEL 1
REMARK minimizedAffinity 0.55703932
REMARK minimizedRMSD -1
REMARK  0 active torsions:
REMARK  status: ('A' for Active; 'I' for Inactive)
ROOT
ATOM      1  O1  BZF d   1       4.137   6.000   3.356  0.00  0.00    -0.204 OA
ATOM      2  C2  BZF d   1       3.857   5.049   4.319  0.00  0.00     0.174 A 
ATOM      3  C3  BZF d   1       3.435   3.902   3.750  0.00  0.00    -0.012 A 
ATOM      4  C3A BZF d   1       3.542   4.120   2.340  0.00  0.00    -0.107 A 
ATOM      5  C4  BZF d   1       3.284   3.342   1.247  0.00  0.00     0.055 A 
ATOM      6  C5  BZF d   1       3.422   3.879   0.006  0.00  0.00    -0.016 A 
ATOM      7  C6  BZF d   1       3.810   5.190  -0.178  0.00  0.00     0.022 A 
ATOM      8  C7  BZF d   1       4.082   5.999   0.875  0.00  0.00     0.029 A 
ATOM      9  C7A BZF d   1       3.975   5.449   2.129  0.00  0.00     0.058 A 
ENDROOT
TORSDOF 0
ENDMDL
