MODEL 1
REMARK minimizedAffinity 3.38722396
REMARK minimizedRMSD -1
REMARK  0 active torsions:
REMARK  status: ('A' for Active; 'I' for Inactive)
ROOT
ATOM      1  O1  BZF d   1      -0.516   2.125   0.867  0.00  0.00    -0.204 OA
ATOM      2  C2  BZF d   1       0.773   2.579   0.660  0.00  0.00     0.174 A 
ATOM      3  C3  BZF d   1       1.653   1.558   0.713  0.00  0.00    -0.012 A 
ATOM      4  C3A BZF d   1       0.855   0.381   0.876  0.00  0.00    -0.107 A 
ATOM      5  C4  BZF d   1       1.153  -0.948   0.977  0.00  0.00     0.055 A 
ATOM      6  C5  BZF d   1       0.147  -1.834   1.203  0.00  0.00    -0.016 A 
ATOM      7  C6  BZF d   1      -1.164  -1.426   1.337  0.00  0.00     0.022 A 
ATOM      8  C7  BZF d   1      -1.508  -0.119   1.239  0.00  0.00     0.029 A 
ATOM      9  C7A BZF d   1      -0.499   0.775   0.979  0.00  0.00     0.058 A 
ENDROOT
TORSDOF 0
ENDMDL
