MODEL 1
REMARK minimizedAffinity -1.40923142
REMARK minimizedRMSD -1
REMARK  0 active torsions:
REMARK  status: ('A' for Active; 'I' for Inactive)
ROOT
ATOM      1  O1  BZF d   1      -4.344   3.927  -5.907  0.00  0.00    -0.204 OA
ATOM      2  C2  BZF d   1      -4.613   5.279  -6.000  0.00  0.00     0.174 A 
ATOM      3  C3  BZF d   1      -3.471   5.996  -5.997  0.00  0.00    -0.012 A 
ATOM      4  C3A BZF d   1      -2.418   5.026  -5.989  0.00  0.00    -0.107 A 
ATOM      5  C4  BZF d   1      -1.056   5.120  -5.998  0.00  0.00     0.055 A 
ATOM      6  C5  BZF d   1      -0.315   3.984  -5.912  0.00  0.00    -0.016 A 
ATOM      7  C6  BZF d   1      -0.903   2.740  -5.811  0.00  0.00     0.022 A 
ATOM      8  C7  BZF d   1      -2.251   2.596  -5.803  0.00  0.00     0.029 A 
ATOM      9  C7A BZF d   1      -3.002   3.740  -5.923  0.00  0.00     0.058 A 
ENDROOT
TORSDOF 0
ENDMDL
