MODEL 1
REMARK minimizedAffinity 4.60032225
REMARK minimizedRMSD -1
REMARK  0 active torsions:
REMARK  status: ('A' for Active; 'I' for Inactive)
ROOT
ATOM      1  O1  BZF d   1      -3.753   5.867  -5.927  0.00  0.00    -0.204 OA
ATOM      2  C2  BZF d   1      -5.108   5.600  -5.921  0.00  0.00     0.174 A 
ATOM      3  C3  BZF d   1      -5.335   4.273  -5.990  0.00  0.00    -0.012 A 
ATOM      4  C3A BZF d   1      -4.039   3.667  -5.950  0.00  0.00    -0.107 A 
ATOM      5  C4  BZF d   1      -3.607   2.372  -5.969  0.00  0.00     0.055 A 
ATOM      6  C5  BZF d   1      -2.272   2.121  -5.991  0.00  0.00    -0.016 A 
ATOM      7  C6  BZF d   1      -1.342   3.140  -6.000  0.00  0.00     0.022 A 
ATOM      8  C7  BZF d   1      -1.722   4.441  -5.976  0.00  0.00     0.029 A 
ATOM      9  C7A BZF d   1      -3.070   4.697  -5.920  0.00  0.00     0.058 A 
ENDROOT
TORSDOF 0
ENDMDL
