MODEL 1
REMARK minimizedAffinity -2.65455031
REMARK minimizedRMSD -1
REMARK  0 active torsions:
REMARK  status: ('A' for Active; 'I' for Inactive)
ROOT
ATOM      1  O1  BZF d   1      -3.391   1.873  -5.763  0.00  0.00    -0.204 OA
ATOM      2  C2  BZF d   1      -4.474   2.713  -5.933  0.00  0.00     0.174 A 
ATOM      3  C3  BZF d   1      -4.076   3.999  -5.999  0.00  0.00    -0.012 A 
ATOM      4  C3A BZF d   1      -2.646   3.954  -5.955  0.00  0.00    -0.107 A 
ATOM      5  C4  BZF d   1      -1.674   4.912  -6.000  0.00  0.00     0.055 A 
ATOM      6  C5  BZF d   1      -0.375   4.541  -5.860  0.00  0.00    -0.016 A 
ATOM      7  C6  BZF d   1      -0.012   3.224  -5.668  0.00  0.00     0.022 A 
ATOM      8  C7  BZF d   1      -0.940   2.238  -5.622  0.00  0.00     0.029 A 
ATOM      9  C7A BZF d   1      -2.252   2.605  -5.796  0.00  0.00     0.058 A 
ENDROOT
TORSDOF 0
ENDMDL
