MODEL 1
REMARK minimizedAffinity 3.56966186
REMARK minimizedRMSD -1
REMARK  0 active torsions:
REMARK  status: ('A' for Active; 'I' for Inactive)
ROOT
ATOM      1  O1  BZF d   1      -0.790   4.598  -5.923  0.00  0.00    -0.204 OA
ATOM      2  C2  BZF d   1       0.296   3.744  -5.925  0.00  0.00     0.174 A 
ATOM      3  C3  BZF d   1      -0.107   2.457  -5.899  0.00  0.00    -0.012 A 
ATOM      4  C3A BZF d   1      -1.535   2.509  -5.971  0.00  0.00    -0.107 A 
ATOM      5  C4  BZF d   1      -2.509   1.552  -6.000  0.00  0.00     0.055 A 
ATOM      6  C5  BZF d   1      -3.813   1.936  -5.999  0.00  0.00    -0.016 A 
ATOM      7  C6  BZF d   1      -4.178   3.266  -5.965  0.00  0.00     0.022 A 
ATOM      8  C7  BZF d   1      -3.247   4.251  -5.941  0.00  0.00     0.029 A 
ATOM      9  C7A BZF d   1      -1.929   3.867  -5.975  0.00  0.00     0.058 A 
ENDROOT
TORSDOF 0
ENDMDL
