MODEL 1
REMARK minimizedAffinity -3.5595119
REMARK minimizedRMSD -1
REMARK  0 active torsions:
REMARK  status: ('A' for Active; 'I' for Inactive)
ROOT
ATOM      1  O1  BZF d   1      -3.100   1.863  -5.563  0.00  0.00    -0.204 OA
ATOM      2  C2  BZF d   1      -3.935   2.928  -5.838  0.00  0.00     0.174 A 
ATOM      3  C3  BZF d   1      -3.225   4.063  -5.999  0.00  0.00    -0.012 A 
ATOM      4  C3A BZF d   1      -1.854   3.666  -5.904  0.00  0.00    -0.107 A 
ATOM      5  C4  BZF d   1      -0.671   4.343  -5.998  0.00  0.00     0.055 A 
ATOM      6  C5  BZF d   1       0.492   3.673  -5.785  0.00  0.00    -0.016 A 
ATOM      7  C6  BZF d   1       0.509   2.329  -5.473  0.00  0.00     0.022 A 
ATOM      8  C7  BZF d   1      -0.638   1.614  -5.374  0.00  0.00     0.029 A 
ATOM      9  C7A BZF d   1      -1.813   2.281  -5.621  0.00  0.00     0.058 A 
ENDROOT
TORSDOF 0
ENDMDL
