MODEL 1
REMARK minimizedAffinity 1.77443647
REMARK minimizedRMSD -1
REMARK  0 active torsions:
REMARK  status: ('A' for Active; 'I' for Inactive)
ROOT
ATOM      1  O1  BZF d   1      -3.145   1.979  -5.901  0.00  0.00    -0.204 OA
ATOM      2  C2  BZF d   1      -4.042   3.026  -5.999  0.00  0.00     0.174 A 
ATOM      3  C3  BZF d   1      -3.397   4.210  -6.000  0.00  0.00    -0.012 A 
ATOM      4  C3A BZF d   1      -2.004   3.880  -5.989  0.00  0.00    -0.107 A 
ATOM      5  C4  BZF d   1      -0.862   4.628  -6.000  0.00  0.00     0.055 A 
ATOM      6  C5  BZF d   1       0.340   4.000  -5.910  0.00  0.00    -0.016 A 
ATOM      7  C6  BZF d   1       0.436   2.628  -5.803  0.00  0.00     0.022 A 
ATOM      8  C7  BZF d   1      -0.669   1.843  -5.793  0.00  0.00     0.029 A 
ATOM      9  C7A BZF d   1      -1.884   2.473  -5.917  0.00  0.00     0.058 A 
ENDROOT
TORSDOF 0
ENDMDL
