MODEL 1
REMARK minimizedAffinity -0.375617981
REMARK minimizedRMSD -1
REMARK  0 active torsions:
REMARK  status: ('A' for Active; 'I' for Inactive)
ROOT
ATOM      1  O1  BZF d   1       2.054   0.546   0.161  0.00  0.00    -0.204 OA
ATOM      2  C2  BZF d   1       3.143   0.875  -0.623  0.00  0.00     0.174 A 
ATOM      3  C3  BZF d   1       2.873   1.950  -1.391  0.00  0.00    -0.012 A 
ATOM      4  C3A BZF d   1       1.563   2.372  -0.999  0.00  0.00    -0.107 A 
ATOM      5  C4  BZF d   1       0.750   3.397  -1.391  0.00  0.00     0.055 A 
ATOM      6  C5  BZF d   1      -0.499   3.488  -0.864  0.00  0.00    -0.016 A 
ATOM      7  C6  BZF d   1      -0.970   2.570   0.051  0.00  0.00     0.022 A 
ATOM      8  C7  BZF d   1      -0.199   1.538   0.474  0.00  0.00     0.029 A 
ATOM      9  C7A BZF d   1       1.076   1.463  -0.032  0.00  0.00     0.058 A 
ENDROOT
TORSDOF 0
ENDMDL
