MODEL 1
REMARK minimizedAffinity -1.48213577
REMARK minimizedRMSD -1
REMARK  1 active torsions:
REMARK  status: ('A' for Active; 'I' for Inactive)
REMARK    1  A    between atoms: C1_2  and  C2_3 
ROOT
ATOM      1  C2  UNL d   1      -1.289   0.302  -0.299  0.00  0.00    -0.081 A 
ATOM      2  C3  UNL d   1      -0.888  -1.002  -0.613  0.00  0.00     0.006 A 
ATOM      3  C4  UNL d   1       0.371  -1.468  -0.229  0.00  0.00     0.002 A 
ATOM      4  C5  UNL d   1       1.247  -0.641   0.482  0.00  0.00    -0.080 A 
ATOM      5  C6  UNL d   1       2.591  -1.139   0.927  0.00  0.00     0.076 C 
ATOM      6  C7  UNL d   1       0.854   0.667   0.781  0.00  0.00     0.002 A 
ATOM      7  C8  UNL d   1      -0.405   1.134   0.397  0.00  0.00     0.006 A 
ENDROOT
BRANCH   1   8
ATOM      8  C1  UNL d   1      -2.671   0.786  -0.655  0.00  0.00     0.054 C 
ATOM      9  C   UNL d   1      -3.607   0.718   0.544  0.00  0.00     0.018 C 
ENDBRANCH   1   8
TORSDOF 1
ENDMDL
