MODEL 1
REMARK minimizedAffinity -5.12419033
REMARK minimizedRMSD -1
REMARK  1 active torsions:
REMARK  status: ('A' for Active; 'I' for Inactive)
REMARK    1  A    between atoms: C1_2  and  C2_3 
ROOT
ATOM      1  C2  UNL d   1      -0.059  -0.047   0.069  0.00  0.00    -0.081 A 
ATOM      2  C3  UNL d   1       0.363  -1.373  -0.082  0.00  0.00     0.006 A 
ATOM      3  C4  UNL d   1       1.654  -1.753   0.296  0.00  0.00     0.002 A 
ATOM      4  C5  UNL d   1       2.539  -0.815   0.837  0.00  0.00    -0.080 A 
ATOM      5  C6  UNL d   1       3.917  -1.216   1.275  0.00  0.00     0.076 C 
ATOM      6  C7  UNL d   1       2.123   0.514   0.972  0.00  0.00     0.002 A 
ATOM      7  C8  UNL d   1       0.834   0.894   0.593  0.00  0.00     0.006 A 
ENDROOT
BRANCH   1   8
ATOM      8  C1  UNL d   1      -1.471   0.352  -0.278  0.00  0.00     0.054 C 
ATOM      9  C   UNL d   1      -2.339   0.452   0.968  0.00  0.00     0.018 C 
ENDBRANCH   1   8
TORSDOF 1
ENDMDL
