MODEL 1
REMARK minimizedAffinity -4.6449976
REMARK minimizedRMSD -1
REMARK  1 active torsions:
REMARK  status: ('A' for Active; 'I' for Inactive)
REMARK    1  A    between atoms: C1_2  and  C2_3 
ROOT
ATOM      1  C2  UNL d   1       1.934  -0.933   0.096  0.00  0.00    -0.081 A 
ATOM      2  C3  UNL d   1       0.947  -1.710  -0.522  0.00  0.00     0.006 A 
ATOM      3  C4  UNL d   1      -0.368  -1.246  -0.610  0.00  0.00     0.002 A 
ATOM      4  C5  UNL d   1      -0.715   0.006  -0.090  0.00  0.00    -0.080 A 
ATOM      5  C6  UNL d   1      -2.116   0.529  -0.205  0.00  0.00     0.076 C 
ATOM      6  C7  UNL d   1       0.268   0.775   0.542  0.00  0.00     0.002 A 
ATOM      7  C8  UNL d   1       1.582   0.311   0.631  0.00  0.00     0.006 A 
ENDROOT
BRANCH   1   8
ATOM      8  C1  UNL d   1       3.366  -1.402   0.135  0.00  0.00     0.054 C 
ATOM      9  C   UNL d   1       4.085  -1.097  -1.172  0.00  0.00     0.018 C 
ENDBRANCH   1   8
TORSDOF 1
ENDMDL
