MODEL 1
REMARK minimizedAffinity -5.74633551
REMARK minimizedRMSD -1
REMARK  1 active torsions:
REMARK  status: ('A' for Active; 'I' for Inactive)
REMARK    1  A    between atoms: C1_2  and  C2_3 
ROOT
ATOM      1  C2  UNL d   1      -0.676   0.101   0.202  0.00  0.00    -0.081 A 
ATOM      2  C3  UNL d   1      -0.412  -1.266   0.056  0.00  0.00     0.006 A 
ATOM      3  C4  UNL d   1       0.860  -1.775   0.327  0.00  0.00     0.002 A 
ATOM      4  C5  UNL d   1       1.887  -0.928   0.755  0.00  0.00    -0.080 A 
ATOM      5  C6  UNL d   1       3.249  -1.466   1.078  0.00  0.00     0.076 C 
ATOM      6  C7  UNL d   1       1.629   0.441   0.884  0.00  0.00     0.002 A 
ATOM      7  C8  UNL d   1       0.357   0.951   0.613  0.00  0.00     0.006 A 
ENDROOT
BRANCH   1   8
ATOM      8  C1  UNL d   1      -2.064   0.643  -0.026  0.00  0.00     0.054 C 
ATOM      9  C   UNL d   1      -3.031   0.156   1.043  0.00  0.00     0.018 C 
ENDBRANCH   1   8
TORSDOF 1
ENDMDL
