MODEL 1
REMARK minimizedAffinity -3.98167205
REMARK minimizedRMSD -1
REMARK  0 active torsions:
REMARK  status: ('A' for Active; 'I' for Inactive)
ROOT
ATOM      1  N1  IND d   1      -1.751   0.271   2.571  0.00  0.00    -0.196 N 
ATOM      2  C2  IND d   1      -0.733   0.450   3.466  0.00  0.00     0.054 A 
ATOM      3  C3  IND d   1       0.450   0.110   2.907  0.00  0.00    -0.031 A 
ATOM      4  C4  IND d   1       0.962  -0.668   0.507  0.00  0.00     0.051 A 
ATOM      5  C5  IND d   1       0.352  -1.017  -0.665  0.00  0.00    -0.031 A 
ATOM      6  C6  IND d   1      -1.017  -0.951  -0.822  0.00  0.00     0.015 A 
ATOM      7  C7  IND d   1      -1.830  -0.520   0.187  0.00  0.00    -0.016 A 
ATOM      8  C8  IND d   1      -1.215  -0.172   1.381  0.00  0.00    -0.047 A 
ATOM      9  C9  IND d   1       0.170  -0.277   1.561  0.00  0.00    -0.096 A 
ATOM     10  HN1 IND d   1      -2.585   0.411   2.725  0.00  0.00     0.298 HD
ENDROOT
TORSDOF 0
ENDMDL
