MODEL 1
REMARK minimizedAffinity -3.04318285
REMARK minimizedRMSD -1
REMARK  0 active torsions:
REMARK  status: ('A' for Active; 'I' for Inactive)
ROOT
ATOM      1  N1  IND d   1       0.161   0.510   2.688  0.00  0.00    -0.196 N 
ATOM      2  C2  IND d   1      -1.130   0.825   3.007  0.00  0.00     0.054 A 
ATOM      3  C3  IND d   1      -1.928   0.691   1.924  0.00  0.00    -0.031 A 
ATOM      4  C4  IND d   1      -1.346  -0.128  -0.446  0.00  0.00     0.051 A 
ATOM      5  C5  IND d   1      -0.288  -0.496  -1.229  0.00  0.00    -0.031 A 
ATOM      6  C6  IND d   1       0.999  -0.551  -0.736  0.00  0.00     0.015 A 
ATOM      7  C7  IND d   1       1.276  -0.250   0.568  0.00  0.00    -0.016 A 
ATOM      8  C8  IND d   1       0.206   0.131   1.364  0.00  0.00    -0.047 A 
ATOM      9  C9  IND d   1      -1.097   0.230   0.858  0.00  0.00    -0.096 A 
ATOM     10  HN1 IND d   1       0.833   0.544   3.223  0.00  0.00     0.298 HD
ENDROOT
TORSDOF 0
ENDMDL
