MODEL 1
REMARK minimizedAffinity -3.85950327
REMARK minimizedRMSD -1
REMARK  0 active torsions:
REMARK  status: ('A' for Active; 'I' for Inactive)
ROOT
ATOM      1  N1  IND d   1      -0.978   0.345  -0.295  0.00  0.00    -0.196 N 
ATOM      2  C2  IND d   1      -2.208   0.827   0.059  0.00  0.00     0.054 A 
ATOM      3  C3  IND d   1      -2.261   1.045   1.392  0.00  0.00    -0.031 A 
ATOM      4  C4  IND d   1      -0.417   0.778   3.169  0.00  0.00     0.051 A 
ATOM      5  C5  IND d   1       0.865   0.332   3.332  0.00  0.00    -0.031 A 
ATOM      6  C6  IND d   1       1.613  -0.139   2.273  0.00  0.00     0.015 A 
ATOM      7  C7  IND d   1       1.110  -0.171   1.003  0.00  0.00    -0.016 A 
ATOM      8  C8  IND d   1      -0.193   0.274   0.835  0.00  0.00    -0.047 A 
ATOM      9  C9  IND d   1      -0.973   0.713   1.913  0.00  0.00    -0.096 A 
ATOM     10  HN1 IND d   1      -0.736   0.124  -1.090  0.00  0.00     0.298 HD
ENDROOT
TORSDOF 0
ENDMDL
