MODEL 1
REMARK minimizedAffinity 5.37061405
REMARK minimizedRMSD -1
REMARK  0 active torsions:
REMARK  status: ('A' for Active; 'I' for Inactive)
ROOT
ATOM      1  N1  IND d   1       1.901   1.974  -4.274  0.00  0.00    -0.196 N 
ATOM      2  C2  IND d   1       0.806   1.354  -4.807  0.00  0.00     0.054 A 
ATOM      3  C3  IND d   1       0.035   0.835  -3.825  0.00  0.00    -0.031 A 
ATOM      4  C4  IND d   1       0.326   0.974  -1.271  0.00  0.00     0.051 A 
ATOM      5  C5  IND d   1       1.194   1.407  -0.308  0.00  0.00    -0.031 A 
ATOM      6  C6  IND d   1       2.364   2.067  -0.624  0.00  0.00     0.015 A 
ATOM      7  C7  IND d   1       2.706   2.330  -1.920  0.00  0.00    -0.016 A 
ATOM      8  C8  IND d   1       1.831   1.885  -2.901  0.00  0.00    -0.047 A 
ATOM      9  C9  IND d   1       0.663   1.178  -2.588  0.00  0.00    -0.096 A 
ATOM     10  HN1 IND d   1       2.529   2.356  -4.721  0.00  0.00     0.298 HD
ENDROOT
TORSDOF 0
ENDMDL
