MODEL 1
REMARK minimizedAffinity -5.70642233
REMARK minimizedRMSD -1
REMARK  0 active torsions:
REMARK  status: ('A' for Active; 'I' for Inactive)
ROOT
ATOM      1  N1  IND d   1       1.397  -0.900   0.134  0.00  0.00    -0.196 N 
ATOM      2  C2  IND d   1       0.463  -0.824  -0.862  0.00  0.00     0.054 A 
ATOM      3  C3  IND d   1      -0.624  -0.143  -0.436  0.00  0.00    -0.031 A 
ATOM      4  C4  IND d   1      -1.045   1.022   1.821  0.00  0.00     0.051 A 
ATOM      5  C5  IND d   1      -0.498   1.197   3.061  0.00  0.00    -0.031 A 
ATOM      6  C6  IND d   1       0.735   0.674   3.395  0.00  0.00     0.015 A 
ATOM      7  C7  IND d   1       1.475  -0.037   2.493  0.00  0.00    -0.016 A 
ATOM      8  C8  IND d   1       0.919  -0.223   1.235  0.00  0.00    -0.047 A 
ATOM      9  C9  IND d   1      -0.350   0.269   0.904  0.00  0.00    -0.096 A 
ATOM     10  HN1 IND d   1       2.155  -1.303   0.082  0.00  0.00     0.298 HD
ENDROOT
TORSDOF 0
ENDMDL
