MODEL 1
REMARK minimizedAffinity -4.0775671
REMARK minimizedRMSD -1
REMARK  0 active torsions:
REMARK  status: ('A' for Active; 'I' for Inactive)
ROOT
ATOM      1  N1  IND d   1       0.911  -0.878  -0.393  0.00  0.00    -0.196 N 
ATOM      2  C2  IND d   1      -0.245  -0.634  -1.080  0.00  0.00     0.054 A 
ATOM      3  C3  IND d   1      -1.203  -0.178  -0.241  0.00  0.00    -0.031 A 
ATOM      4  C4  IND d   1      -1.060   0.339   2.277  0.00  0.00     0.051 A 
ATOM      5  C5  IND d   1      -0.220   0.241   3.351  0.00  0.00    -0.031 A 
ATOM      6  C6  IND d   1       1.067  -0.242   3.229  0.00  0.00     0.015 A 
ATOM      7  C7  IND d   1       1.568  -0.636   2.020  0.00  0.00    -0.016 A 
ATOM      8  C8  IND d   1       0.715  -0.545   0.929  0.00  0.00    -0.047 A 
ATOM      9  C9  IND d   1      -0.606  -0.096   1.054  0.00  0.00    -0.096 A 
ATOM     10  HN1 IND d   1       1.639  -1.188  -0.731  0.00  0.00     0.298 HD
ENDROOT
TORSDOF 0
ENDMDL
