MODEL 1
REMARK minimizedAffinity -5.81780529
REMARK minimizedRMSD -1
REMARK  0 active torsions:
REMARK  status: ('A' for Active; 'I' for Inactive)
ROOT
ATOM      1  N1  IND d   1       1.018  -0.703   0.316  0.00  0.00    -0.196 N 
ATOM      2  C2  IND d   1       0.058  -0.262  -0.553  0.00  0.00     0.054 A 
ATOM      3  C3  IND d   1      -0.828   0.532   0.089  0.00  0.00    -0.031 A 
ATOM      4  C4  IND d   1      -0.840   1.324   2.538  0.00  0.00     0.051 A 
ATOM      5  C5  IND d   1      -0.188   1.157   3.728  0.00  0.00    -0.031 A 
ATOM      6  C6  IND d   1       0.923   0.347   3.842  0.00  0.00     0.015 A 
ATOM      7  C7  IND d   1       1.433  -0.320   2.764  0.00  0.00    -0.016 A 
ATOM      8  C8  IND d   1       0.769  -0.158   1.557  0.00  0.00    -0.047 A 
ATOM      9  C9  IND d   1      -0.384   0.629   1.443  0.00  0.00    -0.096 A 
ATOM     10  HN1 IND d   1       1.667  -1.232   0.120  0.00  0.00     0.298 HD
ENDROOT
TORSDOF 0
ENDMDL
