MODEL 1
REMARK minimizedAffinity -2.21667552
REMARK minimizedRMSD -1
REMARK  0 active torsions:
REMARK  status: ('A' for Active; 'I' for Inactive)
ROOT
ATOM      1  N1  IND d   1      -2.311  -0.104   1.635  0.00  0.00    -0.196 N 
ATOM      2  C2  IND d   1      -2.244  -0.442   0.312  0.00  0.00     0.054 A 
ATOM      3  C3  IND d   1      -0.994  -0.244  -0.161  0.00  0.00    -0.031 A 
ATOM      4  C4  IND d   1       1.123   0.529   1.084  0.00  0.00     0.051 A 
ATOM      5  C5  IND d   1       1.551   0.990   2.297  0.00  0.00    -0.031 A 
ATOM      6  C6  IND d   1       0.697   1.109   3.375  0.00  0.00     0.015 A 
ATOM      7  C7  IND d   1      -0.620   0.759   3.281  0.00  0.00    -0.016 A 
ATOM      8  C8  IND d   1      -1.060   0.298   2.049  0.00  0.00    -0.047 A 
ATOM      9  C9  IND d   1      -0.208   0.216   0.940  0.00  0.00    -0.096 A 
ATOM     10  HN1 IND d   1      -3.016  -0.138   2.127  0.00  0.00     0.298 HD
ENDROOT
TORSDOF 0
ENDMDL
