MODEL 1
REMARK minimizedAffinity 0.158353254
REMARK minimizedRMSD -1
REMARK  1 active torsions:
REMARK  status: ('A' for Active; 'I' for Inactive)
REMARK    1  A    between atoms: C1_2  and  C2_3 
ROOT
ATOM      1  C2  UNL d   1       4.493  -5.898  -4.022  0.00  0.00    -0.081 A 
ATOM      2  C3  UNL d   1       3.421  -5.880  -4.923  0.00  0.00     0.006 A 
ATOM      3  C4  UNL d   1       2.109  -5.747  -4.461  0.00  0.00     0.002 A 
ATOM      4  C5  UNL d   1       1.848  -5.622  -3.092  0.00  0.00    -0.080 A 
ATOM      5  C6  UNL d   1       0.447  -5.449  -2.585  0.00  0.00     0.076 C 
ATOM      6  C7  UNL d   1       2.918  -5.658  -2.191  0.00  0.00     0.002 A 
ATOM      7  C8  UNL d   1       4.229  -5.791  -2.652  0.00  0.00     0.006 A 
ENDROOT
BRANCH   1   8
ATOM      8  C1  UNL d   1       5.913  -5.976  -4.522  0.00  0.00     0.054 C 
ATOM      9  C   UNL d   1       6.000  -5.621  -5.999  0.00  0.00     0.018 C 
ENDBRANCH   1   8
TORSDOF 1
ENDMDL
