MODEL 1
REMARK minimizedAffinity 6.42242384
REMARK minimizedRMSD -1
REMARK  1 active torsions:
REMARK  status: ('A' for Active; 'I' for Inactive)
REMARK    1  A    between atoms: C1_2  and  C2_3 
ROOT
ATOM      1  C2  UNL d   1       3.232  -5.853  -2.661  0.00  0.00    -0.081 A 
ATOM      2  C3  UNL d   1       4.613  -5.914  -2.438  0.00  0.00     0.006 A 
ATOM      3  C4  UNL d   1       5.502  -5.973  -3.514  0.00  0.00     0.002 A 
ATOM      4  C5  UNL d   1       5.026  -5.966  -4.830  0.00  0.00    -0.080 A 
ATOM      5  C6  UNL d   1       5.971  -5.999  -5.994  0.00  0.00     0.076 C 
ATOM      6  C7  UNL d   1       3.645  -5.923  -5.052  0.00  0.00     0.002 A 
ATOM      7  C8  UNL d   1       2.756  -5.864  -3.977  0.00  0.00     0.006 A 
ENDROOT
BRANCH   1   8
ATOM      8  C1  UNL d   1       2.274  -5.723  -1.505  0.00  0.00     0.054 C 
ATOM      9  C   UNL d   1       0.908  -5.241  -1.969  0.00  0.00     0.018 C 
ENDBRANCH   1   8
TORSDOF 1
ENDMDL
