MODEL 1
REMARK minimizedAffinity 1.31384575
REMARK minimizedRMSD -1
REMARK  1 active torsions:
REMARK  status: ('A' for Active; 'I' for Inactive)
REMARK    1  A    between atoms: C1_2  and  C2_3 
ROOT
ATOM      1  C2  UNL d   1       2.956  -5.506  -2.632  0.00  0.00    -0.081 A 
ATOM      2  C3  UNL d   1       4.303  -5.827  -2.428  0.00  0.00     0.006 A 
ATOM      3  C4  UNL d   1       5.163  -5.999  -3.516  0.00  0.00     0.002 A 
ATOM      4  C5  UNL d   1       4.691  -5.846  -4.824  0.00  0.00    -0.080 A 
ATOM      5  C6  UNL d   1       5.610  -5.999  -6.000  0.00  0.00     0.076 C 
ATOM      6  C7  UNL d   1       3.341  -5.543  -5.029  0.00  0.00     0.002 A 
ATOM      7  C8  UNL d   1       2.481  -5.371  -3.942  0.00  0.00     0.006 A 
ENDROOT
BRANCH   1   8
ATOM      8  C1  UNL d   1       2.041  -5.256  -1.460  0.00  0.00     0.054 C 
ATOM      9  C   UNL d   1       1.015  -4.178  -1.779  0.00  0.00     0.018 C 
ENDBRANCH   1   8
TORSDOF 1
ENDMDL
