MODEL 1
REMARK minimizedAffinity 0.822257578
REMARK minimizedRMSD -1
REMARK  1 active torsions:
REMARK  status: ('A' for Active; 'I' for Inactive)
REMARK    1  A    between atoms: C1_2  and  C2_3 
ROOT
ATOM      1  C2  UNL d   1       4.289  -5.718  -3.852  0.00  0.00    -0.081 A 
ATOM      2  C3  UNL d   1       3.106  -5.950  -4.564  0.00  0.00     0.006 A 
ATOM      3  C4  UNL d   1       1.867  -5.632  -4.001  0.00  0.00     0.002 A 
ATOM      4  C5  UNL d   1       1.792  -5.071  -2.722  0.00  0.00    -0.080 A 
ATOM      5  C6  UNL d   1       0.470  -4.698  -2.118  0.00  0.00     0.076 C 
ATOM      6  C7  UNL d   1       2.973  -4.856  -2.003  0.00  0.00     0.002 A 
ATOM      7  C8  UNL d   1       4.211  -5.174  -2.565  0.00  0.00     0.006 A 
ENDROOT
BRANCH   1   8
ATOM      8  C1  UNL d   1       5.630  -5.999  -4.481  0.00  0.00     0.054 C 
ATOM      9  C   UNL d   1       5.553  -5.930  -6.000  0.00  0.00     0.018 C 
ENDBRANCH   1   8
TORSDOF 1
ENDMDL
