MODEL 1
REMARK minimizedAffinity -2.79089522
REMARK minimizedRMSD -1
REMARK  1 active torsions:
REMARK  status: ('A' for Active; 'I' for Inactive)
REMARK    1  A    between atoms: C1_2  and  C2_3 
ROOT
ATOM      1  C2  UNL d   1       3.889  -5.707  -4.599  0.00  0.00    -0.081 A 
ATOM      2  C3  UNL d   1       5.273  -5.918  -4.581  0.00  0.00     0.006 A 
ATOM      3  C4  UNL d   1       5.961  -5.999  -3.368  0.00  0.00     0.002 A 
ATOM      4  C5  UNL d   1       5.277  -5.878  -2.154  0.00  0.00    -0.080 A 
ATOM      5  C6  UNL d   1       5.999  -5.993  -0.845  0.00  0.00     0.076 C 
ATOM      6  C7  UNL d   1       3.897  -5.650  -2.172  0.00  0.00     0.002 A 
ATOM      7  C8  UNL d   1       3.208  -5.568  -3.385  0.00  0.00     0.006 A 
ENDROOT
BRANCH   1   8
ATOM      8  C1  UNL d   1       3.134  -5.684  -5.904  0.00  0.00     0.054 C 
ATOM      9  C   UNL d   1       1.652  -5.961  -5.691  0.00  0.00     0.018 C 
ENDBRANCH   1   8
TORSDOF 1
ENDMDL
