MODEL 1
REMARK minimizedAffinity -1.49742353
REMARK minimizedRMSD -1
REMARK  1 active torsions:
REMARK  status: ('A' for Active; 'I' for Inactive)
REMARK    1  A    between atoms: C1_2  and  C2_3 
ROOT
ATOM      1  C2  UNL d   1       4.533  -5.573  -4.039  0.00  0.00    -0.081 A 
ATOM      2  C3  UNL d   1       4.270  -5.864  -2.695  0.00  0.00     0.006 A 
ATOM      3  C4  UNL d   1       2.954  -5.988  -2.242  0.00  0.00     0.002 A 
ATOM      4  C5  UNL d   1       1.881  -5.831  -3.125  0.00  0.00    -0.080 A 
ATOM      5  C6  UNL d   1       0.465  -5.992  -2.658  0.00  0.00     0.076 C 
ATOM      6  C7  UNL d   1       2.143  -5.523  -4.465  0.00  0.00     0.002 A 
ATOM      7  C8  UNL d   1       3.458  -5.399  -4.918  0.00  0.00     0.006 A 
ENDROOT
BRANCH   1   8
ATOM      8  C1  UNL d   1       5.951  -5.503  -4.545  0.00  0.00     0.054 C 
ATOM      9  C   UNL d   1       5.999  -5.046  -5.995  0.00  0.00     0.018 C 
ENDBRANCH   1   8
TORSDOF 1
ENDMDL
