MODEL 1
REMARK minimizedAffinity -1.43778145
REMARK minimizedRMSD -1
REMARK  1 active torsions:
REMARK  status: ('A' for Active; 'I' for Inactive)
REMARK    1  A    between atoms: C1_2  and  C2_3 
ROOT
ATOM      1  C2  UNL d   1       3.094  -5.115  -2.914  0.00  0.00    -0.081 A 
ATOM      2  C3  UNL d   1       2.683  -5.697  -4.119  0.00  0.00     0.006 A 
ATOM      3  C4  UNL d   1       3.612  -5.973  -5.125  0.00  0.00     0.002 A 
ATOM      4  C5  UNL d   1       4.968  -5.680  -4.940  0.00  0.00    -0.080 A 
ATOM      5  C6  UNL d   1       5.980  -5.999  -6.000  0.00  0.00     0.076 C 
ATOM      6  C7  UNL d   1       5.376  -5.083  -3.742  0.00  0.00     0.002 A 
ATOM      7  C8  UNL d   1       4.447  -4.806  -2.736  0.00  0.00     0.006 A 
ENDROOT
BRANCH   1   8
ATOM      8  C1  UNL d   1       2.105  -4.876  -1.802  0.00  0.00     0.054 C 
ATOM      9  C   UNL d   1       0.737  -4.495  -2.350  0.00  0.00     0.018 C 
ENDBRANCH   1   8
TORSDOF 1
ENDMDL
