MODEL 1
REMARK minimizedAffinity -0.711740732
REMARK minimizedRMSD -1
REMARK  1 active torsions:
REMARK  status: ('A' for Active; 'I' for Inactive)
REMARK    1  A    between atoms: C1_2  and  C2_3 
ROOT
ATOM      1  C2  UNL d   1       4.292   2.512   2.305  0.00  0.00    -0.081 A 
ATOM      2  C3  UNL d   1       3.305   1.546   2.537  0.00  0.00     0.006 A 
ATOM      3  C4  UNL d   1       2.034   1.683   1.974  0.00  0.00     0.002 A 
ATOM      4  C5  UNL d   1       1.732   2.783   1.165  0.00  0.00    -0.080 A 
ATOM      5  C6  UNL d   1       0.380   2.927   0.529  0.00  0.00     0.076 C 
ATOM      6  C7  UNL d   1       2.712   3.757   0.947  0.00  0.00     0.002 A 
ATOM      7  C8  UNL d   1       3.983   3.621   1.510  0.00  0.00     0.006 A 
ENDROOT
BRANCH   1   8
ATOM      8  C1  UNL d   1       5.684   2.334   2.858  0.00  0.00     0.054 C 
ATOM      9  C   UNL d   1       5.999   0.865   3.099  0.00  0.00     0.018 C 
ENDBRANCH   1   8
TORSDOF 1
ENDMDL
