MODEL 1
REMARK minimizedAffinity 1.75948513
REMARK minimizedRMSD -1
REMARK  1 active torsions:
REMARK  status: ('A' for Active; 'I' for Inactive)
REMARK    1  A    between atoms: C1_2  and  C2_3 
ROOT
ATOM      1  C2  UNL d   1       4.702  -5.532  -3.299  0.00  0.00    -0.081 A 
ATOM      2  C3  UNL d   1       4.698  -5.812  -4.670  0.00  0.00     0.006 A 
ATOM      3  C4  UNL d   1       3.492  -5.976  -5.356  0.00  0.00     0.002 A 
ATOM      4  C5  UNL d   1       2.271  -5.855  -4.683  0.00  0.00    -0.080 A 
ATOM      5  C6  UNL d   1       0.969  -5.999  -5.413  0.00  0.00     0.076 C 
ATOM      6  C7  UNL d   1       2.276  -5.593  -3.309  0.00  0.00     0.002 A 
ATOM      7  C8  UNL d   1       3.481  -5.430  -2.623  0.00  0.00     0.006 A 
ENDROOT
BRANCH   1   8
ATOM      8  C1  UNL d   1       6.000  -5.291  -2.570  0.00  0.00     0.054 C 
ATOM      9  C   UNL d   1       5.990  -3.948  -1.853  0.00  0.00     0.018 C 
ENDBRANCH   1   8
TORSDOF 1
ENDMDL
