MODEL 1
REMARK minimizedAffinity -1.48125076
REMARK minimizedRMSD -1
REMARK  1 active torsions:
REMARK  status: ('A' for Active; 'I' for Inactive)
REMARK    1  A    between atoms: C1_2  and  C2_3 
ROOT
ATOM      1  C2  UNL d   1       4.617  -5.642  -3.947  0.00  0.00    -0.081 A 
ATOM      2  C3  UNL d   1       4.461  -5.138  -2.649  0.00  0.00     0.006 A 
ATOM      3  C4  UNL d   1       3.187  -4.880  -2.138  0.00  0.00     0.002 A 
ATOM      4  C5  UNL d   1       2.048  -5.130  -2.910  0.00  0.00    -0.080 A 
ATOM      5  C6  UNL d   1       0.673  -4.886  -2.362  0.00  0.00     0.076 C 
ATOM      6  C7  UNL d   1       2.204  -5.617  -4.213  0.00  0.00     0.002 A 
ATOM      7  C8  UNL d   1       3.477  -5.874  -4.725  0.00  0.00     0.006 A 
ENDROOT
BRANCH   1   8
ATOM      8  C1  UNL d   1       5.986  -5.981  -4.478  0.00  0.00     0.054 C 
ATOM      9  C   UNL d   1       6.000  -5.999  -6.000  0.00  0.00     0.018 C 
ENDBRANCH   1   8
TORSDOF 1
ENDMDL
