MODEL 1
REMARK minimizedAffinity 0.662746668
REMARK minimizedRMSD -1
REMARK  0 active torsions:
REMARK  status: ('A' for Active; 'I' for Inactive)
ROOT
ATOM      1  O1  BZF d   1      -1.288   1.419  -0.017  0.00  0.00    -0.204 OA
ATOM      2  C2  BZF d   1      -2.107   1.072   1.040  0.00  0.00     0.174 A 
ATOM      3  C3  BZF d   1      -1.699  -0.084   1.603  0.00  0.00    -0.012 A 
ATOM      4  C3A BZF d   1      -0.498  -0.436   0.909  0.00  0.00    -0.107 A 
ATOM      5  C4  BZF d   1       0.383  -1.473   1.024  0.00  0.00     0.055 A 
ATOM      6  C5  BZF d   1       1.415  -1.564   0.145  0.00  0.00    -0.016 A 
ATOM      7  C6  BZF d   1       1.594  -0.638  -0.863  0.00  0.00     0.022 A 
ATOM      8  C7  BZF d   1       0.749   0.411  -1.013  0.00  0.00     0.029 A 
ATOM      9  C7A BZF d   1      -0.276   0.523  -0.106  0.00  0.00     0.058 A 
ENDROOT
TORSDOF 0
ENDMDL
