MODEL 1
REMARK minimizedAffinity 0.406720757
REMARK minimizedRMSD -1
REMARK  0 active torsions:
REMARK  status: ('A' for Active; 'I' for Inactive)
ROOT
ATOM      1  O1  BZF d   1      -1.289   0.060   3.675  0.00  0.00    -0.204 OA
ATOM      2  C2  BZF d   1      -2.407   0.862   3.797  0.00  0.00     0.174 A 
ATOM      3  C3  BZF d   1      -2.755   1.384   2.603  0.00  0.00    -0.012 A 
ATOM      4  C3A BZF d   1      -1.849   0.802   1.660  0.00  0.00    -0.107 A 
ATOM      5  C4  BZF d   1      -1.701   0.917   0.308  0.00  0.00     0.055 A 
ATOM      6  C5  BZF d   1      -0.671   0.272  -0.301  0.00  0.00    -0.016 A 
ATOM      7  C6  BZF d   1       0.231  -0.491   0.413  0.00  0.00     0.022 A 
ATOM      8  C7  BZF d   1       0.121  -0.638   1.756  0.00  0.00     0.029 A 
ATOM      9  C7A BZF d   1      -0.938  -0.015   2.368  0.00  0.00     0.058 A 
ENDROOT
TORSDOF 0
ENDMDL
