MODEL 1
REMARK minimizedAffinity -3.86066079
REMARK minimizedRMSD -1
REMARK  0 active torsions:
REMARK  status: ('A' for Active; 'I' for Inactive)
ROOT
ATOM      1  O1  BZF d   1       0.342   0.726   1.317  0.00  0.00    -0.204 OA
ATOM      2  C2  BZF d   1      -0.959   0.632   0.863  0.00  0.00     0.174 A 
ATOM      3  C3  BZF d   1      -1.016  -0.084  -0.279  0.00  0.00    -0.012 A 
ATOM      4  C3A BZF d   1       0.322  -0.538  -0.506  0.00  0.00    -0.107 A 
ATOM      5  C4  BZF d   1       0.900  -1.308  -1.474  0.00  0.00     0.055 A 
ATOM      6  C5  BZF d   1       2.245  -1.505  -1.446  0.00  0.00    -0.016 A 
ATOM      7  C6  BZF d   1       3.040  -0.943  -0.468  0.00  0.00     0.022 A 
ATOM      8  C7  BZF d   1       2.511  -0.177   0.516  0.00  0.00     0.029 A 
ATOM      9  C7A BZF d   1       1.148  -0.003   0.509  0.00  0.00     0.058 A 
ENDROOT
TORSDOF 0
ENDMDL
