MODEL 1
REMARK minimizedAffinity -2.27132106
REMARK minimizedRMSD -1
REMARK  0 active torsions:
REMARK  status: ('A' for Active; 'I' for Inactive)
ROOT
ATOM      1  O1  BZF d   1      -0.252  -2.771  -1.114  0.00  0.00    -0.204 OA
ATOM      2  C2  BZF d   1       0.881  -2.509  -1.860  0.00  0.00     0.174 A 
ATOM      3  C3  BZF d   1       1.369  -1.284  -1.575  0.00  0.00    -0.012 A 
ATOM      4  C3A BZF d   1       0.538  -0.783  -0.523  0.00  0.00    -0.107 A 
ATOM      5  C4  BZF d   1       0.530   0.378   0.195  0.00  0.00     0.055 A 
ATOM      6  C5  BZF d   1      -0.461   0.587   1.101  0.00  0.00    -0.016 A 
ATOM      7  C6  BZF d   1      -1.461  -0.340   1.311  0.00  0.00     0.022 A 
ATOM      8  C7  BZF d   1      -1.492  -1.509   0.626  0.00  0.00     0.029 A 
ATOM      9  C7A BZF d   1      -0.474  -1.738  -0.267  0.00  0.00     0.058 A 
ENDROOT
TORSDOF 0
ENDMDL
