MODEL 1
REMARK minimizedAffinity -4.00908947
REMARK minimizedRMSD -1
REMARK  0 active torsions:
REMARK  status: ('A' for Active; 'I' for Inactive)
ROOT
ATOM      1  O1  BZF d   1      -0.536   0.942   0.087  0.00  0.00    -0.204 OA
ATOM      2  C2  BZF d   1      -0.763  -0.198   0.834  0.00  0.00     0.174 A 
ATOM      3  C3  BZF d   1       0.116  -1.167   0.508  0.00  0.00    -0.012 A 
ATOM      4  C3A BZF d   1       1.003  -0.566  -0.440  0.00  0.00    -0.107 A 
ATOM      5  C4  BZF d   1       2.097  -1.020  -1.121  0.00  0.00     0.055 A 
ATOM      6  C5  BZF d   1       2.695  -0.204  -2.029  0.00  0.00    -0.016 A 
ATOM      7  C6  BZF d   1       2.224   1.067  -2.284  0.00  0.00     0.022 A 
ATOM      8  C7  BZF d   1       1.145   1.562  -1.630  0.00  0.00     0.029 A 
ATOM      9  C7A BZF d   1       0.558   0.753  -0.689  0.00  0.00     0.058 A 
ENDROOT
TORSDOF 0
ENDMDL
