MODEL 1
REMARK minimizedAffinity -4.66611862
REMARK minimizedRMSD -1
REMARK  0 active torsions:
REMARK  status: ('A' for Active; 'I' for Inactive)
ROOT
ATOM      1  O1  BZF d   1      -0.482   0.751  -0.093  0.00  0.00    -0.204 OA
ATOM      2  C2  BZF d   1      -1.039  -0.364   0.503  0.00  0.00     0.174 A 
ATOM      3  C3  BZF d   1      -0.280  -1.456   0.278  0.00  0.00    -0.012 A 
ATOM      4  C3A BZF d   1       0.868  -0.977  -0.430  0.00  0.00    -0.107 A 
ATOM      5  C4  BZF d   1       1.990  -1.583  -0.919  0.00  0.00     0.055 A 
ATOM      6  C5  BZF d   1       2.885  -0.844  -1.625  0.00  0.00    -0.016 A 
ATOM      7  C6  BZF d   1       2.688   0.500  -1.865  0.00  0.00     0.022 A 
ATOM      8  C7  BZF d   1       1.593   1.146  -1.396  0.00  0.00     0.029 A 
ATOM      9  C7A BZF d   1       0.703   0.409  -0.654  0.00  0.00     0.058 A 
ENDROOT
TORSDOF 0
ENDMDL
