MODEL 1
REMARK minimizedAffinity -5.6401124
REMARK minimizedRMSD -1
REMARK  0 active torsions:
REMARK  status: ('A' for Active; 'I' for Inactive)
ROOT
ATOM      1  O1  BZF d   1      -2.399   1.314   2.400  0.00  0.00    -0.204 OA
ATOM      2  C2  BZF d   1      -2.189   1.555   3.744  0.00  0.00     0.174 A 
ATOM      3  C3  BZF d   1      -0.988   1.080   4.133  0.00  0.00    -0.012 A 
ATOM      4  C3A BZF d   1      -0.373   0.589   2.938  0.00  0.00    -0.107 A 
ATOM      5  C4  BZF d   1       0.836   0.011   2.674  0.00  0.00     0.055 A 
ATOM      6  C5  BZF d   1       1.100  -0.421   1.412  0.00  0.00    -0.016 A 
ATOM      7  C6  BZF d   1       0.178  -0.296   0.394  0.00  0.00     0.022 A 
ATOM      8  C7  BZF d   1      -1.033   0.276   0.607  0.00  0.00     0.029 A 
ATOM      9  C7A BZF d   1      -1.290   0.743   1.873  0.00  0.00     0.058 A 
ENDROOT
TORSDOF 0
ENDMDL
