MODEL 1
REMARK minimizedAffinity -4.07941866
REMARK minimizedRMSD -1
REMARK  0 active torsions:
REMARK  status: ('A' for Active; 'I' for Inactive)
ROOT
ATOM      1  O1  BZF d   1       0.018   0.731   0.521  0.00  0.00    -0.204 OA
ATOM      2  C2  BZF d   1      -0.839  -0.323   0.773  0.00  0.00     0.174 A 
ATOM      3  C3  BZF d   1      -0.513  -1.395   0.023  0.00  0.00    -0.012 A 
ATOM      4  C3A BZF d   1       0.675  -1.015  -0.679  0.00  0.00    -0.107 A 
ATOM      5  C4  BZF d   1       1.487  -1.660  -1.568  0.00  0.00     0.055 A 
ATOM      6  C5  BZF d   1       2.526  -0.983  -2.125  0.00  0.00    -0.016 A 
ATOM      7  C6  BZF d   1       2.778   0.338  -1.819  0.00  0.00     0.022 A 
ATOM      8  C7  BZF d   1       2.004   1.018  -0.939  0.00  0.00     0.029 A 
ATOM      9  C7A BZF d   1       0.973   0.328  -0.350  0.00  0.00     0.058 A 
ENDROOT
TORSDOF 0
ENDMDL
