MODEL 1
REMARK minimizedAffinity -1.9938066
REMARK minimizedRMSD -1
REMARK  0 active torsions:
REMARK  status: ('A' for Active; 'I' for Inactive)
ROOT
ATOM      1  O1  BZF d   1      -1.664  -0.088  -0.351  0.00  0.00    -0.204 OA
ATOM      2  C2  BZF d   1      -1.783   0.721   0.763  0.00  0.00     0.174 A 
ATOM      3  C3  BZF d   1      -0.670   0.655   1.523  0.00  0.00    -0.012 A 
ATOM      4  C3A BZF d   1       0.234  -0.181   0.794  0.00  0.00    -0.107 A 
ATOM      5  C4  BZF d   1       1.510  -0.610   1.026  0.00  0.00     0.055 A 
ATOM      6  C5  BZF d   1       2.083  -1.478   0.152  0.00  0.00    -0.016 A 
ATOM      7  C6  BZF d   1       1.410  -1.941  -0.960  0.00  0.00     0.022 A 
ATOM      8  C7  BZF d   1       0.145  -1.540  -1.234  0.00  0.00     0.029 A 
ATOM      9  C7A BZF d   1      -0.426  -0.637  -0.371  0.00  0.00     0.058 A 
ENDROOT
TORSDOF 0
ENDMDL
