MODEL 1
REMARK minimizedAffinity -3.86645722
REMARK minimizedRMSD -1
REMARK  0 active torsions:
REMARK  status: ('A' for Active; 'I' for Inactive)
ROOT
ATOM      1  O1  BZF d   1      -0.091   0.389   1.917  0.00  0.00    -0.204 OA
ATOM      2  C2  BZF d   1      -1.329   0.650   1.364  0.00  0.00     0.174 A 
ATOM      3  C3  BZF d   1      -1.364   0.271   0.070  0.00  0.00    -0.012 A 
ATOM      4  C3A BZF d   1      -0.096  -0.344  -0.177  0.00  0.00    -0.107 A 
ATOM      5  C4  BZF d   1       0.465  -0.933  -1.274  0.00  0.00     0.055 A 
ATOM      6  C5  BZF d   1       1.750  -1.369  -1.206  0.00  0.00    -0.016 A 
ATOM      7  C6  BZF d   1       2.504  -1.228  -0.059  0.00  0.00     0.022 A 
ATOM      8  C7  BZF d   1       1.990  -0.655   1.056  0.00  0.00     0.029 A 
ATOM      9  C7A BZF d   1       0.681  -0.243   1.000  0.00  0.00     0.058 A 
ENDROOT
TORSDOF 0
ENDMDL
