MODEL 1
REMARK minimizedAffinity -1.14024377
REMARK minimizedRMSD -1
REMARK  0 active torsions:
REMARK  status: ('A' for Active; 'I' for Inactive)
ROOT
ATOM      1  O1  BZF d   1      -1.141   1.378  -1.134  0.00  0.00    -0.204 OA
ATOM      2  C2  BZF d   1      -1.893   0.793  -0.133  0.00  0.00     0.174 A 
ATOM      3  C3  BZF d   1      -1.321  -0.354   0.287  0.00  0.00    -0.012 A 
ATOM      4  C3A BZF d   1      -0.090  -0.447  -0.436  0.00  0.00    -0.107 A 
ATOM      5  C4  BZF d   1       0.928  -1.358  -0.443  0.00  0.00     0.055 A 
ATOM      6  C5  BZF d   1       1.953  -1.195  -1.320  0.00  0.00    -0.016 A 
ATOM      7  C6  BZF d   1       1.991  -0.137  -2.205  0.00  0.00     0.022 A 
ATOM      8  C7  BZF d   1       1.007   0.794  -2.232  0.00  0.00     0.029 A 
ATOM      9  C7A BZF d   1      -0.015   0.650  -1.325  0.00  0.00     0.058 A 
ENDROOT
TORSDOF 0
ENDMDL
