MODEL 1
REMARK minimizedAffinity -2.56159496
REMARK minimizedRMSD -1
REMARK  0 active torsions:
REMARK  status: ('A' for Active; 'I' for Inactive)
ROOT
ATOM      1  O1  BZF d   1       2.200   0.618  -3.091  0.00  0.00    -0.204 OA
ATOM      2  C2  BZF d   1       2.898  -0.574  -3.080  0.00  0.00     0.174 A 
ATOM      3  C3  BZF d   1       2.380  -1.424  -2.169  0.00  0.00    -0.012 A 
ATOM      4  C3A BZF d   1       1.233  -0.753  -1.638  0.00  0.00    -0.107 A 
ATOM      5  C4  BZF d   1       0.294  -1.093  -0.707  0.00  0.00     0.055 A 
ATOM      6  C5  BZF d   1      -0.655  -0.182  -0.363  0.00  0.00    -0.016 A 
ATOM      7  C6  BZF d   1      -0.691   1.076  -0.926  0.00  0.00     0.022 A 
ATOM      8  C7  BZF d   1       0.216   1.458  -1.858  0.00  0.00     0.029 A 
ATOM      9  C7A BZF d   1       1.156   0.528  -2.232  0.00  0.00     0.058 A 
ENDROOT
TORSDOF 0
ENDMDL
