MODEL 1
REMARK minimizedAffinity -3.89583111
REMARK minimizedRMSD -1
REMARK  0 active torsions:
REMARK  status: ('A' for Active; 'I' for Inactive)
ROOT
ATOM      1  O1  BZF d   1      -0.555  -1.441  -0.456  0.00  0.00    -0.204 OA
ATOM      2  C2  BZF d   1      -1.234  -0.558   0.361  0.00  0.00     0.174 A 
ATOM      3  C3  BZF d   1      -0.383   0.323   0.924  0.00  0.00    -0.012 A 
ATOM      4  C3A BZF d   1       0.896   0.027   0.355  0.00  0.00    -0.107 A 
ATOM      5  C4  BZF d   1       2.140   0.570   0.507  0.00  0.00     0.055 A 
ATOM      6  C5  BZF d   1       3.193   0.001  -0.138  0.00  0.00    -0.016 A 
ATOM      7  C6  BZF d   1       3.038  -1.113  -0.936  0.00  0.00     0.022 A 
ATOM      8  C7  BZF d   1       1.823  -1.684  -1.122  0.00  0.00     0.029 A 
ATOM      9  C7A BZF d   1       0.753  -1.092  -0.498  0.00  0.00     0.058 A 
ENDROOT
TORSDOF 0
ENDMDL
