MODEL 1
REMARK minimizedAffinity -4.55591822
REMARK minimizedRMSD -1
REMARK  0 active torsions:
REMARK  status: ('A' for Active; 'I' for Inactive)
ROOT
ATOM      1  O1  BZF d   1      -0.330   0.954  -0.560  0.00  0.00    -0.204 OA
ATOM      2  C2  BZF d   1      -1.372   0.192  -0.067  0.00  0.00     0.174 A 
ATOM      3  C3  BZF d   1      -0.995  -1.095   0.078  0.00  0.00    -0.012 A 
ATOM      4  C3A BZF d   1       0.394  -1.122  -0.263  0.00  0.00    -0.107 A 
ATOM      5  C4  BZF d   1       1.333  -2.112  -0.298  0.00  0.00     0.055 A 
ATOM      6  C5  BZF d   1       2.583  -1.822  -0.746  0.00  0.00    -0.016 A 
ATOM      7  C6  BZF d   1       2.925  -0.555  -1.172  0.00  0.00     0.022 A 
ATOM      8  C7  BZF d   1       2.029   0.461  -1.152  0.00  0.00     0.029 A 
ATOM      9  C7A BZF d   1       0.775   0.179  -0.668  0.00  0.00     0.058 A 
ENDROOT
TORSDOF 0
ENDMDL
