MODEL 1
REMARK minimizedAffinity -3.31682014
REMARK minimizedRMSD -1
REMARK  0 active torsions:
REMARK  status: ('A' for Active; 'I' for Inactive)
ROOT
ATOM      1  O1  BZF d   1       0.108   0.802   1.589  0.00  0.00    -0.204 OA
ATOM      2  C2  BZF d   1      -1.256   0.588   1.628  0.00  0.00     0.174 A 
ATOM      3  C3  BZF d   1      -1.608  -0.409   0.790  0.00  0.00    -0.012 A 
ATOM      4  C3A BZF d   1      -0.376  -0.906   0.259  0.00  0.00    -0.107 A 
ATOM      5  C4  BZF d   1      -0.067  -1.908  -0.616  0.00  0.00     0.055 A 
ATOM      6  C5  BZF d   1       1.229  -2.089  -0.983  0.00  0.00    -0.016 A 
ATOM      7  C6  BZF d   1       2.239  -1.285  -0.498  0.00  0.00     0.022 A 
ATOM      8  C7  BZF d   1       1.983  -0.282   0.377  0.00  0.00     0.029 A 
ATOM      9  C7A BZF d   1       0.678  -0.117   0.774  0.00  0.00     0.058 A 
ENDROOT
TORSDOF 0
ENDMDL
