MODEL 1
REMARK minimizedAffinity 1.5023247
REMARK minimizedRMSD -1
REMARK  0 active torsions:
REMARK  status: ('A' for Active; 'I' for Inactive)
ROOT
ATOM      1  O1  BZF d   1      -0.420   1.873   3.272  0.00  0.00    -0.204 OA
ATOM      2  C2  BZF d   1      -1.169   1.058   4.099  0.00  0.00     0.174 A 
ATOM      3  C3  BZF d   1      -1.583  -0.042   3.438  0.00  0.00    -0.012 A 
ATOM      4  C3A BZF d   1      -0.984   0.049   2.142  0.00  0.00    -0.107 A 
ATOM      5  C4  BZF d   1      -1.009  -0.754   1.038  0.00  0.00     0.055 A 
ATOM      6  C5  BZF d   1      -0.377  -0.342  -0.092  0.00  0.00    -0.016 A 
ATOM      7  C6  BZF d   1       0.283   0.868  -0.156  0.00  0.00     0.022 A 
ATOM      8  C7  BZF d   1       0.339   1.696   0.916  0.00  0.00     0.029 A 
ATOM      9  C7A BZF d   1      -0.271   1.268   2.070  0.00  0.00     0.058 A 
ENDROOT
TORSDOF 0
ENDMDL
