MODEL 1
REMARK minimizedAffinity -4.30836868
REMARK minimizedRMSD -1
REMARK  0 active torsions:
REMARK  status: ('A' for Active; 'I' for Inactive)
ROOT
ATOM      1  C4' PXY d   1       0.664  -1.672  -0.689  0.00  0.00     0.077 C 
ATOM      2  C1' PXY d   1      -2.342   2.725   1.559  0.00  0.00     0.077 C 
ATOM      3  C1  PXY d   1      -1.551   1.567   0.981  0.00  0.00    -0.082 A 
ATOM      4  C2  PXY d   1      -0.974   1.695  -0.202  0.00  0.00     0.003 A 
ATOM      5  C3  PXY d   1      -0.283   0.647  -0.754  0.00  0.00     0.003 A 
ATOM      6  C4  PXY d   1      -0.136  -0.526  -0.063  0.00  0.00    -0.082 A 
ATOM      7  C5  PXY d   1      -0.713  -0.661   1.150  0.00  0.00     0.003 A 
ATOM      8  C6  PXY d   1      -1.445   0.401   1.674  0.00  0.00     0.003 A 
ENDROOT
TORSDOF 0
ENDMDL
