MODEL 1
REMARK minimizedAffinity -5.28159523
REMARK minimizedRMSD -1
REMARK  0 active torsions:
REMARK  status: ('A' for Active; 'I' for Inactive)
ROOT
ATOM      1  C4' PXY d   1      -0.896  -1.636   2.124  0.00  0.00     0.077 C 
ATOM      2  C1' PXY d   1      -0.755   3.666  -0.173  0.00  0.00     0.077 C 
ATOM      3  C1  PXY d   1      -0.790   2.270   0.417  0.00  0.00    -0.082 A 
ATOM      4  C2  PXY d   1      -1.424   2.059   1.559  0.00  0.00     0.003 A 
ATOM      5  C3  PXY d   1      -1.438   0.810   2.124  0.00  0.00     0.003 A 
ATOM      6  C4  PXY d   1      -0.843  -0.246   1.486  0.00  0.00    -0.082 A 
ATOM      7  C5  PXY d   1      -0.203  -0.040   0.315  0.00  0.00     0.003 A 
ATOM      8  C6  PXY d   1      -0.165   1.244  -0.221  0.00  0.00     0.003 A 
ENDROOT
TORSDOF 0
ENDMDL
