MODEL 1
REMARK minimizedAffinity -2.26106262
REMARK minimizedRMSD -1
REMARK  0 active torsions:
REMARK  status: ('A' for Active; 'I' for Inactive)
ROOT
ATOM      1  C4' PXY d   1       1.606  -1.897  -0.605  0.00  0.00     0.077 C 
ATOM      2  C1' PXY d   1      -1.828   1.903   2.076  0.00  0.00     0.077 C 
ATOM      3  C1  PXY d   1      -0.929   0.912   1.362  0.00  0.00    -0.082 A 
ATOM      4  C2  PXY d   1      -0.730  -0.286   1.886  0.00  0.00     0.003 A 
ATOM      5  C3  PXY d   1       0.104  -1.183   1.269  0.00  0.00     0.003 A 
ATOM      6  C4  PXY d   1       0.700  -0.868   0.077  0.00  0.00    -0.082 A 
ATOM      7  C5  PXY d   1       0.493   0.349  -0.469  0.00  0.00     0.003 A 
ATOM      8  C6  PXY d   1      -0.325   1.260   0.193  0.00  0.00     0.003 A 
ENDROOT
TORSDOF 0
ENDMDL
