MODEL 1
REMARK minimizedAffinity -3.91498518
REMARK minimizedRMSD -1
REMARK  0 active torsions:
REMARK  status: ('A' for Active; 'I' for Inactive)
ROOT
ATOM      1  C4' PXY d   1      -2.851   2.702   1.114  0.00  0.00     0.077 C 
ATOM      2  C1' PXY d   1       1.329  -1.102  -0.101  0.00  0.00     0.077 C 
ATOM      3  C1  PXY d   1       0.228  -0.113   0.227  0.00  0.00    -0.082 A 
ATOM      4  C2  PXY d   1      -0.145   0.775  -0.681  0.00  0.00     0.003 A 
ATOM      5  C3  PXY d   1      -1.117   1.697  -0.390  0.00  0.00     0.003 A 
ATOM      6  C4  PXY d   1      -1.750   1.678   0.824  0.00  0.00    -0.082 A 
ATOM      7  C5  PXY d   1      -1.382   0.768   1.751  0.00  0.00     0.003 A 
ATOM      8  C6  PXY d   1      -0.365  -0.133   1.451  0.00  0.00     0.003 A 
ENDROOT
TORSDOF 0
ENDMDL
