MODEL 1
REMARK minimizedAffinity -4.59523678
REMARK minimizedRMSD -1
REMARK  0 active torsions:
REMARK  status: ('A' for Active; 'I' for Inactive)
ROOT
ATOM      1  C4' PXY d   1       1.404  -1.679  -0.758  0.00  0.00     0.077 C 
ATOM      2  C1' PXY d   1      -2.131   2.359   1.391  0.00  0.00     0.077 C 
ATOM      3  C1  PXY d   1      -1.202   1.295   0.839  0.00  0.00    -0.082 A 
ATOM      4  C2  PXY d   1      -0.591   1.496  -0.317  0.00  0.00     0.003 A 
ATOM      5  C3  PXY d   1       0.228   0.531  -0.846  0.00  0.00     0.003 A 
ATOM      6  C4  PXY d   1       0.465  -0.629  -0.158  0.00  0.00    -0.082 A 
ATOM      7  C5  PXY d   1      -0.146  -0.837   1.027  0.00  0.00     0.003 A 
ATOM      8  C6  PXY d   1      -1.006   0.137   1.527  0.00  0.00     0.003 A 
ENDROOT
TORSDOF 0
ENDMDL
