MODEL 1
REMARK minimizedAffinity -2.94768
REMARK minimizedRMSD -1
REMARK  0 active torsions:
REMARK  status: ('A' for Active; 'I' for Inactive)
ROOT
ATOM      1  C4' PXY d   1       1.268  -2.337  -1.486  0.00  0.00     0.077 C 
ATOM      2  C1' PXY d   1      -1.534   1.647   1.628  0.00  0.00     0.077 C 
ATOM      3  C1  PXY d   1      -0.800   0.609   0.801  0.00  0.00    -0.082 A 
ATOM      4  C2  PXY d   1      -0.795  -0.655   1.192  0.00  0.00     0.003 A 
ATOM      5  C3  PXY d   1      -0.110  -1.600   0.473  0.00  0.00     0.003 A 
ATOM      6  C4  PXY d   1       0.532  -1.258  -0.687  0.00  0.00    -0.082 A 
ATOM      7  C5  PXY d   1       0.523   0.028  -1.098  0.00  0.00     0.003 A 
ATOM      8  C6  PXY d   1      -0.144   0.980  -0.332  0.00  0.00     0.003 A 
ENDROOT
TORSDOF 0
ENDMDL
