MODEL 1
REMARK minimizedAffinity -4.47608423
REMARK minimizedRMSD -1
REMARK  0 active torsions:
REMARK  status: ('A' for Active; 'I' for Inactive)
ROOT
ATOM      1  C4' PXY d   1       1.252  -1.801  -0.708  0.00  0.00     0.077 C 
ATOM      2  C1' PXY d   1      -2.003   2.483   1.407  0.00  0.00     0.077 C 
ATOM      3  C1  PXY d   1      -1.145   1.357   0.864  0.00  0.00    -0.082 A 
ATOM      4  C2  PXY d   1      -0.808   1.350  -0.415  0.00  0.00     0.003 A 
ATOM      5  C3  PXY d   1      -0.059   0.323  -0.930  0.00  0.00     0.003 A 
ATOM      6  C4  PXY d   1       0.394  -0.679  -0.115  0.00  0.00    -0.082 A 
ATOM      7  C5  PXY d   1       0.064  -0.674   1.194  0.00  0.00     0.003 A 
ATOM      8  C6  PXY d   1      -0.732   0.356   1.688  0.00  0.00     0.003 A 
ENDROOT
TORSDOF 0
ENDMDL
