MODEL 1
REMARK minimizedAffinity -2.17956686
REMARK minimizedRMSD -1
REMARK  0 active torsions:
REMARK  status: ('A' for Active; 'I' for Inactive)
ROOT
ATOM      1  C4' PXY d   1      -2.553   2.097   1.259  0.00  0.00     0.077 C 
ATOM      2  C1' PXY d   1       1.561  -1.409  -0.790  0.00  0.00     0.077 C 
ATOM      3  C1  PXY d   1       0.479  -0.498  -0.244  0.00  0.00    -0.082 A 
ATOM      4  C2  PXY d   1      -0.037   0.442  -1.018  0.00  0.00     0.003 A 
ATOM      5  C3  PXY d   1      -0.993   1.295  -0.530  0.00  0.00     0.003 A 
ATOM      6  C4  PXY d   1      -1.465   1.149   0.747  0.00  0.00    -0.082 A 
ATOM      7  C5  PXY d   1      -0.951   0.185   1.540  0.00  0.00     0.003 A 
ATOM      8  C6  PXY d   1       0.048  -0.644   1.039  0.00  0.00     0.003 A 
ENDROOT
TORSDOF 0
ENDMDL
