MODEL 1
REMARK minimizedAffinity -4.05447292
REMARK minimizedRMSD -1
REMARK  0 active torsions:
REMARK  status: ('A' for Active; 'I' for Inactive)
ROOT
ATOM      1  C4' PXY d   1      -2.240   2.239   1.118  0.00  0.00     0.077 C 
ATOM      2  C1' PXY d   1       1.666  -1.485  -0.951  0.00  0.00     0.077 C 
ATOM      3  C1  PXY d   1       0.638  -0.517  -0.400  0.00  0.00    -0.082 A 
ATOM      4  C2  PXY d   1       0.177   0.455  -1.169  0.00  0.00     0.003 A 
ATOM      5  C3  PXY d   1      -0.730   1.358  -0.676  0.00  0.00     0.003 A 
ATOM      6  C4  PXY d   1      -1.209   1.233   0.600  0.00  0.00    -0.082 A 
ATOM      7  C5  PXY d   1      -0.751   0.237   1.388  0.00  0.00     0.003 A 
ATOM      8  C6  PXY d   1       0.200  -0.645   0.882  0.00  0.00     0.003 A 
ENDROOT
TORSDOF 0
ENDMDL
