MODEL 1
REMARK minimizedAffinity -3.57068849
REMARK minimizedRMSD -1
REMARK  0 active torsions:
REMARK  status: ('A' for Active; 'I' for Inactive)
ROOT
ATOM      1  C4' PXY d   1       1.314  -1.818  -0.785  0.00  0.00     0.077 C 
ATOM      2  C1' PXY d   1      -2.166   2.324   1.252  0.00  0.00     0.077 C 
ATOM      3  C1  PXY d   1      -1.256   1.241   0.705  0.00  0.00    -0.082 A 
ATOM      4  C2  PXY d   1      -1.019   0.159   1.429  0.00  0.00     0.003 A 
ATOM      5  C3  PXY d   1      -0.173  -0.814   0.964  0.00  0.00     0.003 A 
ATOM      6  C4  PXY d   1       0.394  -0.704  -0.278  0.00  0.00    -0.082 A 
ATOM      7  C5  PXY d   1       0.148   0.391  -1.027  0.00  0.00     0.003 A 
ATOM      8  C6  PXY d   1      -0.680   1.388  -0.519  0.00  0.00     0.003 A 
ENDROOT
TORSDOF 0
ENDMDL
