MODEL 1
REMARK minimizedAffinity -4.93401432
REMARK minimizedRMSD -1
REMARK  0 active torsions:
REMARK  status: ('A' for Active; 'I' for Inactive)
ROOT
ATOM      1  C4' PXY d   1       1.399  -1.502  -1.677  0.00  0.00     0.077 C 
ATOM      2  C1' PXY d   1      -1.794   1.925   1.711  0.00  0.00     0.077 C 
ATOM      3  C1  PXY d   1      -0.960   1.034   0.812  0.00  0.00    -0.082 A 
ATOM      4  C2  PXY d   1      -0.689  -0.205   1.189  0.00  0.00     0.003 A 
ATOM      5  C3  PXY d   1       0.090  -1.015   0.403  0.00  0.00     0.003 A 
ATOM      6  C4  PXY d   1       0.553  -0.569  -0.806  0.00  0.00    -0.082 A 
ATOM      7  C5  PXY d   1       0.272   0.690  -1.203  0.00  0.00     0.003 A 
ATOM      8  C6  PXY d   1      -0.487   1.509  -0.372  0.00  0.00     0.003 A 
ENDROOT
TORSDOF 0
ENDMDL
