MODEL 1
REMARK minimizedAffinity -5.08659792
REMARK minimizedRMSD -1
REMARK  0 active torsions:
REMARK  status: ('A' for Active; 'I' for Inactive)
ROOT
ATOM      1  C4' PXY d   1       0.866  -1.515  -0.717  0.00  0.00     0.077 C 
ATOM      2  C1' PXY d   1      -1.981   3.060   1.375  0.00  0.00     0.077 C 
ATOM      3  C1  PXY d   1      -1.230   1.858   0.838  0.00  0.00    -0.082 A 
ATOM      4  C2  PXY d   1      -0.874   1.824  -0.436  0.00  0.00     0.003 A 
ATOM      5  C3  PXY d   1      -0.223   0.730  -0.945  0.00  0.00     0.003 A 
ATOM      6  C4  PXY d   1       0.115  -0.317  -0.130  0.00  0.00    -0.082 A 
ATOM      7  C5  PXY d   1      -0.236  -0.285   1.174  0.00  0.00     0.003 A 
ATOM      8  C6  PXY d   1      -0.933   0.816   1.662  0.00  0.00     0.003 A 
ENDROOT
TORSDOF 0
ENDMDL
