MODEL 1
REMARK minimizedAffinity -2.9428606
REMARK minimizedRMSD -1
REMARK  0 active torsions:
REMARK  status: ('A' for Active; 'I' for Inactive)
ROOT
ATOM      1  C4' PXY d   1      -3.056   1.604  -0.668  0.00  0.00     0.077 C 
ATOM      2  C1' PXY d   1       1.281  -0.314   2.637  0.00  0.00     0.077 C 
ATOM      3  C1  PXY d   1       0.151   0.186   1.760  0.00  0.00    -0.082 A 
ATOM      4  C2  PXY d   1      -0.742   1.026   2.259  0.00  0.00     0.003 A 
ATOM      5  C3  PXY d   1      -1.788   1.464   1.489  0.00  0.00     0.003 A 
ATOM      6  C4  PXY d   1      -1.893   1.080   0.179  0.00  0.00    -0.082 A 
ATOM      7  C5  PXY d   1      -0.980   0.232  -0.341  0.00  0.00     0.003 A 
ATOM      8  C6  PXY d   1       0.052  -0.233   0.469  0.00  0.00     0.003 A 
ENDROOT
TORSDOF 0
ENDMDL
