MODEL 1
REMARK minimizedAffinity -4.8284936
REMARK minimizedRMSD -1
REMARK  0 active torsions:
REMARK  status: ('A' for Active; 'I' for Inactive)
ROOT
ATOM      1  C4' PXY d   1      -0.935  -0.909   2.809  0.00  0.00     0.077 C 
ATOM      2  C1' PXY d   1      -0.004   3.362  -0.974  0.00  0.00     0.077 C 
ATOM      3  C1  PXY d   1      -0.245   2.233   0.008  0.00  0.00    -0.082 A 
ATOM      4  C2  PXY d   1      -1.001   2.444   1.074  0.00  0.00     0.003 A 
ATOM      5  C3  PXY d   1      -1.204   1.444   1.990  0.00  0.00     0.003 A 
ATOM      6  C4  PXY d   1      -0.672   0.199   1.785  0.00  0.00    -0.082 A 
ATOM      7  C5  PXY d   1       0.091  -0.028   0.694  0.00  0.00     0.003 A 
ATOM      8  C6  PXY d   1       0.319   1.013  -0.202  0.00  0.00     0.003 A 
ENDROOT
TORSDOF 0
ENDMDL
