MODEL 1
REMARK minimizedAffinity -5.25599241
REMARK minimizedRMSD -1
REMARK  0 active torsions:
REMARK  status: ('A' for Active; 'I' for Inactive)
ROOT
ATOM      1  C4' PXY d   1       0.968  -1.188  -0.744  0.00  0.00     0.077 C 
ATOM      2  C1' PXY d   1      -1.893   3.444   1.199  0.00  0.00     0.077 C 
ATOM      3  C1  PXY d   1      -1.141   2.225   0.702  0.00  0.00    -0.082 A 
ATOM      4  C2  PXY d   1      -0.512   2.274  -0.461  0.00  0.00     0.003 A 
ATOM      5  C3  PXY d   1       0.146   1.171  -0.941  0.00  0.00     0.003 A 
ATOM      6  C4  PXY d   1       0.205   0.022  -0.198  0.00  0.00    -0.082 A 
ATOM      7  C5  PXY d   1      -0.426  -0.032   0.994  0.00  0.00     0.003 A 
ATOM      8  C6  PXY d   1      -1.122   1.086   1.445  0.00  0.00     0.003 A 
ENDROOT
TORSDOF 0
ENDMDL
