MODEL 1
REMARK minimizedAffinity -3.33360791
REMARK minimizedRMSD -1
REMARK  0 active torsions:
REMARK  status: ('A' for Active; 'I' for Inactive)
ROOT
ATOM      1  C4' PXY d   1       0.853  -1.669  -1.203  0.00  0.00     0.077 C 
ATOM      2  C1' PXY d   1      -2.324   2.143   1.761  0.00  0.00     0.077 C 
ATOM      3  C1  PXY d   1      -1.491   1.152   0.974  0.00  0.00    -0.082 A 
ATOM      4  C2  PXY d   1      -1.515  -0.130   1.302  0.00  0.00     0.003 A 
ATOM      5  C3  PXY d   1      -0.743  -1.035   0.621  0.00  0.00     0.003 A 
ATOM      6  C4  PXY d   1       0.021  -0.634  -0.442  0.00  0.00    -0.082 A 
ATOM      7  C5  PXY d   1       0.043   0.670  -0.790  0.00  0.00     0.003 A 
ATOM      8  C6  PXY d   1      -0.716   1.580  -0.060  0.00  0.00     0.003 A 
ENDROOT
TORSDOF 0
ENDMDL
