MODEL 1
REMARK minimizedAffinity -3.88836646
REMARK minimizedRMSD -1
REMARK  0 active torsions:
REMARK  status: ('A' for Active; 'I' for Inactive)
ROOT
ATOM      1  C4' PXY d   1      -1.960   2.208   1.651  0.00  0.00     0.077 C 
ATOM      2  C1' PXY d   1       1.436  -1.721  -0.889  0.00  0.00     0.077 C 
ATOM      3  C1  PXY d   1       0.550  -0.681  -0.230  0.00  0.00    -0.082 A 
ATOM      4  C2  PXY d   1       0.080  -0.899   0.987  0.00  0.00     0.003 A 
ATOM      5  C3  PXY d   1      -0.748   0.016   1.585  0.00  0.00     0.003 A 
ATOM      6  C4  PXY d   1      -1.055   1.190   0.951  0.00  0.00    -0.082 A 
ATOM      7  C5  PXY d   1      -0.570   1.425  -0.287  0.00  0.00     0.003 A 
ATOM      8  C6  PXY d   1       0.236   0.465  -0.893  0.00  0.00     0.003 A 
ENDROOT
TORSDOF 0
ENDMDL
