MODEL 1
REMARK minimizedAffinity -4.02736473
REMARK minimizedRMSD -1
REMARK  0 active torsions:
REMARK  status: ('A' for Active; 'I' for Inactive)
ROOT
ATOM      1  C4' PXY d   1       0.725  -1.671  -1.436  0.00  0.00     0.077 C 
ATOM      2  C1' PXY d   1      -0.936   2.190   2.534  0.00  0.00     0.077 C 
ATOM      3  C1  PXY d   1      -0.494   1.170   1.502  0.00  0.00    -0.082 A 
ATOM      4  C2  PXY d   1      -0.411   1.522   0.229  0.00  0.00     0.003 A 
ATOM      5  C3  PXY d   1      -0.044   0.604  -0.722  0.00  0.00     0.003 A 
ATOM      6  C4  PXY d   1       0.293  -0.672  -0.359  0.00  0.00    -0.082 A 
ATOM      7  C5  PXY d   1       0.221  -1.036   0.940  0.00  0.00     0.003 A 
ATOM      8  C6  PXY d   1      -0.193  -0.101   1.884  0.00  0.00     0.003 A 
ENDROOT
TORSDOF 0
ENDMDL
