MODEL 1
REMARK minimizedAffinity -4.7777338
REMARK minimizedRMSD -1
REMARK  0 active torsions:
REMARK  status: ('A' for Active; 'I' for Inactive)
ROOT
ATOM      1  C4' PXY d   1      -0.516   3.646  -0.927  0.00  0.00     0.077 C 
ATOM      2  C1' PXY d   1      -0.798  -1.126   2.324  0.00  0.00     0.077 C 
ATOM      3  C1  PXY d   1      -0.735   0.130   1.476  0.00  0.00    -0.082 A 
ATOM      4  C2  PXY d   1      -0.023   0.131   0.361  0.00  0.00     0.003 A 
ATOM      5  C3  PXY d   1       0.070   1.268  -0.400  0.00  0.00     0.003 A 
ATOM      6  C4  PXY d   1      -0.616   2.398  -0.045  0.00  0.00    -0.082 A 
ATOM      7  C5  PXY d   1      -1.353   2.401   1.086  0.00  0.00     0.003 A 
ATOM      8  C6  PXY d   1      -1.402   1.250   1.867  0.00  0.00     0.003 A 
ENDROOT
TORSDOF 0
ENDMDL
