MODEL 1
REMARK minimizedAffinity -0.39379546
REMARK minimizedRMSD -1
REMARK  0 active torsions:
REMARK  status: ('A' for Active; 'I' for Inactive)
ROOT
ATOM      1  C   UNL d   1      -6.000   1.832  -4.033  0.00  0.00    -0.002 A 
ATOM      2  C1  UNL d   1      -5.997   0.764  -4.920  0.00  0.00     0.010 A 
ATOM      3  C2  UNL d   1      -5.075  -0.275  -4.777  0.00  0.00     0.041 A 
ATOM      4  C3  UNL d   1      -4.148  -0.223  -3.718  0.00  0.00    -0.075 A 
ATOM      5  S   UNL d   1      -2.928  -1.383  -3.347  0.00  0.00     0.015 SA
ATOM      6  C4  UNL d   1      -2.381  -0.488  -2.003  0.00  0.00     0.022 A 
ATOM      7  C5  UNL d   1      -3.101   0.669  -1.827  0.00  0.00     0.026 A 
ATOM      8  C6  UNL d   1      -4.132   0.841  -2.812  0.00  0.00    -0.082 A 
ATOM      9  C7  UNL d   1      -5.079   1.880  -2.984  0.00  0.00     0.045 A 
ENDROOT
TORSDOF 0
ENDMDL
