MODEL 1
REMARK minimizedAffinity 12.3780432
REMARK minimizedRMSD -1
REMARK  0 active torsions:
REMARK  status: ('A' for Active; 'I' for Inactive)
ROOT
ATOM      1  C   UNL d   1       2.598  -1.679   0.285  0.00  0.00    -0.002 A 
ATOM      2  C1  UNL d   1       2.263  -3.025   0.306  0.00  0.00     0.010 A 
ATOM      3  C2  UNL d   1       1.218  -3.485   1.109  0.00  0.00     0.041 A 
ATOM      4  C3  UNL d   1       0.507  -2.560   1.899  0.00  0.00    -0.075 A 
ATOM      5  S   UNL d   1      -0.810  -2.895   2.959  0.00  0.00     0.015 SA
ATOM      6  C4  UNL d   1      -0.961  -1.258   3.410  0.00  0.00     0.022 A 
ATOM      7  C5  UNL d   1      -0.036  -0.462   2.777  0.00  0.00     0.026 A 
ATOM      8  C6  UNL d   1       0.825  -1.199   1.895  0.00  0.00    -0.082 A 
ATOM      9  C7  UNL d   1       1.890  -0.764   1.070  0.00  0.00     0.045 A 
ENDROOT
TORSDOF 0
ENDMDL
