MODEL 1
REMARK minimizedAffinity 7.45845842
REMARK minimizedRMSD -1
REMARK  0 active torsions:
REMARK  status: ('A' for Active; 'I' for Inactive)
ROOT
ATOM      1  C   UNL d   1      -5.125  -1.051  -3.892  0.00  0.00    -0.002 A 
ATOM      2  C1  UNL d   1      -5.695  -0.224  -4.850  0.00  0.00     0.010 A 
ATOM      3  C2  UNL d   1      -5.330   1.121  -4.935  0.00  0.00     0.041 A 
ATOM      4  C3  UNL d   1      -4.371   1.625  -4.034  0.00  0.00    -0.075 A 
ATOM      5  S   UNL d   1      -3.769   3.239  -3.952  0.00  0.00     0.015 SA
ATOM      6  C4  UNL d   1      -2.740   2.868  -2.645  0.00  0.00     0.022 A 
ATOM      7  C5  UNL d   1      -2.841   1.550  -2.267  0.00  0.00     0.026 A 
ATOM      8  C6  UNL d   1      -3.782   0.812  -3.062  0.00  0.00    -0.082 A 
ATOM      9  C7  UNL d   1      -4.174  -0.547  -3.001  0.00  0.00     0.045 A 
ENDROOT
TORSDOF 0
ENDMDL
