MODEL 1
REMARK minimizedAffinity 9.02927399
REMARK minimizedRMSD -1
REMARK  0 active torsions:
REMARK  status: ('A' for Active; 'I' for Inactive)
ROOT
ATOM      1  C   UNL d   1       3.052  -3.709   1.066  0.00  0.00    -0.002 A 
ATOM      2  C1  UNL d   1       2.301  -4.843   0.791  0.00  0.00     0.010 A 
ATOM      3  C2  UNL d   1       0.930  -4.869   1.054  0.00  0.00     0.041 A 
ATOM      4  C3  UNL d   1       0.320  -3.723   1.601  0.00  0.00    -0.075 A 
ATOM      5  S   UNL d   1      -1.345  -3.524   2.004  0.00  0.00     0.015 SA
ATOM      6  C4  UNL d   1      -1.099  -1.928   2.549  0.00  0.00     0.022 A 
ATOM      7  C5  UNL d   1       0.215  -1.540   2.434  0.00  0.00     0.026 A 
ATOM      8  C6  UNL d   1       1.054  -2.568   1.885  0.00  0.00    -0.082 A 
ATOM      9  C7  UNL d   1       2.443  -2.574   1.608  0.00  0.00     0.045 A 
ENDROOT
TORSDOF 0
ENDMDL
