MODEL 1
REMARK minimizedAffinity 7.31233835
REMARK minimizedRMSD -1
REMARK  0 active torsions:
REMARK  status: ('A' for Active; 'I' for Inactive)
ROOT
ATOM      1  C   UNL d   1      -0.381  -0.587   1.449  0.00  0.00    -0.002 A 
ATOM      2  C1  UNL d   1       0.052  -0.552   2.767  0.00  0.00     0.010 A 
ATOM      3  C2  UNL d   1       1.107  -1.362   3.190  0.00  0.00     0.041 A 
ATOM      4  C3  UNL d   1       1.728  -2.215   2.256  0.00  0.00    -0.075 A 
ATOM      5  S   UNL d   1       3.040  -3.295   2.546  0.00  0.00     0.015 SA
ATOM      6  C4  UNL d   1       3.058  -3.827   0.927  0.00  0.00     0.022 A 
ATOM      7  C5  UNL d   1       2.093  -3.207   0.170  0.00  0.00     0.026 A 
ATOM      8  C6  UNL d   1       1.311  -2.267   0.923  0.00  0.00    -0.082 A 
ATOM      9  C7  UNL d   1       0.238  -1.434   0.525  0.00  0.00     0.045 A 
ENDROOT
TORSDOF 0
ENDMDL
