MODEL 1
REMARK minimizedAffinity 6.2263279
REMARK minimizedRMSD -1
REMARK  0 active torsions:
REMARK  status: ('A' for Active; 'I' for Inactive)
ROOT
ATOM      1  C   UNL d   1       1.930  -2.040   0.386  0.00  0.00    -0.002 A 
ATOM      2  C1  UNL d   1       1.856  -1.361   1.594  0.00  0.00     0.010 A 
ATOM      3  C2  UNL d   1       2.617  -1.776   2.689  0.00  0.00     0.041 A 
ATOM      4  C3  UNL d   1       3.463  -2.893   2.547  0.00  0.00    -0.075 A 
ATOM      5  S   UNL d   1       4.488  -3.581   3.751  0.00  0.00     0.015 SA
ATOM      6  C4  UNL d   1       5.048  -4.791   2.690  0.00  0.00     0.022 A 
ATOM      7  C5  UNL d   1       4.478  -4.688   1.443  0.00  0.00     0.026 A 
ATOM      8  C6  UNL d   1       3.555  -3.592   1.340  0.00  0.00    -0.082 A 
ATOM      9  C7  UNL d   1       2.770  -3.148   0.249  0.00  0.00     0.045 A 
ENDROOT
TORSDOF 0
ENDMDL
