MODEL 1
REMARK minimizedAffinity 13.9389553
REMARK minimizedRMSD -1
REMARK  0 active torsions:
REMARK  status: ('A' for Active; 'I' for Inactive)
ROOT
ATOM      1  C   UNL d   1       0.992  -3.320   0.466  0.00  0.00    -0.002 A 
ATOM      2  C1  UNL d   1       0.783  -2.050   0.984  0.00  0.00     0.010 A 
ATOM      3  C2  UNL d   1       1.831  -1.131   1.056  0.00  0.00     0.041 A 
ATOM      4  C3  UNL d   1       3.105  -1.513   0.592  0.00  0.00    -0.075 A 
ATOM      5  S   UNL d   1       4.537  -0.553   0.579  0.00  0.00     0.015 SA
ATOM      6  C4  UNL d   1       5.461  -1.807  -0.115  0.00  0.00     0.022 A 
ATOM      7  C5  UNL d   1       4.710  -2.937  -0.338  0.00  0.00     0.026 A 
ATOM      8  C6  UNL d   1       3.340  -2.786   0.065  0.00  0.00    -0.082 A 
ATOM      9  C7  UNL d   1       2.257  -3.696   0.007  0.00  0.00     0.045 A 
ENDROOT
TORSDOF 0
ENDMDL
