MODEL 1
REMARK minimizedAffinity 15.2703676
REMARK minimizedRMSD -1
REMARK  0 active torsions:
REMARK  status: ('A' for Active; 'I' for Inactive)
ROOT
ATOM      1  C   UNL d   1       1.115  -1.956  -0.157  0.00  0.00    -0.002 A 
ATOM      2  C1  UNL d   1       2.063  -2.949   0.045  0.00  0.00     0.010 A 
ATOM      3  C2  UNL d   1       2.755  -3.036   1.255  0.00  0.00     0.041 A 
ATOM      4  C3  UNL d   1       2.473  -2.100   2.269  0.00  0.00    -0.075 A 
ATOM      5  S   UNL d   1       3.195  -2.013   3.832  0.00  0.00     0.015 SA
ATOM      6  C4  UNL d   1       2.261  -0.656   4.270  0.00  0.00     0.022 A 
ATOM      7  C5  UNL d   1       1.414  -0.266   3.260  0.00  0.00     0.026 A 
ATOM      8  C6  UNL d   1       1.522  -1.092   2.090  0.00  0.00    -0.082 A 
ATOM      9  C7  UNL d   1       0.838  -1.030   0.852  0.00  0.00     0.045 A 
ENDROOT
TORSDOF 0
ENDMDL
