MODEL 1
REMARK minimizedAffinity -1.56507385
REMARK minimizedRMSD -1
REMARK  0 active torsions:
REMARK  status: ('A' for Active; 'I' for Inactive)
ROOT
ATOM      1  C1  BNZ d   1       3.031   1.267   1.182  0.00  0.00     0.000 A 
ATOM      2  C2  BNZ d   1       3.061   1.942  -0.009  0.00  0.00     0.000 A 
ATOM      3  C3  BNZ d   1       2.751   3.272  -0.067  0.00  0.00     0.000 A 
ATOM      4  C4  BNZ d   1       2.375   3.915   1.057  0.00  0.00     0.000 A 
ATOM      5  C5  BNZ d   1       2.331   3.246   2.263  0.00  0.00     0.000 A 
ATOM      6  C6  BNZ d   1       2.681   1.916   2.325  0.00  0.00     0.000 A 
ENDROOT
TORSDOF 0
ENDMDL
