MODEL 1
REMARK minimizedAffinity -3.27396297
REMARK minimizedRMSD -1
REMARK  0 active torsions:
REMARK  status: ('A' for Active; 'I' for Inactive)
ROOT
ATOM      1  C1  BNZ d   1      -1.630  -0.603  -0.286  0.00  0.00     0.000 A 
ATOM      2  C2  BNZ d   1      -2.677  -1.370  -0.723  0.00  0.00     0.000 A 
ATOM      3  C3  BNZ d   1      -2.962  -2.568  -0.130  0.00  0.00     0.000 A 
ATOM      4  C4  BNZ d   1      -2.176  -3.016   0.870  0.00  0.00     0.000 A 
ATOM      5  C5  BNZ d   1      -1.111  -2.259   1.315  0.00  0.00     0.000 A 
ATOM      6  C6  BNZ d   1      -0.851  -1.036   0.743  0.00  0.00     0.000 A 
ENDROOT
TORSDOF 0
ENDMDL
