MODEL 1
REMARK minimizedAffinity -3.53287196
REMARK minimizedRMSD -1
REMARK  0 active torsions:
REMARK  status: ('A' for Active; 'I' for Inactive)
ROOT
ATOM      1  C1  BNZ d   1      -1.843  -0.432  -1.064  0.00  0.00     0.000 A 
ATOM      2  C2  BNZ d   1      -0.951  -0.465  -0.025  0.00  0.00     0.000 A 
ATOM      3  C3  BNZ d   1       0.034   0.476   0.082  0.00  0.00     0.000 A 
ATOM      4  C4  BNZ d   1       0.151   1.425  -0.869  0.00  0.00     0.000 A 
ATOM      5  C5  BNZ d   1      -0.735   1.467  -1.928  0.00  0.00     0.000 A 
ATOM      6  C6  BNZ d   1      -1.749   0.540  -2.011  0.00  0.00     0.000 A 
ENDROOT
TORSDOF 0
ENDMDL
