MODEL 1
REMARK minimizedAffinity -2.95780277
REMARK minimizedRMSD -1
REMARK  0 active torsions:
REMARK  status: ('A' for Active; 'I' for Inactive)
ROOT
ATOM      1  C1  BNZ d   1       2.496   3.037   1.538  0.00  0.00     0.000 A 
ATOM      2  C2  BNZ d   1       2.850   3.907   0.541  0.00  0.00     0.000 A 
ATOM      3  C3  BNZ d   1       2.613   3.602  -0.770  0.00  0.00     0.000 A 
ATOM      4  C4  BNZ d   1       2.060   2.413  -1.085  0.00  0.00     0.000 A 
ATOM      5  C5  BNZ d   1       1.706   1.522  -0.092  0.00  0.00     0.000 A 
ATOM      6  C6  BNZ d   1       1.910   1.848   1.229  0.00  0.00     0.000 A 
ENDROOT
TORSDOF 0
ENDMDL
