MODEL 1
REMARK minimizedAffinity -3.18219137
REMARK minimizedRMSD -1
REMARK  0 active torsions:
REMARK  status: ('A' for Active; 'I' for Inactive)
ROOT
ATOM      1  C1  BNZ d   1      -0.909  -0.749   0.351  0.00  0.00     0.000 A 
ATOM      2  C2  BNZ d   1       0.172  -0.874   1.183  0.00  0.00     0.000 A 
ATOM      3  C3  BNZ d   1       1.384  -0.343   0.840  0.00  0.00     0.000 A 
ATOM      4  C4  BNZ d   1       1.524   0.277  -0.350  0.00  0.00     0.000 A 
ATOM      5  C5  BNZ d   1       0.446   0.402  -1.204  0.00  0.00     0.000 A 
ATOM      6  C6  BNZ d   1      -0.782  -0.100  -0.838  0.00  0.00     0.000 A 
ENDROOT
TORSDOF 0
ENDMDL
