MODEL 1
REMARK minimizedAffinity -0.253561318
REMARK minimizedRMSD -1
REMARK  0 active torsions:
REMARK  status: ('A' for Active; 'I' for Inactive)
ROOT
ATOM      1  C1  BNZ d   1       0.051   0.375   1.130  0.00  0.00     0.000 A 
ATOM      2  C2  BNZ d   1       1.361   0.759   1.239  0.00  0.00     0.000 A 
ATOM      3  C3  BNZ d   1       2.137   0.924   0.126  0.00  0.00     0.000 A 
ATOM      4  C4  BNZ d   1       1.614   0.666  -1.091  0.00  0.00     0.000 A 
ATOM      5  C5  BNZ d   1       0.298   0.269  -1.216  0.00  0.00     0.000 A 
ATOM      6  C6  BNZ d   1      -0.491   0.142  -0.096  0.00  0.00     0.000 A 
ENDROOT
TORSDOF 0
ENDMDL
