MODEL 1
REMARK minimizedAffinity -4.12950611
REMARK minimizedRMSD -1
REMARK  0 active torsions:
REMARK  status: ('A' for Active; 'I' for Inactive)
ROOT
ATOM      1  C1  BNZ d   1       0.200  -0.145  -0.836  0.00  0.00     0.000 A 
ATOM      2  C2  BNZ d   1      -0.855  -0.190  -1.707  0.00  0.00     0.000 A 
ATOM      3  C3  BNZ d   1      -2.024  -0.809  -1.360  0.00  0.00     0.000 A 
ATOM      4  C4  BNZ d   1      -2.121  -1.415  -0.159  0.00  0.00     0.000 A 
ATOM      5  C5  BNZ d   1      -1.063  -1.386   0.727  0.00  0.00     0.000 A 
ATOM      6  C6  BNZ d   1       0.098  -0.729   0.389  0.00  0.00     0.000 A 
ENDROOT
TORSDOF 0
ENDMDL
