MODEL 1
REMARK minimizedAffinity -3.35743546
REMARK minimizedRMSD -1
REMARK  0 active torsions:
REMARK  status: ('A' for Active; 'I' for Inactive)
ROOT
ATOM      1  C1  BNZ d   1      -1.014   0.042  -2.922  0.00  0.00     0.000 A 
ATOM      2  C2  BNZ d   1      -2.089  -0.793  -2.772  0.00  0.00     0.000 A 
ATOM      3  C3  BNZ d   1      -2.469  -1.229  -1.533  0.00  0.00     0.000 A 
ATOM      4  C4  BNZ d   1      -1.750  -0.864  -0.452  0.00  0.00     0.000 A 
ATOM      5  C5  BNZ d   1      -0.658  -0.030  -0.588  0.00  0.00     0.000 A 
ATOM      6  C6  BNZ d   1      -0.302   0.438  -1.832  0.00  0.00     0.000 A 
ENDROOT
TORSDOF 0
ENDMDL
