MODEL 1
REMARK minimizedAffinity -4.25580454
REMARK minimizedRMSD -1
REMARK  0 active torsions:
REMARK  status: ('A' for Active; 'I' for Inactive)
ROOT
ATOM      1  C1  BNZ d   1      -1.786  -0.111  -1.905  0.00  0.00     0.000 A 
ATOM      2  C2  BNZ d   1      -0.580   0.535  -1.962  0.00  0.00     0.000 A 
ATOM      3  C3  BNZ d   1       0.276   0.515  -0.896  0.00  0.00     0.000 A 
ATOM      4  C4  BNZ d   1      -0.092  -0.115   0.238  0.00  0.00     0.000 A 
ATOM      5  C5  BNZ d   1      -1.309  -0.763   0.314  0.00  0.00     0.000 A 
ATOM      6  C6  BNZ d   1      -2.151  -0.774  -0.774  0.00  0.00     0.000 A 
ENDROOT
TORSDOF 0
ENDMDL
