MODEL 1
REMARK minimizedAffinity -4.12790108
REMARK minimizedRMSD -1
REMARK  0 active torsions:
REMARK  status: ('A' for Active; 'I' for Inactive)
ROOT
ATOM      1  C1  BNZ d   1      -1.202   0.820  -1.713  0.00  0.00     0.000 A 
ATOM      2  C2  BNZ d   1      -2.359   0.155  -2.020  0.00  0.00     0.000 A 
ATOM      3  C3  BNZ d   1      -2.767  -0.918  -1.277  0.00  0.00     0.000 A 
ATOM      4  C4  BNZ d   1      -1.999  -1.348  -0.256  0.00  0.00     0.000 A 
ATOM      5  C5  BNZ d   1      -0.825  -0.694   0.060  0.00  0.00     0.000 A 
ATOM      6  C6  BNZ d   1      -0.437   0.409  -0.665  0.00  0.00     0.000 A 
ENDROOT
TORSDOF 0
ENDMDL
