MODEL 1
REMARK minimizedAffinity -3.25306511
REMARK minimizedRMSD -1
REMARK  0 active torsions:
REMARK  status: ('A' for Active; 'I' for Inactive)
ROOT
ATOM      1  C1  BNZ d   1      -5.485   4.945   1.858  0.00  0.00     0.000 A 
ATOM      2  C2  BNZ d   1      -5.949   5.988   2.614  0.00  0.00     0.000 A 
ATOM      3  C3  BNZ d   1      -5.780   5.999   3.970  0.00  0.00     0.000 A 
ATOM      4  C4  BNZ d   1      -5.184   4.950   4.573  0.00  0.00     0.000 A 
ATOM      5  C5  BNZ d   1      -4.718   3.887   3.825  0.00  0.00     0.000 A 
ATOM      6  C6  BNZ d   1      -4.855   3.897   2.456  0.00  0.00     0.000 A 
ENDROOT
TORSDOF 0
ENDMDL
