MODEL 1
REMARK minimizedAffinity -2.34387183
REMARK minimizedRMSD -1
REMARK  0 active torsions:
REMARK  status: ('A' for Active; 'I' for Inactive)
ROOT
ATOM      1  C1  BNZ d   1      -0.360   0.410  -0.846  0.00  0.00     0.000 A 
ATOM      2  C2  BNZ d   1      -1.214   0.488  -1.914  0.00  0.00     0.000 A 
ATOM      3  C3  BNZ d   1      -2.247  -0.398  -2.050  0.00  0.00     0.000 A 
ATOM      4  C4  BNZ d   1      -2.399  -1.383  -1.142  0.00  0.00     0.000 A 
ATOM      5  C5  BNZ d   1      -1.541  -1.481  -0.065  0.00  0.00     0.000 A 
ATOM      6  C6  BNZ d   1      -0.527  -0.564   0.090  0.00  0.00     0.000 A 
ENDROOT
TORSDOF 0
ENDMDL
