MODEL 1
REMARK minimizedAffinity -3.25071454
REMARK minimizedRMSD -1
REMARK  0 active torsions:
REMARK  status: ('A' for Active; 'I' for Inactive)
ROOT
ATOM      1  C1  BNZ d   1       1.916   3.058   0.098  0.00  0.00     0.000 A 
ATOM      2  C2  BNZ d   1       1.720   1.845  -0.509  0.00  0.00     0.000 A 
ATOM      3  C3  BNZ d   1       1.561   0.709   0.234  0.00  0.00     0.000 A 
ATOM      4  C4  BNZ d   1       1.637   0.779   1.578  0.00  0.00     0.000 A 
ATOM      5  C5  BNZ d   1       1.844   1.992   2.204  0.00  0.00     0.000 A 
ATOM      6  C6  BNZ d   1       1.964   3.140   1.455  0.00  0.00     0.000 A 
ENDROOT
TORSDOF 0
ENDMDL
