MODEL 1
REMARK minimizedAffinity -4.4965415
REMARK minimizedRMSD -1
REMARK  0 active torsions:
REMARK  status: ('A' for Active; 'I' for Inactive)
ROOT
ATOM      1  C1  BNZ d   1      -0.576  -0.625  -0.166  0.00  0.00     0.000 A 
ATOM      2  C2  BNZ d   1      -0.514  -1.571   0.822  0.00  0.00     0.000 A 
ATOM      3  C3  BNZ d   1      -1.430  -2.585   0.880  0.00  0.00     0.000 A 
ATOM      4  C4  BNZ d   1      -2.429  -2.627  -0.025  0.00  0.00     0.000 A 
ATOM      5  C5  BNZ d   1      -2.511  -1.675  -1.022  0.00  0.00     0.000 A 
ATOM      6  C6  BNZ d   1      -1.564  -0.679  -1.100  0.00  0.00     0.000 A 
ENDROOT
TORSDOF 0
ENDMDL
