MODEL 1
REMARK minimizedAffinity -0.319640815
REMARK minimizedRMSD -1
REMARK  0 active torsions:
REMARK  status: ('A' for Active; 'I' for Inactive)
ROOT
ATOM      1  C4' PXY d   1       0.160   1.431   3.844  0.00  0.00     0.077 C 
ATOM      2  C1' PXY d   1       0.063   4.448  -1.086  0.00  0.00     0.077 C 
ATOM      3  C1  PXY d   1       0.100   3.653   0.204  0.00  0.00    -0.082 A 
ATOM      4  C2  PXY d   1      -1.033   3.264   0.766  0.00  0.00     0.003 A 
ATOM      5  C3  PXY d   1      -1.018   2.572   1.950  0.00  0.00     0.003 A 
ATOM      6  C4  PXY d   1       0.170   2.228   2.536  0.00  0.00    -0.082 A 
ATOM      7  C5  PXY d   1       1.331   2.612   1.964  0.00  0.00     0.003 A 
ATOM      8  C6  PXY d   1       1.293   3.349   0.784  0.00  0.00     0.003 A 
ENDROOT
TORSDOF 0
ENDMDL
