MODEL 1
REMARK minimizedAffinity 8.87913799
REMARK minimizedRMSD -1
REMARK  0 active torsions:
REMARK  status: ('A' for Active; 'I' for Inactive)
ROOT
ATOM      1  C4' PXY d   1       0.422   3.936   1.296  0.00  0.00     0.077 C 
ATOM      2  C1' PXY d   1       0.523  -1.033   4.249  0.00  0.00     0.077 C 
ATOM      3  C1  PXY d   1       0.508   0.274   3.480  0.00  0.00    -0.082 A 
ATOM      4  C2  PXY d   1      -0.642   0.767   3.051  0.00  0.00     0.003 A 
ATOM      5  C3  PXY d   1      -0.671   1.930   2.326  0.00  0.00     0.003 A 
ATOM      6  C4  PXY d   1       0.484   2.625   2.085  0.00  0.00    -0.082 A 
ATOM      7  C5  PXY d   1       1.661   2.134   2.529  0.00  0.00     0.003 A 
ATOM      8  C6  PXY d   1       1.673   0.930   3.227  0.00  0.00     0.003 A 
ENDROOT
TORSDOF 0
ENDMDL
