MODEL 1
REMARK minimizedAffinity 7.34930706
REMARK minimizedRMSD -1
REMARK  0 active torsions:
REMARK  status: ('A' for Active; 'I' for Inactive)
ROOT
ATOM      1  C4' PXY d   1       1.508  -1.077  -1.811  0.00  0.00     0.077 C 
ATOM      2  C1' PXY d   1       5.377  -4.746   0.420  0.00  0.00     0.077 C 
ATOM      3  C1  PXY d   1       4.370  -3.774  -0.161  0.00  0.00    -0.082 A 
ATOM      4  C2  PXY d   1       3.113  -4.155  -0.327  0.00  0.00     0.003 A 
ATOM      5  C3  PXY d   1       2.197  -3.299  -0.881  0.00  0.00     0.003 A 
ATOM      6  C4  PXY d   1       2.557  -2.022  -1.219  0.00  0.00    -0.082 A 
ATOM      7  C5  PXY d   1       3.834  -1.622  -1.043  0.00  0.00     0.003 A 
ATOM      8  C6  PXY d   1       4.759  -2.520  -0.517  0.00  0.00     0.003 A 
ENDROOT
TORSDOF 0
ENDMDL
