MODEL 1
REMARK minimizedAffinity 5.53900242
REMARK minimizedRMSD -1
REMARK  0 active torsions:
REMARK  status: ('A' for Active; 'I' for Inactive)
ROOT
ATOM      1  C4' PXY d   1      -0.357   3.624  -0.303  0.00  0.00     0.077 C 
ATOM      2  C1' PXY d   1       0.222   0.144   4.277  0.00  0.00     0.077 C 
ATOM      3  C1  PXY d   1       0.081   1.063   3.079  0.00  0.00    -0.082 A 
ATOM      4  C2  PXY d   1      -1.112   1.258   2.541  0.00  0.00     0.003 A 
ATOM      5  C3  PXY d   1      -1.253   2.060   1.438  0.00  0.00     0.003 A 
ATOM      6  C4  PXY d   1      -0.169   2.712   0.913  0.00  0.00    -0.082 A 
ATOM      7  C5  PXY d   1       1.050   2.527   1.463  0.00  0.00     0.003 A 
ATOM      8  C6  PXY d   1       1.178   1.676   2.557  0.00  0.00     0.003 A 
ENDROOT
TORSDOF 0
ENDMDL
