MODEL 1
REMARK minimizedAffinity 13.2368736
REMARK minimizedRMSD -1
REMARK  0 active torsions:
REMARK  status: ('A' for Active; 'I' for Inactive)
ROOT
ATOM      1  C4' PXY d   1       0.184   2.269   2.664  0.00  0.00     0.077 C 
ATOM      2  C1' PXY d   1      -0.442   4.886  -2.452  0.00  0.00     0.077 C 
ATOM      3  C1  PXY d   1      -0.288   4.192  -1.113  0.00  0.00    -0.082 A 
ATOM      4  C2  PXY d   1       0.277   4.834  -0.104  0.00  0.00     0.003 A 
ATOM      5  C3  PXY d   1       0.453   4.210   1.104  0.00  0.00     0.003 A 
ATOM      6  C4  PXY d   1      -0.001   2.933   1.297  0.00  0.00    -0.082 A 
ATOM      7  C5  PXY d   1      -0.588   2.275   0.276  0.00  0.00     0.003 A 
ATOM      8  C6  PXY d   1      -0.721   2.911  -0.955  0.00  0.00     0.003 A 
ENDROOT
TORSDOF 0
ENDMDL
