MODEL 1
REMARK minimizedAffinity 11.2017813
REMARK minimizedRMSD -1
REMARK  0 active torsions:
REMARK  status: ('A' for Active; 'I' for Inactive)
ROOT
ATOM      1  C4' PXY d   1      -0.320   4.210  -2.166  0.00  0.00     0.077 C 
ATOM      2  C1' PXY d   1      -0.428   1.999   3.174  0.00  0.00     0.077 C 
ATOM      3  C1  PXY d   1      -0.398   2.567   1.768  0.00  0.00    -0.082 A 
ATOM      4  C2  PXY d   1      -0.006   3.816   1.575  0.00  0.00     0.003 A 
ATOM      5  C3  PXY d   1      -0.004   4.355   0.315  0.00  0.00     0.003 A 
ATOM      6  C4  PXY d   1      -0.357   3.592  -0.766  0.00  0.00    -0.082 A 
ATOM      7  C5  PXY d   1      -0.748   2.314  -0.579  0.00  0.00     0.003 A 
ATOM      8  C6  PXY d   1      -0.783   1.798   0.714  0.00  0.00     0.003 A 
ENDROOT
TORSDOF 0
ENDMDL
