MODEL 1
REMARK minimizedAffinity -1.06433499
REMARK minimizedRMSD -1
REMARK  1 active torsions:
REMARK  status: ('A' for Active; 'I' for Inactive)
REMARK    1  A    between atoms: C1_2  and  C2_3 
ROOT
ATOM      1  C2  UNL d   1      -1.457  -0.217   2.352  0.00  0.00    -0.073 A 
ATOM      2  C3  UNL d   1      -2.776  -0.080   1.903  0.00  0.00    -0.002 A 
ATOM      3  C4  UNL d   1      -3.037   0.231   0.568  0.00  0.00     0.004 A 
ATOM      4  C5  UNL d   1      -1.985   0.402  -0.332  0.00  0.00    -0.004 A 
ATOM      5  C6  UNL d   1      -0.661   0.257   0.095  0.00  0.00    -0.075 A 
ATOM      6  C7  UNL d   1       0.482   0.439  -0.860  0.00  0.00     0.076 C 
ATOM      7  C8  UNL d   1      -0.407  -0.053   1.438  0.00  0.00     0.001 A 
ENDROOT
BRANCH   1   8
ATOM      8  C1  UNL d   1      -1.171  -0.559   3.791  0.00  0.00     0.053 C 
ATOM      9  C   UNL d   1      -2.438  -0.608   4.629  0.00  0.00     0.018 C 
ENDBRANCH   1   8
TORSDOF 1
ENDMDL
