MODEL 1
REMARK minimizedAffinity 1.55608582
REMARK minimizedRMSD -1
REMARK  1 active torsions:
REMARK  status: ('A' for Active; 'I' for Inactive)
REMARK    1  A    between atoms: C1_2  and  C2_3 
ROOT
ATOM      1  C2  UNL d   1      -1.634  -0.073   1.472  0.00  0.00    -0.073 A 
ATOM      2  C3  UNL d   1      -2.206  -0.994   2.357  0.00  0.00    -0.002 A 
ATOM      3  C4  UNL d   1      -1.424  -1.614   3.332  0.00  0.00     0.004 A 
ATOM      4  C5  UNL d   1      -0.066  -1.315   3.438  0.00  0.00    -0.004 A 
ATOM      5  C6  UNL d   1       0.522  -0.388   2.571  0.00  0.00    -0.075 A 
ATOM      6  C7  UNL d   1       1.982  -0.056   2.671  0.00  0.00     0.076 C 
ATOM      7  C8  UNL d   1      -0.270   0.229   1.593  0.00  0.00     0.001 A 
ENDROOT
BRANCH   1   8
ATOM      8  C1  UNL d   1      -2.476   0.604   0.422  0.00  0.00     0.053 C 
ATOM      9  C   UNL d   1      -1.723   0.776  -0.888  0.00  0.00     0.018 C 
ENDBRANCH   1   8
TORSDOF 1
ENDMDL
