MODEL 1
REMARK minimizedAffinity 1.64459515
REMARK minimizedRMSD -1
REMARK  1 active torsions:
REMARK  status: ('A' for Active; 'I' for Inactive)
REMARK    1  A    between atoms: C1_2  and  C2_3 
ROOT
ATOM      1  C2  UNL d   1      -1.613   0.052   1.129  0.00  0.00    -0.073 A 
ATOM      2  C3  UNL d   1      -2.027  -1.112   1.786  0.00  0.00    -0.002 A 
ATOM      3  C4  UNL d   1      -1.632  -1.359   3.101  0.00  0.00     0.004 A 
ATOM      4  C5  UNL d   1      -0.826  -0.442   3.775  0.00  0.00    -0.004 A 
ATOM      5  C6  UNL d   1      -0.411   0.733   3.140  0.00  0.00    -0.075 A 
ATOM      6  C7  UNL d   1       0.458   1.728   3.851  0.00  0.00     0.076 C 
ATOM      7  C8  UNL d   1      -0.809   0.972   1.818  0.00  0.00     0.001 A 
ENDROOT
BRANCH   1   8
ATOM      8  C1  UNL d   1      -2.042   0.325  -0.289  0.00  0.00     0.053 C 
ATOM      9  C   UNL d   1      -0.870   0.725  -1.172  0.00  0.00     0.018 C 
ENDBRANCH   1   8
TORSDOF 1
ENDMDL
