MODEL 1
REMARK minimizedAffinity 9.26477623
REMARK minimizedRMSD -1
REMARK  1 active torsions:
REMARK  status: ('A' for Active; 'I' for Inactive)
REMARK    1  A    between atoms: C1_2  and  C2_3 
ROOT
ATOM      1  C2  UNL d   1      -0.353   0.419   0.885  0.00  0.00    -0.073 A 
ATOM      2  C3  UNL d   1      -0.856  -0.007   2.120  0.00  0.00    -0.002 A 
ATOM      3  C4  UNL d   1       0.013  -0.411   3.133  0.00  0.00     0.004 A 
ATOM      4  C5  UNL d   1       1.393  -0.387   2.926  0.00  0.00    -0.004 A 
ATOM      5  C6  UNL d   1       1.915   0.046   1.704  0.00  0.00    -0.075 A 
ATOM      6  C7  UNL d   1       3.396   0.076   1.464  0.00  0.00     0.076 C 
ATOM      7  C8  UNL d   1       1.035   0.448   0.689  0.00  0.00     0.001 A 
ENDROOT
BRANCH   1   8
ATOM      8  C1  UNL d   1      -1.288   0.863  -0.211  0.00  0.00     0.053 C 
ATOM      9  C   UNL d   1      -2.661   0.223  -0.082  0.00  0.00     0.018 C 
ENDBRANCH   1   8
TORSDOF 1
ENDMDL
