MODEL 1
REMARK minimizedAffinity 6.74970865
REMARK minimizedRMSD -1
REMARK  1 active torsions:
REMARK  status: ('A' for Active; 'I' for Inactive)
REMARK    1  A    between atoms: C1_2  and  C2_3 
ROOT
ATOM      1  C2  UNL d   1      -0.367   0.067   2.693  0.00  0.00    -0.073 A 
ATOM      2  C3  UNL d   1      -0.898  -1.133   3.179  0.00  0.00    -0.002 A 
ATOM      3  C4  UNL d   1      -1.874  -1.818   2.453  0.00  0.00     0.004 A 
ATOM      4  C5  UNL d   1      -2.323  -1.315   1.232  0.00  0.00    -0.004 A 
ATOM      5  C6  UNL d   1      -1.796  -0.124   0.724  0.00  0.00    -0.075 A 
ATOM      6  C7  UNL d   1      -2.269   0.432  -0.587  0.00  0.00     0.076 C 
ATOM      7  C8  UNL d   1      -0.818   0.560   1.460  0.00  0.00     0.001 A 
ENDROOT
BRANCH   1   8
ATOM      8  C1  UNL d   1       0.690   0.806   3.470  0.00  0.00     0.053 C 
ATOM      9  C   UNL d   1       2.071   0.637   2.857  0.00  0.00     0.018 C 
ENDBRANCH   1   8
TORSDOF 1
ENDMDL
