MODEL 1
REMARK minimizedAffinity 9.40958595
REMARK minimizedRMSD -1
REMARK  1 active torsions:
REMARK  status: ('A' for Active; 'I' for Inactive)
REMARK    1  A    between atoms: C1_2  and  C2_3 
ROOT
ATOM      1  C2  UNL d   1       1.910  -0.150   2.850  0.00  0.00    -0.073 A 
ATOM      2  C3  UNL d   1       1.591   1.131   2.386  0.00  0.00    -0.002 A 
ATOM      3  C4  UNL d   1       0.262   1.557   2.351  0.00  0.00     0.004 A 
ATOM      4  C5  UNL d   1      -0.758   0.711   2.785  0.00  0.00    -0.004 A 
ATOM      5  C6  UNL d   1      -0.458  -0.568   3.263  0.00  0.00    -0.075 A 
ATOM      6  C7  UNL d   1      -1.544  -1.491   3.732  0.00  0.00     0.076 C 
ATOM      7  C8  UNL d   1       0.878  -0.990   3.293  0.00  0.00     0.001 A 
ENDROOT
BRANCH   1   8
ATOM      8  C1  UNL d   1       3.344  -0.612   2.896  0.00  0.00     0.053 C 
ATOM      9  C   UNL d   1       4.159  -0.056   1.740  0.00  0.00     0.018 C 
ENDBRANCH   1   8
TORSDOF 1
ENDMDL
