MODEL 1
REMARK minimizedAffinity 2.96670341
REMARK minimizedRMSD -1
REMARK  1 active torsions:
REMARK  status: ('A' for Active; 'I' for Inactive)
REMARK    1  A    between atoms: C1_2  and  C2_3 
ROOT
ATOM      1  C2  UNL d   1      -1.454   1.286   3.992  0.00  0.00    -0.073 A 
ATOM      2  C3  UNL d   1      -0.351   0.573   3.507  0.00  0.00    -0.002 A 
ATOM      3  C4  UNL d   1      -0.280  -0.812   3.670  0.00  0.00     0.004 A 
ATOM      4  C5  UNL d   1      -1.311  -1.497   4.313  0.00  0.00    -0.004 A 
ATOM      5  C6  UNL d   1      -2.426  -0.803   4.794  0.00  0.00    -0.075 A 
ATOM      6  C7  UNL d   1      -3.543  -1.525   5.489  0.00  0.00     0.076 C 
ATOM      7  C8  UNL d   1      -2.489   0.587   4.628  0.00  0.00     0.001 A 
ENDROOT
BRANCH   1   8
ATOM      8  C1  UNL d   1      -1.538   2.779   3.812  0.00  0.00     0.053 C 
ATOM      9  C   UNL d   1      -2.916   3.318   4.161  0.00  0.00     0.018 C 
ENDBRANCH   1   8
TORSDOF 1
ENDMDL
