MODEL 1
REMARK minimizedAffinity 2.66187358
REMARK minimizedRMSD -1
REMARK  1 active torsions:
REMARK  status: ('A' for Active; 'I' for Inactive)
REMARK    1  A    between atoms: C1_2  and  C2_3 
ROOT
ATOM      1  C2  UNL d   1      -1.980  -0.452   1.661  0.00  0.00    -0.073 A 
ATOM      2  C3  UNL d   1      -3.163   0.148   1.215  0.00  0.00    -0.002 A 
ATOM      3  C4  UNL d   1      -3.519   0.088  -0.133  0.00  0.00     0.004 A 
ATOM      4  C5  UNL d   1      -2.700  -0.577  -1.046  0.00  0.00    -0.004 A 
ATOM      5  C6  UNL d   1      -1.520  -1.193  -0.617  0.00  0.00    -0.075 A 
ATOM      6  C7  UNL d   1      -0.627  -1.910  -1.587  0.00  0.00     0.076 C 
ATOM      7  C8  UNL d   1      -1.168  -1.126   0.738  0.00  0.00     0.001 A 
ENDROOT
BRANCH   1   8
ATOM      8  C1  UNL d   1      -1.596  -0.396   3.117  0.00  0.00     0.053 C 
ATOM      9  C   UNL d   1      -0.105  -0.162   3.304  0.00  0.00     0.018 C 
ENDBRANCH   1   8
TORSDOF 1
ENDMDL
