MODEL 1
REMARK minimizedAffinity -0.885252535
REMARK minimizedRMSD -1
REMARK  1 active torsions:
REMARK  status: ('A' for Active; 'I' for Inactive)
REMARK    1  A    between atoms: C1_2  and  C2_3 
ROOT
ATOM      1  C2  UNL d   1       3.124   3.369  -2.503  0.00  0.00    -0.073 A 
ATOM      2  C3  UNL d   1       2.254   4.351  -2.992  0.00  0.00    -0.002 A 
ATOM      3  C4  UNL d   1       2.598   5.101  -4.117  0.00  0.00     0.004 A 
ATOM      4  C5  UNL d   1       3.810   4.874  -4.768  0.00  0.00    -0.004 A 
ATOM      5  C6  UNL d   1       4.688   3.889  -4.303  0.00  0.00    -0.075 A 
ATOM      6  C7  UNL d   1       5.996   3.634  -4.991  0.00  0.00     0.076 C 
ATOM      7  C8  UNL d   1       4.336   3.142  -3.170  0.00  0.00     0.001 A 
ENDROOT
BRANCH   1   8
ATOM      8  C1  UNL d   1       2.754   2.552  -1.293  0.00  0.00     0.053 C 
ATOM      9  C   UNL d   1       2.019   3.380  -0.250  0.00  0.00     0.018 C 
ENDBRANCH   1   8
TORSDOF 1
ENDMDL
