MODEL 1
REMARK minimizedAffinity 7.33313179
REMARK minimizedRMSD -1
REMARK  1 active torsions:
REMARK  status: ('A' for Active; 'I' for Inactive)
REMARK    1  A    between atoms: C1_2  and  C2_3 
ROOT
ATOM      1  C2  UNL d   1      -0.374  -1.711   3.000  0.00  0.00    -0.073 A 
ATOM      2  C3  UNL d   1       0.297  -0.559   3.425  0.00  0.00    -0.002 A 
ATOM      3  C4  UNL d   1      -0.157   0.703   3.040  0.00  0.00     0.004 A 
ATOM      4  C5  UNL d   1      -1.289   0.827   2.234  0.00  0.00    -0.004 A 
ATOM      5  C6  UNL d   1      -1.979  -0.312   1.809  0.00  0.00    -0.075 A 
ATOM      6  C7  UNL d   1      -3.197  -0.197   0.939  0.00  0.00     0.076 C 
ATOM      7  C8  UNL d   1      -1.516  -1.577   2.197  0.00  0.00     0.001 A 
ENDROOT
BRANCH   1   8
ATOM      8  C1  UNL d   1       0.109  -3.076   3.418  0.00  0.00     0.053 C 
ATOM      9  C   UNL d   1       0.498  -3.933   2.224  0.00  0.00     0.018 C 
ENDBRANCH   1   8
TORSDOF 1
ENDMDL
