MODEL 1
REMARK minimizedAffinity 8.48483086
REMARK minimizedRMSD -1
REMARK  1 active torsions:
REMARK  status: ('A' for Active; 'I' for Inactive)
REMARK    1  A    between atoms: C1_2  and  C2_3 
ROOT
ATOM      1  C2  UNL d   1      -1.550  -0.192   1.375  0.00  0.00    -0.073 A 
ATOM      2  C3  UNL d   1      -0.270   0.297   1.659  0.00  0.00    -0.002 A 
ATOM      3  C4  UNL d   1       0.237   0.233   2.958  0.00  0.00     0.004 A 
ATOM      4  C5  UNL d   1      -0.526  -0.325   3.983  0.00  0.00    -0.004 A 
ATOM      5  C6  UNL d   1      -1.803  -0.830   3.717  0.00  0.00    -0.075 A 
ATOM      6  C7  UNL d   1      -2.637  -1.433   4.809  0.00  0.00     0.076 C 
ATOM      7  C8  UNL d   1      -2.306  -0.760   2.411  0.00  0.00     0.001 A 
ENDROOT
BRANCH   1   8
ATOM      8  C1  UNL d   1      -2.099  -0.131  -0.026  0.00  0.00     0.053 C 
ATOM      9  C   UNL d   1      -1.045   0.302  -1.033  0.00  0.00     0.018 C 
ENDBRANCH   1   8
TORSDOF 1
ENDMDL
