MODEL 1
REMARK minimizedAffinity 6.56564188
REMARK minimizedRMSD -1
REMARK  1 active torsions:
REMARK  status: ('A' for Active; 'I' for Inactive)
REMARK    1  A    between atoms: C1_2  and  C2_3 
ROOT
ATOM      1  C2  UNL d   1       0.944  -0.193   0.722  0.00  0.00    -0.073 A 
ATOM      2  C3  UNL d   1       1.469  -0.030   2.009  0.00  0.00    -0.002 A 
ATOM      3  C4  UNL d   1       0.692   0.533   3.022  0.00  0.00     0.004 A 
ATOM      4  C5  UNL d   1      -0.618   0.933   2.761  0.00  0.00    -0.004 A 
ATOM      5  C6  UNL d   1      -1.165   0.768   1.484  0.00  0.00    -0.075 A 
ATOM      6  C7  UNL d   1      -2.573   1.195   1.187  0.00  0.00     0.076 C 
ATOM      7  C8  UNL d   1      -0.377   0.204   0.472  0.00  0.00     0.001 A 
ENDROOT
BRANCH   1   8
ATOM      8  C1  UNL d   1       1.778  -0.807  -0.373  0.00  0.00     0.053 C 
ATOM      9  C   UNL d   1       1.867  -2.319  -0.241  0.00  0.00     0.018 C 
ENDBRANCH   1   8
TORSDOF 1
ENDMDL
