MODEL 1
REMARK minimizedAffinity 10.5901947
REMARK minimizedRMSD -1
REMARK  1 active torsions:
REMARK  status: ('A' for Active; 'I' for Inactive)
REMARK    1  A    between atoms: C1_2  and  C2_3 
ROOT
ATOM      1  C2  UNL d   1      -0.206   1.543   2.014  0.00  0.00    -0.073 A 
ATOM      2  C3  UNL d   1       0.121   1.619   3.372  0.00  0.00    -0.002 A 
ATOM      3  C4  UNL d   1       1.388   2.049   3.770  0.00  0.00     0.004 A 
ATOM      4  C5  UNL d   1       2.337   2.412   2.815  0.00  0.00    -0.004 A 
ATOM      5  C6  UNL d   1       2.026   2.354   1.452  0.00  0.00    -0.075 A 
ATOM      6  C7  UNL d   1       3.036   2.740   0.412  0.00  0.00     0.076 C 
ATOM      7  C8  UNL d   1       0.752   1.919   1.061  0.00  0.00     0.001 A 
ENDROOT
BRANCH   1   8
ATOM      8  C1  UNL d   1      -1.575   1.086   1.580  0.00  0.00     0.053 C 
ATOM      9  C   UNL d   1      -2.130   0.005   2.494  0.00  0.00     0.018 C 
ENDBRANCH   1   8
TORSDOF 1
ENDMDL
