MODEL 1
REMARK minimizedAffinity 10.2176189
REMARK minimizedRMSD -1
REMARK  1 active torsions:
REMARK  status: ('A' for Active; 'I' for Inactive)
REMARK    1  A    between atoms: C1_2  and  C2_3 
ROOT
ATOM      1  C2  UNL d   1      -0.837   0.177   2.090  0.00  0.00    -0.081 A 
ATOM      2  C3  UNL d   1      -0.973   0.339   3.474  0.00  0.00     0.006 A 
ATOM      3  C4  UNL d   1      -2.095  -0.162   4.139  0.00  0.00     0.002 A 
ATOM      4  C5  UNL d   1      -3.095  -0.839   3.432  0.00  0.00    -0.080 A 
ATOM      5  C6  UNL d   1      -4.290  -1.409   4.138  0.00  0.00     0.076 C 
ATOM      6  C7  UNL d   1      -2.967  -0.986   2.047  0.00  0.00     0.002 A 
ATOM      7  C8  UNL d   1      -1.846  -0.485   1.382  0.00  0.00     0.006 A 
ENDROOT
BRANCH   1   8
ATOM      8  C1  UNL d   1       0.402   0.659   1.380  0.00  0.00     0.054 C 
ATOM      9  C   UNL d   1       1.645  -0.055   1.890  0.00  0.00     0.018 C 
ENDBRANCH   1   8
TORSDOF 1
ENDMDL
