MODEL 1
REMARK minimizedAffinity 5.44196892
REMARK minimizedRMSD -1
REMARK  1 active torsions:
REMARK  status: ('A' for Active; 'I' for Inactive)
REMARK    1  A    between atoms: C1_2  and  C2_3 
ROOT
ATOM      1  C2  UNL d   1       1.987   0.538  -4.226  0.00  0.00    -0.081 A 
ATOM      2  C3  UNL d   1       3.316   0.155  -4.438  0.00  0.00     0.006 A 
ATOM      3  C4  UNL d   1       4.149  -0.143  -3.356  0.00  0.00     0.002 A 
ATOM      4  C5  UNL d   1       3.663  -0.071  -2.046  0.00  0.00    -0.080 A 
ATOM      5  C6  UNL d   1       4.538  -0.418  -0.878  0.00  0.00     0.076 C 
ATOM      6  C7  UNL d   1       2.340   0.329  -1.833  0.00  0.00     0.002 A 
ATOM      7  C8  UNL d   1       1.507   0.628  -2.914  0.00  0.00     0.006 A 
ENDROOT
BRANCH   1   8
ATOM      8  C1  UNL d   1       1.068   0.798  -5.392  0.00  0.00     0.054 C 
ATOM      9  C   UNL d   1      -0.141  -0.126  -5.361  0.00  0.00     0.018 C 
ENDBRANCH   1   8
TORSDOF 1
ENDMDL
