MODEL 1
REMARK minimizedAffinity 8.31467819
REMARK minimizedRMSD -1
REMARK  1 active torsions:
REMARK  status: ('A' for Active; 'I' for Inactive)
REMARK    1  A    between atoms: C1_2  and  C2_3 
ROOT
ATOM      1  C2  UNL d   1       0.202  -1.557  -2.119  0.00  0.00    -0.081 A 
ATOM      2  C3  UNL d   1       0.088  -2.594  -1.185  0.00  0.00     0.006 A 
ATOM      3  C4  UNL d   1       0.807  -2.551   0.012  0.00  0.00     0.002 A 
ATOM      4  C5  UNL d   1       1.645  -1.468   0.299  0.00  0.00    -0.080 A 
ATOM      5  C6  UNL d   1       2.399  -1.395   1.593  0.00  0.00     0.076 C 
ATOM      6  C7  UNL d   1       1.772  -0.440  -0.642  0.00  0.00     0.002 A 
ATOM      7  C8  UNL d   1       1.055  -0.483  -1.839  0.00  0.00     0.006 A 
ENDROOT
BRANCH   1   8
ATOM      8  C1  UNL d   1      -0.621  -1.569  -3.381  0.00  0.00     0.054 C 
ATOM      9  C   UNL d   1       0.037  -0.743  -4.478  0.00  0.00     0.018 C 
ENDBRANCH   1   8
TORSDOF 1
ENDMDL
