MODEL 1
REMARK minimizedAffinity 2.4383688
REMARK minimizedRMSD -1
REMARK  1 active torsions:
REMARK  status: ('A' for Active; 'I' for Inactive)
REMARK    1  A    between atoms: C1_2  and  C2_3 
ROOT
ATOM      1  C2  UNL d   1       1.399  -0.682  -1.592  0.00  0.00    -0.081 A 
ATOM      2  C3  UNL d   1       2.433   0.251  -1.744  0.00  0.00     0.006 A 
ATOM      3  C4  UNL d   1       2.555   0.987  -2.925  0.00  0.00     0.002 A 
ATOM      4  C5  UNL d   1       1.643   0.809  -3.970  0.00  0.00    -0.080 A 
ATOM      5  C6  UNL d   1       1.745   1.614  -5.231  0.00  0.00     0.076 C 
ATOM      6  C7  UNL d   1       0.621  -0.136  -3.826  0.00  0.00     0.002 A 
ATOM      7  C8  UNL d   1       0.498  -0.872  -2.646  0.00  0.00     0.006 A 
ENDROOT
BRANCH   1   8
ATOM      8  C1  UNL d   1       1.226  -1.430  -0.295  0.00  0.00     0.054 C 
ATOM      9  C   UNL d   1       2.236  -0.971   0.747  0.00  0.00     0.018 C 
ENDBRANCH   1   8
TORSDOF 1
ENDMDL
