MODEL 1
REMARK minimizedAffinity 8.08489037
REMARK minimizedRMSD -1
REMARK  3 active torsions:
REMARK  status: ('A' for Active; 'I' for Inactive)
REMARK    1  A    between atoms: C3'_2  and  C2'_3 
REMARK    2  A    between atoms: C2'_3  and  C1'_4 
REMARK    3  A    between atoms: C1'_4  and  C1_5 
ROOT
ATOM      1  C1  N4B d   1       0.503   2.452   1.454  0.00  0.00    -0.075 A 
ATOM      2  C2  N4B d   1       1.728   3.114   1.685  0.00  0.00     0.002 A 
ATOM      3  C3  N4B d   1       2.622   2.606   2.595  0.00  0.00     0.002 A 
ATOM      4  C4  N4B d   1       2.306   1.452   3.296  0.00  0.00    -0.004 A 
ATOM      5  C5  N4B d   1       1.131   0.804   3.049  0.00  0.00     0.002 A 
ATOM      6  C6  N4B d   1       0.225   1.302   2.134  0.00  0.00     0.002 A 
ENDROOT
BRANCH   1   7
ATOM      7  C1' N4B d   1      -0.543   3.017   0.532  0.00  0.00     0.057 C 
BRANCH   7   8
ATOM      8  C2' N4B d   1       0.050   4.192  -0.239  0.00  0.00     0.009 C 
BRANCH   8   9
ATOM      9  C3' N4B d   1      -0.535   4.309  -1.636  0.00  0.00     0.004 C 
ATOM     10  C4' N4B d   1      -0.966   5.707  -1.969  0.00  0.00     0.003 C 
ENDBRANCH   8   9
ENDBRANCH   7   8
ENDBRANCH   1   7
TORSDOF 3
ENDMDL
