MODEL 1
REMARK minimizedAffinity 4.78472281
REMARK minimizedRMSD -1
REMARK  3 active torsions:
REMARK  status: ('A' for Active; 'I' for Inactive)
REMARK    1  A    between atoms: C3'_2  and  C2'_3 
REMARK    2  A    between atoms: C2'_3  and  C1'_4 
REMARK    3  A    between atoms: C1'_4  and  C1_5 
ROOT
ATOM      1  C1  N4B d   1       0.573   1.193  -1.362  0.00  0.00    -0.075 A 
ATOM      2  C2  N4B d   1       0.949   0.401  -0.255  0.00  0.00     0.002 A 
ATOM      3  C3  N4B d   1       1.022   0.960   0.996  0.00  0.00     0.002 A 
ATOM      4  C4  N4B d   1       0.742   2.309   1.162  0.00  0.00    -0.004 A 
ATOM      5  C5  N4B d   1       0.354   3.061   0.092  0.00  0.00     0.002 A 
ATOM      6  C6  N4B d   1       0.273   2.511  -1.171  0.00  0.00     0.002 A 
ENDROOT
BRANCH   1   7
ATOM      7  C1' N4B d   1       0.563   0.646  -2.764  0.00  0.00     0.057 C 
BRANCH   7   8
ATOM      8  C2' N4B d   1      -0.871   0.628  -3.284  0.00  0.00     0.009 C 
BRANCH   8   9
ATOM      9  C3' N4B d   1      -1.040  -0.328  -4.453  0.00  0.00     0.004 C 
ATOM     10  C4' N4B d   1      -2.378  -1.004  -4.462  0.00  0.00     0.003 C 
ENDBRANCH   8   9
ENDBRANCH   7   8
ENDBRANCH   1   7
TORSDOF 3
ENDMDL
