MODEL 1
REMARK minimizedAffinity 15.3745861
REMARK minimizedRMSD -1
REMARK  3 active torsions:
REMARK  status: ('A' for Active; 'I' for Inactive)
REMARK    1  A    between atoms: C3'_2  and  C2'_3 
REMARK    2  A    between atoms: C2'_3  and  C1'_4 
REMARK    3  A    between atoms: C1'_4  and  C1_5 
ROOT
ATOM      1  C1  N4B d   1      -0.115   3.406  -0.723  0.00  0.00    -0.075 A 
ATOM      2  C2  N4B d   1       0.413   2.583   0.296  0.00  0.00     0.002 A 
ATOM      3  C3  N4B d   1      -0.389   2.172   1.332  0.00  0.00     0.002 A 
ATOM      4  C4  N4B d   1      -1.711   2.585   1.381  0.00  0.00    -0.004 A 
ATOM      5  C5  N4B d   1      -2.221   3.359   0.380  0.00  0.00     0.002 A 
ATOM      6  C6  N4B d   1      -1.428   3.777  -0.669  0.00  0.00     0.002 A 
ENDROOT
BRANCH   1   7
ATOM      7  C1' N4B d   1       0.745   3.951  -1.830  0.00  0.00     0.057 C 
BRANCH   7   8
ATOM      8  C2' N4B d   1       0.595   5.468  -1.880  0.00  0.00     0.009 C 
BRANCH   8   9
ATOM      9  C3' N4B d   1       0.131   5.949  -3.245  0.00  0.00     0.004 C 
ATOM     10  C4' N4B d   1       1.240   5.991  -4.253  0.00  0.00     0.003 C 
ENDBRANCH   8   9
ENDBRANCH   7   8
ENDBRANCH   1   7
TORSDOF 3
ENDMDL
