MODEL 1
REMARK minimizedAffinity 5.97997904
REMARK minimizedRMSD -1
REMARK  3 active torsions:
REMARK  status: ('A' for Active; 'I' for Inactive)
REMARK    1  A    between atoms: C3'_2  and  C2'_3 
REMARK    2  A    between atoms: C2'_3  and  C1'_4 
REMARK    3  A    between atoms: C1'_4  and  C1_5 
ROOT
ATOM      1  C1  N4B d   1      -4.345   3.452  -3.689  0.00  0.00    -0.075 A 
ATOM      2  C2  N4B d   1      -3.852   4.775  -3.675  0.00  0.00     0.002 A 
ATOM      3  C3  N4B d   1      -4.445   5.737  -4.456  0.00  0.00     0.002 A 
ATOM      4  C4  N4B d   1      -5.514   5.396  -5.271  0.00  0.00    -0.004 A 
ATOM      5  C5  N4B d   1      -6.000   4.121  -5.260  0.00  0.00     0.002 A 
ATOM      6  C6  N4B d   1      -5.417   3.145  -4.477  0.00  0.00     0.002 A 
ENDROOT
BRANCH   1   7
ATOM      7  C1' N4B d   1      -3.676   2.347  -2.918  0.00  0.00     0.057 C 
BRANCH   7   8
ATOM      8  C2' N4B d   1      -4.674   1.215  -2.698  0.00  0.00     0.009 C 
BRANCH   8   9
ATOM      9  C3' N4B d   1      -4.084  -0.140  -3.050  0.00  0.00     0.004 C 
ATOM     10  C4' N4B d   1      -2.631  -0.063  -3.415  0.00  0.00     0.003 C 
ENDBRANCH   8   9
ENDBRANCH   7   8
ENDBRANCH   1   7
TORSDOF 3
ENDMDL
