MODEL 1
REMARK minimizedAffinity -2.99995494
REMARK minimizedRMSD -1
REMARK  0 active torsions:
REMARK  status: ('A' for Active; 'I' for Inactive)
ROOT
ATOM      1  C   UNL d   1      -1.118  -0.445   0.231  0.00  0.00     0.172 C 
ATOM      2  N   UNL d   1      -1.599   0.217   1.420  0.00  0.00    -0.070 N 
ATOM      3  C1  UNL d   1      -2.910   0.494   1.706  0.00  0.00    -0.004 A 
ATOM      4  C2  UNL d   1      -2.951   1.129   2.928  0.00  0.00    -0.047 A 
ATOM      5  C3  UNL d   1      -1.619   1.239   3.393  0.00  0.00    -0.047 A 
ATOM      6  C4  UNL d   1      -0.803   0.666   2.440  0.00  0.00    -0.004 A 
ENDROOT
TORSDOF 0
ENDMDL
