MODEL 1
REMARK minimizedAffinity -3.27164388
REMARK minimizedRMSD -1
REMARK  0 active torsions:
REMARK  status: ('A' for Active; 'I' for Inactive)
ROOT
ATOM      1  C   UNL d   1      -0.088   1.103   0.286  0.00  0.00     0.172 C 
ATOM      2  N   UNL d   1      -0.940   0.865   1.427  0.00  0.00    -0.070 N 
ATOM      3  C1  UNL d   1      -1.851  -0.151   1.544  0.00  0.00    -0.004 A 
ATOM      4  C2  UNL d   1      -2.458  -0.033   2.776  0.00  0.00    -0.047 A 
ATOM      5  C3  UNL d   1      -1.893   1.093   3.420  0.00  0.00    -0.047 A 
ATOM      6  C4  UNL d   1      -0.956   1.630   2.563  0.00  0.00    -0.004 A 
ENDROOT
TORSDOF 0
ENDMDL
