MODEL 1
REMARK minimizedAffinity -2.02572727
REMARK minimizedRMSD -1
REMARK  0 active torsions:
REMARK  status: ('A' for Active; 'I' for Inactive)
ROOT
ATOM      1  C   UNL d   1       0.779   1.586  -2.285  0.00  0.00     0.172 C 
ATOM      2  N   UNL d   1       0.835   0.345  -1.549  0.00  0.00    -0.070 N 
ATOM      3  C1  UNL d   1       0.044   0.013  -0.483  0.00  0.00    -0.004 A 
ATOM      4  C2  UNL d   1       0.407  -1.250  -0.065  0.00  0.00    -0.047 A 
ATOM      5  C3  UNL d   1       1.453  -1.691  -0.909  0.00  0.00    -0.047 A 
ATOM      6  C4  UNL d   1       1.698  -0.685  -1.819  0.00  0.00    -0.004 A 
ENDROOT
TORSDOF 0
ENDMDL
