MODEL 1
REMARK minimizedAffinity -2.50814199
REMARK minimizedRMSD -1
REMARK  0 active torsions:
REMARK  status: ('A' for Active; 'I' for Inactive)
ROOT
ATOM      1  C   UNL d   1      -0.956   0.248   0.810  0.00  0.00     0.172 C 
ATOM      2  N   UNL d   1       0.071  -0.314  -0.035  0.00  0.00    -0.070 N 
ATOM      3  C1  UNL d   1       0.732   0.348  -1.036  0.00  0.00    -0.004 A 
ATOM      4  C2  UNL d   1       1.630  -0.531  -1.602  0.00  0.00    -0.047 A 
ATOM      5  C3  UNL d   1       1.504  -1.764  -0.919  0.00  0.00    -0.047 A 
ATOM      6  C4  UNL d   1       0.532  -1.602   0.046  0.00  0.00    -0.004 A 
ENDROOT
TORSDOF 0
ENDMDL
