MODEL 1
REMARK minimizedAffinity -2.00946712
REMARK minimizedRMSD -1
REMARK  0 active torsions:
REMARK  status: ('A' for Active; 'I' for Inactive)
ROOT
ATOM      1  C   UNL d   1      -0.965   0.288   0.780  0.00  0.00     0.172 C 
ATOM      2  N   UNL d   1       0.077  -0.366   0.023  0.00  0.00    -0.070 N 
ATOM      3  C1  UNL d   1       0.954   0.253  -0.827  0.00  0.00    -0.004 A 
ATOM      4  C2  UNL d   1       1.787  -0.712  -1.351  0.00  0.00    -0.047 A 
ATOM      5  C3  UNL d   1       1.396  -1.954  -0.796  0.00  0.00    -0.047 A 
ATOM      6  C4  UNL d   1       0.336  -1.711   0.051  0.00  0.00    -0.004 A 
ENDROOT
TORSDOF 0
ENDMDL
