MODEL 1
REMARK minimizedAffinity -3.45193076
REMARK minimizedRMSD -1
REMARK  0 active torsions:
REMARK  status: ('A' for Active; 'I' for Inactive)
ROOT
ATOM      1  C   UNL d   1       2.344  -1.121  -1.182  0.00  0.00     0.172 C 
ATOM      2  N   UNL d   1       1.114  -0.620  -0.615  0.00  0.00    -0.070 N 
ATOM      3  C1  UNL d   1       0.563   0.609  -0.862  0.00  0.00    -0.004 A 
ATOM      4  C2  UNL d   1      -0.603   0.702  -0.134  0.00  0.00    -0.047 A 
ATOM      5  C3  UNL d   1      -0.759  -0.512   0.575  0.00  0.00    -0.047 A 
ATOM      6  C4  UNL d   1       0.319  -1.313   0.259  0.00  0.00    -0.004 A 
ENDROOT
TORSDOF 0
ENDMDL
