MODEL 1
REMARK minimizedAffinity -3.75070882
REMARK minimizedRMSD -1
REMARK  0 active torsions:
REMARK  status: ('A' for Active; 'I' for Inactive)
ROOT
ATOM      1  C   UNL d   1       0.001  -0.509   0.283  0.00  0.00     0.172 C 
ATOM      2  N   UNL d   1       0.967  -0.547  -0.789  0.00  0.00    -0.070 N 
ATOM      3  C1  UNL d   1       1.893  -1.534  -0.994  0.00  0.00    -0.004 A 
ATOM      4  C2  UNL d   1       2.622  -1.203  -2.116  0.00  0.00    -0.047 A 
ATOM      5  C3  UNL d   1       2.116   0.026  -2.602  0.00  0.00    -0.047 A 
ATOM      6  C4  UNL d   1       1.092   0.409  -1.762  0.00  0.00    -0.004 A 
ENDROOT
TORSDOF 0
ENDMDL
