MODEL 1
REMARK minimizedAffinity -1.27485919
REMARK minimizedRMSD -1
REMARK  0 active torsions:
REMARK  status: ('A' for Active; 'I' for Inactive)
ROOT
ATOM      1  C   UNL d   1      -0.683   0.547   1.528  0.00  0.00     0.172 C 
ATOM      2  N   UNL d   1       0.066  -0.243   0.579  0.00  0.00    -0.070 N 
ATOM      3  C1  UNL d   1       0.318   0.100  -0.722  0.00  0.00    -0.004 A 
ATOM      4  C2  UNL d   1       1.061  -0.912  -1.290  0.00  0.00    -0.047 A 
ATOM      5  C3  UNL d   1       1.262  -1.899  -0.295  0.00  0.00    -0.047 A 
ATOM      6  C4  UNL d   1       0.636  -1.458   0.852  0.00  0.00    -0.004 A 
ENDROOT
TORSDOF 0
ENDMDL
