MODEL 1
REMARK minimizedAffinity -3.02072048
REMARK minimizedRMSD -1
REMARK  0 active torsions:
REMARK  status: ('A' for Active; 'I' for Inactive)
ROOT
ATOM      1  C   UNL d   1       0.030  -0.483   0.593  0.00  0.00     0.172 C 
ATOM      2  N   UNL d   1      -0.827   0.228   1.512  0.00  0.00    -0.070 N 
ATOM      3  C1  UNL d   1      -0.619   0.359   2.859  0.00  0.00    -0.004 A 
ATOM      4  C2  UNL d   1      -1.656   1.105   3.376  0.00  0.00    -0.047 A 
ATOM      5  C3  UNL d   1      -2.517   1.434   2.303  0.00  0.00    -0.047 A 
ATOM      6  C4  UNL d   1      -1.980   0.878   1.160  0.00  0.00    -0.004 A 
ENDROOT
TORSDOF 0
ENDMDL
