MODEL 1
REMARK minimizedAffinity -1.58765101
REMARK minimizedRMSD -1
REMARK  0 active torsions:
REMARK  status: ('A' for Active; 'I' for Inactive)
ROOT
ATOM      1  C   UNL d   1       5.793  -0.928   5.938  0.00  0.00     0.172 C 
ATOM      2  N   UNL d   1       5.785   0.385   5.337  0.00  0.00    -0.070 N 
ATOM      3  C1  UNL d   1       5.998   1.566   5.996  0.00  0.00    -0.004 A 
ATOM      4  C2  UNL d   1       5.910   2.586   5.074  0.00  0.00    -0.047 A 
ATOM      5  C3  UNL d   1       5.633   1.998   3.817  0.00  0.00    -0.047 A 
ATOM      6  C4  UNL d   1       5.561   0.634   4.008  0.00  0.00    -0.004 A 
ENDROOT
TORSDOF 0
ENDMDL
