MODEL 1
REMARK minimizedAffinity -2.38772774
REMARK minimizedRMSD -1
REMARK  0 active torsions:
REMARK  status: ('A' for Active; 'I' for Inactive)
ROOT
ATOM      1  C   UNL d   1      -1.140   0.347   0.080  0.00  0.00     0.172 C 
ATOM      2  N   UNL d   1      -1.682   0.525   1.407  0.00  0.00    -0.070 N 
ATOM      3  C1  UNL d   1      -1.296   1.486   2.304  0.00  0.00    -0.004 A 
ATOM      4  C2  UNL d   1      -2.048   1.321   3.447  0.00  0.00    -0.047 A 
ATOM      5  C3  UNL d   1      -2.914   0.223   3.231  0.00  0.00    -0.047 A 
ATOM      6  C4  UNL d   1      -2.666  -0.251   1.960  0.00  0.00    -0.004 A 
ENDROOT
TORSDOF 0
ENDMDL
