MODEL 1
REMARK minimizedAffinity -2.19979429
REMARK minimizedRMSD -1
REMARK  0 active torsions:
REMARK  status: ('A' for Active; 'I' for Inactive)
ROOT
ATOM      1  C   UNL d   1      -1.042   0.409  -0.220  0.00  0.00     0.172 C 
ATOM      2  N   UNL d   1      -1.324   0.585   1.185  0.00  0.00    -0.070 N 
ATOM      3  C1  UNL d   1      -2.478   0.213   1.821  0.00  0.00    -0.004 A 
ATOM      4  C2  UNL d   1      -2.356   0.550   3.151  0.00  0.00    -0.047 A 
ATOM      5  C3  UNL d   1      -1.084   1.147   3.321  0.00  0.00    -0.047 A 
ATOM      6  C4  UNL d   1      -0.466   1.156   2.088  0.00  0.00    -0.004 A 
ENDROOT
TORSDOF 0
ENDMDL
