MODEL 1
REMARK minimizedAffinity -0.348194033
REMARK minimizedRMSD -1
REMARK  0 active torsions:
REMARK  status: ('A' for Active; 'I' for Inactive)
ROOT
ATOM      1  C   UNL d   1      -1.726   0.721   0.372  0.00  0.00     0.172 C 
ATOM      2  N   UNL d   1      -1.752   0.745   1.816  0.00  0.00    -0.070 N 
ATOM      3  C1  UNL d   1      -2.036  -0.322   2.626  0.00  0.00    -0.004 A 
ATOM      4  C2  UNL d   1      -1.957   0.108   3.933  0.00  0.00    -0.047 A 
ATOM      5  C3  UNL d   1      -1.614   1.481   3.907  0.00  0.00    -0.047 A 
ATOM      6  C4  UNL d   1      -1.493   1.849   2.584  0.00  0.00    -0.004 A 
ENDROOT
TORSDOF 0
ENDMDL
