MODEL 1
REMARK minimizedAffinity -1.41692221
REMARK minimizedRMSD -1
REMARK  0 active torsions:
REMARK  status: ('A' for Active; 'I' for Inactive)
ROOT
ATOM      1  C   UNL d   1       1.191   1.080  -2.613  0.00  0.00     0.172 C 
ATOM      2  N   UNL d   1       0.820   0.201  -1.529  0.00  0.00    -0.070 N 
ATOM      3  C1  UNL d   1       1.306  -1.063  -1.323  0.00  0.00    -0.004 A 
ATOM      4  C2  UNL d   1       0.707  -1.566  -0.189  0.00  0.00    -0.047 A 
ATOM      5  C3  UNL d   1      -0.170  -0.571   0.304  0.00  0.00    -0.047 A 
ATOM      6  C4  UNL d   1      -0.080   0.512  -0.544  0.00  0.00    -0.004 A 
ENDROOT
TORSDOF 0
ENDMDL
