MODEL 1
REMARK minimizedAffinity -2.4951632
REMARK minimizedRMSD -1
REMARK  0 active torsions:
REMARK  status: ('A' for Active; 'I' for Inactive)
ROOT
ATOM      1  C   UNL d   1      -1.775   0.779   1.089  0.00  0.00     0.172 C 
ATOM      2  N   UNL d   1      -0.594   0.371   0.365  0.00  0.00    -0.070 N 
ATOM      3  C1  UNL d   1      -0.226  -0.922   0.103  0.00  0.00    -0.004 A 
ATOM      4  C2  UNL d   1       0.955  -0.888  -0.607  0.00  0.00    -0.047 A 
ATOM      5  C3  UNL d   1       1.309   0.472  -0.776  0.00  0.00    -0.047 A 
ATOM      6  C4  UNL d   1       0.333   1.229  -0.164  0.00  0.00    -0.004 A 
ENDROOT
TORSDOF 0
ENDMDL
