MODEL 1
REMARK minimizedAffinity -3.14949131
REMARK minimizedRMSD -1
REMARK  0 active torsions:
REMARK  status: ('A' for Active; 'I' for Inactive)
ROOT
ATOM      1  N1  IND d   1      -0.415  -0.881  -1.245  0.00  0.00    -0.196 N 
ATOM      2  C2  IND d   1      -1.527  -0.151  -0.931  0.00  0.00     0.054 A 
ATOM      3  C3  IND d   1      -1.238   0.757   0.028  0.00  0.00    -0.031 A 
ATOM      4  C4  IND d   1       1.017   1.287   1.151  0.00  0.00     0.051 A 
ATOM      5  C5  IND d   1       2.314   0.860   1.219  0.00  0.00    -0.031 A 
ATOM      6  C6  IND d   1       2.777  -0.188   0.451  0.00  0.00     0.015 A 
ATOM      7  C7  IND d   1       1.960  -0.845  -0.426  0.00  0.00    -0.016 A 
ATOM      8  C8  IND d   1       0.641  -0.419  -0.492  0.00  0.00    -0.047 A 
ATOM      9  C9  IND d   1       0.155   0.617   0.316  0.00  0.00    -0.096 A 
ATOM     10  HN1 IND d   1      -0.381  -1.522  -1.818  0.00  0.00     0.298 HD
ENDROOT
TORSDOF 0
ENDMDL
