MODEL 1
REMARK minimizedAffinity -3.98139787
REMARK minimizedRMSD -1
REMARK  0 active torsions:
REMARK  status: ('A' for Active; 'I' for Inactive)
ROOT
ATOM      1  N1  IND d   1       2.643  -1.069   0.664  0.00  0.00    -0.196 N 
ATOM      2  C2  IND d   1       3.308   0.052   1.076  0.00  0.00     0.054 A 
ATOM      3  C3  IND d   1       2.478   1.119   1.076  0.00  0.00    -0.031 A 
ATOM      4  C4  IND d   1      -0.036   1.235   0.535  0.00  0.00     0.051 A 
ATOM      5  C5  IND d   1      -1.075   0.475   0.075  0.00  0.00    -0.031 A 
ATOM      6  C6  IND d   1      -0.925  -0.866  -0.216  0.00  0.00     0.015 A 
ATOM      7  C7  IND d   1       0.271  -1.502  -0.045  0.00  0.00    -0.016 A 
ATOM      8  C8  IND d   1       1.330  -0.733   0.415  0.00  0.00    -0.047 A 
ATOM      9  C9  IND d   1       1.195   0.638   0.671  0.00  0.00    -0.096 A 
ATOM     10  HN1 IND d   1       2.986  -1.852   0.576  0.00  0.00     0.298 HD
ENDROOT
TORSDOF 0
ENDMDL
