MODEL 1
REMARK minimizedAffinity -2.06705689
REMARK minimizedRMSD -1
REMARK  0 active torsions:
REMARK  status: ('A' for Active; 'I' for Inactive)
ROOT
ATOM      1  N1  IND d   1      -0.450  -0.536  -0.066  0.00  0.00    -0.196 N 
ATOM      2  C2  IND d   1      -0.934   0.730   0.116  0.00  0.00     0.054 A 
ATOM      3  C3  IND d   1       0.053   1.557   0.526  0.00  0.00    -0.031 A 
ATOM      4  C4  IND d   1       2.559   1.071   0.865  0.00  0.00     0.051 A 
ATOM      5  C5  IND d   1       3.469   0.051   0.857  0.00  0.00    -0.031 A 
ATOM      6  C6  IND d   1       3.113  -1.241   0.532  0.00  0.00     0.015 A 
ATOM      7  C7  IND d   1       1.829  -1.562   0.190  0.00  0.00    -0.016 A 
ATOM      8  C8  IND d   1       0.901  -0.531   0.204  0.00  0.00    -0.047 A 
ATOM      9  C9  IND d   1       1.248   0.775   0.574  0.00  0.00    -0.096 A 
ATOM     10  HN1 IND d   1      -0.912  -1.220  -0.308  0.00  0.00     0.298 HD
ENDROOT
TORSDOF 0
ENDMDL
