MODEL 1
REMARK minimizedAffinity -5.58723927
REMARK minimizedRMSD -1
REMARK  0 active torsions:
REMARK  status: ('A' for Active; 'I' for Inactive)
ROOT
ATOM      1  N1  IND d   1       2.551  -1.112   0.912  0.00  0.00    -0.196 N 
ATOM      2  C2  IND d   1       3.031  -0.001   0.276  0.00  0.00     0.054 A 
ATOM      3  C3  IND d   1       2.009   0.758  -0.179  0.00  0.00    -0.031 A 
ATOM      4  C4  IND d   1      -0.528   0.422   0.099  0.00  0.00     0.051 A 
ATOM      5  C5  IND d   1      -1.451  -0.466   0.575  0.00  0.00    -0.031 A 
ATOM      6  C6  IND d   1      -1.080  -1.638   1.203  0.00  0.00     0.015 A 
ATOM      7  C7  IND d   1       0.235  -1.960   1.389  0.00  0.00    -0.016 A 
ATOM      8  C8  IND d   1       1.175  -1.064   0.901  0.00  0.00    -0.047 A 
ATOM      9  C9  IND d   1       0.804   0.106   0.225  0.00  0.00    -0.096 A 
ATOM     10  HN1 IND d   1       3.029  -1.736   1.261  0.00  0.00     0.298 HD
ENDROOT
TORSDOF 0
ENDMDL
