MODEL 1
REMARK minimizedAffinity -3.60258174
REMARK minimizedRMSD -1
REMARK  0 active torsions:
REMARK  status: ('A' for Active; 'I' for Inactive)
ROOT
ATOM      1  N1  IND d   1      -0.157  -0.663   0.133  0.00  0.00    -0.196 N 
ATOM      2  C2  IND d   1      -0.493   0.595  -0.283  0.00  0.00     0.054 A 
ATOM      3  C3  IND d   1       0.391   1.500   0.193  0.00  0.00    -0.031 A 
ATOM      4  C4  IND d   1       2.522   1.126   1.589  0.00  0.00     0.051 A 
ATOM      5  C5  IND d   1       3.224   0.153   2.243  0.00  0.00    -0.031 A 
ATOM      6  C6  IND d   1       2.829  -1.169   2.224  0.00  0.00     0.015 A 
ATOM      7  C7  IND d   1       1.718  -1.571   1.538  0.00  0.00    -0.016 A 
ATOM      8  C8  IND d   1       0.998  -0.584   0.879  0.00  0.00    -0.047 A 
ATOM      9  C9  IND d   1       1.370   0.765   0.930  0.00  0.00    -0.096 A 
ATOM     10  HN1 IND d   1      -0.594  -1.383  -0.042  0.00  0.00     0.298 HD
ENDROOT
TORSDOF 0
ENDMDL
