MODEL 1
REMARK minimizedAffinity -4.20614862
REMARK minimizedRMSD -1
REMARK  0 active torsions:
REMARK  status: ('A' for Active; 'I' for Inactive)
ROOT
ATOM      1  N1  IND d   1       1.226   1.622   0.200  0.00  0.00    -0.196 N 
ATOM      2  C2  IND d   1       2.494   1.328   0.618  0.00  0.00     0.054 A 
ATOM      3  C3  IND d   1       2.539   0.083   1.143  0.00  0.00    -0.031 A 
ATOM      4  C4  IND d   1       0.676  -1.685   1.324  0.00  0.00     0.051 A 
ATOM      5  C5  IND d   1      -0.661  -1.865   1.110  0.00  0.00    -0.031 A 
ATOM      6  C6  IND d   1      -1.454  -0.874   0.569  0.00  0.00     0.015 A 
ATOM      7  C7  IND d   1      -0.933   0.337   0.209  0.00  0.00    -0.016 A 
ATOM      8  C8  IND d   1       0.423   0.527   0.431  0.00  0.00    -0.047 A 
ATOM      9  C9  IND d   1       1.224  -0.461   1.019  0.00  0.00    -0.096 A 
ATOM     10  HN1 IND d   1       0.973   2.366  -0.148  0.00  0.00     0.298 HD
ENDROOT
TORSDOF 0
ENDMDL
