MODEL 1
REMARK minimizedAffinity -3.38825059
REMARK minimizedRMSD -1
REMARK  0 active torsions:
REMARK  status: ('A' for Active; 'I' for Inactive)
ROOT
ATOM      1  N1  IND d   1      -0.074   1.468   0.129  0.00  0.00    -0.196 N 
ATOM      2  C2  IND d   1      -1.091   0.576  -0.064  0.00  0.00     0.054 A 
ATOM      3  C3  IND d   1      -0.621  -0.691  -0.017  0.00  0.00    -0.031 A 
ATOM      4  C4  IND d   1       1.763  -1.534   0.467  0.00  0.00     0.051 A 
ATOM      5  C5  IND d   1       3.040  -1.094   0.671  0.00  0.00    -0.031 A 
ATOM      6  C6  IND d   1       3.351   0.250   0.709  0.00  0.00     0.015 A 
ATOM      7  C7  IND d   1       2.389   1.208   0.554  0.00  0.00    -0.016 A 
ATOM      8  C8  IND d   1       1.092   0.764   0.340  0.00  0.00    -0.047 A 
ATOM      9  C9  IND d   1       0.778  -0.598   0.258  0.00  0.00    -0.096 A 
ATOM     10  HN1 IND d   1      -0.149   2.324   0.121  0.00  0.00     0.298 HD
ENDROOT
TORSDOF 0
ENDMDL
