MODEL 1
REMARK minimizedAffinity -5.25358105
REMARK minimizedRMSD -1
REMARK  0 active torsions:
REMARK  status: ('A' for Active; 'I' for Inactive)
ROOT
ATOM      1  C4' PXY d   1       3.133  -0.712  -0.296  0.00  0.00     0.077 C 
ATOM      2  C1' PXY d   1      -2.151   1.631  -0.334  0.00  0.00     0.077 C 
ATOM      3  C1  PXY d   1      -0.767   1.013  -0.312  0.00  0.00    -0.082 A 
ATOM      4  C2  PXY d   1       0.157   1.448  -1.152  0.00  0.00     0.003 A 
ATOM      5  C3  PXY d   1       1.404   0.879  -1.167  0.00  0.00     0.003 A 
ATOM      6  C4  PXY d   1       1.725  -0.111  -0.277  0.00  0.00    -0.082 A 
ATOM      7  C5  PXY d   1       0.790  -0.554   0.591  0.00  0.00     0.003 A 
ATOM      8  C6  PXY d   1      -0.482   0.010   0.562  0.00  0.00     0.003 A 
ENDROOT
TORSDOF 0
ENDMDL
