MODEL 1
REMARK minimizedAffinity -4.02997208
REMARK minimizedRMSD -1
REMARK  0 active torsions:
REMARK  status: ('A' for Active; 'I' for Inactive)
ROOT
ATOM      1  C4' PXY d   1       3.081  -0.554  -1.327  0.00  0.00     0.077 C 
ATOM      2  C1' PXY d   1      -2.194   0.239   0.900  0.00  0.00     0.077 C 
ATOM      3  C1  PXY d   1      -0.812   0.042   0.310  0.00  0.00    -0.082 A 
ATOM      4  C2  PXY d   1      -0.315  -1.179   0.199  0.00  0.00     0.003 A 
ATOM      5  C3  PXY d   1       0.946  -1.373  -0.303  0.00  0.00     0.003 A 
ATOM      6  C4  PXY d   1       1.685  -0.309  -0.746  0.00  0.00    -0.082 A 
ATOM      7  C5  PXY d   1       1.182   0.939  -0.647  0.00  0.00     0.003 A 
ATOM      8  C6  PXY d   1      -0.084   1.118  -0.096  0.00  0.00     0.003 A 
ENDROOT
TORSDOF 0
ENDMDL
