MODEL 1
REMARK minimizedAffinity -3.65904522
REMARK minimizedRMSD -1
REMARK  0 active torsions:
REMARK  status: ('A' for Active; 'I' for Inactive)
ROOT
ATOM      1  C4' PXY d   1      -0.243  -2.683  -0.308  0.00  0.00     0.077 C 
ATOM      2  C1' PXY d   1       2.420   2.324  -1.426  0.00  0.00     0.077 C 
ATOM      3  C1  PXY d   1       1.711   1.018  -1.128  0.00  0.00    -0.082 A 
ATOM      4  C2  PXY d   1       2.419  -0.089  -0.969  0.00  0.00     0.003 A 
ATOM      5  C3  PXY d   1       1.792  -1.285  -0.731  0.00  0.00     0.003 A 
ATOM      6  C4  PXY d   1       0.430  -1.339  -0.601  0.00  0.00    -0.082 A 
ATOM      7  C5  PXY d   1      -0.298  -0.213  -0.752  0.00  0.00     0.003 A 
ATOM      8  C6  PXY d   1       0.354   0.984  -1.035  0.00  0.00     0.003 A 
ENDROOT
TORSDOF 0
ENDMDL
