MODEL 1
REMARK minimizedAffinity -3.82135868
REMARK minimizedRMSD -1
REMARK  0 active torsions:
REMARK  status: ('A' for Active; 'I' for Inactive)
ROOT
ATOM      1  C4' PXY d   1      -1.099   0.335   0.407  0.00  0.00     0.077 C 
ATOM      2  C1' PXY d   1       3.635  -0.185  -2.869  0.00  0.00     0.077 C 
ATOM      3  C1  PXY d   1       2.394  -0.036  -2.011  0.00  0.00    -0.082 A 
ATOM      4  C2  PXY d   1       2.058  -1.003  -1.174  0.00  0.00     0.003 A 
ATOM      5  C3  PXY d   1       0.922  -0.898  -0.413  0.00  0.00     0.003 A 
ATOM      6  C4  PXY d   1       0.150   0.231  -0.472  0.00  0.00    -0.082 A 
ATOM      7  C5  PXY d   1       0.493   1.227  -1.316  0.00  0.00     0.003 A 
ATOM      8  C6  PXY d   1       1.627   1.084  -2.110  0.00  0.00     0.003 A 
ENDROOT
TORSDOF 0
ENDMDL
