MODEL 1
REMARK minimizedAffinity 1.95069611
REMARK minimizedRMSD -1
REMARK  0 active torsions:
REMARK  status: ('A' for Active; 'I' for Inactive)
ROOT
ATOM      1  C4' PXY d   1      -1.968   0.089   1.562  0.00  0.00     0.077 C 
ATOM      2  C1' PXY d   1       2.276  -1.459  -2.045  0.00  0.00     0.077 C 
ATOM      3  C1  PXY d   1       1.168  -1.042  -1.098  0.00  0.00    -0.082 A 
ATOM      4  C2  PXY d   1       0.471  -1.967  -0.458  0.00  0.00     0.003 A 
ATOM      5  C3  PXY d   1      -0.555  -1.608   0.378  0.00  0.00     0.003 A 
ATOM      6  C4  PXY d   1      -0.835  -0.287   0.603  0.00  0.00    -0.082 A 
ATOM      7  C5  PXY d   1      -0.121   0.663  -0.037  0.00  0.00     0.003 A 
ATOM      8  C6  PXY d   1       0.889   0.277  -0.914  0.00  0.00     0.003 A 
ENDROOT
TORSDOF 0
ENDMDL
