MODEL 1
REMARK minimizedAffinity -3.38436151
REMARK minimizedRMSD -1
REMARK  0 active torsions:
REMARK  status: ('A' for Active; 'I' for Inactive)
ROOT
ATOM      1  C4' PXY d   1      -1.933   0.716   1.772  0.00  0.00     0.077 C 
ATOM      2  C1' PXY d   1       1.800  -1.404  -2.100  0.00  0.00     0.077 C 
ATOM      3  C1  PXY d   1       0.830  -0.840  -1.080  0.00  0.00    -0.082 A 
ATOM      4  C2  PXY d   1      -0.240  -1.540  -0.738  0.00  0.00     0.003 A 
ATOM      5  C3  PXY d   1      -1.143  -1.031   0.159  0.00  0.00     0.003 A 
ATOM      6  C4  PXY d   1      -0.922   0.182   0.753  0.00  0.00    -0.082 A 
ATOM      7  C5  PXY d   1       0.173   0.897   0.418  0.00  0.00     0.003 A 
ATOM      8  C6  PXY d   1       1.057   0.382  -0.526  0.00  0.00     0.003 A 
ENDROOT
TORSDOF 0
ENDMDL
