MODEL 1
REMARK minimizedAffinity -4.72368908
REMARK minimizedRMSD -1
REMARK  0 active torsions:
REMARK  status: ('A' for Active; 'I' for Inactive)
ROOT
ATOM      1  C4' PXY d   1      -2.079   0.191   1.150  0.00  0.00     0.077 C 
ATOM      2  C1' PXY d   1       3.203  -0.053  -1.185  0.00  0.00     0.077 C 
ATOM      3  C1  PXY d   1       1.823   0.006  -0.562  0.00  0.00    -0.082 A 
ATOM      4  C2  PXY d   1       0.754   0.037  -1.341  0.00  0.00     0.003 A 
ATOM      5  C3  PXY d   1      -0.501   0.122  -0.795  0.00  0.00     0.003 A 
ATOM      6  C4  PXY d   1      -0.666   0.122   0.565  0.00  0.00    -0.082 A 
ATOM      7  C5  PXY d   1       0.419   0.080   1.367  0.00  0.00     0.003 A 
ATOM      8  C6  PXY d   1       1.686   0.035   0.792  0.00  0.00     0.003 A 
ENDROOT
TORSDOF 0
ENDMDL
