MODEL 1
REMARK minimizedAffinity -5.06219101
REMARK minimizedRMSD -1
REMARK  0 active torsions:
REMARK  status: ('A' for Active; 'I' for Inactive)
ROOT
ATOM      1  C4' PXY d   1      -1.348   0.445   1.243  0.00  0.00     0.077 C 
ATOM      2  C1' PXY d   1       3.301  -0.371  -2.094  0.00  0.00     0.077 C 
ATOM      3  C1  PXY d   1       2.082  -0.144  -1.223  0.00  0.00    -0.082 A 
ATOM      4  C2  PXY d   1       1.832  -0.970  -0.219  0.00  0.00     0.003 A 
ATOM      5  C3  PXY d   1       0.717  -0.799   0.559  0.00  0.00     0.003 A 
ATOM      6  C4  PXY d   1      -0.124   0.260   0.342  0.00  0.00    -0.082 A 
ATOM      7  C5  PXY d   1       0.130   1.114  -0.673  0.00  0.00     0.003 A 
ATOM      8  C6  PXY d   1       1.245   0.898  -1.477  0.00  0.00     0.003 A 
ENDROOT
TORSDOF 0
ENDMDL
