MODEL 1
REMARK minimizedAffinity -3.09178329
REMARK minimizedRMSD -1
REMARK  0 active torsions:
REMARK  status: ('A' for Active; 'I' for Inactive)
ROOT
ATOM      1  C4' PXY d   1       2.748   0.494  -2.848  0.00  0.00     0.077 C 
ATOM      2  C1' PXY d   1      -1.552   0.390   1.013  0.00  0.00     0.077 C 
ATOM      3  C1  PXY d   1      -0.432   0.425  -0.007  0.00  0.00    -0.082 A 
ATOM      4  C2  PXY d   1       0.475  -0.538  -0.016  0.00  0.00     0.003 A 
ATOM      5  C3  PXY d   1       1.513  -0.506  -0.911  0.00  0.00     0.003 A 
ATOM      6  C4  PXY d   1       1.594   0.495  -1.842  0.00  0.00    -0.082 A 
ATOM      7  C5  PXY d   1       0.667   1.476  -1.846  0.00  0.00     0.003 A 
ATOM      8  C6  PXY d   1      -0.356   1.447  -0.903  0.00  0.00     0.003 A 
ENDROOT
TORSDOF 0
ENDMDL
