MODEL 1
REMARK minimizedAffinity -4.01497173
REMARK minimizedRMSD -1
REMARK  0 active torsions:
REMARK  status: ('A' for Active; 'I' for Inactive)
ROOT
ATOM      1  C4' PXY d   1       2.806   0.306  -3.211  0.00  0.00     0.077 C 
ATOM      2  C1' PXY d   1      -1.572  -0.194   0.531  0.00  0.00     0.077 C 
ATOM      3  C1  PXY d   1      -0.431  -0.054  -0.457  0.00  0.00    -0.082 A 
ATOM      4  C2  PXY d   1       0.434  -1.045  -0.603  0.00  0.00     0.003 A 
ATOM      5  C3  PXY d   1       1.490  -0.923  -1.468  0.00  0.00     0.003 A 
ATOM      6  C4  PXY d   1       1.633   0.205  -2.232  0.00  0.00    -0.082 A 
ATOM      7  C5  PXY d   1       0.749   1.216  -2.097  0.00  0.00     0.003 A 
ATOM      8  C6  PXY d   1      -0.293   1.089  -1.183  0.00  0.00     0.003 A 
ENDROOT
TORSDOF 0
ENDMDL
