MODEL 1
REMARK minimizedAffinity -4.28991795
REMARK minimizedRMSD -1
REMARK  0 active torsions:
REMARK  status: ('A' for Active; 'I' for Inactive)
ROOT
ATOM      1  C4' PXY d   1      -1.431   0.387   0.841  0.00  0.00     0.077 C 
ATOM      2  C1' PXY d   1       3.516  -0.640  -1.967  0.00  0.00     0.077 C 
ATOM      3  C1  PXY d   1       2.214  -0.382  -1.234  0.00  0.00    -0.082 A 
ATOM      4  C2  PXY d   1       1.810   0.862  -1.035  0.00  0.00     0.003 A 
ATOM      5  C3  PXY d   1       0.652   1.114  -0.346  0.00  0.00     0.003 A 
ATOM      6  C4  PXY d   1      -0.129   0.080   0.098  0.00  0.00    -0.082 A 
ATOM      7  C5  PXY d   1       0.271  -1.193  -0.110  0.00  0.00     0.003 A 
ATOM      8  C6  PXY d   1       1.471  -1.426  -0.776  0.00  0.00     0.003 A 
ENDROOT
TORSDOF 0
ENDMDL
