MODEL 1
REMARK minimizedAffinity -2.67732167
REMARK minimizedRMSD -1
REMARK  0 active torsions:
REMARK  status: ('A' for Active; 'I' for Inactive)
ROOT
ATOM      1  C4' PXY d   1       0.006  -2.911  -0.043  0.00  0.00     0.077 C 
ATOM      2  C1' PXY d   1       1.650   2.416  -1.570  0.00  0.00     0.077 C 
ATOM      3  C1  PXY d   1       1.212   1.024  -1.160  0.00  0.00    -0.082 A 
ATOM      4  C2  PXY d   1       1.969  -0.017  -1.466  0.00  0.00     0.003 A 
ATOM      5  C3  PXY d   1       1.572  -1.286  -1.131  0.00  0.00     0.003 A 
ATOM      6  C4  PXY d   1       0.414  -1.487  -0.429  0.00  0.00    -0.082 A 
ATOM      7  C5  PXY d   1      -0.359  -0.429  -0.104  0.00  0.00     0.003 A 
ATOM      8  C6  PXY d   1       0.042   0.847  -0.489  0.00  0.00     0.003 A 
ENDROOT
TORSDOF 0
ENDMDL
