MODEL 1
REMARK minimizedAffinity -4.10025501
REMARK minimizedRMSD -1
REMARK  0 active torsions:
REMARK  status: ('A' for Active; 'I' for Inactive)
ROOT
ATOM      1  C4' PXY d   1      -1.819   0.137   1.101  0.00  0.00     0.077 C 
ATOM      2  C1' PXY d   1       3.316  -0.724  -1.410  0.00  0.00     0.077 C 
ATOM      3  C1  PXY d   1       1.973  -0.485  -0.749  0.00  0.00    -0.082 A 
ATOM      4  C2  PXY d   1       1.309  -1.506  -0.231  0.00  0.00     0.003 A 
ATOM      5  C3  PXY d   1       0.078  -1.313   0.342  0.00  0.00     0.003 A 
ATOM      6  C4  PXY d   1      -0.455  -0.055   0.432  0.00  0.00    -0.082 A 
ATOM      7  C5  PXY d   1       0.221   0.992  -0.085  0.00  0.00     0.003 A 
ATOM      8  C6  PXY d   1       1.451   0.770  -0.698  0.00  0.00     0.003 A 
ENDROOT
TORSDOF 0
ENDMDL
