MODEL 1
REMARK minimizedAffinity -1.16532207
REMARK minimizedRMSD -1
REMARK  0 active torsions:
REMARK  status: ('A' for Active; 'I' for Inactive)
ROOT
ATOM      1  C4' PXY d   1      -2.007   0.741   0.680  0.00  0.00     0.077 C 
ATOM      2  C1' PXY d   1       2.670  -1.350  -1.996  0.00  0.00     0.077 C 
ATOM      3  C1  PXY d   1       1.449  -0.790  -1.295  0.00  0.00    -0.082 A 
ATOM      4  C2  PXY d   1       0.725  -1.575  -0.513  0.00  0.00     0.003 A 
ATOM      5  C3  PXY d   1      -0.401  -1.092   0.103  0.00  0.00     0.003 A 
ATOM      6  C4  PXY d   1      -0.760   0.221  -0.040  0.00  0.00    -0.082 A 
ATOM      7  C5  PXY d   1      -0.022   1.031  -0.828  0.00  0.00     0.003 A 
ATOM      8  C6  PXY d   1       1.094   0.511  -1.478  0.00  0.00     0.003 A 
ENDROOT
TORSDOF 0
ENDMDL
