MODEL 1
REMARK minimizedAffinity -4.36138773
REMARK minimizedRMSD -1
REMARK  0 active torsions:
REMARK  status: ('A' for Active; 'I' for Inactive)
ROOT
ATOM      1  C4' PXY d   1      -1.452   0.227   0.877  0.00  0.00     0.077 C 
ATOM      2  C1' PXY d   1       3.714  -0.641  -1.568  0.00  0.00     0.077 C 
ATOM      3  C1  PXY d   1       2.356  -0.425  -0.930  0.00  0.00    -0.082 A 
ATOM      4  C2  PXY d   1       1.867   0.800  -0.830  0.00  0.00     0.003 A 
ATOM      5  C3  PXY d   1       0.654   1.016  -0.227  0.00  0.00     0.003 A 
ATOM      6  C4  PXY d   1      -0.089  -0.038   0.231  0.00  0.00    -0.082 A 
ATOM      7  C5  PXY d   1       0.398  -1.292   0.124  0.00  0.00     0.003 A 
ATOM      8  C6  PXY d   1       1.649  -1.487  -0.455  0.00  0.00     0.003 A 
ENDROOT
TORSDOF 0
ENDMDL
