MODEL 1
REMARK minimizedAffinity -5.37383699
REMARK minimizedRMSD -1
REMARK  0 active torsions:
REMARK  status: ('A' for Active; 'I' for Inactive)
ROOT
ATOM      1  C4' PXY d   1       2.941  -0.189  -2.273  0.00  0.00     0.077 C 
ATOM      2  C1' PXY d   1      -1.786   0.405   1.001  0.00  0.00     0.077 C 
ATOM      3  C1  PXY d   1      -0.543   0.238   0.149  0.00  0.00    -0.082 A 
ATOM      4  C2  PXY d   1       0.011   1.299  -0.415  0.00  0.00     0.003 A 
ATOM      5  C3  PXY d   1       1.116   1.162  -1.215  0.00  0.00     0.003 A 
ATOM      6  C4  PXY d   1       1.691  -0.067  -1.397  0.00  0.00    -0.082 A 
ATOM      7  C5  PXY d   1       1.138  -1.153  -0.816  0.00  0.00     0.003 A 
ATOM      8  C6  PXY d   1      -0.007  -0.998  -0.042  0.00  0.00     0.003 A 
ENDROOT
TORSDOF 0
ENDMDL
