MODEL 1
REMARK minimizedAffinity 1.2787466
REMARK minimizedRMSD -1
REMARK  0 active torsions:
REMARK  status: ('A' for Active; 'I' for Inactive)
ROOT
ATOM      1  C4' PXY d   1      -1.071  -3.127   0.255  0.00  0.00     0.077 C 
ATOM      2  C1' PXY d   1       0.317   2.318  -1.104  0.00  0.00     0.077 C 
ATOM      3  C1  PXY d   1      -0.056   0.894  -0.739  0.00  0.00    -0.082 A 
ATOM      4  C2  PXY d   1       0.826  -0.077  -0.909  0.00  0.00     0.003 A 
ATOM      5  C3  PXY d   1       0.495  -1.374  -0.614  0.00  0.00     0.003 A 
ATOM      6  C4  PXY d   1      -0.735  -1.673  -0.090  0.00  0.00    -0.082 A 
ATOM      7  C5  PXY d   1      -1.636  -0.686   0.096  0.00  0.00     0.003 A 
ATOM      8  C6  PXY d   1      -1.295   0.618  -0.248  0.00  0.00     0.003 A 
ENDROOT
TORSDOF 0
ENDMDL
