MODEL 1
REMARK minimizedAffinity -1.5401237
REMARK minimizedRMSD -1
REMARK  0 active torsions:
REMARK  status: ('A' for Active; 'I' for Inactive)
ROOT
ATOM      1  C4' PXY d   1      -2.815  -0.045   1.518  0.00  0.00     0.077 C 
ATOM      2  C1' PXY d   1       2.053   1.690  -1.072  0.00  0.00     0.077 C 
ATOM      3  C1  PXY d   1       0.770   1.245  -0.398  0.00  0.00    -0.082 A 
ATOM      4  C2  PXY d   1       0.829   0.472   0.674  0.00  0.00     0.003 A 
ATOM      5  C3  PXY d   1      -0.322   0.035   1.277  0.00  0.00     0.003 A 
ATOM      6  C4  PXY d   1      -1.545   0.436   0.810  0.00  0.00    -0.082 A 
ATOM      7  C5  PXY d   1      -1.613   1.233  -0.277  0.00  0.00     0.003 A 
ATOM      8  C6  PXY d   1      -0.434   1.633  -0.899  0.00  0.00     0.003 A 
ENDROOT
TORSDOF 0
ENDMDL
