MODEL 1
REMARK minimizedAffinity 0.644978285
REMARK minimizedRMSD -1
REMARK  0 active torsions:
REMARK  status: ('A' for Active; 'I' for Inactive)
ROOT
ATOM      1  C4' PXY d   1      -0.130  -4.111   0.768  0.00  0.00     0.077 C 
ATOM      2  C1' PXY d   1      -0.180   1.293  -1.283  0.00  0.00     0.077 C 
ATOM      3  C1  PXY d   1      -0.158  -0.128  -0.754  0.00  0.00    -0.082 A 
ATOM      4  C2  PXY d   1      -1.206  -0.597  -0.096  0.00  0.00     0.003 A 
ATOM      5  C3  PXY d   1      -1.190  -1.868   0.416  0.00  0.00     0.003 A 
ATOM      6  C4  PXY d   1      -0.112  -2.686   0.208  0.00  0.00    -0.082 A 
ATOM      7  C5  PXY d   1       0.957  -2.218  -0.471  0.00  0.00     0.003 A 
ATOM      8  C6  PXY d   1       0.938  -0.911  -0.948  0.00  0.00     0.003 A 
ENDROOT
TORSDOF 0
ENDMDL
