MODEL 1
REMARK minimizedAffinity -3.00842595
REMARK minimizedRMSD -1
REMARK  0 active torsions:
REMARK  status: ('A' for Active; 'I' for Inactive)
ROOT
ATOM      1  N1  IND d   1      -0.039   2.259  -0.643  0.00  0.00    -0.196 N 
ATOM      2  C2  IND d   1       1.164   2.506  -0.043  0.00  0.00     0.054 A 
ATOM      3  C3  IND d   1       1.765   1.345   0.302  0.00  0.00    -0.031 A 
ATOM      4  C4  IND d   1       1.002  -1.078  -0.114  0.00  0.00     0.051 A 
ATOM      5  C5  IND d   1      -0.048  -1.810  -0.595  0.00  0.00    -0.031 A 
ATOM      6  C6  IND d   1      -1.170  -1.210  -1.130  0.00  0.00     0.015 A 
ATOM      7  C7  IND d   1      -1.279   0.149  -1.214  0.00  0.00    -0.016 A 
ATOM      8  C8  IND d   1      -0.218   0.895  -0.721  0.00  0.00    -0.047 A 
ATOM      9  C9  IND d   1       0.904   0.293  -0.138  0.00  0.00    -0.096 A 
ATOM     10  HN1 IND d   1      -0.591   2.855  -0.925  0.00  0.00     0.298 HD
ENDROOT
TORSDOF 0
ENDMDL
