MODEL 1
REMARK minimizedAffinity -1.77409959
REMARK minimizedRMSD -1
REMARK  0 active torsions:
REMARK  status: ('A' for Active; 'I' for Inactive)
ROOT
ATOM      1  N1  IND d   1      -0.474   1.318   0.283  0.00  0.00    -0.196 N 
ATOM      2  C2  IND d   1      -1.793   1.126  -0.019  0.00  0.00     0.054 A 
ATOM      3  C3  IND d   1      -1.998  -0.141  -0.445  0.00  0.00    -0.031 A 
ATOM      4  C4  IND d   1      -0.332  -2.095  -0.629  0.00  0.00     0.051 A 
ATOM      5  C5  IND d   1       0.995  -2.395  -0.500  0.00  0.00    -0.031 A 
ATOM      6  C6  IND d   1       1.919  -1.454  -0.092  0.00  0.00     0.015 A 
ATOM      7  C7  IND d   1       1.546  -0.176   0.214  0.00  0.00    -0.016 A 
ATOM      8  C8  IND d   1       0.200   0.134   0.077  0.00  0.00    -0.047 A 
ATOM      9  C9  IND d   1      -0.735  -0.804  -0.377  0.00  0.00    -0.096 A 
ATOM     10  HN1 IND d   1      -0.124   2.054   0.556  0.00  0.00     0.298 HD
ENDROOT
TORSDOF 0
ENDMDL
