MODEL 1
REMARK minimizedAffinity -2.31004286
REMARK minimizedRMSD -1
REMARK  0 active torsions:
REMARK  status: ('A' for Active; 'I' for Inactive)
ROOT
ATOM      1  N1  IND d   1      -3.463  -0.787   1.139  0.00  0.00    -0.196 N 
ATOM      2  C2  IND d   1      -4.076   0.435   1.147  0.00  0.00     0.054 A 
ATOM      3  C3  IND d   1      -3.241   1.383   0.666  0.00  0.00    -0.031 A 
ATOM      4  C4  IND d   1      -0.862   1.136  -0.287  0.00  0.00     0.051 A 
ATOM      5  C5  IND d   1       0.136   0.220  -0.470  0.00  0.00    -0.031 A 
ATOM      6  C6  IND d   1      -0.020  -1.106  -0.121  0.00  0.00     0.015 A 
ATOM      7  C7  IND d   1      -1.188  -1.570   0.415  0.00  0.00    -0.016 A 
ATOM      8  C8  IND d   1      -2.200  -0.641   0.609  0.00  0.00    -0.047 A 
ATOM      9  C9  IND d   1      -2.033   0.715   0.296  0.00  0.00    -0.096 A 
ATOM     10  HN1 IND d   1      -3.809  -1.523   1.419  0.00  0.00     0.298 HD
ENDROOT
TORSDOF 0
ENDMDL
