MODEL 1
REMARK minimizedAffinity 2.64344716
REMARK minimizedRMSD -1
REMARK  0 active torsions:
REMARK  status: ('A' for Active; 'I' for Inactive)
ROOT
ATOM      1  N1  IND d   1      -0.306  -0.502   0.972  0.00  0.00    -0.196 N 
ATOM      2  C2  IND d   1       0.154  -0.383  -0.310  0.00  0.00     0.054 A 
ATOM      3  C3  IND d   1      -0.828   0.072  -1.121  0.00  0.00    -0.031 A 
ATOM      4  C4  IND d   1      -3.233   0.782  -0.539  0.00  0.00     0.051 A 
ATOM      5  C5  IND d   1      -4.125   0.817   0.496  0.00  0.00    -0.031 A 
ATOM      6  C6  IND d   1      -3.782   0.409   1.769  0.00  0.00     0.015 A 
ATOM      7  C7  IND d   1      -2.524  -0.041   2.058  0.00  0.00    -0.016 A 
ATOM      8  C8  IND d   1      -1.618  -0.085   1.008  0.00  0.00    -0.047 A 
ATOM      9  C9  IND d   1      -1.973   0.287  -0.295  0.00  0.00    -0.096 A 
ATOM     10  HN1 IND d   1       0.149  -0.789   1.643  0.00  0.00     0.298 HD
ENDROOT
TORSDOF 0
ENDMDL
