MODEL 1
REMARK minimizedAffinity -2.12810946
REMARK minimizedRMSD -1
REMARK  0 active torsions:
REMARK  status: ('A' for Active; 'I' for Inactive)
ROOT
ATOM      1  C   UNL d   1       1.709   0.614  -3.015  0.00  0.00     0.023 A 
ATOM      2  C1  UNL d   1       1.836   0.750  -4.398  0.00  0.00     0.003 A 
ATOM      3  C2  UNL d   1       0.869   0.208  -5.246  0.00  0.00     0.048 A 
ATOM      4  C3  UNL d   1      -0.224  -0.470  -4.706  0.00  0.00     0.023 A 
ATOM      5  C4  UNL d   1      -0.355  -0.608  -3.323  0.00  0.00     0.048 A 
ATOM      6  C5  UNL d   1       0.614  -0.065  -2.479  0.00  0.00     0.003 A 
ATOM      7  I   UNL d   1      -1.664  -1.279  -5.967  0.00  0.00    -0.146 I 
ENDROOT
TORSDOF 0
ENDMDL
