MODEL 1
REMARK minimizedAffinity -4.31868792
REMARK minimizedRMSD -1
REMARK  0 active torsions:
REMARK  status: ('A' for Active; 'I' for Inactive)
ROOT
ATOM      1  C   UNL d   1       0.052   0.968   3.924  0.00  0.00     0.023 A 
ATOM      2  C1  UNL d   1      -0.979   1.250   3.028  0.00  0.00     0.003 A 
ATOM      3  C2  UNL d   1      -0.842   0.920   1.678  0.00  0.00     0.048 A 
ATOM      4  C3  UNL d   1       0.328   0.307   1.231  0.00  0.00     0.023 A 
ATOM      5  C4  UNL d   1       1.362   0.021   2.124  0.00  0.00     0.048 A 
ATOM      6  C5  UNL d   1       1.221   0.354   3.473  0.00  0.00     0.003 A 
ATOM      7  I   UNL d   1       0.533  -0.186  -0.778  0.00  0.00    -0.146 I 
ENDROOT
TORSDOF 0
ENDMDL
