MODEL 1
REMARK minimizedAffinity -3.80021167
REMARK minimizedRMSD -1
REMARK  0 active torsions:
REMARK  status: ('A' for Active; 'I' for Inactive)
ROOT
ATOM      1  C   UNL d   1      -0.827   1.008   2.756  0.00  0.00     0.023 A 
ATOM      2  C1  UNL d   1      -1.819   0.656   1.840  0.00  0.00     0.003 A 
ATOM      3  C2  UNL d   1      -1.469   0.266   0.546  0.00  0.00     0.048 A 
ATOM      4  C3  UNL d   1      -0.125   0.230   0.174  0.00  0.00     0.023 A 
ATOM      5  C4  UNL d   1       0.870   0.581   1.087  0.00  0.00     0.048 A 
ATOM      6  C5  UNL d   1       0.516   0.971   2.380  0.00  0.00     0.003 A 
ATOM      7  I   UNL d   1       0.398  -0.349  -1.752  0.00  0.00    -0.146 I 
ENDROOT
TORSDOF 0
ENDMDL
