MODEL 1
REMARK minimizedAffinity -4.23154163
REMARK minimizedRMSD -1
REMARK  0 active torsions:
REMARK  status: ('A' for Active; 'I' for Inactive)
ROOT
ATOM      1  C   UNL d   1      -1.277   0.571   2.234  0.00  0.00     0.023 A 
ATOM      2  C1  UNL d   1       0.042   0.892   1.912  0.00  0.00     0.003 A 
ATOM      3  C2  UNL d   1       0.484   0.791   0.592  0.00  0.00     0.048 A 
ATOM      4  C3  UNL d   1      -0.399   0.371  -0.403  0.00  0.00     0.023 A 
ATOM      5  C4  UNL d   1      -1.720   0.050  -0.085  0.00  0.00     0.048 A 
ATOM      6  C5  UNL d   1      -2.156   0.151   1.237  0.00  0.00     0.003 A 
ATOM      7  I   UNL d   1       0.256   0.221  -2.369  0.00  0.00    -0.146 I 
ENDROOT
TORSDOF 0
ENDMDL
