MODEL 1
REMARK minimizedAffinity -4.22898293
REMARK minimizedRMSD -1
REMARK  0 active torsions:
REMARK  status: ('A' for Active; 'I' for Inactive)
ROOT
ATOM      1  C   UNL d   1       1.097  -1.224  -0.648  0.00  0.00     0.023 A 
ATOM      2  C1  UNL d   1      -0.139  -0.586  -0.747  0.00  0.00     0.003 A 
ATOM      3  C2  UNL d   1      -0.642   0.137   0.336  0.00  0.00     0.048 A 
ATOM      4  C3  UNL d   1       0.097   0.218   1.516  0.00  0.00     0.023 A 
ATOM      5  C4  UNL d   1       1.335  -0.418   1.620  0.00  0.00     0.048 A 
ATOM      6  C5  UNL d   1       1.833  -1.140   0.534  0.00  0.00     0.003 A 
ATOM      7  I   UNL d   1      -0.650   1.293   3.131  0.00  0.00    -0.146 I 
ENDROOT
TORSDOF 0
ENDMDL
