MODEL 1
REMARK minimizedAffinity -1.62519836
REMARK minimizedRMSD -1
REMARK  0 active torsions:
REMARK  status: ('A' for Active; 'I' for Inactive)
ROOT
ATOM      1  C   UNL d   1      -1.141   0.393   1.594  0.00  0.00     0.023 A 
ATOM      2  C1  UNL d   1       0.214   0.693   1.453  0.00  0.00     0.003 A 
ATOM      3  C2  UNL d   1       0.842   0.532   0.216  0.00  0.00     0.048 A 
ATOM      4  C3  UNL d   1       0.108   0.072  -0.877  0.00  0.00     0.023 A 
ATOM      5  C4  UNL d   1      -1.249  -0.229  -0.741  0.00  0.00     0.048 A 
ATOM      6  C5  UNL d   1      -1.871  -0.067   0.498  0.00  0.00     0.003 A 
ATOM      7  I   UNL d   1       1.039  -0.167  -2.719  0.00  0.00    -0.146 I 
ENDROOT
TORSDOF 0
ENDMDL
