MODEL 1
REMARK minimizedAffinity -4.75914764
REMARK minimizedRMSD -1
REMARK  0 active torsions:
REMARK  status: ('A' for Active; 'I' for Inactive)
ROOT
ATOM      1  C   UNL d   1      -0.461   0.995   3.220  0.00  0.00     0.023 A 
ATOM      2  C1  UNL d   1       0.760   0.362   2.983  0.00  0.00     0.003 A 
ATOM      3  C2  UNL d   1       0.992  -0.274   1.762  0.00  0.00     0.048 A 
ATOM      4  C3  UNL d   1       0.000  -0.273   0.782  0.00  0.00     0.023 A 
ATOM      5  C4  UNL d   1      -1.222   0.360   1.014  0.00  0.00     0.048 A 
ATOM      6  C5  UNL d   1      -1.450   0.993   2.237  0.00  0.00     0.003 A 
ATOM      7  I   UNL d   1       0.344  -1.219  -1.037  0.00  0.00    -0.146 I 
ENDROOT
TORSDOF 0
ENDMDL
