MODEL 1
REMARK minimizedAffinity -4.3187108
REMARK minimizedRMSD -1
REMARK  0 active torsions:
REMARK  status: ('A' for Active; 'I' for Inactive)
ROOT
ATOM      1  C   UNL d   1      -1.070   1.081   2.484  0.00  0.00     0.023 A 
ATOM      2  C1  UNL d   1      -1.975   0.671   1.504  0.00  0.00     0.003 A 
ATOM      3  C2  UNL d   1      -1.509   0.177   0.284  0.00  0.00     0.048 A 
ATOM      4  C3  UNL d   1      -0.136   0.095   0.051  0.00  0.00     0.023 A 
ATOM      5  C4  UNL d   1       0.773   0.503   1.028  0.00  0.00     0.048 A 
ATOM      6  C5  UNL d   1       0.302   0.998   2.246  0.00  0.00     0.003 A 
ATOM      7  I   UNL d   1       0.560  -0.640  -1.764  0.00  0.00    -0.146 I 
ENDROOT
TORSDOF 0
ENDMDL
