MODEL 1
REMARK minimizedAffinity -3.46692538
REMARK minimizedRMSD -1
REMARK  0 active torsions:
REMARK  status: ('A' for Active; 'I' for Inactive)
ROOT
ATOM      1  C   UNL d   1      -0.192  -1.107  -1.043  0.00  0.00     0.023 A 
ATOM      2  C1  UNL d   1       0.948  -0.655  -0.379  0.00  0.00     0.003 A 
ATOM      3  C2  UNL d   1       0.823   0.116   0.779  0.00  0.00     0.048 A 
ATOM      4  C3  UNL d   1      -0.445   0.430   1.267  0.00  0.00     0.023 A 
ATOM      5  C4  UNL d   1      -1.589  -0.021   0.606  0.00  0.00     0.048 A 
ATOM      6  C5  UNL d   1      -1.459  -0.791  -0.552  0.00  0.00     0.003 A 
ATOM      7  I   UNL d   1      -0.633   1.577   2.990  0.00  0.00    -0.146 I 
ENDROOT
TORSDOF 0
ENDMDL
