MODEL 1
REMARK minimizedAffinity -2.69590449
REMARK minimizedRMSD -1
REMARK  1 active torsions:
REMARK  status: ('A' for Active; 'I' for Inactive)
REMARK    1  A    between atoms: N_2  and  C1_3 
ROOT
ATOM      1  C1  UNL d   1       1.032  -1.197  -0.560  0.00  0.00     0.143 A 
ATOM      2  C2  UNL d   1       0.894  -1.494   0.800  0.00  0.00    -0.057 A 
ATOM      3  C3  UNL d   1      -0.036  -0.820   1.600  0.00  0.00     0.033 A 
ATOM      4  C4  UNL d   1      -0.828   0.188   1.059  0.00  0.00    -0.042 A 
ATOM      5  C5  UNL d   1      -0.690   0.517  -0.285  0.00  0.00     0.033 A 
ATOM      6  C6  UNL d   1       0.236  -0.164  -1.080  0.00  0.00    -0.057 A 
ENDROOT
BRANCH   1   7
ATOM      7  N   UNL d   1       2.006  -1.763  -1.385  0.00  0.00    -0.732 N 
ATOM      8  C   UNL d   1       2.023  -1.484  -2.805  0.00  0.00     0.284 C 
ATOM      9  H3  UNL d   1       2.927  -1.767  -0.952  0.00  0.00     0.395 HD
ENDBRANCH   1   7
TORSDOF 1
ENDMDL
