MODEL 1
REMARK minimizedAffinity -3.04179096
REMARK minimizedRMSD -1
REMARK  1 active torsions:
REMARK  status: ('A' for Active; 'I' for Inactive)
REMARK    1  A    between atoms: N_2  and  C1_3 
ROOT
ATOM      1  C1  UNL d   1      -0.205  -0.354   0.011  0.00  0.00     0.143 A 
ATOM      2  C2  UNL d   1       0.534  -1.075   0.955  0.00  0.00    -0.057 A 
ATOM      3  C3  UNL d   1       1.778  -1.631   0.632  0.00  0.00     0.033 A 
ATOM      4  C4  UNL d   1       2.292  -1.500  -0.654  0.00  0.00    -0.042 A 
ATOM      5  C5  UNL d   1       1.563  -0.809  -1.615  0.00  0.00     0.033 A 
ATOM      6  C6  UNL d   1       0.325  -0.250  -1.284  0.00  0.00    -0.057 A 
ENDROOT
BRANCH   1   7
ATOM      7  N   UNL d   1      -1.492   0.138   0.242  0.00  0.00    -0.732 N 
ATOM      8  C   UNL d   1      -1.903   0.530   1.574  0.00  0.00     0.284 C 
ATOM      9  H3  UNL d   1      -1.804   0.770  -0.491  0.00  0.00     0.395 HD
ENDBRANCH   1   7
TORSDOF 1
ENDMDL
