MODEL 1
REMARK minimizedAffinity -4.38289976
REMARK minimizedRMSD -1
REMARK  1 active torsions:
REMARK  status: ('A' for Active; 'I' for Inactive)
REMARK    1  A    between atoms: N_2  and  C1_3 
ROOT
ATOM      1  C1  UNL d   1       0.904   0.578  -1.395  0.00  0.00     0.143 A 
ATOM      2  C2  UNL d   1      -0.238   0.618  -0.588  0.00  0.00    -0.057 A 
ATOM      3  C3  UNL d   1      -0.553  -0.436   0.278  0.00  0.00     0.033 A 
ATOM      4  C4  UNL d   1       0.257  -1.565   0.332  0.00  0.00    -0.042 A 
ATOM      5  C5  UNL d   1       1.384  -1.638  -0.479  0.00  0.00     0.033 A 
ATOM      6  C6  UNL d   1       1.696  -0.579  -1.338  0.00  0.00    -0.057 A 
ENDROOT
BRANCH   1   7
ATOM      7  N   UNL d   1       1.218   1.550  -2.348  0.00  0.00    -0.732 N 
ATOM      8  C   UNL d   1       2.097   1.241  -3.455  0.00  0.00     0.284 C 
ATOM      9  H3  UNL d   1       0.413   2.118  -2.603  0.00  0.00     0.395 HD
ENDBRANCH   1   7
TORSDOF 1
ENDMDL
