MODEL 1
REMARK minimizedAffinity -2.02200747
REMARK minimizedRMSD -1
REMARK  1 active torsions:
REMARK  status: ('A' for Active; 'I' for Inactive)
REMARK    1  A    between atoms: N_2  and  C1_3 
ROOT
ATOM      1  C1  UNL d   1      -0.757   0.537   0.811  0.00  0.00     0.143 A 
ATOM      2  C2  UNL d   1      -2.007  -0.016   1.108  0.00  0.00    -0.057 A 
ATOM      3  C3  UNL d   1      -2.632   0.218   2.339  0.00  0.00     0.033 A 
ATOM      4  C4  UNL d   1      -2.001   0.989   3.310  0.00  0.00    -0.042 A 
ATOM      5  C5  UNL d   1      -0.747   1.528   3.047  0.00  0.00     0.033 A 
ATOM      6  C6  UNL d   1      -0.131   1.296   1.813  0.00  0.00    -0.057 A 
ENDROOT
BRANCH   1   7
ATOM      7  N   UNL d   1      -0.041   0.260  -0.356  0.00  0.00    -0.732 N 
ATOM      8  C   UNL d   1       0.689  -0.981  -0.496  0.00  0.00     0.284 C 
ATOM      9  H3  UNL d   1      -0.540   0.546  -1.195  0.00  0.00     0.395 HD
ENDBRANCH   1   7
TORSDOF 1
ENDMDL
