MODEL 1
REMARK minimizedAffinity -1.53824604
REMARK minimizedRMSD -1
REMARK  1 active torsions:
REMARK  status: ('A' for Active; 'I' for Inactive)
REMARK    1  A    between atoms: N_2  and  C1_3 
ROOT
ATOM      1  C1  UNL d   1      -0.516  -0.242  -0.030  0.00  0.00     0.143 A 
ATOM      2  C2  UNL d   1      -0.412  -1.634   0.069  0.00  0.00    -0.057 A 
ATOM      3  C3  UNL d   1       0.730  -2.311  -0.375  0.00  0.00     0.033 A 
ATOM      4  C4  UNL d   1       1.781  -1.608  -0.956  0.00  0.00    -0.042 A 
ATOM      5  C5  UNL d   1       1.689  -0.227  -1.088  0.00  0.00     0.033 A 
ATOM      6  C6  UNL d   1       0.549   0.444  -0.636  0.00  0.00    -0.057 A 
ENDROOT
BRANCH   1   7
ATOM      7  N   UNL d   1      -1.665   0.478   0.303  0.00  0.00    -0.732 N 
ATOM      8  C   UNL d   1      -1.992   0.745   1.687  0.00  0.00     0.284 C 
ATOM      9  H3  UNL d   1      -1.825   1.265  -0.322  0.00  0.00     0.395 HD
ENDBRANCH   1   7
TORSDOF 1
ENDMDL
