MODEL 1
REMARK minimizedAffinity 1.21685541
REMARK minimizedRMSD -1
REMARK  1 active torsions:
REMARK  status: ('A' for Active; 'I' for Inactive)
REMARK    1  A    between atoms: N_2  and  C1_3 
ROOT
ATOM      1  C1  UNL d   1       0.049  -0.411   1.549  0.00  0.00     0.143 A 
ATOM      2  C2  UNL d   1       0.887  -1.506   1.783  0.00  0.00    -0.057 A 
ATOM      3  C3  UNL d   1       1.117  -2.469   0.794  0.00  0.00     0.033 A 
ATOM      4  C4  UNL d   1       0.488  -2.369  -0.443  0.00  0.00    -0.042 A 
ATOM      5  C5  UNL d   1      -0.369  -1.302  -0.689  0.00  0.00     0.033 A 
ATOM      6  C6  UNL d   1      -0.590  -0.340   0.301  0.00  0.00    -0.057 A 
ENDROOT
BRANCH   1   7
ATOM      7  N   UNL d   1      -0.297   0.527   2.525  0.00  0.00    -0.732 N 
ATOM      8  C   UNL d   1      -1.387   0.269   3.441  0.00  0.00     0.284 C 
ATOM      9  H3  UNL d   1       0.517   0.955   2.958  0.00  0.00     0.395 HD
ENDBRANCH   1   7
TORSDOF 1
ENDMDL
