MODEL 1
REMARK minimizedAffinity -3.69063592
REMARK minimizedRMSD -1
REMARK  1 active torsions:
REMARK  status: ('A' for Active; 'I' for Inactive)
REMARK    1  A    between atoms: N_2  and  C1_3 
ROOT
ATOM      1  C1  UNL d   1      -0.966   0.663   1.677  0.00  0.00     0.143 A 
ATOM      2  C2  UNL d   1       0.062  -0.187   2.099  0.00  0.00    -0.057 A 
ATOM      3  C3  UNL d   1       0.663  -1.093   1.217  0.00  0.00     0.033 A 
ATOM      4  C4  UNL d   1       0.225  -1.186  -0.100  0.00  0.00    -0.042 A 
ATOM      5  C5  UNL d   1      -0.812  -0.369  -0.535  0.00  0.00     0.033 A 
ATOM      6  C6  UNL d   1      -1.404   0.539   0.349  0.00  0.00    -0.057 A 
ENDROOT
BRANCH   1   7
ATOM      7  N   UNL d   1      -1.671   1.516   2.530  0.00  0.00    -0.732 N 
ATOM      8  C   UNL d   1      -1.835   1.186   3.930  0.00  0.00     0.284 C 
ATOM      9  H3  UNL d   1      -1.465   2.497   2.355  0.00  0.00     0.395 HD
ENDBRANCH   1   7
TORSDOF 1
ENDMDL
