MODEL 1
REMARK minimizedAffinity -2.28505564
REMARK minimizedRMSD -1
REMARK  1 active torsions:
REMARK  status: ('A' for Active; 'I' for Inactive)
REMARK    1  A    between atoms: N_2  and  C1_3 
ROOT
ATOM      1  C1  UNL d   1      -1.934   0.467   1.630  0.00  0.00     0.143 A 
ATOM      2  C2  UNL d   1      -2.297   0.577   0.283  0.00  0.00    -0.057 A 
ATOM      3  C3  UNL d   1      -1.370   0.339  -0.739  0.00  0.00     0.033 A 
ATOM      4  C4  UNL d   1      -0.053   0.015  -0.431  0.00  0.00    -0.042 A 
ATOM      5  C5  UNL d   1       0.335  -0.076   0.900  0.00  0.00     0.033 A 
ATOM      6  C6  UNL d   1      -0.596   0.156   1.917  0.00  0.00    -0.057 A 
ENDROOT
BRANCH   1   7
ATOM      7  N   UNL d   1      -2.783   0.788   2.693  0.00  0.00    -0.732 N 
ATOM      8  C   UNL d   1      -2.332   1.652   3.762  0.00  0.00     0.284 C 
ATOM      9  H3  UNL d   1      -3.737   0.967   2.387  0.00  0.00     0.395 HD
ENDBRANCH   1   7
TORSDOF 1
ENDMDL
