MODEL 1
REMARK minimizedAffinity -4.14168167
REMARK minimizedRMSD -1
REMARK  1 active torsions:
REMARK  status: ('A' for Active; 'I' for Inactive)
REMARK    1  A    between atoms: N_2  and  C1_3 
ROOT
ATOM      1  C1  UNL d   1      -0.266  -0.053  -0.786  0.00  0.00     0.143 A 
ATOM      2  C2  UNL d   1      -0.034   1.001  -1.676  0.00  0.00    -0.057 A 
ATOM      3  C3  UNL d   1       1.060   0.987  -2.549  0.00  0.00     0.033 A 
ATOM      4  C4  UNL d   1       1.962  -0.073  -2.526  0.00  0.00    -0.042 A 
ATOM      5  C5  UNL d   1       1.765  -1.119  -1.632  0.00  0.00     0.033 A 
ATOM      6  C6  UNL d   1       0.666  -1.102  -0.768  0.00  0.00    -0.057 A 
ENDROOT
BRANCH   1   7
ATOM      7  N   UNL d   1      -1.280  -0.051   0.175  0.00  0.00    -0.732 N 
ATOM      8  C   UNL d   1      -1.037   0.471   1.503  0.00  0.00     0.284 C 
ATOM      9  H3  UNL d   1      -2.184   0.209  -0.214  0.00  0.00     0.395 HD
ENDBRANCH   1   7
TORSDOF 1
ENDMDL
