MODEL 1
REMARK minimizedAffinity -2.34492445
REMARK minimizedRMSD -1
REMARK  1 active torsions:
REMARK  status: ('A' for Active; 'I' for Inactive)
REMARK    1  A    between atoms: N_2  and  C1_3 
ROOT
ATOM      1  C1  UNL d   1      -0.310  -0.126   0.045  0.00  0.00     0.143 A 
ATOM      2  C2  UNL d   1       0.292   0.232  -1.166  0.00  0.00    -0.057 A 
ATOM      3  C3  UNL d   1       1.132  -0.656  -1.849  0.00  0.00     0.033 A 
ATOM      4  C4  UNL d   1       1.408  -1.911  -1.317  0.00  0.00    -0.042 A 
ATOM      5  C5  UNL d   1       0.841  -2.278  -0.102  0.00  0.00     0.033 A 
ATOM      6  C6  UNL d   1      -0.002  -1.390   0.572  0.00  0.00    -0.057 A 
ENDROOT
BRANCH   1   7
ATOM      7  N   UNL d   1      -1.075   0.748   0.821  0.00  0.00    -0.732 N 
ATOM      8  C   UNL d   1      -1.824   0.260   1.960  0.00  0.00     0.284 C 
ATOM      9  H3  UNL d   1      -0.607   1.637   0.982  0.00  0.00     0.395 HD
ENDBRANCH   1   7
TORSDOF 1
ENDMDL
