MODEL 1
REMARK minimizedAffinity 5.28506947
REMARK minimizedRMSD -1
REMARK  1 active torsions:
REMARK  status: ('A' for Active; 'I' for Inactive)
REMARK    1  A    between atoms: N_2  and  C1_3 
ROOT
ATOM      1  C1  UNL d   1       1.213  -3.276   0.187  0.00  0.00     0.143 A 
ATOM      2  C2  UNL d   1       0.747  -2.749  -1.022  0.00  0.00    -0.057 A 
ATOM      3  C3  UNL d   1       1.468  -1.769  -1.713  0.00  0.00     0.033 A 
ATOM      4  C4  UNL d   1       2.658  -1.274  -1.190  0.00  0.00    -0.042 A 
ATOM      5  C5  UNL d   1       3.128  -1.764   0.023  0.00  0.00     0.033 A 
ATOM      6  C6  UNL d   1       2.406  -2.749   0.705  0.00  0.00    -0.057 A 
ENDROOT
BRANCH   1   7
ATOM      7  N   UNL d   1       0.493  -4.181   0.971  0.00  0.00    -0.732 N 
ATOM      8  C   UNL d   1      -0.850  -3.869   1.411  0.00  0.00     0.284 C 
ATOM      9  H3  UNL d   1       0.617  -5.143   0.666  0.00  0.00     0.395 HD
ENDBRANCH   1   7
TORSDOF 1
ENDMDL
