MODEL 1
REMARK minimizedAffinity 9.87897682
REMARK minimizedRMSD -1
REMARK  0 active torsions:
REMARK  status: ('A' for Active; 'I' for Inactive)
ROOT
ATOM      1  C1  DEN d   1      -2.732  -1.795  -1.663  0.00  0.00     0.130 A 
ATOM      2  C2  DEN d   1      -3.537  -1.802  -2.881  0.00  0.00    -0.031 A 
ATOM      3  C3  DEN d   1      -3.803  -0.399  -3.261  0.00  0.00     0.027 A 
ATOM      4  C4  DEN d   1      -3.046   1.770  -2.089  0.00  0.00     0.027 A 
ATOM      5  C5  DEN d   1      -2.354   2.282  -1.013  0.00  0.00    -0.003 A 
ATOM      6  C6  DEN d   1      -1.774   1.478  -0.068  0.00  0.00     0.001 A 
ATOM      7  C7  DEN d   1      -1.836   0.117  -0.205  0.00  0.00     0.017 A 
ATOM      8  C8  DEN d   1      -2.538  -0.407  -1.282  0.00  0.00    -0.094 A 
ATOM      9  C9  DEN d   1      -3.107   0.422  -2.234  0.00  0.00    -0.072 A 
ENDROOT
TORSDOF 0
ENDMDL
