MODEL 1
REMARK minimizedAffinity 7.17392349
REMARK minimizedRMSD -1
REMARK  0 active torsions:
REMARK  status: ('A' for Active; 'I' for Inactive)
ROOT
ATOM      1  C1  DEN d   1       3.222  -1.003   2.506  0.00  0.00     0.130 A 
ATOM      2  C2  DEN d   1       1.968  -0.697   1.823  0.00  0.00    -0.031 A 
ATOM      3  C3  DEN d   1       1.017  -1.792   2.102  0.00  0.00     0.027 A 
ATOM      4  C4  DEN d   1       1.361  -3.917   3.522  0.00  0.00     0.027 A 
ATOM      5  C5  DEN d   1       2.262  -4.620   4.290  0.00  0.00    -0.003 A 
ATOM      6  C6  DEN d   1       3.547  -4.188   4.488  0.00  0.00     0.001 A 
ATOM      7  C7  DEN d   1       3.952  -2.996   3.947  0.00  0.00     0.017 A 
ATOM      8  C8  DEN d   1       3.051  -2.285   3.166  0.00  0.00    -0.094 A 
ATOM      9  C9  DEN d   1       1.753  -2.733   2.987  0.00  0.00    -0.072 A 
ENDROOT
TORSDOF 0
ENDMDL
