MODEL 1
REMARK minimizedAffinity 8.25761795
REMARK minimizedRMSD -1
REMARK  0 active torsions:
REMARK  status: ('A' for Active; 'I' for Inactive)
ROOT
ATOM      1  C1  DEN d   1      -3.047   5.424   4.211  0.00  0.00     0.130 A 
ATOM      2  C2  DEN d   1      -4.449   5.722   4.495  0.00  0.00    -0.031 A 
ATOM      3  C3  DEN d   1      -5.280   4.944   3.555  0.00  0.00     0.027 A 
ATOM      4  C4  DEN d   1      -4.537   3.313   1.699  0.00  0.00     0.027 A 
ATOM      5  C5  DEN d   1      -3.450   2.747   1.072  0.00  0.00    -0.003 A 
ATOM      6  C6  DEN d   1      -2.162   3.056   1.421  0.00  0.00     0.001 A 
ATOM      7  C7  DEN d   1      -1.930   3.923   2.456  0.00  0.00     0.017 A 
ATOM      8  C8  DEN d   1      -3.021   4.504   3.089  0.00  0.00    -0.094 A 
ATOM      9  C9  DEN d   1      -4.315   4.169   2.729  0.00  0.00    -0.072 A 
ENDROOT
TORSDOF 0
ENDMDL
