MODEL 1
REMARK minimizedAffinity 7.74869585
REMARK minimizedRMSD -1
REMARK  0 active torsions:
REMARK  status: ('A' for Active; 'I' for Inactive)
ROOT
ATOM      1  C1  DEN d   1       3.099  -3.720   1.572  0.00  0.00     0.130 A 
ATOM      2  C2  DEN d   1       2.652  -4.757   2.498  0.00  0.00    -0.031 A 
ATOM      3  C3  DEN d   1       1.711  -4.140   3.454  0.00  0.00     0.027 A 
ATOM      4  C4  DEN d   1       0.904  -1.694   3.588  0.00  0.00     0.027 A 
ATOM      5  C5  DEN d   1       1.016  -0.443   3.024  0.00  0.00    -0.003 A 
ATOM      6  C6  DEN d   1       1.849  -0.190   1.967  0.00  0.00     0.001 A 
ATOM      7  C7  DEN d   1       2.569  -1.214   1.411  0.00  0.00     0.017 A 
ATOM      8  C8  DEN d   1       2.467  -2.477   1.979  0.00  0.00    -0.094 A 
ATOM      9  C9  DEN d   1       1.610  -2.715   3.040  0.00  0.00    -0.072 A 
ENDROOT
TORSDOF 0
ENDMDL
