MODEL 1
REMARK minimizedAffinity -4.92935133
REMARK minimizedRMSD -1
REMARK  1 active torsions:
REMARK  status: ('A' for Active; 'I' for Inactive)
REMARK    1  A    between atoms: C1_2  and  C2_3 
ROOT
ATOM      1  C2  UNL d   1       0.030   0.172  -1.018  0.00  0.00    -0.081 A 
ATOM      2  C3  UNL d   1      -1.274   0.444  -0.587  0.00  0.00     0.006 A 
ATOM      3  C4  UNL d   1      -1.512   0.871   0.722  0.00  0.00     0.002 A 
ATOM      4  C5  UNL d   1      -0.451   1.040   1.618  0.00  0.00    -0.080 A 
ATOM      5  C6  UNL d   1      -0.690   1.526   3.016  0.00  0.00     0.076 C 
ATOM      6  C7  UNL d   1       0.850   0.752   1.192  0.00  0.00     0.002 A 
ATOM      7  C8  UNL d   1       1.089   0.324  -0.116  0.00  0.00     0.006 A 
ENDROOT
BRANCH   1   8
ATOM      8  C1  UNL d   1       0.297  -0.226  -2.448  0.00  0.00     0.054 C 
ATOM      9  C   UNL d   1       1.745   0.040  -2.835  0.00  0.00     0.018 C 
ENDBRANCH   1   8
TORSDOF 1
ENDMDL
