MODEL 1
REMARK minimizedAffinity -3.26467752
REMARK minimizedRMSD -1
REMARK  1 active torsions:
REMARK  status: ('A' for Active; 'I' for Inactive)
REMARK    1  A    between atoms: C1_2  and  C2_3 
ROOT
ATOM      1  C2  UNL d   1      -0.032  -0.595  -0.897  0.00  0.00    -0.081 A 
ATOM      2  C3  UNL d   1      -1.285  -0.417  -0.298  0.00  0.00     0.006 A 
ATOM      3  C4  UNL d   1      -1.402   0.283   0.905  0.00  0.00     0.002 A 
ATOM      4  C5  UNL d   1      -0.270   0.824   1.525  0.00  0.00    -0.080 A 
ATOM      5  C6  UNL d   1      -0.386   1.604   2.800  0.00  0.00     0.076 C 
ATOM      6  C7  UNL d   1       0.984   0.631   0.936  0.00  0.00     0.002 A 
ATOM      7  C8  UNL d   1       1.102  -0.070  -0.267  0.00  0.00     0.006 A 
ENDROOT
BRANCH   1   8
ATOM      8  C1  UNL d   1       0.090  -1.294  -2.227  0.00  0.00     0.054 C 
ATOM      9  C   UNL d   1       0.582  -0.343  -3.308  0.00  0.00     0.018 C 
ENDBRANCH   1   8
TORSDOF 1
ENDMDL
