MODEL 1
REMARK minimizedAffinity -4.4180727
REMARK minimizedRMSD -1
REMARK  1 active torsions:
REMARK  status: ('A' for Active; 'I' for Inactive)
REMARK    1  A    between atoms: C1_2  and  C2_3 
ROOT
ATOM      1  C2  UNL d   1       0.216  -0.169  -1.362  0.00  0.00    -0.081 A 
ATOM      2  C3  UNL d   1      -1.005  -0.487  -0.754  0.00  0.00     0.006 A 
ATOM      3  C4  UNL d   1      -1.334   0.045   0.495  0.00  0.00     0.002 A 
ATOM      4  C5  UNL d   1      -0.453   0.910   1.153  0.00  0.00    -0.080 A 
ATOM      5  C6  UNL d   1      -0.807   1.512   2.480  0.00  0.00     0.076 C 
ATOM      6  C7  UNL d   1       0.774   1.213   0.554  0.00  0.00     0.002 A 
ATOM      7  C8  UNL d   1       1.105   0.681  -0.694  0.00  0.00     0.006 A 
ENDROOT
BRANCH   1   8
ATOM      8  C1  UNL d   1       0.546  -0.690  -2.737  0.00  0.00     0.054 C 
ATOM      9  C   UNL d   1       1.517   0.233  -3.460  0.00  0.00     0.018 C 
ENDBRANCH   1   8
TORSDOF 1
ENDMDL
