MODEL 1
REMARK minimizedAffinity -2.63211107
REMARK minimizedRMSD -1
REMARK  1 active torsions:
REMARK  status: ('A' for Active; 'I' for Inactive)
REMARK    1  A    between atoms: C1_2  and  C2_3 
ROOT
ATOM      1  C2  UNL d   1      -0.041  -0.373  -1.142  0.00  0.00    -0.081 A 
ATOM      2  C3  UNL d   1      -1.399  -0.243  -0.825  0.00  0.00     0.006 A 
ATOM      3  C4  UNL d   1      -1.791   0.303   0.400  0.00  0.00     0.002 A 
ATOM      4  C5  UNL d   1      -0.834   0.735   1.324  0.00  0.00    -0.080 A 
ATOM      5  C6  UNL d   1      -1.241   1.350   2.629  0.00  0.00     0.076 C 
ATOM      6  C7  UNL d   1       0.523   0.589   1.015  0.00  0.00     0.002 A 
ATOM      7  C8  UNL d   1       0.916   0.043  -0.209  0.00  0.00     0.006 A 
ENDROOT
BRANCH   1   8
ATOM      8  C1  UNL d   1       0.384  -0.901  -2.488  0.00  0.00     0.054 C 
ATOM      9  C   UNL d   1       0.697   0.233  -3.454  0.00  0.00     0.018 C 
ENDBRANCH   1   8
TORSDOF 1
ENDMDL
