MODEL 1
REMARK minimizedAffinity -4.20146036
REMARK minimizedRMSD -1
REMARK  1 active torsions:
REMARK  status: ('A' for Active; 'I' for Inactive)
REMARK    1  A    between atoms: C1_2  and  C2_3 
ROOT
ATOM      1  C2  UNL d   1      -0.982   0.043   1.397  0.00  0.00    -0.081 A 
ATOM      2  C3  UNL d   1       0.381   0.007   1.080  0.00  0.00     0.006 A 
ATOM      3  C4  UNL d   1       0.797  -0.251  -0.229  0.00  0.00     0.002 A 
ATOM      4  C5  UNL d   1      -0.142  -0.470  -1.242  0.00  0.00    -0.080 A 
ATOM      5  C6  UNL d   1       0.291  -0.718  -2.656  0.00  0.00     0.076 C 
ATOM      6  C7  UNL d   1      -1.504  -0.452  -0.922  0.00  0.00     0.002 A 
ATOM      7  C8  UNL d   1      -1.920  -0.194   0.386  0.00  0.00     0.006 A 
ENDROOT
BRANCH   1   8
ATOM      8  C1  UNL d   1      -1.436   0.385   2.793  0.00  0.00     0.054 C 
ATOM      9  C   UNL d   1      -0.264   0.809   3.667  0.00  0.00     0.018 C 
ENDBRANCH   1   8
TORSDOF 1
ENDMDL
