MODEL 1
REMARK minimizedAffinity -5.06764603
REMARK minimizedRMSD -1
REMARK  1 active torsions:
REMARK  status: ('A' for Active; 'I' for Inactive)
REMARK    1  A    between atoms: C1_2  and  C2_3 
ROOT
ATOM      1  C2  UNL d   1      -0.089  -0.176  -0.449  0.00  0.00    -0.081 A 
ATOM      2  C3  UNL d   1      -1.315   0.379  -0.061  0.00  0.00     0.006 A 
ATOM      3  C4  UNL d   1      -1.437   1.042   1.162  0.00  0.00     0.002 A 
ATOM      4  C5  UNL d   1      -0.335   1.169   2.014  0.00  0.00    -0.080 A 
ATOM      5  C6  UNL d   1      -0.445   1.905   3.316  0.00  0.00     0.076 C 
ATOM      6  C7  UNL d   1       0.886   0.600   1.634  0.00  0.00     0.002 A 
ATOM      7  C8  UNL d   1       1.008  -0.064   0.412  0.00  0.00     0.006 A 
ENDROOT
BRANCH   1   8
ATOM      8  C1  UNL d   1       0.062  -0.835  -1.796  0.00  0.00     0.054 C 
ATOM      9  C   UNL d   1       1.021  -0.059  -2.687  0.00  0.00     0.018 C 
ENDBRANCH   1   8
TORSDOF 1
ENDMDL
