MODEL 1
REMARK minimizedAffinity -3.41903496
REMARK minimizedRMSD -1
REMARK  1 active torsions:
REMARK  status: ('A' for Active; 'I' for Inactive)
REMARK    1  A    between atoms: C1_2  and  C2_3 
ROOT
ATOM      1  C2  UNL d   1      -0.240  -0.344  -0.553  0.00  0.00    -0.081 A 
ATOM      2  C3  UNL d   1      -1.423  -0.315   0.195  0.00  0.00     0.006 A 
ATOM      3  C4  UNL d   1      -1.449   0.285   1.456  0.00  0.00     0.002 A 
ATOM      4  C5  UNL d   1      -0.296   0.874   1.986  0.00  0.00    -0.080 A 
ATOM      5  C6  UNL d   1      -0.318   1.549   3.325  0.00  0.00     0.076 C 
ATOM      6  C7  UNL d   1       0.890   0.831   1.246  0.00  0.00     0.002 A 
ATOM      7  C8  UNL d   1       0.917   0.230  -0.015  0.00  0.00     0.006 A 
ENDROOT
BRANCH   1   8
ATOM      8  C1  UNL d   1      -0.225  -0.933  -1.941  0.00  0.00     0.054 C 
ATOM      9  C   UNL d   1       0.565  -0.059  -2.904  0.00  0.00     0.018 C 
ENDBRANCH   1   8
TORSDOF 1
ENDMDL
