MODEL 1
REMARK minimizedAffinity 9.35548401
REMARK minimizedRMSD -1
REMARK  1 active torsions:
REMARK  status: ('A' for Active; 'I' for Inactive)
REMARK    1  A    between atoms: C1_2  and  C2_3 
ROOT
ATOM      1  C2  UNL d   1       4.801   5.286  -2.214  0.00  0.00    -0.081 A 
ATOM      2  C3  UNL d   1       3.603   5.045  -2.896  0.00  0.00     0.006 A 
ATOM      3  C4  UNL d   1       3.603   4.332  -4.097  0.00  0.00     0.002 A 
ATOM      4  C5  UNL d   1       4.799   3.842  -4.632  0.00  0.00    -0.080 A 
ATOM      5  C6  UNL d   1       4.809   3.049  -5.905  0.00  0.00     0.076 C 
ATOM      6  C7  UNL d   1       5.999   4.098  -3.959  0.00  0.00     0.002 A 
ATOM      7  C8  UNL d   1       5.999   4.811  -2.759  0.00  0.00     0.006 A 
ENDROOT
BRANCH   1   8
ATOM      8  C1  UNL d   1       4.797   5.999  -0.885  0.00  0.00     0.054 C 
ATOM      9  C   UNL d   1       5.999   5.601  -0.041  0.00  0.00     0.018 C 
ENDBRANCH   1   8
TORSDOF 1
ENDMDL
