MODEL 1
REMARK minimizedAffinity 0.505457401
REMARK minimizedRMSD -1
REMARK  1 active torsions:
REMARK  status: ('A' for Active; 'I' for Inactive)
REMARK    1  A    between atoms: C1_2  and  C2_3 
ROOT
ATOM      1  C2  UNL d   1       2.593   4.549  -2.365  0.00  0.00    -0.081 A 
ATOM      2  C3  UNL d   1       2.414   4.901  -3.708  0.00  0.00     0.006 A 
ATOM      3  C4  UNL d   1       3.513   5.225  -4.508  0.00  0.00     0.002 A 
ATOM      4  C5  UNL d   1       4.808   5.195  -3.980  0.00  0.00    -0.080 A 
ATOM      5  C6  UNL d   1       5.999   5.511  -4.836  0.00  0.00     0.076 C 
ATOM      6  C7  UNL d   1       4.986   4.860  -2.633  0.00  0.00     0.002 A 
ATOM      7  C8  UNL d   1       3.887   4.537  -1.833  0.00  0.00     0.006 A 
ENDROOT
BRANCH   1   8
ATOM      8  C1  UNL d   1       1.417   4.137  -1.517  0.00  0.00     0.054 C 
ATOM      9  C   UNL d   1       1.852   3.774  -0.104  0.00  0.00     0.018 C 
ENDBRANCH   1   8
TORSDOF 1
ENDMDL
