MODEL 1
REMARK minimizedAffinity -0.795548916
REMARK minimizedRMSD -1
REMARK  1 active torsions:
REMARK  status: ('A' for Active; 'I' for Inactive)
REMARK    1  A    between atoms: C1_2  and  C2_3 
ROOT
ATOM      1  C2  UNL d   1      -0.743  -3.707  -3.952  0.00  0.00    -0.081 A 
ATOM      2  C3  UNL d   1      -0.040  -4.233  -2.861  0.00  0.00     0.006 A 
ATOM      3  C4  UNL d   1      -0.107  -3.613  -1.611  0.00  0.00     0.002 A 
ATOM      4  C5  UNL d   1      -0.883  -2.464  -1.429  0.00  0.00    -0.080 A 
ATOM      5  C6  UNL d   1      -0.987  -1.806  -0.085  0.00  0.00     0.076 C 
ATOM      6  C7  UNL d   1      -1.571  -1.928  -2.523  0.00  0.00     0.002 A 
ATOM      7  C8  UNL d   1      -1.504  -2.547  -3.773  0.00  0.00     0.006 A 
ENDROOT
BRANCH   1   8
ATOM      8  C1  UNL d   1      -0.725  -4.409  -5.286  0.00  0.00     0.054 C 
ATOM      9  C   UNL d   1      -1.393  -5.774  -5.201  0.00  0.00     0.018 C 
ENDBRANCH   1   8
TORSDOF 1
ENDMDL
