MODEL 1
REMARK minimizedAffinity -1.47089112
REMARK minimizedRMSD -1
REMARK  1 active torsions:
REMARK  status: ('A' for Active; 'I' for Inactive)
REMARK    1  A    between atoms: C1_2  and  C2_3 
ROOT
ATOM      1  C2  UNL d   1       4.474   4.674  -4.609  0.00  0.00    -0.081 A 
ATOM      2  C3  UNL d   1       5.502   4.620  -5.557  0.00  0.00     0.006 A 
ATOM      3  C4  UNL d   1       5.994   3.390  -5.999  0.00  0.00     0.002 A 
ATOM      4  C5  UNL d   1       5.461   2.194  -5.506  0.00  0.00    -0.080 A 
ATOM      5  C6  UNL d   1       5.959   0.866  -5.995  0.00  0.00     0.076 C 
ATOM      6  C7  UNL d   1       4.445   2.248  -4.546  0.00  0.00     0.002 A 
ATOM      7  C8  UNL d   1       3.953   3.478  -4.103  0.00  0.00     0.006 A 
ENDROOT
BRANCH   1   8
ATOM      8  C1  UNL d   1       3.897   5.999  -4.178  0.00  0.00     0.054 C 
ATOM      9  C   UNL d   1       2.377   5.996  -4.267  0.00  0.00     0.018 C 
ENDBRANCH   1   8
TORSDOF 1
ENDMDL
