MODEL 1
REMARK minimizedAffinity 10.6895561
REMARK minimizedRMSD -1
REMARK  1 active torsions:
REMARK  status: ('A' for Active; 'I' for Inactive)
REMARK    1  A    between atoms: C1_2  and  C2_3 
ROOT
ATOM      1  C2  UNL d   1       2.716  -2.062  -3.150  0.00  0.00    -0.081 A 
ATOM      2  C3  UNL d   1       1.740  -1.573  -2.273  0.00  0.00     0.006 A 
ATOM      3  C4  UNL d   1       0.389  -1.853  -2.488  0.00  0.00     0.002 A 
ATOM      4  C5  UNL d   1      -0.008  -2.634  -3.579  0.00  0.00    -0.080 A 
ATOM      5  C6  UNL d   1      -1.453  -2.968  -3.805  0.00  0.00     0.076 C 
ATOM      6  C7  UNL d   1       0.964  -3.108  -4.465  0.00  0.00     0.002 A 
ATOM      7  C8  UNL d   1       2.316  -2.828  -4.251  0.00  0.00     0.006 A 
ENDROOT
BRANCH   1   8
ATOM      8  C1  UNL d   1       4.179  -1.816  -2.884  0.00  0.00     0.054 C 
ATOM      9  C   UNL d   1       4.803  -0.959  -3.976  0.00  0.00     0.018 C 
ENDBRANCH   1   8
TORSDOF 1
ENDMDL
