MODEL 1
REMARK minimizedAffinity 6.99582624
REMARK minimizedRMSD -1
REMARK  1 active torsions:
REMARK  status: ('A' for Active; 'I' for Inactive)
REMARK    1  A    between atoms: C1_2  and  C2_3 
ROOT
ATOM      1  C2  UNL d   1       5.103   4.574  -3.429  0.00  0.00    -0.081 A 
ATOM      2  C3  UNL d   1       5.648   4.809  -2.161  0.00  0.00     0.006 A 
ATOM      3  C4  UNL d   1       4.818   4.923  -1.043  0.00  0.00     0.002 A 
ATOM      4  C5  UNL d   1       3.431   4.796  -1.173  0.00  0.00    -0.080 A 
ATOM      5  C6  UNL d   1       2.531   4.886   0.024  0.00  0.00     0.076 C 
ATOM      6  C7  UNL d   1       2.885   4.578  -2.442  0.00  0.00     0.002 A 
ATOM      7  C8  UNL d   1       3.714   4.465  -3.560  0.00  0.00     0.006 A 
ENDROOT
BRANCH   1   8
ATOM      8  C1  UNL d   1       6.000   4.386  -4.626  0.00  0.00     0.054 C 
ATOM      9  C   UNL d   1       5.997   2.939  -5.097  0.00  0.00     0.018 C 
ENDBRANCH   1   8
TORSDOF 1
ENDMDL
