MODEL 1
REMARK minimizedAffinity -3.87032771
REMARK minimizedRMSD -1
REMARK  1 active torsions:
REMARK  status: ('A' for Active; 'I' for Inactive)
REMARK    1  A    between atoms: C1_2  and  C2_3 
ROOT
ATOM      1  C2  UNL d   1       4.790   3.775  -4.661  0.00  0.00    -0.081 A 
ATOM      2  C3  UNL d   1       3.585   4.137  -4.047  0.00  0.00     0.006 A 
ATOM      3  C4  UNL d   1       3.589   4.846  -2.844  0.00  0.00     0.002 A 
ATOM      4  C5  UNL d   1       4.796   5.212  -2.239  0.00  0.00    -0.080 A 
ATOM      5  C6  UNL d   1       4.813   6.000  -0.963  0.00  0.00     0.076 C 
ATOM      6  C7  UNL d   1       6.000   4.835  -2.843  0.00  0.00     0.002 A 
ATOM      7  C8  UNL d   1       5.997   4.125  -4.046  0.00  0.00     0.006 A 
ENDROOT
BRANCH   1   8
ATOM      8  C1  UNL d   1       4.790   3.067  -5.992  0.00  0.00     0.054 C 
ATOM      9  C   UNL d   1       5.240   1.620  -5.848  0.00  0.00     0.018 C 
ENDBRANCH   1   8
TORSDOF 1
ENDMDL
