MODEL 1
REMARK minimizedAffinity 4.98391819
REMARK minimizedRMSD -1
REMARK  1 active torsions:
REMARK  status: ('A' for Active; 'I' for Inactive)
REMARK    1  A    between atoms: C1_2  and  C2_3 
ROOT
ATOM      1  C2  UNL d   1       5.826   3.476  -4.688  0.00  0.00    -0.081 A 
ATOM      2  C3  UNL d   1       5.580   4.849  -4.816  0.00  0.00     0.006 A 
ATOM      3  C4  UNL d   1       5.519   5.666  -3.685  0.00  0.00     0.002 A 
ATOM      4  C5  UNL d   1       5.711   5.127  -2.409  0.00  0.00    -0.080 A 
ATOM      5  C6  UNL d   1       5.678   5.999  -1.189  0.00  0.00     0.076 C 
ATOM      6  C7  UNL d   1       5.939   3.753  -2.279  0.00  0.00     0.002 A 
ATOM      7  C8  UNL d   1       5.999   2.935  -3.410  0.00  0.00     0.006 A 
ENDROOT
BRANCH   1   8
ATOM      8  C1  UNL d   1       5.956   2.604  -5.910  0.00  0.00     0.054 C 
ATOM      9  C   UNL d   1       5.907   1.127  -5.543  0.00  0.00     0.018 C 
ENDBRANCH   1   8
TORSDOF 1
ENDMDL
