MODEL 1
REMARK minimizedAffinity -0.952054679
REMARK minimizedRMSD -1
REMARK  1 active torsions:
REMARK  status: ('A' for Active; 'I' for Inactive)
REMARK    1  A    between atoms: C1_2  and  C2_3 
ROOT
ATOM      1  C2  UNL d   1       3.853   5.870  -2.123  0.00  0.00    -0.081 A 
ATOM      2  C3  UNL d   1       5.250   5.967  -2.133  0.00  0.00     0.006 A 
ATOM      3  C4  UNL d   1       5.949   5.996  -3.342  0.00  0.00     0.002 A 
ATOM      4  C5  UNL d   1       5.264   5.936  -4.560  0.00  0.00    -0.080 A 
ATOM      5  C6  UNL d   1       6.000   5.996  -5.865  0.00  0.00     0.076 C 
ATOM      6  C7  UNL d   1       3.869   5.821  -4.550  0.00  0.00     0.002 A 
ATOM      7  C8  UNL d   1       3.170   5.792  -3.341  0.00  0.00     0.006 A 
ENDROOT
BRANCH   1   8
ATOM      8  C1  UNL d   1       3.092   5.904  -0.822  0.00  0.00     0.054 C 
ATOM      9  C   UNL d   1       2.608   4.516  -0.427  0.00  0.00     0.018 C 
ENDBRANCH   1   8
TORSDOF 1
ENDMDL
