MODEL 1
REMARK minimizedAffinity 4.71784306
REMARK minimizedRMSD -1
REMARK  1 active torsions:
REMARK  status: ('A' for Active; 'I' for Inactive)
REMARK    1  A    between atoms: C1_2  and  C2_3 
ROOT
ATOM      1  C2  UNL d   1       4.679   4.680  -5.018  0.00  0.00    -0.081 A 
ATOM      2  C3  UNL d   1       4.697   4.329  -3.662  0.00  0.00     0.006 A 
ATOM      3  C4  UNL d   1       3.685   4.765  -2.804  0.00  0.00     0.002 A 
ATOM      4  C5  UNL d   1       2.634   5.551  -3.288  0.00  0.00    -0.080 A 
ATOM      5  C6  UNL d   1       1.524   6.000  -2.384  0.00  0.00     0.076 C 
ATOM      6  C7  UNL d   1       2.624   5.916  -4.639  0.00  0.00     0.002 A 
ATOM      7  C8  UNL d   1       3.637   5.481  -5.497  0.00  0.00     0.006 A 
ENDROOT
BRANCH   1   8
ATOM      8  C1  UNL d   1       5.734   4.158  -5.959  0.00  0.00     0.054 C 
ATOM      9  C   UNL d   1       5.745   2.636  -5.989  0.00  0.00     0.018 C 
ENDBRANCH   1   8
TORSDOF 1
ENDMDL
