MODEL 1
REMARK minimizedAffinity 7.41923618
REMARK minimizedRMSD -1
REMARK  1 active torsions:
REMARK  status: ('A' for Active; 'I' for Inactive)
REMARK    1  A    between atoms: C1_2  and  C2_3 
ROOT
ATOM      1  C2  UNL d   1      -1.919  -3.249  -4.616  0.00  0.00    -0.081 A 
ATOM      2  C3  UNL d   1      -1.675  -4.258  -5.556  0.00  0.00     0.006 A 
ATOM      3  C4  UNL d   1      -2.686  -5.154  -5.912  0.00  0.00     0.002 A 
ATOM      4  C5  UNL d   1      -3.958  -5.052  -5.340  0.00  0.00    -0.080 A 
ATOM      5  C6  UNL d   1      -5.061  -5.989  -5.736  0.00  0.00     0.076 C 
ATOM      6  C7  UNL d   1      -4.197  -4.056  -4.388  0.00  0.00     0.002 A 
ATOM      7  C8  UNL d   1      -3.187  -3.160  -4.031  0.00  0.00     0.006 A 
ENDROOT
BRANCH   1   8
ATOM      8  C1  UNL d   1      -0.851  -2.241  -4.278  0.00  0.00     0.054 C 
ATOM      9  C   UNL d   1      -0.613  -2.169  -2.776  0.00  0.00     0.018 C 
ENDBRANCH   1   8
TORSDOF 1
ENDMDL
