MODEL 1
REMARK minimizedAffinity -0.955782652
REMARK minimizedRMSD -1
REMARK  1 active torsions:
REMARK  status: ('A' for Active; 'I' for Inactive)
REMARK    1  A    between atoms: C1_2  and  C2_3 
ROOT
ATOM      1  C2  UNL d   1       5.023   4.904  -4.348  0.00  0.00    -0.081 A 
ATOM      2  C3  UNL d   1       5.551   3.717  -3.825  0.00  0.00     0.006 A 
ATOM      3  C4  UNL d   1       5.874   3.623  -2.469  0.00  0.00     0.002 A 
ATOM      4  C5  UNL d   1       5.669   4.711  -1.613  0.00  0.00    -0.080 A 
ATOM      5  C6  UNL d   1       5.984   4.613  -0.150  0.00  0.00     0.076 C 
ATOM      6  C7  UNL d   1       5.157   5.902  -2.139  0.00  0.00     0.002 A 
ATOM      7  C8  UNL d   1       4.834   5.997  -3.495  0.00  0.00     0.006 A 
ENDROOT
BRANCH   1   8
ATOM      8  C1  UNL d   1       4.612   4.987  -5.796  0.00  0.00     0.054 C 
ATOM      9  C   UNL d   1       3.491   5.997  -5.996  0.00  0.00     0.018 C 
ENDBRANCH   1   8
TORSDOF 1
ENDMDL
