MODEL 1
REMARK minimizedAffinity 5.58424377
REMARK minimizedRMSD -1
REMARK  1 active torsions:
REMARK  status: ('A' for Active; 'I' for Inactive)
REMARK    1  A    between atoms: C1_2  and  C2_3 
ROOT
ATOM      1  C2  UNL d   1       5.568   2.292  -5.312  0.00  0.00    -0.081 A 
ATOM      2  C3  UNL d   1       6.000   2.657  -4.031  0.00  0.00     0.006 A 
ATOM      3  C4  UNL d   1       5.551   3.842  -3.444  0.00  0.00     0.002 A 
ATOM      4  C5  UNL d   1       4.658   4.677  -4.124  0.00  0.00    -0.080 A 
ATOM      5  C6  UNL d   1       4.145   5.937  -3.492  0.00  0.00     0.076 C 
ATOM      6  C7  UNL d   1       4.240   4.321  -5.411  0.00  0.00     0.002 A 
ATOM      7  C8  UNL d   1       4.689   3.137  -5.999  0.00  0.00     0.006 A 
ENDROOT
BRANCH   1   8
ATOM      8  C1  UNL d   1       6.000   0.982  -5.922  0.00  0.00     0.054 C 
ATOM      9  C   UNL d   1       4.841  -0.001  -5.998  0.00  0.00     0.018 C 
ENDBRANCH   1   8
TORSDOF 1
ENDMDL
