MODEL 1
REMARK minimizedAffinity 3.02920008
REMARK minimizedRMSD -1
REMARK  0 active torsions:
REMARK  status: ('A' for Active; 'I' for Inactive)
ROOT
ATOM      1  C   UNL d   1      -0.991  -0.838   2.522  0.00  0.00     0.077 C 
ATOM      2  C1  UNL d   1       0.065  -1.241   1.537  0.00  0.00    -0.074 A 
ATOM      3  C2  UNL d   1       0.319  -0.469   0.398  0.00  0.00    -0.005 A 
ATOM      4  C3  UNL d   1       1.311  -0.852  -0.505  0.00  0.00     0.006 A 
ATOM      5  C4  UNL d   1       2.058  -2.008  -0.279  0.00  0.00    -0.005 A 
ATOM      6  C5  UNL d   1       1.819  -2.792   0.855  0.00  0.00    -0.074 A 
ATOM      7  C6  UNL d   1       2.620  -4.033   1.118  0.00  0.00     0.077 C 
ATOM      8  C7  UNL d   1       0.826  -2.397   1.761  0.00  0.00    -0.001 A 
ENDROOT
TORSDOF 0
ENDMDL
