MODEL 1
REMARK minimizedAffinity -4.92449903
REMARK minimizedRMSD -1
REMARK  0 active torsions:
REMARK  status: ('A' for Active; 'I' for Inactive)
ROOT
ATOM      1  C   UNL d   1      -0.098  -0.987   2.894  0.00  0.00     0.077 C 
ATOM      2  C1  UNL d   1       0.810  -1.611   1.876  0.00  0.00    -0.074 A 
ATOM      3  C2  UNL d   1       0.737  -1.247   0.528  0.00  0.00    -0.005 A 
ATOM      4  C3  UNL d   1       1.595  -1.828  -0.406  0.00  0.00     0.006 A 
ATOM      5  C4  UNL d   1       2.534  -2.777  -0.001  0.00  0.00    -0.005 A 
ATOM      6  C5  UNL d   1       2.623  -3.153   1.343  0.00  0.00    -0.074 A 
ATOM      7  C6  UNL d   1       3.633  -4.165   1.797  0.00  0.00     0.077 C 
ATOM      8  C7  UNL d   1       1.762  -2.559   2.276  0.00  0.00    -0.001 A 
ENDROOT
TORSDOF 0
ENDMDL
