MODEL 1
REMARK minimizedAffinity 5.32818985
REMARK minimizedRMSD -1
REMARK  0 active torsions:
REMARK  status: ('A' for Active; 'I' for Inactive)
ROOT
ATOM      1  C   UNL d   1      -0.414  -0.687   0.552  0.00  0.00     0.077 C 
ATOM      2  C1  UNL d   1       1.024  -0.690   0.128  0.00  0.00    -0.074 A 
ATOM      3  C2  UNL d   1       1.708  -1.891  -0.087  0.00  0.00    -0.005 A 
ATOM      4  C3  UNL d   1       3.043  -1.878  -0.490  0.00  0.00     0.006 A 
ATOM      5  C4  UNL d   1       3.707  -0.666  -0.683  0.00  0.00    -0.005 A 
ATOM      6  C5  UNL d   1       3.039   0.545  -0.474  0.00  0.00    -0.074 A 
ATOM      7  C6  UNL d   1       3.735   1.857  -0.687  0.00  0.00     0.077 C 
ATOM      8  C7  UNL d   1       1.696   0.524  -0.076  0.00  0.00    -0.001 A 
ENDROOT
TORSDOF 0
ENDMDL
