MODEL 1
REMARK minimizedAffinity 2.41009998
REMARK minimizedRMSD -1
REMARK  0 active torsions:
REMARK  status: ('A' for Active; 'I' for Inactive)
ROOT
ATOM      1  C   UNL d   1       3.344  -2.527  -0.674  0.00  0.00     0.077 C 
ATOM      2  C1  UNL d   1       2.986  -3.741   0.132  0.00  0.00    -0.074 A 
ATOM      3  C2  UNL d   1       3.793  -4.882   0.109  0.00  0.00    -0.005 A 
ATOM      4  C3  UNL d   1       3.452  -6.000   0.871  0.00  0.00     0.006 A 
ATOM      5  C4  UNL d   1       2.302  -5.987   1.661  0.00  0.00    -0.005 A 
ATOM      6  C5  UNL d   1       1.483  -4.854   1.697  0.00  0.00    -0.074 A 
ATOM      7  C6  UNL d   1       0.249  -4.820   2.549  0.00  0.00     0.077 C 
ATOM      8  C7  UNL d   1       1.836  -3.732   0.935  0.00  0.00    -0.001 A 
ENDROOT
TORSDOF 0
ENDMDL
