MODEL 1
REMARK minimizedAffinity 0.416907609
REMARK minimizedRMSD -1
REMARK  0 active torsions:
REMARK  status: ('A' for Active; 'I' for Inactive)
ROOT
ATOM      1  C   UNL d   1      -0.718  -1.005   2.875  0.00  0.00     0.077 C 
ATOM      2  C1  UNL d   1       0.201  -1.272   1.720  0.00  0.00    -0.074 A 
ATOM      3  C2  UNL d   1       0.223  -0.424   0.608  0.00  0.00    -0.005 A 
ATOM      4  C3  UNL d   1       1.090  -0.680  -0.454  0.00  0.00     0.006 A 
ATOM      5  C4  UNL d   1       1.942  -1.784  -0.415  0.00  0.00    -0.005 A 
ATOM      6  C5  UNL d   1       1.934  -2.643   0.689  0.00  0.00    -0.074 A 
ATOM      7  C6  UNL d   1       2.850  -3.829   0.750  0.00  0.00     0.077 C 
ATOM      8  C7  UNL d   1       1.065  -2.375   1.755  0.00  0.00    -0.001 A 
ENDROOT
TORSDOF 0
ENDMDL
