MODEL 1
REMARK minimizedAffinity 3.58410931
REMARK minimizedRMSD -1
REMARK  0 active torsions:
REMARK  status: ('A' for Active; 'I' for Inactive)
ROOT
ATOM      1  C   UNL d   1       5.195  -6.000   0.096  0.00  0.00     0.077 C 
ATOM      2  C1  UNL d   1       3.963  -5.189   0.368  0.00  0.00    -0.074 A 
ATOM      3  C2  UNL d   1       3.006  -5.623   1.291  0.00  0.00    -0.005 A 
ATOM      4  C3  UNL d   1       1.870  -4.853   1.541  0.00  0.00     0.006 A 
ATOM      5  C4  UNL d   1       1.679  -3.644   0.871  0.00  0.00    -0.005 A 
ATOM      6  C5  UNL d   1       2.625  -3.194  -0.056  0.00  0.00    -0.074 A 
ATOM      7  C6  UNL d   1       2.440  -1.892  -0.777  0.00  0.00     0.077 C 
ATOM      8  C7  UNL d   1       3.768  -3.970  -0.296  0.00  0.00    -0.001 A 
ENDROOT
TORSDOF 0
ENDMDL
