MODEL 1
REMARK minimizedAffinity 1.53370881
REMARK minimizedRMSD -1
REMARK  0 active torsions:
REMARK  status: ('A' for Active; 'I' for Inactive)
ROOT
ATOM      1  C   UNL d   1      -0.074  -3.963   3.058  0.00  0.00     0.077 C 
ATOM      2  C1  UNL d   1       1.240  -4.090   2.347  0.00  0.00    -0.074 A 
ATOM      3  C2  UNL d   1       1.476  -3.413   1.146  0.00  0.00    -0.005 A 
ATOM      4  C3  UNL d   1       2.707  -3.533   0.501  0.00  0.00     0.006 A 
ATOM      5  C4  UNL d   1       3.713  -4.330   1.049  0.00  0.00    -0.005 A 
ATOM      6  C5  UNL d   1       3.496  -5.014   2.249  0.00  0.00    -0.074 A 
ATOM      7  C6  UNL d   1       4.569  -5.867   2.857  0.00  0.00     0.077 C 
ATOM      8  C7  UNL d   1       2.259  -4.883   2.895  0.00  0.00    -0.001 A 
ENDROOT
TORSDOF 0
ENDMDL
