MODEL 1
REMARK minimizedAffinity 3.30672455
REMARK minimizedRMSD -1
REMARK  0 active torsions:
REMARK  status: ('A' for Active; 'I' for Inactive)
ROOT
ATOM      1  C   UNL d   1      -0.605  -0.976   2.882  0.00  0.00     0.020 A 
ATOM      2  C1  UNL d   1      -1.880  -0.479   2.615  0.00  0.00     0.020 A 
ATOM      3  C2  UNL d   1      -2.208  -0.053   1.326  0.00  0.00     0.034 A 
ATOM      4  C3  UNL d   1      -1.259  -0.122   0.300  0.00  0.00     0.017 A 
ATOM      5  C4  UNL d   1       0.021  -0.621   0.569  0.00  0.00     0.017 A 
ATOM      6  C5  UNL d   1       0.343  -1.047   1.861  0.00  0.00     0.034 A 
ATOM      7 Cl   UNL d   1       1.245  -0.737  -0.646  0.00  0.00    -0.070 Cl
ATOM      8 Cl1  UNL d   1      -1.732   0.423  -1.270  0.00  0.00    -0.070 Cl
ENDROOT
TORSDOF 0
ENDMDL
