MODEL 1
REMARK minimizedAffinity 1.84059668
REMARK minimizedRMSD -1
REMARK  0 active torsions:
REMARK  status: ('A' for Active; 'I' for Inactive)
ROOT
ATOM      1  C   UNL d   1       5.095  -2.478  -0.717  0.00  0.00     0.020 A 
ATOM      2  C1  UNL d   1       5.167  -3.721  -0.089  0.00  0.00     0.020 A 
ATOM      3  C2  UNL d   1       4.036  -4.255   0.534  0.00  0.00     0.034 A 
ATOM      4  C3  UNL d   1       2.830  -3.545   0.531  0.00  0.00     0.017 A 
ATOM      5  C4  UNL d   1       2.759  -2.298  -0.100  0.00  0.00     0.017 A 
ATOM      6  C5  UNL d   1       3.894  -1.768  -0.723  0.00  0.00     0.034 A 
ATOM      7 Cl   UNL d   1       1.306  -1.363  -0.145  0.00  0.00    -0.070 Cl
ATOM      8 Cl1  UNL d   1       1.472  -4.265   1.321  0.00  0.00    -0.070 Cl
ENDROOT
TORSDOF 0
ENDMDL
