MODEL 1
REMARK minimizedAffinity -1.63965786
REMARK minimizedRMSD -1
REMARK  0 active torsions:
REMARK  status: ('A' for Active; 'I' for Inactive)
ROOT
ATOM      1  C   UNL d   1       1.898   0.602  -1.374  0.00  0.00     0.020 A 
ATOM      2  C1  UNL d   1       1.520  -0.739  -1.336  0.00  0.00     0.020 A 
ATOM      3  C2  UNL d   1       0.353  -1.116  -0.667  0.00  0.00     0.034 A 
ATOM      4  C3  UNL d   1      -0.438  -0.152  -0.033  0.00  0.00     0.017 A 
ATOM      5  C4  UNL d   1      -0.057   1.195  -0.072  0.00  0.00     0.017 A 
ATOM      6  C5  UNL d   1       1.112   1.567  -0.744  0.00  0.00     0.034 A 
ATOM      7 Cl   UNL d   1      -0.982   2.442   0.686  0.00  0.00    -0.070 Cl
ATOM      8 Cl1  UNL d   1      -1.867  -0.689   0.776  0.00  0.00    -0.070 Cl
ENDROOT
TORSDOF 0
ENDMDL
