MODEL 1
REMARK minimizedAffinity 2.46144295
REMARK minimizedRMSD -1
REMARK  0 active torsions:
REMARK  status: ('A' for Active; 'I' for Inactive)
ROOT
ATOM      1  C   UNL d   1       0.541  -4.334   2.906  0.00  0.00     0.020 A 
ATOM      2  C1  UNL d   1       1.506  -4.582   1.931  0.00  0.00     0.020 A 
ATOM      3  C2  UNL d   1       1.868  -3.574   1.034  0.00  0.00     0.034 A 
ATOM      4  C3  UNL d   1       1.263  -2.314   1.110  0.00  0.00     0.017 A 
ATOM      5  C4  UNL d   1       0.294  -2.066   2.089  0.00  0.00     0.017 A 
ATOM      6  C5  UNL d   1      -0.064  -3.079   2.985  0.00  0.00     0.034 A 
ATOM      7 Cl   UNL d   1      -0.495  -0.537   2.245  0.00  0.00    -0.070 Cl
ATOM      8 Cl1  UNL d   1       1.759  -1.115  -0.031  0.00  0.00    -0.070 Cl
ENDROOT
TORSDOF 0
ENDMDL
