MODEL 1
REMARK minimizedAffinity 4.13919783
REMARK minimizedRMSD -1
REMARK  0 active torsions:
REMARK  status: ('A' for Active; 'I' for Inactive)
ROOT
ATOM      1  C   UNL d   1       3.985  -6.000   1.125  0.00  0.00     0.020 A 
ATOM      2  C1  UNL d   1       4.613  -5.374   0.049  0.00  0.00     0.020 A 
ATOM      3  C2  UNL d   1       4.066  -4.212  -0.499  0.00  0.00     0.034 A 
ATOM      4  C3  UNL d   1       2.886  -3.673   0.027  0.00  0.00     0.017 A 
ATOM      5  C4  UNL d   1       2.256  -4.302   1.107  0.00  0.00     0.017 A 
ATOM      6  C5  UNL d   1       2.809  -5.465   1.652  0.00  0.00     0.034 A 
ATOM      7 Cl   UNL d   1       0.798  -3.697   1.811  0.00  0.00    -0.070 Cl
ATOM      8 Cl1  UNL d   1       2.265  -2.234  -0.700  0.00  0.00    -0.070 Cl
ENDROOT
TORSDOF 0
ENDMDL
