MODEL 1
REMARK minimizedAffinity 2.31813526
REMARK minimizedRMSD -1
REMARK  0 active torsions:
REMARK  status: ('A' for Active; 'I' for Inactive)
ROOT
ATOM      1  C   UNL d   1       3.938  -5.202   0.001  0.00  0.00     0.020 A 
ATOM      2  C1  UNL d   1       3.383  -5.999   1.002  0.00  0.00     0.020 A 
ATOM      3  C2  UNL d   1       2.277  -5.546   1.723  0.00  0.00     0.034 A 
ATOM      4  C3  UNL d   1       1.722  -4.292   1.445  0.00  0.00     0.017 A 
ATOM      5  C4  UNL d   1       2.279  -3.492   0.441  0.00  0.00     0.017 A 
ATOM      6  C5  UNL d   1       3.387  -3.951  -0.278  0.00  0.00     0.034 A 
ATOM      7 Cl   UNL d   1       1.649  -1.933   0.041  0.00  0.00    -0.070 Cl
ATOM      8 Cl1  UNL d   1       0.354  -3.794   2.376  0.00  0.00    -0.070 Cl
ENDROOT
TORSDOF 0
ENDMDL
