MODEL 1
REMARK minimizedAffinity -0.266426861
REMARK minimizedRMSD -1
REMARK  0 active torsions:
REMARK  status: ('A' for Active; 'I' for Inactive)
ROOT
ATOM      1  C   UNL d   1      -0.929  -0.012   1.958  0.00  0.00     0.020 A 
ATOM      2  C1  UNL d   1      -0.670  -1.005   2.901  0.00  0.00     0.020 A 
ATOM      3  C2  UNL d   1       0.256  -2.012   2.619  0.00  0.00     0.034 A 
ATOM      4  C3  UNL d   1       0.927  -2.027   1.391  0.00  0.00     0.017 A 
ATOM      5  C4  UNL d   1       0.666  -1.029   0.445  0.00  0.00     0.017 A 
ATOM      6  C5  UNL d   1      -0.262  -0.024   0.732  0.00  0.00     0.034 A 
ATOM      7 Cl   UNL d   1       1.455  -0.982  -1.093  0.00  0.00    -0.070 Cl
ATOM      8 Cl1  UNL d   1       2.059  -3.302   1.110  0.00  0.00    -0.070 Cl
ENDROOT
TORSDOF 0
ENDMDL
