MODEL 1
REMARK minimizedAffinity 3.38209176
REMARK minimizedRMSD -1
REMARK  0 active torsions:
REMARK  status: ('A' for Active; 'I' for Inactive)
ROOT
ATOM      1  C   UNL d   1      -1.334  -0.771   2.531  0.00  0.00     0.020 A 
ATOM      2  C1  UNL d   1      -1.972  -0.107   1.484  0.00  0.00     0.020 A 
ATOM      3  C2  UNL d   1      -1.441  -0.164   0.194  0.00  0.00     0.034 A 
ATOM      4  C3  UNL d   1      -0.268  -0.887  -0.053  0.00  0.00     0.017 A 
ATOM      5  C4  UNL d   1       0.372  -1.554   0.998  0.00  0.00     0.017 A 
ATOM      6  C5  UNL d   1      -0.165  -1.493   2.288  0.00  0.00     0.034 A 
ATOM      7 Cl   UNL d   1       1.822  -2.466   0.771  0.00  0.00    -0.070 Cl
ATOM      8 Cl1  UNL d   1       0.332  -0.915  -1.673  0.00  0.00    -0.070 Cl
ENDROOT
TORSDOF 0
ENDMDL
