MODEL 1
REMARK minimizedAffinity 2.74409747
REMARK minimizedRMSD -1
REMARK  0 active torsions:
REMARK  status: ('A' for Active; 'I' for Inactive)
ROOT
ATOM      1  C   UNL d   1       1.503  -0.209  -0.518  0.00  0.00     0.020 A 
ATOM      2  C1  UNL d   1       2.636   0.599  -0.608  0.00  0.00     0.020 A 
ATOM      3  C2  UNL d   1       3.908   0.029  -0.528  0.00  0.00     0.034 A 
ATOM      4  C3  UNL d   1       4.051  -1.353  -0.357  0.00  0.00     0.017 A 
ATOM      5  C4  UNL d   1       2.914  -2.163  -0.268  0.00  0.00     0.017 A 
ATOM      6  C5  UNL d   1       1.642  -1.587  -0.349  0.00  0.00     0.034 A 
ATOM      7 Cl   UNL d   1       3.010  -3.876  -0.058  0.00  0.00    -0.070 Cl
ATOM      8 Cl1  UNL d   1       5.655  -1.990  -0.267  0.00  0.00    -0.070 Cl
ENDROOT
TORSDOF 0
ENDMDL
