MODEL 1
REMARK minimizedAffinity 27.1728706
REMARK minimizedRMSD -1
REMARK  0 active torsions:
REMARK  status: ('A' for Active; 'I' for Inactive)
ROOT
ATOM      1  C   UNL d   1       1.316  -1.483  -0.906  0.00  0.00     0.124 A 
ATOM      2  C1  UNL d   1       2.306  -0.548  -1.174  0.00  0.00     0.062 A 
ATOM      3  C2  UNL d   1       2.586  -0.182  -2.487  0.00  0.00     0.162 A 
ATOM      4  C3  UNL d   1       1.874  -0.751  -3.543  0.00  0.00    -0.034 A 
ATOM      5  C4  UNL d   1       0.881  -1.692  -3.266  0.00  0.00     0.162 A 
ATOM      6  C5  UNL d   1       0.605  -2.054  -1.951  0.00  0.00     0.062 A 
ATOM      7  F   UNL d   1      -0.352  -2.958  -1.694  0.00  0.00    -0.097 F 
ATOM      8  F1  UNL d   1       0.177  -2.259  -4.257  0.00  0.00    -0.096 F 
ATOM      9  I   UNL d   1       2.290  -0.207  -5.509  0.00  0.00    -0.060 I 
ATOM     10  F2  UNL d   1       3.548   0.724  -2.717  0.00  0.00    -0.096 F 
ATOM     11  F3  UNL d   1       2.995   0.005  -0.165  0.00  0.00    -0.097 F 
ATOM     12  F4  UNL d   1       1.049  -1.834   0.359  0.00  0.00    -0.092 F 
ENDROOT
TORSDOF 0
ENDMDL
