MODEL 1
REMARK minimizedAffinity 22.1614971
REMARK minimizedRMSD -1
REMARK  0 active torsions:
REMARK  status: ('A' for Active; 'I' for Inactive)
ROOT
ATOM      1  C   UNL d   1       1.624  -4.281  -2.140  0.00  0.00     0.124 A 
ATOM      2  C1  UNL d   1       2.638  -3.963  -1.247  0.00  0.00     0.062 A 
ATOM      3  C2  UNL d   1       2.910  -2.633  -0.942  0.00  0.00     0.162 A 
ATOM      4  C3  UNL d   1       2.167  -1.609  -1.530  0.00  0.00    -0.034 A 
ATOM      5  C4  UNL d   1       1.149  -1.937  -2.428  0.00  0.00     0.162 A 
ATOM      6  C5  UNL d   1       0.881  -3.268  -2.730  0.00  0.00     0.062 A 
ATOM      7  F   UNL d   1      -0.100  -3.573  -3.592  0.00  0.00    -0.097 F 
ATOM      8  F1  UNL d   1       0.415  -0.978  -3.011  0.00  0.00    -0.096 F 
ATOM      9  I   UNL d   1       2.571   0.381  -1.077  0.00  0.00    -0.060 I 
ATOM     10  F2  UNL d   1       3.896  -2.355  -0.076  0.00  0.00    -0.096 F 
ATOM     11  F3  UNL d   1       3.358  -4.940  -0.677  0.00  0.00    -0.097 F 
ATOM     12  F4  UNL d   1       1.364  -5.562  -2.433  0.00  0.00    -0.092 F 
ENDROOT
TORSDOF 0
ENDMDL
