MODEL 1
REMARK minimizedAffinity 28.1779957
REMARK minimizedRMSD -1
REMARK  0 active torsions:
REMARK  status: ('A' for Active; 'I' for Inactive)
ROOT
ATOM      1  C   UNL d   1       2.837  -3.057  -0.007  0.00  0.00     0.124 A 
ATOM      2  C1  UNL d   1       4.026  -2.402   0.280  0.00  0.00     0.062 A 
ATOM      3  C2  UNL d   1       4.146  -1.034   0.049  0.00  0.00     0.162 A 
ATOM      4  C3  UNL d   1       3.073  -0.312  -0.473  0.00  0.00    -0.034 A 
ATOM      5  C4  UNL d   1       1.880  -0.978  -0.760  0.00  0.00     0.162 A 
ATOM      6  C5  UNL d   1       1.765  -2.345  -0.527  0.00  0.00     0.062 A 
ATOM      7  F   UNL d   1       0.615  -2.976  -0.805  0.00  0.00    -0.097 F 
ATOM      8  F1  UNL d   1       0.828  -0.314  -1.262  0.00  0.00    -0.096 F 
ATOM      9  I   UNL d   1       3.248   1.732  -0.821  0.00  0.00    -0.060 I 
ATOM     10  F2  UNL d   1       5.307  -0.427   0.336  0.00  0.00    -0.096 F 
ATOM     11  F3  UNL d   1       5.064  -3.087   0.782  0.00  0.00    -0.097 F 
ATOM     12  F4  UNL d   1       2.724  -4.372   0.216  0.00  0.00    -0.092 F 
ENDROOT
TORSDOF 0
ENDMDL
