MODEL 1
REMARK minimizedAffinity 27.9761734
REMARK minimizedRMSD -1
REMARK  0 active torsions:
REMARK  status: ('A' for Active; 'I' for Inactive)
ROOT
ATOM      1  C   UNL d   1       2.003  -3.563  -0.593  0.00  0.00     0.124 A 
ATOM      2  C1  UNL d   1       1.578  -2.320  -1.041  0.00  0.00     0.062 A 
ATOM      3  C2  UNL d   1       2.323  -1.180  -0.755  0.00  0.00     0.162 A 
ATOM      4  C3  UNL d   1       3.503  -1.278  -0.017  0.00  0.00    -0.034 A 
ATOM      5  C4  UNL d   1       3.924  -2.531   0.432  0.00  0.00     0.162 A 
ATOM      6  C5  UNL d   1       3.175  -3.668   0.143  0.00  0.00     0.062 A 
ATOM      7  F   UNL d   1       3.588  -4.867   0.577  0.00  0.00    -0.097 F 
ATOM      8  F1  UNL d   1       5.053  -2.661   1.144  0.00  0.00    -0.096 F 
ATOM      9  I   UNL d   1       4.621   0.424   0.413  0.00  0.00    -0.060 I 
ATOM     10  F2  UNL d   1       1.889   0.008  -1.201  0.00  0.00    -0.096 F 
ATOM     11  F3  UNL d   1       0.445  -2.217  -1.751  0.00  0.00    -0.097 F 
ATOM     12  F4  UNL d   1       1.283  -4.658  -0.869  0.00  0.00    -0.092 F 
ENDROOT
TORSDOF 0
ENDMDL
