MODEL 1
REMARK minimizedAffinity 7.08076811
REMARK minimizedRMSD -1
REMARK  0 active torsions:
REMARK  status: ('A' for Active; 'I' for Inactive)
ROOT
ATOM      1  C   UNL d   1      -2.874   0.709   2.038  0.00  0.00     0.124 A 
ATOM      2  C1  UNL d   1      -3.368   0.081   0.903  0.00  0.00     0.062 A 
ATOM      3  C2  UNL d   1      -2.590  -0.851   0.223  0.00  0.00     0.162 A 
ATOM      4  C3  UNL d   1      -1.308  -1.163   0.677  0.00  0.00    -0.034 A 
ATOM      5  C4  UNL d   1      -0.817  -0.526   1.819  0.00  0.00     0.162 A 
ATOM      6  C5  UNL d   1      -1.599   0.405   2.495  0.00  0.00     0.062 A 
ATOM      7  F   UNL d   1      -1.120   1.010   3.591  0.00  0.00    -0.097 F 
ATOM      8  F1  UNL d   1       0.411  -0.802   2.282  0.00  0.00    -0.096 F 
ATOM      9  I   UNL d   1      -0.141  -2.556  -0.336  0.00  0.00    -0.060 I 
ATOM     10  F2  UNL d   1      -3.093  -1.443  -0.870  0.00  0.00    -0.096 F 
ATOM     11  F3  UNL d   1      -4.599   0.373   0.459  0.00  0.00    -0.097 F 
ATOM     12  F4  UNL d   1      -3.625   1.606   2.690  0.00  0.00    -0.092 F 
ENDROOT
TORSDOF 0
ENDMDL
