MODEL 1
REMARK minimizedAffinity 33.9765854
REMARK minimizedRMSD -1
REMARK  0 active torsions:
REMARK  status: ('A' for Active; 'I' for Inactive)
ROOT
ATOM      1  C   UNL d   1      -1.791   2.381  -3.931  0.00  0.00     0.124 A 
ATOM      2  C1  UNL d   1      -2.887   1.970  -4.676  0.00  0.00     0.062 A 
ATOM      3  C2  UNL d   1      -3.724   2.911  -5.268  0.00  0.00     0.162 A 
ATOM      4  C3  UNL d   1      -3.468   4.274  -5.116  0.00  0.00    -0.034 A 
ATOM      5  C4  UNL d   1      -2.365   4.680  -4.364  0.00  0.00     0.162 A 
ATOM      6  C5  UNL d   1      -1.531   3.735  -3.775  0.00  0.00     0.062 A 
ATOM      7  F   UNL d   1      -0.472   4.134  -3.055  0.00  0.00    -0.097 F 
ATOM      8  F1  UNL d   1      -2.089   5.982  -4.198  0.00  0.00    -0.096 F 
ATOM      9  I   UNL d   1      -4.718   5.685  -5.999  0.00  0.00    -0.060 I 
ATOM     10  F2  UNL d   1      -4.776   2.486  -5.983  0.00  0.00    -0.096 F 
ATOM     11  F3  UNL d   1      -3.141   0.662  -4.827  0.00  0.00    -0.097 F 
ATOM     12  F4  UNL d   1      -0.988   1.472  -3.362  0.00  0.00    -0.092 F 
ENDROOT
TORSDOF 0
ENDMDL
