MODEL 1
REMARK minimizedAffinity 38.2263145
REMARK minimizedRMSD -1
REMARK  0 active torsions:
REMARK  status: ('A' for Active; 'I' for Inactive)
ROOT
ATOM      1  C   UNL d   1       2.682   1.036  -1.703  0.00  0.00     0.124 A 
ATOM      2  C1  UNL d   1       3.333   0.304  -0.719  0.00  0.00     0.062 A 
ATOM      3  C2  UNL d   1       2.816  -0.918  -0.298  0.00  0.00     0.162 A 
ATOM      4  C3  UNL d   1       1.642  -1.417  -0.863  0.00  0.00    -0.034 A 
ATOM      5  C4  UNL d   1       0.993  -0.676  -1.851  0.00  0.00     0.162 A 
ATOM      6  C5  UNL d   1       1.513   0.545  -2.268  0.00  0.00     0.062 A 
ATOM      7  F   UNL d   1       0.883   1.251  -3.219  0.00  0.00    -0.097 F 
ATOM      8  F1  UNL d   1      -0.138  -1.126  -2.415  0.00  0.00    -0.096 F 
ATOM      9  I   UNL d   1       0.867  -3.245  -0.237  0.00  0.00    -0.060 I 
ATOM     10  F2  UNL d   1       3.466  -1.603   0.654  0.00  0.00    -0.096 F 
ATOM     11  F3  UNL d   1       4.461   0.776  -0.171  0.00  0.00    -0.097 F 
ATOM     12  F4  UNL d   1       3.181   2.212  -2.105  0.00  0.00    -0.092 F 
ENDROOT
TORSDOF 0
ENDMDL
