MODEL 1
REMARK minimizedAffinity 27.335434
REMARK minimizedRMSD -1
REMARK  0 active torsions:
REMARK  status: ('A' for Active; 'I' for Inactive)
ROOT
ATOM      1  C   UNL d   1       0.938   1.782   3.342  0.00  0.00     0.124 A 
ATOM      2  C1  UNL d   1       2.273   1.782   2.961  0.00  0.00     0.062 A 
ATOM      3  C2  UNL d   1       2.634   1.384   1.677  0.00  0.00     0.162 A 
ATOM      4  C3  UNL d   1       1.659   0.984   0.764  0.00  0.00    -0.034 A 
ATOM      5  C4  UNL d   1       0.319   0.986   1.155  0.00  0.00     0.162 A 
ATOM      6  C5  UNL d   1      -0.037   1.384   2.439  0.00  0.00     0.062 A 
ATOM      7  F   UNL d   1      -1.327   1.383   2.806  0.00  0.00    -0.097 F 
ATOM      8  F1  UNL d   1      -0.645   0.606   0.302  0.00  0.00    -0.096 F 
ATOM      9  I   UNL d   1       2.194   0.388  -1.157  0.00  0.00    -0.060 I 
ATOM     10  F2  UNL d   1       3.931   1.394   1.336  0.00  0.00    -0.096 F 
ATOM     11  F3  UNL d   1       3.218   2.166   3.832  0.00  0.00    -0.097 F 
ATOM     12  F4  UNL d   1       0.594   2.164   4.579  0.00  0.00    -0.092 F 
ENDROOT
TORSDOF 0
ENDMDL
