MODEL 1
REMARK minimizedAffinity 23.3810215
REMARK minimizedRMSD -1
REMARK  0 active torsions:
REMARK  status: ('A' for Active; 'I' for Inactive)
ROOT
ATOM      1  C   UNL d   1      -0.078  -3.844  -1.595  0.00  0.00     0.124 A 
ATOM      2  C1  UNL d   1      -0.657  -2.665  -2.043  0.00  0.00     0.062 A 
ATOM      3  C2  UNL d   1       0.032  -1.460  -1.933  0.00  0.00     0.162 A 
ATOM      4  C3  UNL d   1       1.309  -1.429  -1.373  0.00  0.00    -0.034 A 
ATOM      5  C4  UNL d   1       1.885  -2.619  -0.924  0.00  0.00     0.162 A 
ATOM      6  C5  UNL d   1       1.192  -3.820  -1.036  0.00  0.00     0.062 A 
ATOM      7  F   UNL d   1       1.753  -4.958  -0.603  0.00  0.00    -0.097 F 
ATOM      8  F1  UNL d   1       3.111  -2.625  -0.381  0.00  0.00    -0.096 F 
ATOM      9  I   UNL d   1       2.343   0.370  -1.206  0.00  0.00    -0.060 I 
ATOM     10  F2  UNL d   1      -0.552  -0.336  -2.373  0.00  0.00    -0.096 F 
ATOM     11  F3  UNL d   1      -1.885  -2.685  -2.582  0.00  0.00    -0.097 F 
ATOM     12  F4  UNL d   1      -0.744  -5.001  -1.702  0.00  0.00    -0.092 F 
ENDROOT
TORSDOF 0
ENDMDL
