MODEL 1
REMARK minimizedAffinity 28.2316666
REMARK minimizedRMSD -1
REMARK  0 active torsions:
REMARK  status: ('A' for Active; 'I' for Inactive)
ROOT
ATOM      1  C   UNL d   1       0.412  -2.650  -1.488  0.00  0.00     0.124 A 
ATOM      2  C1  UNL d   1       0.003  -3.420  -2.568  0.00  0.00     0.062 A 
ATOM      3  C2  UNL d   1       0.410  -3.089  -3.857  0.00  0.00     0.162 A 
ATOM      4  C3  UNL d   1       1.232  -1.983  -4.073  0.00  0.00    -0.034 A 
ATOM      5  C4  UNL d   1       1.638  -1.213  -2.982  0.00  0.00     0.162 A 
ATOM      6  C5  UNL d   1       1.228  -1.547  -1.696  0.00  0.00     0.062 A 
ATOM      7  F   UNL d   1       1.624  -0.802  -0.653  0.00  0.00    -0.097 F 
ATOM      8  F1  UNL d   1       2.428  -0.143  -3.155  0.00  0.00    -0.096 F 
ATOM      9  I   UNL d   1       1.843  -1.485  -6.000  0.00  0.00    -0.060 I 
ATOM     10  F2  UNL d   1       0.000  -3.851  -4.882  0.00  0.00    -0.096 F 
ATOM     11  F3  UNL d   1      -0.787  -4.485  -2.369  0.00  0.00    -0.097 F 
ATOM     12  F4  UNL d   1       0.017  -2.969  -0.248  0.00  0.00    -0.092 F 
ENDROOT
TORSDOF 0
ENDMDL
