MODEL 1
REMARK minimizedAffinity 26.6704407
REMARK minimizedRMSD -1
REMARK  0 active torsions:
REMARK  status: ('A' for Active; 'I' for Inactive)
ROOT
ATOM      1  C   UNL d   1       3.541  -0.074  -0.853  0.00  0.00     0.124 A 
ATOM      2  C1  UNL d   1       2.471   0.397  -1.602  0.00  0.00     0.062 A 
ATOM      3  C2  UNL d   1       1.390  -0.435  -1.878  0.00  0.00     0.162 A 
ATOM      4  C3  UNL d   1       1.372  -1.746  -1.404  0.00  0.00    -0.034 A 
ATOM      5  C4  UNL d   1       2.452  -2.213  -0.652  0.00  0.00     0.162 A 
ATOM      6  C5  UNL d   1       3.530  -1.378  -0.379  0.00  0.00     0.062 A 
ATOM      7  F   UNL d   1       4.563  -1.834   0.345  0.00  0.00    -0.097 F 
ATOM      8  F1  UNL d   1       2.467  -3.469  -0.181  0.00  0.00    -0.096 F 
ATOM      9  I   UNL d   1      -0.243  -2.993  -1.814  0.00  0.00    -0.060 I 
ATOM     10  F2  UNL d   1       0.370   0.047  -2.604  0.00  0.00    -0.096 F 
ATOM     11  F3  UNL d   1       2.479   1.656  -2.062  0.00  0.00    -0.097 F 
ATOM     12  F4  UNL d   1       4.580   0.729  -0.590  0.00  0.00    -0.092 F 
ENDROOT
TORSDOF 0
ENDMDL
