MODEL 1
REMARK minimizedAffinity 17.3214512
REMARK minimizedRMSD -1
REMARK  0 active torsions:
REMARK  status: ('A' for Active; 'I' for Inactive)
ROOT
ATOM      1  C   UNL d   1      -3.538  -4.422  -2.372  0.00  0.00     0.124 A 
ATOM      2  C1  UNL d   1      -3.926  -4.242  -3.692  0.00  0.00     0.062 A 
ATOM      3  C2  UNL d   1      -3.093  -4.653  -4.728  0.00  0.00     0.162 A 
ATOM      4  C3  UNL d   1      -1.864  -5.251  -4.449  0.00  0.00    -0.034 A 
ATOM      5  C4  UNL d   1      -1.480  -5.428  -3.118  0.00  0.00     0.162 A 
ATOM      6  C5  UNL d   1      -2.316  -5.014  -2.086  0.00  0.00     0.062 A 
ATOM      7  F   UNL d   1      -1.940  -5.189  -0.810  0.00  0.00    -0.097 F 
ATOM      8  F1  UNL d   1      -0.306  -5.998  -2.813  0.00  0.00    -0.096 F 
ATOM      9  I   UNL d   1      -0.616  -5.868  -5.995  0.00  0.00    -0.060 I 
ATOM     10  F2  UNL d   1      -3.493  -4.467  -5.995  0.00  0.00    -0.096 F 
ATOM     11  F3  UNL d   1      -5.105  -3.668  -3.971  0.00  0.00    -0.097 F 
ATOM     12  F4  UNL d   1      -4.341  -4.023  -1.376  0.00  0.00    -0.092 F 
ENDROOT
TORSDOF 0
ENDMDL
