MODEL 1
REMARK minimizedAffinity 13.8959723
REMARK minimizedRMSD -1
REMARK  0 active torsions:
REMARK  status: ('A' for Active; 'I' for Inactive)
ROOT
ATOM      1  C   UNL d   1      -4.453  -2.497  -4.815  0.00  0.00     0.124 A 
ATOM      2  C1  UNL d   1      -3.267  -2.222  -4.149  0.00  0.00     0.062 A 
ATOM      3  C2  UNL d   1      -2.313  -3.220  -3.977  0.00  0.00     0.162 A 
ATOM      4  C3  UNL d   1      -2.540  -4.504  -4.474  0.00  0.00    -0.034 A 
ATOM      5  C4  UNL d   1      -3.736  -4.773  -5.142  0.00  0.00     0.162 A 
ATOM      6  C5  UNL d   1      -4.686  -3.772  -5.312  0.00  0.00     0.062 A 
ATOM      7  F   UNL d   1      -5.831  -4.039  -5.956  0.00  0.00    -0.097 F 
ATOM      8  F1  UNL d   1      -3.986  -5.996  -5.633  0.00  0.00    -0.096 F 
ATOM      9  I   UNL d   1      -1.116  -6.000  -4.219  0.00  0.00    -0.060 I 
ATOM     10  F2  UNL d   1      -1.176  -2.927  -3.328  0.00  0.00    -0.096 F 
ATOM     11  F3  UNL d   1      -3.040  -0.991  -3.667  0.00  0.00    -0.097 F 
ATOM     12  F4  UNL d   1      -5.370  -1.534  -4.978  0.00  0.00    -0.092 F 
ENDROOT
TORSDOF 0
ENDMDL
