MODEL 1
REMARK minimizedAffinity 4.91946411
REMARK minimizedRMSD -1
REMARK  0 active torsions:
REMARK  status: ('A' for Active; 'I' for Inactive)
ROOT
ATOM      1  C   UNL d   1      -4.389  -2.575  -4.794  0.00  0.00     0.124 A 
ATOM      2  C1  UNL d   1      -4.595  -3.823  -5.365  0.00  0.00     0.062 A 
ATOM      3  C2  UNL d   1      -3.609  -4.803  -5.281  0.00  0.00     0.162 A 
ATOM      4  C3  UNL d   1      -2.408  -4.538  -4.623  0.00  0.00    -0.034 A 
ATOM      5  C4  UNL d   1      -2.208  -3.280  -4.052  0.00  0.00     0.162 A 
ATOM      6  C5  UNL d   1      -3.196  -2.304  -4.139  0.00  0.00     0.062 A 
ATOM      7  F   UNL d   1      -2.995  -1.099  -3.587  0.00  0.00    -0.097 F 
ATOM      8  F1  UNL d   1      -1.065  -2.991  -3.412  0.00  0.00    -0.096 F 
ATOM      9  I   UNL d   1      -0.932  -5.999  -4.495  0.00  0.00    -0.060 I 
ATOM     10  F2  UNL d   1      -3.836  -6.000  -5.841  0.00  0.00    -0.096 F 
ATOM     11  F3  UNL d   1      -5.746  -4.087  -6.000  0.00  0.00    -0.097 F 
ATOM     12  F4  UNL d   1      -5.338  -1.634  -4.877  0.00  0.00    -0.092 F 
ENDROOT
TORSDOF 0
ENDMDL
