MODEL 1
REMARK minimizedAffinity 19.7734032
REMARK minimizedRMSD -1
REMARK  0 active torsions:
REMARK  status: ('A' for Active; 'I' for Inactive)
ROOT
ATOM      1  C   UNL d   1       3.243  -0.448  -0.490  0.00  0.00     0.124 A 
ATOM      2  C1  UNL d   1       2.214   0.011  -1.300  0.00  0.00     0.062 A 
ATOM      3  C2  UNL d   1       1.242  -0.871  -1.763  0.00  0.00     0.162 A 
ATOM      4  C3  UNL d   1       1.294  -2.221  -1.418  0.00  0.00    -0.034 A 
ATOM      5  C4  UNL d   1       2.334  -2.676  -0.604  0.00  0.00     0.162 A 
ATOM      6  C5  UNL d   1       3.303  -1.790  -0.143  0.00  0.00     0.062 A 
ATOM      7  F   UNL d   1       4.297  -2.235   0.639  0.00  0.00    -0.097 F 
ATOM      8  F1  UNL d   1       2.415  -3.967  -0.252  0.00  0.00    -0.096 F 
ATOM      9  I   UNL d   1      -0.157  -3.543  -2.109  0.00  0.00    -0.060 I 
ATOM     10  F2  UNL d   1       0.258  -0.400  -2.544  0.00  0.00    -0.096 F 
ATOM     11  F3  UNL d   1       2.155   1.307  -1.637  0.00  0.00    -0.097 F 
ATOM     12  F4  UNL d   1       4.178   0.403  -0.046  0.00  0.00    -0.092 F 
ENDROOT
TORSDOF 0
ENDMDL
