MODEL 1
REMARK minimizedAffinity 27.7183723
REMARK minimizedRMSD -1
REMARK  0 active torsions:
REMARK  status: ('A' for Active; 'I' for Inactive)
ROOT
ATOM      1  C   UNL d   1       1.366  -0.313  -3.047  0.00  0.00     0.124 A 
ATOM      2  C1  UNL d   1       0.992  -0.740  -1.780  0.00  0.00     0.062 A 
ATOM      3  C2  UNL d   1       1.610  -1.846  -1.203  0.00  0.00     0.162 A 
ATOM      4  C3  UNL d   1       2.609  -2.533  -1.893  0.00  0.00    -0.034 A 
ATOM      5  C4  UNL d   1       2.979  -2.099  -3.167  0.00  0.00     0.162 A 
ATOM      6  C5  UNL d   1       2.359  -0.993  -3.739  0.00  0.00     0.062 A 
ATOM      7  F   UNL d   1       2.721  -0.582  -4.963  0.00  0.00    -0.097 F 
ATOM      8  F1  UNL d   1       3.936  -2.736  -3.857  0.00  0.00    -0.096 F 
ATOM      9  I   UNL d   1       3.535  -4.188  -1.034  0.00  0.00    -0.060 I 
ATOM     10  F2  UNL d   1       1.229  -2.236   0.022  0.00  0.00    -0.096 F 
ATOM     11  F3  UNL d   1       0.033  -0.086  -1.110  0.00  0.00    -0.097 F 
ATOM     12  F4  UNL d   1       0.770   0.751  -3.600  0.00  0.00    -0.092 F 
ENDROOT
TORSDOF 0
ENDMDL
