MODEL 1
REMARK minimizedAffinity 32.0631485
REMARK minimizedRMSD -1
REMARK  0 active torsions:
REMARK  status: ('A' for Active; 'I' for Inactive)
ROOT
ATOM      1  C   UNL d   1      -3.031   0.598   4.121  0.00  0.00     0.124 A 
ATOM      2  C1  UNL d   1      -3.342   0.849   2.792  0.00  0.00     0.062 A 
ATOM      3  C2  UNL d   1      -4.066  -0.084   2.055  0.00  0.00     0.162 A 
ATOM      4  C3  UNL d   1      -4.485  -1.276   2.645  0.00  0.00    -0.034 A 
ATOM      5  C4  UNL d   1      -4.168  -1.521   3.982  0.00  0.00     0.162 A 
ATOM      6  C5  UNL d   1      -3.444  -0.586   4.715  0.00  0.00     0.062 A 
ATOM      7  F   UNL d   1      -3.144  -0.830   5.999  0.00  0.00    -0.097 F 
ATOM      8  F1  UNL d   1      -4.556  -2.657   4.582  0.00  0.00    -0.096 F 
ATOM      9  I   UNL d   1      -5.568  -2.672   1.546  0.00  0.00    -0.060 I 
ATOM     10  F2  UNL d   1      -4.352   0.185   0.772  0.00  0.00    -0.096 F 
ATOM     11  F3  UNL d   1      -2.943   1.992   2.216  0.00  0.00    -0.097 F 
ATOM     12  F4  UNL d   1      -2.333   1.496   4.828  0.00  0.00    -0.092 F 
ENDROOT
TORSDOF 0
ENDMDL
