MODEL 1
REMARK minimizedAffinity -0.969350159
REMARK minimizedRMSD -1
REMARK  3 active torsions:
REMARK  status: ('A' for Active; 'I' for Inactive)
REMARK    1  A    between atoms: C3'_2  and  C2'_3 
REMARK    2  A    between atoms: C2'_3  and  C1'_4 
REMARK    3  A    between atoms: C1'_4  and  C1_5 
ROOT
ATOM      1  C1  N4B d   1      -0.086   0.071   0.119  0.00  0.00    -0.075 A 
ATOM      2  C2  N4B d   1       0.250  -1.043   0.921  0.00  0.00     0.002 A 
ATOM      3  C3  N4B d   1       1.301  -1.853   0.564  0.00  0.00     0.002 A 
ATOM      4  C4  N4B d   1       2.014  -1.581  -0.593  0.00  0.00    -0.004 A 
ATOM      5  C5  N4B d   1       1.699  -0.489  -1.348  0.00  0.00     0.002 A 
ATOM      6  C6  N4B d   1       0.648   0.336  -1.000  0.00  0.00     0.002 A 
ENDROOT
BRANCH   1   7
ATOM      7  C1' N4B d   1      -1.280   0.935   0.422  0.00  0.00     0.057 C 
BRANCH   7   8
ATOM      8  C2' N4B d   1      -2.244   0.162   1.316  0.00  0.00     0.009 C 
BRANCH   8   9
ATOM      9  C3' N4B d   1      -2.356   0.780   2.699  0.00  0.00     0.004 C 
ATOM     10  C4' N4B d   1      -1.841   2.187   2.750  0.00  0.00     0.003 C 
ENDBRANCH   8   9
ENDBRANCH   7   8
ENDBRANCH   1   7
TORSDOF 3
ENDMDL
