MODEL 1
REMARK minimizedAffinity -1.53550076
REMARK minimizedRMSD -1
REMARK  3 active torsions:
REMARK  status: ('A' for Active; 'I' for Inactive)
REMARK    1  A    between atoms: C3'_2  and  C2'_3 
REMARK    2  A    between atoms: C2'_3  and  C1'_4 
REMARK    3  A    between atoms: C1'_4  and  C1_5 
ROOT
ATOM      1  C1  N4B d   1      -0.752  -0.539   0.877  0.00  0.00    -0.075 A 
ATOM      2  C2  N4B d   1       0.317   0.027   0.149  0.00  0.00     0.002 A 
ATOM      3  C3  N4B d   1       0.931  -0.696  -0.844  0.00  0.00     0.002 A 
ATOM      4  C4  N4B d   1       0.506  -1.989  -1.113  0.00  0.00    -0.004 A 
ATOM      5  C5  N4B d   1      -0.544  -2.519  -0.422  0.00  0.00     0.002 A 
ATOM      6  C6  N4B d   1      -1.172  -1.802   0.576  0.00  0.00     0.002 A 
ENDROOT
BRANCH   1   7
ATOM      7  C1' N4B d   1      -1.397   0.181   2.029  0.00  0.00     0.057 C 
BRANCH   7   8
ATOM      8  C2' N4B d   1      -2.901  -0.080   2.004  0.00  0.00     0.009 C 
BRANCH   8   9
ATOM      9  C3' N4B d   1      -3.573   0.346   3.298  0.00  0.00     0.004 C 
ATOM     10  C4' N4B d   1      -2.598   0.851   4.320  0.00  0.00     0.003 C 
ENDBRANCH   8   9
ENDBRANCH   7   8
ENDBRANCH   1   7
TORSDOF 3
ENDMDL
