MODEL 1
REMARK minimizedAffinity -4.0737052
REMARK minimizedRMSD -1
REMARK  3 active torsions:
REMARK  status: ('A' for Active; 'I' for Inactive)
REMARK    1  A    between atoms: C3'_2  and  C2'_3 
REMARK    2  A    between atoms: C2'_3  and  C1'_4 
REMARK    3  A    between atoms: C1'_4  and  C1_5 
ROOT
ATOM      1  C1  N4B d   1       0.826  -0.067  -0.381  0.00  0.00    -0.075 A 
ATOM      2  C2  N4B d   1       1.862  -0.891  -0.875  0.00  0.00     0.002 A 
ATOM      3  C3  N4B d   1       2.673  -0.442  -1.888  0.00  0.00     0.002 A 
ATOM      4  C4  N4B d   1       2.457   0.814  -2.434  0.00  0.00    -0.004 A 
ATOM      5  C5  N4B d   1       1.471   1.614  -1.934  0.00  0.00     0.002 A 
ATOM      6  C6  N4B d   1       0.651   1.177  -0.914  0.00  0.00     0.002 A 
ENDROOT
BRANCH   1   7
ATOM      7  C1' N4B d   1      -0.140  -0.547   0.666  0.00  0.00     0.057 C 
BRANCH   7   8
ATOM      8  C2' N4B d   1      -1.323   0.414   0.735  0.00  0.00     0.009 C 
BRANCH   8   9
ATOM      9  C3' N4B d   1      -1.448   1.064   2.103  0.00  0.00     0.004 C 
ATOM     10  C4' N4B d   1      -2.522   0.442   2.945  0.00  0.00     0.003 C 
ENDBRANCH   8   9
ENDBRANCH   7   8
ENDBRANCH   1   7
TORSDOF 3
ENDMDL
