MODEL 1
REMARK minimizedAffinity -2.39248824
REMARK minimizedRMSD -1
REMARK  3 active torsions:
REMARK  status: ('A' for Active; 'I' for Inactive)
REMARK    1  A    between atoms: C3'_2  and  C2'_3 
REMARK    2  A    between atoms: C2'_3  and  C1'_4 
REMARK    3  A    between atoms: C1'_4  and  C1_5 
ROOT
ATOM      1  C1  N4B d   1       0.716   0.154  -0.524  0.00  0.00    -0.075 A 
ATOM      2  C2  N4B d   1       0.585   1.310  -1.325  0.00  0.00     0.002 A 
ATOM      3  C3  N4B d   1       1.347   1.449  -2.458  0.00  0.00     0.002 A 
ATOM      4  C4  N4B d   1       2.257   0.460  -2.799  0.00  0.00    -0.004 A 
ATOM      5  C5  N4B d   1       2.360  -0.664  -2.034  0.00  0.00     0.002 A 
ATOM      6  C6  N4B d   1       1.598  -0.820  -0.894  0.00  0.00     0.002 A 
ENDROOT
BRANCH   1   7
ATOM      7  C1' N4B d   1      -0.033  -0.004   0.771  0.00  0.00     0.057 C 
BRANCH   7   8
ATOM      8  C2' N4B d   1      -1.384   0.695   0.656  0.00  0.00     0.009 C 
BRANCH   8   9
ATOM      9  C3' N4B d   1      -2.282   0.396   1.844  0.00  0.00     0.004 C 
ATOM     10  C4' N4B d   1      -2.275   1.493   2.868  0.00  0.00     0.003 C 
ENDBRANCH   8   9
ENDBRANCH   7   8
ENDBRANCH   1   7
TORSDOF 3
ENDMDL
