MODEL 1
REMARK minimizedAffinity -3.72187972
REMARK minimizedRMSD -1
REMARK  3 active torsions:
REMARK  status: ('A' for Active; 'I' for Inactive)
REMARK    1  A    between atoms: C3'_2  and  C2'_3 
REMARK    2  A    between atoms: C2'_3  and  C1'_4 
REMARK    3  A    between atoms: C1'_4  and  C1_5 
ROOT
ATOM      1  C1  N4B d   1       1.062  -1.028  -0.992  0.00  0.00    -0.075 A 
ATOM      2  C2  N4B d   1       1.303   0.360  -0.901  0.00  0.00     0.002 A 
ATOM      3  C3  N4B d   1       0.522   1.140  -0.083  0.00  0.00     0.002 A 
ATOM      4  C4  N4B d   1      -0.512   0.559   0.635  0.00  0.00    -0.004 A 
ATOM      5  C5  N4B d   1      -0.722  -0.787   0.561  0.00  0.00     0.002 A 
ATOM      6  C6  N4B d   1       0.057  -1.583  -0.254  0.00  0.00     0.002 A 
ENDROOT
BRANCH   1   7
ATOM      7  C1' N4B d   1       1.833  -1.908  -1.938  0.00  0.00     0.057 C 
BRANCH   7   8
ATOM      8  C2' N4B d   1       1.968  -1.200  -3.283  0.00  0.00     0.009 C 
BRANCH   8   9
ATOM      9  C3' N4B d   1       1.210  -1.922  -4.384  0.00  0.00     0.004 C 
ATOM     10  C4' N4B d   1       0.935  -1.047  -5.570  0.00  0.00     0.003 C 
ENDBRANCH   8   9
ENDBRANCH   7   8
ENDBRANCH   1   7
TORSDOF 3
ENDMDL
