MODEL 1
REMARK minimizedAffinity -3.62904382
REMARK minimizedRMSD -1
REMARK  3 active torsions:
REMARK  status: ('A' for Active; 'I' for Inactive)
REMARK    1  A    between atoms: C3'_2  and  C2'_3 
REMARK    2  A    between atoms: C2'_3  and  C1'_4 
REMARK    3  A    between atoms: C1'_4  and  C1_5 
ROOT
ATOM      1  C1  N4B d   1      -0.228  -0.287   0.096  0.00  0.00    -0.075 A 
ATOM      2  C2  N4B d   1      -0.217  -1.217  -0.968  0.00  0.00     0.002 A 
ATOM      3  C3  N4B d   1       0.885  -2.010  -1.173  0.00  0.00     0.002 A 
ATOM      4  C4  N4B d   1       1.989  -1.880  -0.344  0.00  0.00    -0.004 A 
ATOM      5  C5  N4B d   1       1.960  -0.998   0.696  0.00  0.00     0.002 A 
ATOM      6  C6  N4B d   1       0.858  -0.196   0.917  0.00  0.00     0.002 A 
ENDROOT
BRANCH   1   7
ATOM      7  C1' N4B d   1      -1.376   0.662   0.308  0.00  0.00     0.057 C 
BRANCH   7   8
ATOM      8  C2' N4B d   1      -2.229   0.164   1.471  0.00  0.00     0.009 C 
BRANCH   8   9
ATOM      9  C3' N4B d   1      -1.881   0.866   2.772  0.00  0.00     0.004 C 
ATOM     10  C4' N4B d   1      -1.938   2.361   2.659  0.00  0.00     0.003 C 
ENDBRANCH   8   9
ENDBRANCH   7   8
ENDBRANCH   1   7
TORSDOF 3
ENDMDL
