MODEL 1
REMARK minimizedAffinity -4.46113205
REMARK minimizedRMSD -1
REMARK  3 active torsions:
REMARK  status: ('A' for Active; 'I' for Inactive)
REMARK    1  A    between atoms: C3'_2  and  C2'_3 
REMARK    2  A    between atoms: C2'_3  and  C1'_4 
REMARK    3  A    between atoms: C1'_4  and  C1_5 
ROOT
ATOM      1  C1  N4B d   1       0.067  -0.232  -0.024  0.00  0.00    -0.075 A 
ATOM      2  C2  N4B d   1       0.493  -0.861  -1.215  0.00  0.00     0.002 A 
ATOM      3  C3  N4B d   1       1.750  -1.409  -1.289  0.00  0.00     0.002 A 
ATOM      4  C4  N4B d   1       2.601  -1.324  -0.197  0.00  0.00    -0.004 A 
ATOM      5  C5  N4B d   1       2.172  -0.738   0.957  0.00  0.00     0.002 A 
ATOM      6  C6  N4B d   1       0.910  -0.186   1.048  0.00  0.00     0.002 A 
ENDROOT
BRANCH   1   7
ATOM      7  C1' N4B d   1      -1.267   0.457   0.076  0.00  0.00     0.057 C 
BRANCH   7   8
ATOM      8  C2' N4B d   1      -1.878   0.169   1.444  0.00  0.00     0.009 C 
BRANCH   8   9
ATOM      9  C3' N4B d   1      -2.167   1.444   2.217  0.00  0.00     0.004 C 
ATOM     10  C4' N4B d   1      -1.301   1.595   3.432  0.00  0.00     0.003 C 
ENDBRANCH   8   9
ENDBRANCH   7   8
ENDBRANCH   1   7
TORSDOF 3
ENDMDL
