MODEL 1
REMARK minimizedAffinity -2.35862589
REMARK minimizedRMSD -1
REMARK  3 active torsions:
REMARK  status: ('A' for Active; 'I' for Inactive)
REMARK    1  A    between atoms: C3'_2  and  C2'_3 
REMARK    2  A    between atoms: C2'_3  and  C1'_4 
REMARK    3  A    between atoms: C1'_4  and  C1_5 
ROOT
ATOM      1  C1  N4B d   1       0.489  -0.305  -0.517  0.00  0.00    -0.075 A 
ATOM      2  C2  N4B d   1       0.556   0.654  -1.551  0.00  0.00     0.002 A 
ATOM      3  C3  N4B d   1       1.441   0.485  -2.588  0.00  0.00     0.002 A 
ATOM      4  C4  N4B d   1       2.278  -0.621  -2.602  0.00  0.00    -0.004 A 
ATOM      5  C5  N4B d   1       2.189  -1.556  -1.612  0.00  0.00     0.002 A 
ATOM      6  C6  N4B d   1       1.301  -1.401  -0.566  0.00  0.00     0.002 A 
ENDROOT
BRANCH   1   7
ATOM      7  C1' N4B d   1      -0.402  -0.120   0.681  0.00  0.00     0.057 C 
BRANCH   7   8
ATOM      8  C2' N4B d   1      -1.783   0.329   0.214  0.00  0.00     0.009 C 
BRANCH   8   9
ATOM      9  C3' N4B d   1      -2.782   0.379   1.357  0.00  0.00     0.004 C 
ATOM     10  C4' N4B d   1      -2.291   1.187   2.522  0.00  0.00     0.003 C 
ENDBRANCH   8   9
ENDBRANCH   7   8
ENDBRANCH   1   7
TORSDOF 3
ENDMDL
