MODEL 1
REMARK minimizedAffinity -2.85393119
REMARK minimizedRMSD -1
REMARK  3 active torsions:
REMARK  status: ('A' for Active; 'I' for Inactive)
REMARK    1  A    between atoms: C3'_2  and  C2'_3 
REMARK    2  A    between atoms: C2'_3  and  C1'_4 
REMARK    3  A    between atoms: C1'_4  and  C1_5 
ROOT
ATOM      1  C1  N4B d   1       0.316   0.077  -1.068  0.00  0.00    -0.075 A 
ATOM      2  C2  N4B d   1       1.093  -1.098  -1.170  0.00  0.00     0.002 A 
ATOM      3  C3  N4B d   1       2.093  -1.181  -2.107  0.00  0.00     0.002 A 
ATOM      4  C4  N4B d   1       2.322  -0.114  -2.962  0.00  0.00    -0.004 A 
ATOM      5  C5  N4B d   1       1.584   1.027  -2.841  0.00  0.00     0.002 A 
ATOM      6  C6  N4B d   1       0.578   1.126  -1.901  0.00  0.00     0.002 A 
ENDROOT
BRANCH   1   7
ATOM      7  C1' N4B d   1      -0.845   0.182  -0.117  0.00  0.00     0.057 C 
BRANCH   7   8
ATOM      8  C2' N4B d   1      -0.315   0.277   1.311  0.00  0.00     0.009 C 
BRANCH   8   9
ATOM      9  C3' N4B d   1      -1.346   0.861   2.261  0.00  0.00     0.004 C 
ATOM     10  C4' N4B d   1      -1.320   0.215   3.615  0.00  0.00     0.003 C 
ENDBRANCH   8   9
ENDBRANCH   7   8
ENDBRANCH   1   7
TORSDOF 3
ENDMDL
