MODEL 1
REMARK minimizedAffinity -1.95203614
REMARK minimizedRMSD -1
REMARK  3 active torsions:
REMARK  status: ('A' for Active; 'I' for Inactive)
REMARK    1  A    between atoms: C3'_2  and  C2'_3 
REMARK    2  A    between atoms: C2'_3  and  C1'_4 
REMARK    3  A    between atoms: C1'_4  and  C1_5 
ROOT
ATOM      1  C1  N4B d   1       0.639  -0.372   0.282  0.00  0.00    -0.075 A 
ATOM      2  C2  N4B d   1       1.760   0.406   0.645  0.00  0.00     0.002 A 
ATOM      3  C3  N4B d   1       2.988   0.143   0.090  0.00  0.00     0.002 A 
ATOM      4  C4  N4B d   1       3.122  -0.902  -0.813  0.00  0.00    -0.004 A 
ATOM      5  C5  N4B d   1       2.030  -1.633  -1.177  0.00  0.00     0.002 A 
ATOM      6  C6  N4B d   1       0.789  -1.377  -0.630  0.00  0.00     0.002 A 
ENDROOT
BRANCH   1   7
ATOM      7  C1' N4B d   1      -0.706  -0.177   0.927  0.00  0.00     0.057 C 
BRANCH   7   8
ATOM      8  C2' N4B d   1      -0.610   0.946   1.955  0.00  0.00     0.009 C 
BRANCH   8   9
ATOM      9  C3' N4B d   1      -1.232   0.555   3.284  0.00  0.00     0.004 C 
ATOM     10  C4' N4B d   1      -2.482  -0.259   3.124  0.00  0.00     0.003 C 
ENDBRANCH   8   9
ENDBRANCH   7   8
ENDBRANCH   1   7
TORSDOF 3
ENDMDL
