MODEL 1
REMARK minimizedAffinity 0.608138442
REMARK minimizedRMSD -1
REMARK  3 active torsions:
REMARK  status: ('A' for Active; 'I' for Inactive)
REMARK    1  A    between atoms: C3'_2  and  C2'_3 
REMARK    2  A    between atoms: C2'_3  and  C1'_4 
REMARK    3  A    between atoms: C1'_4  and  C1_5 
ROOT
ATOM      1  C1  N4B d   1      -0.526   0.404   1.976  0.00  0.00    -0.075 A 
ATOM      2  C2  N4B d   1      -0.016   1.507   2.695  0.00  0.00     0.002 A 
ATOM      3  C3  N4B d   1      -0.540   1.829   3.923  0.00  0.00     0.002 A 
ATOM      4  C4  N4B d   1      -1.583   1.076   4.441  0.00  0.00    -0.004 A 
ATOM      5  C5  N4B d   1      -2.053  -0.003   3.753  0.00  0.00     0.002 A 
ATOM      6  C6  N4B d   1      -1.533  -0.341   2.519  0.00  0.00     0.002 A 
ENDROOT
BRANCH   1   7
ATOM      7  C1' N4B d   1      -0.043   0.065   0.592  0.00  0.00     0.057 C 
BRANCH   7   8
ATOM      8  C2' N4B d   1      -0.779   0.936  -0.422  0.00  0.00     0.009 C 
BRANCH   8   9
ATOM      9  C3' N4B d   1       0.142   1.957  -1.068  0.00  0.00     0.004 C 
ATOM     10  C4' N4B d   1       1.583   1.745  -0.714  0.00  0.00     0.003 C 
ENDBRANCH   8   9
ENDBRANCH   7   8
ENDBRANCH   1   7
TORSDOF 3
ENDMDL
