MODEL 1
REMARK minimizedAffinity -2.93743539
REMARK minimizedRMSD -1
REMARK  0 active torsions:
REMARK  status: ('A' for Active; 'I' for Inactive)
ROOT
ATOM      1  C   UNL d   1       0.540   0.518  -0.146  0.00  0.00     0.172 C 
ATOM      2  N   UNL d   1       1.715   0.388   0.683  0.00  0.00    -0.070 N 
ATOM      3  C1  UNL d   1       2.659  -0.598   0.581  0.00  0.00    -0.004 A 
ATOM      4  C2  UNL d   1       3.616  -0.368   1.546  0.00  0.00    -0.047 A 
ATOM      5  C3  UNL d   1       3.233   0.796   2.253  0.00  0.00    -0.047 A 
ATOM      6  C4  UNL d   1       2.053   1.244   1.698  0.00  0.00    -0.004 A 
ENDROOT
TORSDOF 0
ENDMDL
