MODEL 1
REMARK minimizedAffinity -3.7921257
REMARK minimizedRMSD -1
REMARK  0 active torsions:
REMARK  status: ('A' for Active; 'I' for Inactive)
ROOT
ATOM      1  C   UNL d   1       2.918   0.000   0.708  0.00  0.00     0.172 C 
ATOM      2  N   UNL d   1       1.499   0.028   0.443  0.00  0.00    -0.070 N 
ATOM      3  C1  UNL d   1       0.677  -1.066   0.380  0.00  0.00    -0.004 A 
ATOM      4  C2  UNL d   1      -0.598  -0.620   0.108  0.00  0.00    -0.047 A 
ATOM      5  C3  UNL d   1      -0.541   0.790   0.001  0.00  0.00    -0.047 A 
ATOM      6  C4  UNL d   1       0.769   1.164   0.213  0.00  0.00    -0.004 A 
ENDROOT
TORSDOF 0
ENDMDL
