MODEL 1
REMARK minimizedAffinity 0.673312366
REMARK minimizedRMSD -1
REMARK  0 active torsions:
REMARK  status: ('A' for Active; 'I' for Inactive)
ROOT
ATOM      1  C   UNL d   1      -0.286  -1.893   1.387  0.00  0.00     0.172 C 
ATOM      2  N   UNL d   1      -0.231  -0.594   0.758  0.00  0.00    -0.070 N 
ATOM      3  C1  UNL d   1      -0.909  -0.225  -0.373  0.00  0.00    -0.004 A 
ATOM      4  C2  UNL d   1      -0.592   1.088  -0.646  0.00  0.00    -0.047 A 
ATOM      5  C3  UNL d   1       0.310   1.523   0.354  0.00  0.00    -0.047 A 
ATOM      6  C4  UNL d   1       0.516   0.462   1.211  0.00  0.00    -0.004 A 
ENDROOT
TORSDOF 0
ENDMDL
