MODEL 1
REMARK minimizedAffinity -3.77905989
REMARK minimizedRMSD -1
REMARK  0 active torsions:
REMARK  status: ('A' for Active; 'I' for Inactive)
ROOT
ATOM      1  C   UNL d   1      -0.832  -0.037  -0.137  0.00  0.00     0.172 C 
ATOM      2  N   UNL d   1       0.567  -0.129   0.210  0.00  0.00    -0.070 N 
ATOM      3  C1  UNL d   1       1.329  -1.266   0.159  0.00  0.00    -0.004 A 
ATOM      4  C2  UNL d   1       2.604  -0.938   0.565  0.00  0.00    -0.047 A 
ATOM      5  C3  UNL d   1       2.609   0.443   0.872  0.00  0.00    -0.047 A 
ATOM      6  C4  UNL d   1       1.335   0.919   0.643  0.00  0.00    -0.004 A 
ENDROOT
TORSDOF 0
ENDMDL
