MODEL 1
REMARK minimizedAffinity -3.08915925
REMARK minimizedRMSD -1
REMARK  0 active torsions:
REMARK  status: ('A' for Active; 'I' for Inactive)
ROOT
ATOM      1  C   UNL d   1       2.950   0.095   0.990  0.00  0.00     0.172 C 
ATOM      2  N   UNL d   1       1.534   0.073   0.707  0.00  0.00    -0.070 N 
ATOM      3  C1  UNL d   1       0.743  -1.044   0.678  0.00  0.00    -0.004 A 
ATOM      4  C2  UNL d   1      -0.540  -0.645   0.372  0.00  0.00    -0.047 A 
ATOM      5  C3  UNL d   1      -0.519   0.760   0.210  0.00  0.00    -0.047 A 
ATOM      6  C4  UNL d   1       0.777   1.179   0.422  0.00  0.00    -0.004 A 
ENDROOT
TORSDOF 0
ENDMDL
