MODEL 1
REMARK minimizedAffinity -3.75241041
REMARK minimizedRMSD -1
REMARK  0 active torsions:
REMARK  status: ('A' for Active; 'I' for Inactive)
ROOT
ATOM      1  C   UNL d   1      -0.065  -0.054  -0.553  0.00  0.00     0.172 C 
ATOM      2  N   UNL d   1       1.160  -0.099   0.210  0.00  0.00    -0.070 N 
ATOM      3  C1  UNL d   1       1.855  -1.233   0.539  0.00  0.00    -0.004 A 
ATOM      4  C2  UNL d   1       2.961  -0.854   1.267  0.00  0.00    -0.047 A 
ATOM      5  C3  UNL d   1       2.930   0.556   1.382  0.00  0.00    -0.047 A 
ATOM      6  C4  UNL d   1       1.805   0.997   0.718  0.00  0.00    -0.004 A 
ENDROOT
TORSDOF 0
ENDMDL
