MODEL 1
REMARK minimizedAffinity -3.3219378
REMARK minimizedRMSD -1
REMARK  0 active torsions:
REMARK  status: ('A' for Active; 'I' for Inactive)
ROOT
ATOM      1  C   UNL d   1       2.998  -0.055   0.501  0.00  0.00     0.172 C 
ATOM      2  N   UNL d   1       1.554  -0.071   0.472  0.00  0.00    -0.070 N 
ATOM      3  C1  UNL d   1       0.767  -1.190   0.538  0.00  0.00    -0.004 A 
ATOM      4  C2  UNL d   1      -0.548  -0.785   0.481  0.00  0.00    -0.047 A 
ATOM      5  C3  UNL d   1      -0.553   0.627   0.376  0.00  0.00    -0.047 A 
ATOM      6  C4  UNL d   1       0.762   1.042   0.372  0.00  0.00    -0.004 A 
ENDROOT
TORSDOF 0
ENDMDL
