MODEL 1
REMARK minimizedAffinity 4.91879272
REMARK minimizedRMSD -1
REMARK  3 active torsions:
REMARK  status: ('A' for Active; 'I' for Inactive)
REMARK    1  A    between atoms: C3'_2  and  C2'_3 
REMARK    2  A    between atoms: C2'_3  and  C1'_4 
REMARK    3  A    between atoms: C1'_4  and  C1_5 
ROOT
ATOM      1  C1  N4B d   1       0.822   3.343   1.202  0.00  0.00    -0.075 A 
ATOM      2  C2  N4B d   1       2.099   3.928   1.341  0.00  0.00     0.002 A 
ATOM      3  C3  N4B d   1       2.773   3.831   2.534  0.00  0.00     0.002 A 
ATOM      4  C4  N4B d   1       2.183   3.172   3.602  0.00  0.00    -0.004 A 
ATOM      5  C5  N4B d   1       0.960   2.588   3.452  0.00  0.00     0.002 A 
ATOM      6  C6  N4B d   1       0.273   2.674   2.258  0.00  0.00     0.002 A 
ENDROOT
BRANCH   1   7
ATOM      7  C1' N4B d   1       0.010   3.497  -0.056  0.00  0.00     0.057 C 
BRANCH   7   8
ATOM      8  C2' N4B d   1       0.604   4.621  -0.900  0.00  0.00     0.009 C 
BRANCH   8   9
ATOM      9  C3' N4B d   1      -0.089   5.948  -0.646  0.00  0.00     0.004 C 
ATOM     10  C4' N4B d   1      -0.873   5.960   0.632  0.00  0.00     0.003 C 
ENDBRANCH   8   9
ENDBRANCH   7   8
ENDBRANCH   1   7
TORSDOF 3
ENDMDL
