MODEL 1
REMARK minimizedAffinity 7.1882658
REMARK minimizedRMSD -1
REMARK  3 active torsions:
REMARK  status: ('A' for Active; 'I' for Inactive)
REMARK    1  A    between atoms: C3'_2  and  C2'_3 
REMARK    2  A    between atoms: C2'_3  and  C1'_4 
REMARK    3  A    between atoms: C1'_4  and  C1_5 
ROOT
ATOM      1  C1  N4B d   1      -0.040   3.882   1.151  0.00  0.00    -0.075 A 
ATOM      2  C2  N4B d   1      -0.224   5.282   1.148  0.00  0.00     0.002 A 
ATOM      3  C3  N4B d   1      -0.019   6.000  -0.005  0.00  0.00     0.002 A 
ATOM      4  C4  N4B d   1       0.388   5.344  -1.157  0.00  0.00    -0.004 A 
ATOM      5  C5  N4B d   1       0.539   3.988  -1.153  0.00  0.00     0.002 A 
ATOM      6  C6  N4B d   1       0.332   3.254  -0.002  0.00  0.00     0.002 A 
ENDROOT
BRANCH   1   7
ATOM      7  C1' N4B d   1      -0.169   3.067   2.409  0.00  0.00     0.057 C 
BRANCH   7   8
ATOM      8  C2' N4B d   1       1.192   2.478   2.765  0.00  0.00     0.009 C 
BRANCH   8   9
ATOM      9  C3' N4B d   1       1.637   2.879   4.161  0.00  0.00     0.004 C 
ATOM     10  C4' N4B d   1       2.985   3.538   4.174  0.00  0.00     0.003 C 
ENDBRANCH   8   9
ENDBRANCH   7   8
ENDBRANCH   1   7
TORSDOF 3
ENDMDL
