MODEL 1
REMARK minimizedAffinity 10.0633183
REMARK minimizedRMSD -1
REMARK  3 active torsions:
REMARK  status: ('A' for Active; 'I' for Inactive)
REMARK    1  A    between atoms: C3'_2  and  C2'_3 
REMARK    2  A    between atoms: C2'_3  and  C1'_4 
REMARK    3  A    between atoms: C1'_4  and  C1_5 
ROOT
ATOM      1  C1  N4B d   1       0.274   3.257   0.921  0.00  0.00    -0.075 A 
ATOM      2  C2  N4B d   1       0.961   3.129   2.149  0.00  0.00     0.002 A 
ATOM      3  C3  N4B d   1       1.976   4.000   2.461  0.00  0.00     0.002 A 
ATOM      4  C4  N4B d   1       2.333   4.989   1.557  0.00  0.00    -0.004 A 
ATOM      5  C5  N4B d   1       1.648   5.121   0.385  0.00  0.00     0.002 A 
ATOM      6  C6  N4B d   1       0.623   4.256   0.060  0.00  0.00     0.002 A 
ENDROOT
BRANCH   1   7
ATOM      7  C1' N4B d   1      -0.785   2.276   0.499  0.00  0.00     0.057 C 
BRANCH   7   8
ATOM      8  C2' N4B d   1      -0.164   1.238  -0.432  0.00  0.00     0.009 C 
BRANCH   8   9
ATOM      9  C3' N4B d   1      -1.216   0.358  -1.085  0.00  0.00     0.004 C 
ATOM     10  C4' N4B d   1      -0.635  -0.601  -2.080  0.00  0.00     0.003 C 
ENDBRANCH   8   9
ENDBRANCH   7   8
ENDBRANCH   1   7
TORSDOF 3
ENDMDL
