MODEL 1
REMARK minimizedAffinity 8.48586845
REMARK minimizedRMSD -1
REMARK  3 active torsions:
REMARK  status: ('A' for Active; 'I' for Inactive)
REMARK    1  A    between atoms: C3'_2  and  C2'_3 
REMARK    2  A    between atoms: C2'_3  and  C1'_4 
REMARK    3  A    between atoms: C1'_4  and  C1_5 
ROOT
ATOM      1  C1  N4B d   1       0.182   3.380   0.248  0.00  0.00    -0.075 A 
ATOM      2  C2  N4B d   1       0.187   3.697  -1.129  0.00  0.00     0.002 A 
ATOM      3  C3  N4B d   1       0.037   5.001  -1.533  0.00  0.00     0.002 A 
ATOM      4  C4  N4B d   1      -0.137   5.998  -0.585  0.00  0.00    -0.004 A 
ATOM      5  C5  N4B d   1      -0.115   5.686   0.743  0.00  0.00     0.002 A 
ATOM      6  C6  N4B d   1       0.038   4.381   1.164  0.00  0.00     0.002 A 
ENDROOT
BRANCH   1   7
ATOM      7  C1' N4B d   1       0.256   1.959   0.735  0.00  0.00     0.057 C 
BRANCH   7   8
ATOM      8  C2' N4B d   1      -0.322   1.033  -0.330  0.00  0.00     0.009 C 
BRANCH   8   9
ATOM      9  C3' N4B d   1      -1.720   0.558   0.027  0.00  0.00     0.004 C 
ATOM     10  C4' N4B d   1      -2.792   1.294  -0.720  0.00  0.00     0.003 C 
ENDBRANCH   8   9
ENDBRANCH   7   8
ENDBRANCH   1   7
TORSDOF 3
ENDMDL
