MODEL 1
REMARK minimizedAffinity -2.97006154
REMARK minimizedRMSD -1
REMARK  0 active torsions:
REMARK  status: ('A' for Active; 'I' for Inactive)
ROOT
ATOM      1  C   UNL d   1       0.253  -0.086  -1.255  0.00  0.00     0.172 C 
ATOM      2  N   UNL d   1      -0.405   0.272  -0.020  0.00  0.00    -0.070 N 
ATOM      3  C1  UNL d   1       0.146   0.187   1.230  0.00  0.00    -0.004 A 
ATOM      4  C2  UNL d   1      -0.798   0.619   2.137  0.00  0.00    -0.047 A 
ATOM      5  C3  UNL d   1      -1.956   0.975   1.406  0.00  0.00    -0.047 A 
ATOM      6  C4  UNL d   1      -1.685   0.750   0.072  0.00  0.00    -0.004 A 
ENDROOT
TORSDOF 0
ENDMDL
