MODEL 1
REMARK minimizedAffinity -2.1560185
REMARK minimizedRMSD -1
REMARK  0 active torsions:
REMARK  status: ('A' for Active; 'I' for Inactive)
ROOT
ATOM      1  C   UNL d   1       0.197  -0.015  -0.996  0.00  0.00     0.172 C 
ATOM      2  N   UNL d   1      -0.378   0.237   0.305  0.00  0.00    -0.070 N 
ATOM      3  C1  UNL d   1      -1.633   0.732   0.540  0.00  0.00    -0.004 A 
ATOM      4  C2  UNL d   1      -1.800   0.825   1.905  0.00  0.00    -0.047 A 
ATOM      5  C3  UNL d   1      -0.605   0.370   2.511  0.00  0.00    -0.047 A 
ATOM      6  C4  UNL d   1       0.258   0.012   1.497  0.00  0.00    -0.004 A 
ENDROOT
TORSDOF 0
ENDMDL
