MODEL 1
REMARK minimizedAffinity -2.73548293
REMARK minimizedRMSD -1
REMARK  0 active torsions:
REMARK  status: ('A' for Active; 'I' for Inactive)
ROOT
ATOM      1  C   UNL d   1      -1.014   0.957   2.122  0.00  0.00     0.172 C 
ATOM      2  N   UNL d   1      -0.356   0.228   1.064  0.00  0.00    -0.070 N 
ATOM      3  C1  UNL d   1       0.924  -0.258   1.106  0.00  0.00    -0.004 A 
ATOM      4  C2  UNL d   1       1.175  -0.890  -0.093  0.00  0.00    -0.047 A 
ATOM      5  C3  UNL d   1       0.006  -0.779  -0.883  0.00  0.00    -0.047 A 
ATOM      6  C4  UNL d   1      -0.926  -0.082  -0.143  0.00  0.00    -0.004 A 
ENDROOT
TORSDOF 0
ENDMDL
