MODEL 1
REMARK minimizedAffinity -2.43193579
REMARK minimizedRMSD -1
REMARK  0 active torsions:
REMARK  status: ('A' for Active; 'I' for Inactive)
ROOT
ATOM      1  C   UNL d   1      -1.533   0.773   2.035  0.00  0.00     0.172 C 
ATOM      2  N   UNL d   1      -1.029   0.554   0.700  0.00  0.00    -0.070 N 
ATOM      3  C1  UNL d   1      -1.558   1.080  -0.449  0.00  0.00    -0.004 A 
ATOM      4  C2  UNL d   1      -0.793   0.637  -1.506  0.00  0.00    -0.047 A 
ATOM      5  C3  UNL d   1       0.229  -0.184  -0.975  0.00  0.00    -0.047 A 
ATOM      6  C4  UNL d   1       0.059  -0.218   0.393  0.00  0.00    -0.004 A 
ENDROOT
TORSDOF 0
ENDMDL
