MODEL 1
REMARK minimizedAffinity -1.52772081
REMARK minimizedRMSD -1
REMARK  0 active torsions:
REMARK  status: ('A' for Active; 'I' for Inactive)
ROOT
ATOM      1  C   UNL d   1       0.752   0.716  -2.504  0.00  0.00     0.172 C 
ATOM      2  N   UNL d   1      -0.106   0.695  -1.343  0.00  0.00    -0.070 N 
ATOM      3  C1  UNL d   1      -0.959   1.696  -0.962  0.00  0.00    -0.004 A 
ATOM      4  C2  UNL d   1      -1.595   1.293   0.192  0.00  0.00    -0.047 A 
ATOM      5  C3  UNL d   1      -1.107   0.005   0.517  0.00  0.00    -0.047 A 
ATOM      6  C4  UNL d   1      -0.186  -0.341  -0.450  0.00  0.00    -0.004 A 
ENDROOT
TORSDOF 0
ENDMDL
