MODEL 1
REMARK minimizedAffinity -2.71063471
REMARK minimizedRMSD -1
REMARK  0 active torsions:
REMARK  status: ('A' for Active; 'I' for Inactive)
ROOT
ATOM      1  C   UNL d   1      -0.747   0.517  -0.118  0.00  0.00     0.172 C 
ATOM      2  N   UNL d   1      -0.014   0.158  -1.309  0.00  0.00    -0.070 N 
ATOM      3  C1  UNL d   1       0.414   1.028  -2.276  0.00  0.00    -0.004 A 
ATOM      4  C2  UNL d   1       1.071   0.296  -3.241  0.00  0.00    -0.047 A 
ATOM      5  C3  UNL d   1       1.035  -1.061  -2.842  0.00  0.00    -0.047 A 
ATOM      6  C4  UNL d   1       0.357  -1.118  -1.643  0.00  0.00    -0.004 A 
ENDROOT
TORSDOF 0
ENDMDL
