MODEL 1
REMARK minimizedAffinity -1.92740536
REMARK minimizedRMSD -1
REMARK  0 active torsions:
REMARK  status: ('A' for Active; 'I' for Inactive)
ROOT
ATOM      1  C   UNL d   1       1.019   0.944  -2.626  0.00  0.00     0.172 C 
ATOM      2  N   UNL d   1       0.304   0.489  -1.457  0.00  0.00    -0.070 N 
ATOM      3  C1  UNL d   1       0.387  -0.763  -0.908  0.00  0.00    -0.004 A 
ATOM      4  C2  UNL d   1      -0.444  -0.798   0.191  0.00  0.00    -0.047 A 
ATOM      5  C3  UNL d   1      -1.048   0.477   0.305  0.00  0.00    -0.047 A 
ATOM      6  C4  UNL d   1      -0.568   1.254  -0.728  0.00  0.00    -0.004 A 
ENDROOT
TORSDOF 0
ENDMDL
