MODEL 1
REMARK minimizedAffinity 0.23784548
REMARK minimizedRMSD -1
REMARK  0 active torsions:
REMARK  status: ('A' for Active; 'I' for Inactive)
ROOT
ATOM      1  C   UNL d   1       0.081  -0.319  -0.932  0.00  0.00     0.172 C 
ATOM      2  N   UNL d   1      -0.400   0.029   0.384  0.00  0.00    -0.070 N 
ATOM      3  C1  UNL d   1       0.265  -0.189   1.561  0.00  0.00    -0.004 A 
ATOM      4  C2  UNL d   1      -0.525   0.283   2.586  0.00  0.00    -0.047 A 
ATOM      5  C3  UNL d   1      -1.707   0.802   2.006  0.00  0.00    -0.047 A 
ATOM      6  C4  UNL d   1      -1.603   0.631   0.641  0.00  0.00    -0.004 A 
ENDROOT
TORSDOF 0
ENDMDL
