MODEL 1
REMARK minimizedAffinity -2.14016867
REMARK minimizedRMSD -1
REMARK  0 active torsions:
REMARK  status: ('A' for Active; 'I' for Inactive)
ROOT
ATOM      1  C   UNL d   1       0.575  -0.720  -1.239  0.00  0.00     0.172 C 
ATOM      2  N   UNL d   1       0.822   0.054  -2.433  0.00  0.00    -0.070 N 
ATOM      3  C1  UNL d   1       2.042   0.521  -2.843  0.00  0.00    -0.004 A 
ATOM      4  C2  UNL d   1       1.855   1.209  -4.023  0.00  0.00    -0.047 A 
ATOM      5  C3  UNL d   1       0.476   1.154  -4.332  0.00  0.00    -0.047 A 
ATOM      6  C4  UNL d   1      -0.141   0.432  -3.331  0.00  0.00    -0.004 A 
ENDROOT
TORSDOF 0
ENDMDL
