MODEL 1
REMARK minimizedAffinity -2.61309147
REMARK minimizedRMSD -1
REMARK  0 active torsions:
REMARK  status: ('A' for Active; 'I' for Inactive)
ROOT
ATOM      1  C   UNL d   1       1.643  -1.351   0.937  0.00  0.00     0.172 C 
ATOM      2  N   UNL d   1       0.397  -0.649   0.733  0.00  0.00    -0.070 N 
ATOM      3  C1  UNL d   1      -0.087  -0.219  -0.473  0.00  0.00    -0.004 A 
ATOM      4  C2  UNL d   1      -1.296   0.403  -0.245  0.00  0.00    -0.047 A 
ATOM      5  C3  UNL d   1      -1.546   0.344   1.147  0.00  0.00    -0.047 A 
ATOM      6  C4  UNL d   1      -0.482  -0.312   1.728  0.00  0.00    -0.004 A 
ENDROOT
TORSDOF 0
ENDMDL
