MODEL 1
REMARK minimizedAffinity -3.30714011
REMARK minimizedRMSD -1
REMARK  0 active torsions:
REMARK  status: ('A' for Active; 'I' for Inactive)
ROOT
ATOM      1  C   UNL d   1       0.230  -0.033  -1.217  0.00  0.00     0.172 C 
ATOM      2  N   UNL d   1      -0.252   0.301   0.102  0.00  0.00    -0.070 N 
ATOM      3  C1  UNL d   1      -1.308   1.127   0.381  0.00  0.00    -0.004 A 
ATOM      4  C2  UNL d   1      -1.447   1.187   1.751  0.00  0.00    -0.047 A 
ATOM      5  C3  UNL d   1      -0.439   0.369   2.315  0.00  0.00    -0.047 A 
ATOM      6  C4  UNL d   1       0.286  -0.167   1.272  0.00  0.00    -0.004 A 
ENDROOT
TORSDOF 0
ENDMDL
