MODEL 1
REMARK minimizedAffinity -2.81528759
REMARK minimizedRMSD -1
REMARK  0 active torsions:
REMARK  status: ('A' for Active; 'I' for Inactive)
ROOT
ATOM      1  C   UNL d   1       0.425  -0.067  -4.122  0.00  0.00     0.172 C 
ATOM      2  N   UNL d   1      -0.240  -1.247  -4.622  0.00  0.00    -0.070 N 
ATOM      3  C1  UNL d   1      -0.464  -1.540  -5.941  0.00  0.00    -0.004 A 
ATOM      4  C2  UNL d   1      -1.122  -2.749  -5.999  0.00  0.00    -0.047 A 
ATOM      5  C3  UNL d   1      -1.301  -3.198  -4.669  0.00  0.00    -0.047 A 
ATOM      6  C4  UNL d   1      -0.746  -2.250  -3.837  0.00  0.00    -0.004 A 
ENDROOT
TORSDOF 0
ENDMDL
