MODEL 1
REMARK minimizedAffinity 1.38568342
REMARK minimizedRMSD -1
REMARK  0 active torsions:
REMARK  status: ('A' for Active; 'I' for Inactive)
ROOT
ATOM      1  C   UNL d   1       3.192  -3.773  -6.000  0.00  0.00     0.172 C 
ATOM      2  N   UNL d   1       1.832  -4.015  -5.579  0.00  0.00    -0.070 N 
ATOM      3  C1  UNL d   1       0.817  -3.096  -5.593  0.00  0.00    -0.004 A 
ATOM      4  C2  UNL d   1      -0.319  -3.715  -5.118  0.00  0.00    -0.047 A 
ATOM      5  C3  UNL d   1       0.025  -5.052  -4.807  0.00  0.00    -0.047 A 
ATOM      6  C4  UNL d   1       1.363  -5.210  -5.102  0.00  0.00    -0.004 A 
ENDROOT
TORSDOF 0
ENDMDL
