MODEL 1
REMARK minimizedAffinity -0.79584378
REMARK minimizedRMSD -1
REMARK  0 active torsions:
REMARK  status: ('A' for Active; 'I' for Inactive)
ROOT
ATOM      1  C   UNL d   1      -3.719   0.348  -1.024  0.00  0.00     0.172 C 
ATOM      2  N   UNL d   1      -2.842   0.506   0.112  0.00  0.00    -0.070 N 
ATOM      3  C1  UNL d   1      -1.959  -0.432   0.575  0.00  0.00    -0.004 A 
ATOM      4  C2  UNL d   1      -1.312   0.101   1.669  0.00  0.00    -0.047 A 
ATOM      5  C3  UNL d   1      -1.825   1.404   1.871  0.00  0.00    -0.047 A 
ATOM      6  C4  UNL d   1      -2.770   1.629   0.893  0.00  0.00    -0.004 A 
ENDROOT
TORSDOF 0
ENDMDL
