MODEL 1
REMARK minimizedAffinity 8.95997143
REMARK minimizedRMSD -1
REMARK  0 active torsions:
REMARK  status: ('A' for Active; 'I' for Inactive)
ROOT
ATOM      1  C   UNL d   1      -1.260  -0.340   1.917  0.00  0.00     0.023 A 
ATOM      2  C1  UNL d   1      -1.267   0.863   1.212  0.00  0.00     0.003 A 
ATOM      3  C2  UNL d   1      -2.228   1.835   1.497  0.00  0.00     0.048 A 
ATOM      4  C3  UNL d   1      -3.179   1.597   2.489  0.00  0.00     0.023 A 
ATOM      5  C4  UNL d   1      -3.175   0.395   3.198  0.00  0.00     0.048 A 
ATOM      6  C5  UNL d   1      -2.213  -0.574   2.909  0.00  0.00     0.003 A 
ATOM      7  I   UNL d   1      -4.611   3.042   2.915  0.00  0.00    -0.146 I 
ENDROOT
TORSDOF 0
ENDMDL
