MODEL 1
REMARK minimizedAffinity 16.8138695
REMARK minimizedRMSD -1
REMARK  0 active torsions:
REMARK  status: ('A' for Active; 'I' for Inactive)
ROOT
ATOM      1  C   UNL d   1      -0.747  -1.534   1.817  0.00  0.00     0.023 A 
ATOM      2  C1  UNL d   1      -0.297  -2.210   2.951  0.00  0.00     0.003 A 
ATOM      3  C2  UNL d   1      -1.002  -2.109   4.151  0.00  0.00     0.048 A 
ATOM      4  C3  UNL d   1      -2.159  -1.332   4.211  0.00  0.00     0.023 A 
ATOM      5  C4  UNL d   1      -2.614  -0.655   3.078  0.00  0.00     0.048 A 
ATOM      6  C5  UNL d   1      -1.904  -0.757   1.880  0.00  0.00     0.003 A 
ATOM      7  I   UNL d   1      -3.211  -1.181   5.997  0.00  0.00    -0.146 I 
ENDROOT
TORSDOF 0
ENDMDL
