MODEL 1
REMARK minimizedAffinity 4.76467514
REMARK minimizedRMSD -1
REMARK  0 active torsions:
REMARK  status: ('A' for Active; 'I' for Inactive)
ROOT
ATOM      1  C   UNL d   1      -1.489   1.458   2.405  0.00  0.00     0.023 A 
ATOM      2  C1  UNL d   1      -2.767   2.014   2.363  0.00  0.00     0.003 A 
ATOM      3  C2  UNL d   1      -3.858   1.233   1.976  0.00  0.00     0.048 A 
ATOM      4  C3  UNL d   1      -3.663  -0.104   1.632  0.00  0.00     0.023 A 
ATOM      5  C4  UNL d   1      -2.385  -0.665   1.673  0.00  0.00     0.048 A 
ATOM      6  C5  UNL d   1      -1.298   0.120   2.060  0.00  0.00     0.003 A 
ATOM      7  I   UNL d   1      -5.284  -1.269   1.055  0.00  0.00    -0.146 I 
ENDROOT
TORSDOF 0
ENDMDL
