MODEL 1
REMARK minimizedAffinity 10.8990002
REMARK minimizedRMSD -1
REMARK  0 active torsions:
REMARK  status: ('A' for Active; 'I' for Inactive)
ROOT
ATOM      1  C   UNL d   1       1.710   0.248  -3.386  0.00  0.00     0.023 A 
ATOM      2  C1  UNL d   1       1.072   0.750  -4.520  0.00  0.00     0.003 A 
ATOM      3  C2  UNL d   1       0.230  -0.074  -5.272  0.00  0.00     0.048 A 
ATOM      4  C3  UNL d   1       0.031  -1.398  -4.883  0.00  0.00     0.023 A 
ATOM      5  C4  UNL d   1       0.667  -1.904  -3.748  0.00  0.00     0.048 A 
ATOM      6  C5  UNL d   1       1.508  -1.078  -3.001  0.00  0.00     0.003 A 
ATOM      7  I   UNL d   1      -1.220  -2.625  -5.999  0.00  0.00    -0.146 I 
ENDROOT
TORSDOF 0
ENDMDL
