MODEL 1
REMARK minimizedAffinity 11.9451389
REMARK minimizedRMSD -1
REMARK  0 active torsions:
REMARK  status: ('A' for Active; 'I' for Inactive)
ROOT
ATOM      1  C   UNL d   1       1.216   0.490  -4.266  0.00  0.00     0.023 A 
ATOM      2  C1  UNL d   1       0.233   0.590  -5.251  0.00  0.00     0.003 A 
ATOM      3  C2  UNL d   1      -0.377  -0.562  -5.750  0.00  0.00     0.048 A 
ATOM      4  C3  UNL d   1      -0.001  -1.812  -5.259  0.00  0.00     0.023 A 
ATOM      5  C4  UNL d   1       0.982  -1.917  -4.273  0.00  0.00     0.048 A 
ATOM      6  C5  UNL d   1       1.590  -0.762  -3.778  0.00  0.00     0.003 A 
ATOM      7  I   UNL d   1      -0.908  -3.529  -6.000  0.00  0.00    -0.146 I 
ENDROOT
TORSDOF 0
ENDMDL
