MODEL 1
REMARK minimizedAffinity 8.84360409
REMARK minimizedRMSD -1
REMARK  0 active torsions:
REMARK  status: ('A' for Active; 'I' for Inactive)
ROOT
ATOM      1  C   UNL d   1      -1.241  -0.239   1.633  0.00  0.00     0.023 A 
ATOM      2  C1  UNL d   1      -2.043  -0.702   2.676  0.00  0.00     0.003 A 
ATOM      3  C2  UNL d   1      -3.043   0.117   3.206  0.00  0.00     0.048 A 
ATOM      4  C3  UNL d   1      -3.235   1.397   2.688  0.00  0.00     0.023 A 
ATOM      5  C4  UNL d   1      -2.435   1.864   1.644  0.00  0.00     0.048 A 
ATOM      6  C5  UNL d   1      -1.437   1.043   1.118  0.00  0.00     0.003 A 
ATOM      7  I   UNL d   1      -4.722   2.617   3.476  0.00  0.00    -0.146 I 
ENDROOT
TORSDOF 0
ENDMDL
