MODEL 1
REMARK minimizedAffinity 11.830862
REMARK minimizedRMSD -1
REMARK  0 active torsions:
REMARK  status: ('A' for Active; 'I' for Inactive)
ROOT
ATOM      1  C   UNL d   1      -6.000  -5.981   3.941  0.00  0.00     0.023 A 
ATOM      2  C1  UNL d   1      -5.785  -4.947   3.030  0.00  0.00     0.003 A 
ATOM      3  C2  UNL d   1      -5.058  -3.817   3.413  0.00  0.00     0.048 A 
ATOM      4  C3  UNL d   1      -4.549  -3.728   4.708  0.00  0.00     0.023 A 
ATOM      5  C4  UNL d   1      -4.761  -4.761   5.623  0.00  0.00     0.048 A 
ATOM      6  C5  UNL d   1      -5.489  -5.888   5.236  0.00  0.00     0.003 A 
ATOM      7  I   UNL d   1      -3.468  -2.048   5.280  0.00  0.00    -0.146 I 
ENDROOT
TORSDOF 0
ENDMDL
