MODEL 1
REMARK minimizedAffinity 4.37553644
REMARK minimizedRMSD -1
REMARK  0 active torsions:
REMARK  status: ('A' for Active; 'I' for Inactive)
ROOT
ATOM      1  C   UNL d   1      -5.225  -2.535  -5.253  0.00  0.00     0.023 A 
ATOM      2  C1  UNL d   1      -5.648  -3.687  -4.589  0.00  0.00     0.003 A 
ATOM      3  C2  UNL d   1      -5.869  -3.658  -3.210  0.00  0.00     0.048 A 
ATOM      4  C3  UNL d   1      -5.666  -2.474  -2.502  0.00  0.00     0.023 A 
ATOM      5  C4  UNL d   1      -5.244  -1.319  -3.162  0.00  0.00     0.048 A 
ATOM      6  C5  UNL d   1      -5.023  -1.353  -4.540  0.00  0.00     0.003 A 
ATOM      7  I   UNL d   1      -5.995  -2.429  -0.450  0.00  0.00    -0.146 I 
ENDROOT
TORSDOF 0
ENDMDL
