MODEL 1
REMARK minimizedAffinity 15.2627678
REMARK minimizedRMSD -1
REMARK  0 active torsions:
REMARK  status: ('A' for Active; 'I' for Inactive)
ROOT
ATOM      1  C   UNL d   1      -4.435  -3.295   0.309  0.00  0.00     0.023 A 
ATOM      2  C1  UNL d   1      -5.328  -2.223   0.290  0.00  0.00     0.003 A 
ATOM      3  C2  UNL d   1      -4.867  -0.924   0.513  0.00  0.00     0.048 A 
ATOM      4  C3  UNL d   1      -3.512  -0.704   0.755  0.00  0.00     0.023 A 
ATOM      5  C4  UNL d   1      -2.614  -1.773   0.775  0.00  0.00     0.048 A 
ATOM      6  C5  UNL d   1      -3.080  -3.070   0.552  0.00  0.00     0.003 A 
ATOM      7  I   UNL d   1      -2.823   1.229   1.088  0.00  0.00    -0.146 I 
ENDROOT
TORSDOF 0
ENDMDL
