MODEL 1
REMARK minimizedAffinity 4.88269329
REMARK minimizedRMSD -1
REMARK  0 active torsions:
REMARK  status: ('A' for Active; 'I' for Inactive)
ROOT
ATOM      1  C   UNL d   1       3.001   4.532  -3.746  0.00  0.00     0.023 A 
ATOM      2  C1  UNL d   1       3.830   4.434  -4.864  0.00  0.00     0.003 A 
ATOM      3  C2  UNL d   1       3.989   3.207  -5.511  0.00  0.00     0.048 A 
ATOM      4  C3  UNL d   1       3.317   2.082  -5.035  0.00  0.00     0.023 A 
ATOM      5  C4  UNL d   1       2.487   2.175  -3.917  0.00  0.00     0.048 A 
ATOM      6  C5  UNL d   1       2.331   3.404  -3.273  0.00  0.00     0.003 A 
ATOM      7  I   UNL d   1       3.553   0.254  -5.996  0.00  0.00    -0.146 I 
ENDROOT
TORSDOF 0
ENDMDL
