MODEL 1
REMARK minimizedAffinity 6.96733427
REMARK minimizedRMSD -1
REMARK  0 active torsions:
REMARK  status: ('A' for Active; 'I' for Inactive)
ROOT
ATOM      1  C   UNL d   1      -1.164  -1.918   4.849  0.00  0.00     0.023 A 
ATOM      2  C1  UNL d   1      -2.478  -1.454   4.933  0.00  0.00     0.003 A 
ATOM      3  C2  UNL d   1      -2.971  -0.572   3.969  0.00  0.00     0.048 A 
ATOM      4  C3  UNL d   1      -2.146  -0.159   2.924  0.00  0.00     0.023 A 
ATOM      5  C4  UNL d   1      -0.831  -0.620   2.836  0.00  0.00     0.048 A 
ATOM      6  C5  UNL d   1      -0.342  -1.502   3.802  0.00  0.00     0.003 A 
ATOM      7  I   UNL d   1      -2.877   1.154   1.488  0.00  0.00    -0.146 I 
ENDROOT
TORSDOF 0
ENDMDL
