MODEL 1
REMARK minimizedAffinity 12.0372944
REMARK minimizedRMSD -1
REMARK  0 active torsions:
REMARK  status: ('A' for Active; 'I' for Inactive)
ROOT
ATOM      1  C   UNL d   1      -5.061   4.423   0.598  0.00  0.00     0.023 A 
ATOM      2  C1  UNL d   1      -4.171   3.856   1.510  0.00  0.00     0.003 A 
ATOM      3  C2  UNL d   1      -4.180   4.268   2.845  0.00  0.00     0.048 A 
ATOM      4  C3  UNL d   1      -5.083   5.246   3.260  0.00  0.00     0.023 A 
ATOM      5  C4  UNL d   1      -5.976   5.815   2.351  0.00  0.00     0.048 A 
ATOM      6  C5  UNL d   1      -5.963   5.401   1.018  0.00  0.00     0.003 A 
ATOM      7  I   UNL d   1      -5.099   5.861   5.245  0.00  0.00    -0.146 I 
ENDROOT
TORSDOF 0
ENDMDL
