MODEL 1
REMARK minimizedAffinity 8.07706833
REMARK minimizedRMSD -1
REMARK  0 active torsions:
REMARK  status: ('A' for Active; 'I' for Inactive)
ROOT
ATOM      1  C   UNL d   1      -5.998   4.805   6.000  0.00  0.00     0.023 A 
ATOM      2  C1  UNL d   1      -5.686   3.464   5.775  0.00  0.00     0.003 A 
ATOM      3  C2  UNL d   1      -5.240   3.050   4.518  0.00  0.00     0.048 A 
ATOM      4  C3  UNL d   1      -5.107   3.983   3.490  0.00  0.00     0.023 A 
ATOM      5  C4  UNL d   1      -5.418   5.326   3.710  0.00  0.00     0.048 A 
ATOM      6  C5  UNL d   1      -5.865   5.735   4.968  0.00  0.00     0.003 A 
ATOM      7  I   UNL d   1      -4.443   3.370   1.619  0.00  0.00    -0.146 I 
ENDROOT
TORSDOF 0
ENDMDL
