MODEL 1
REMARK minimizedAffinity 7.85938597
REMARK minimizedRMSD -1
REMARK  0 active torsions:
REMARK  status: ('A' for Active; 'I' for Inactive)
ROOT
ATOM      1  C   UNL d   1      -3.418   2.392   0.642  0.00  0.00     0.023 A 
ATOM      2  C1  UNL d   1      -3.148   3.373   1.596  0.00  0.00     0.003 A 
ATOM      3  C2  UNL d   1      -1.920   3.384   2.261  0.00  0.00     0.048 A 
ATOM      4  C3  UNL d   1      -0.966   2.411   1.965  0.00  0.00     0.023 A 
ATOM      5  C4  UNL d   1      -1.231   1.428   1.011  0.00  0.00     0.048 A 
ATOM      6  C5  UNL d   1      -2.461   1.420   0.350  0.00  0.00     0.003 A 
ATOM      7  I   UNL d   1       0.863   2.425   2.953  0.00  0.00    -0.146 I 
ENDROOT
TORSDOF 0
ENDMDL
