MODEL 1
REMARK minimizedAffinity 14.6150637
REMARK minimizedRMSD -1
REMARK  0 active torsions:
REMARK  status: ('A' for Active; 'I' for Inactive)
ROOT
ATOM      1  C   UNL d   1      -5.060  -3.090   0.493  0.00  0.00     0.023 A 
ATOM      2  C1  UNL d   1      -5.672  -1.836   0.521  0.00  0.00     0.003 A 
ATOM      3  C2  UNL d   1      -4.899  -0.684   0.671  0.00  0.00     0.048 A 
ATOM      4  C3  UNL d   1      -3.514  -0.791   0.792  0.00  0.00     0.023 A 
ATOM      5  C4  UNL d   1      -2.897  -2.043   0.764  0.00  0.00     0.048 A 
ATOM      6  C5  UNL d   1      -3.675  -3.193   0.615  0.00  0.00     0.003 A 
ATOM      7  I   UNL d   1      -2.360   0.923   1.016  0.00  0.00    -0.146 I 
ENDROOT
TORSDOF 0
ENDMDL
