MODEL 1
REMARK minimizedAffinity -6.0486455
REMARK minimizedRMSD -1
REMARK  0 active torsions:
REMARK  status: ('A' for Active; 'I' for Inactive)
ROOT
ATOM      1  C   UNL d   1       1.883   2.989   1.360  0.00  0.00    -0.002 A 
ATOM      2  C1  UNL d   1       2.795   2.509   0.431  0.00  0.00     0.010 A 
ATOM      3  C2  UNL d   1       2.559   1.309  -0.242  0.00  0.00     0.041 A 
ATOM      4  C3  UNL d   1       1.377   0.593   0.035  0.00  0.00    -0.075 A 
ATOM      5  S   UNL d   1       0.876  -0.899  -0.668  0.00  0.00     0.015 SA
ATOM      6  C4  UNL d   1      -0.561  -0.934   0.247  0.00  0.00     0.022 A 
ATOM      7  C5  UNL d   1      -0.672   0.158   1.075  0.00  0.00     0.026 A 
ATOM      8  C6  UNL d   1       0.443   1.057   0.966  0.00  0.00    -0.082 A 
ATOM      9  C7  UNL d   1       0.712   2.276   1.633  0.00  0.00     0.045 A 
ENDROOT
TORSDOF 0
ENDMDL
