MODEL 1
REMARK minimizedAffinity -4.45550823
REMARK minimizedRMSD -1
REMARK  0 active torsions:
REMARK  status: ('A' for Active; 'I' for Inactive)
ROOT
ATOM      1  C   UNL d   1       2.801   2.262   0.757  0.00  0.00    -0.002 A 
ATOM      2  C1  UNL d   1       3.227   1.170   0.015  0.00  0.00     0.010 A 
ATOM      3  C2  UNL d   1       2.311   0.224  -0.447  0.00  0.00     0.041 A 
ATOM      4  C3  UNL d   1       0.944   0.396  -0.150  0.00  0.00    -0.075 A 
ATOM      5  S   UNL d   1      -0.358  -0.634  -0.613  0.00  0.00     0.015 SA
ATOM      6  C4  UNL d   1      -1.512   0.352   0.163  0.00  0.00     0.022 A 
ATOM      7  C5  UNL d   1      -0.935   1.444   0.766  0.00  0.00     0.026 A 
ATOM      8  C6  UNL d   1       0.490   1.488   0.594  0.00  0.00    -0.082 A 
ATOM      9  C7  UNL d   1       1.444   2.430   1.050  0.00  0.00     0.045 A 
ENDROOT
TORSDOF 0
ENDMDL
