MODEL 1
REMARK minimizedAffinity -6.25031042
REMARK minimizedRMSD -1
REMARK  0 active torsions:
REMARK  status: ('A' for Active; 'I' for Inactive)
ROOT
ATOM      1  C   UNL d   1       3.211   2.465   0.337  0.00  0.00    -0.002 A 
ATOM      2  C1  UNL d   1       2.415   3.024   1.327  0.00  0.00     0.010 A 
ATOM      3  C2  UNL d   1       1.213   2.418   1.698  0.00  0.00     0.041 A 
ATOM      4  C3  UNL d   1       0.822   1.228   1.052  0.00  0.00    -0.075 A 
ATOM      5  S   UNL d   1      -0.608   0.310   1.343  0.00  0.00     0.015 SA
ATOM      6  C4  UNL d   1      -0.195  -0.846   0.161  0.00  0.00     0.022 A 
ATOM      7  C5  UNL d   1       1.001  -0.554  -0.451  0.00  0.00     0.026 A 
ATOM      8  C6  UNL d   1       1.607   0.646   0.054  0.00  0.00    -0.082 A 
ATOM      9  C7  UNL d   1       2.820   1.285  -0.301  0.00  0.00     0.045 A 
ENDROOT
TORSDOF 0
ENDMDL
