MODEL 1
REMARK minimizedAffinity -0.988748968
REMARK minimizedRMSD -1
REMARK  0 active torsions:
REMARK  status: ('A' for Active; 'I' for Inactive)
ROOT
ATOM      1  C   UNL d   1       0.748   1.182   0.002  0.00  0.00    -0.002 A 
ATOM      2  C1  UNL d   1      -0.156   0.690   0.933  0.00  0.00     0.010 A 
ATOM      3  C2  UNL d   1      -1.158  -0.203   0.548  0.00  0.00     0.041 A 
ATOM      4  C3  UNL d   1      -1.235  -0.599  -0.802  0.00  0.00    -0.075 A 
ATOM      5  S   UNL d   1      -2.377  -1.684  -1.503  0.00  0.00     0.015 SA
ATOM      6  C4  UNL d   1      -1.691  -1.522  -3.055  0.00  0.00     0.022 A 
ATOM      7  C5  UNL d   1      -0.616  -0.664  -3.056  0.00  0.00     0.026 A 
ATOM      8  C6  UNL d   1      -0.335  -0.119  -1.758  0.00  0.00    -0.082 A 
ATOM      9  C7  UNL d   1       0.669   0.786  -1.336  0.00  0.00     0.045 A 
ENDROOT
TORSDOF 0
ENDMDL
