MODEL 1
REMARK minimizedAffinity -5.19425106
REMARK minimizedRMSD -1
REMARK  0 active torsions:
REMARK  status: ('A' for Active; 'I' for Inactive)
ROOT
ATOM      1  C   UNL d   1       3.089   2.018   0.717  0.00  0.00    -0.002 A 
ATOM      2  C1  UNL d   1       2.245   2.631   1.631  0.00  0.00     0.010 A 
ATOM      3  C2  UNL d   1       0.963   2.127   1.863  0.00  0.00     0.041 A 
ATOM      4  C3  UNL d   1       0.542   0.985   1.154  0.00  0.00    -0.075 A 
ATOM      5  S   UNL d   1      -0.984   0.191   1.275  0.00  0.00     0.015 SA
ATOM      6  C4  UNL d   1      -0.550  -0.981   0.116  0.00  0.00     0.022 A 
ATOM      7  C5  UNL d   1       0.724  -0.786  -0.362  0.00  0.00     0.026 A 
ATOM      8  C6  UNL d   1       1.375   0.350   0.229  0.00  0.00    -0.082 A 
ATOM      9  C7  UNL d   1       2.668   0.885   0.016  0.00  0.00     0.045 A 
ENDROOT
TORSDOF 0
ENDMDL
