MODEL 1
REMARK minimizedAffinity -3.8317802
REMARK minimizedRMSD -1
REMARK  0 active torsions:
REMARK  status: ('A' for Active; 'I' for Inactive)
ROOT
ATOM      1  C   UNL d   1       3.123   1.080   4.289  0.00  0.00    -0.002 A 
ATOM      2  C1  UNL d   1       1.900   1.728   4.380  0.00  0.00     0.010 A 
ATOM      3  C2  UNL d   1       1.162   2.018   3.231  0.00  0.00     0.041 A 
ATOM      4  C3  UNL d   1       1.679   1.641   1.976  0.00  0.00    -0.075 A 
ATOM      5  S   UNL d   1       0.950   1.892   0.434  0.00  0.00     0.015 SA
ATOM      6  C4  UNL d   1       2.246   1.144  -0.383  0.00  0.00     0.022 A 
ATOM      7  C5  UNL d   1       3.219   0.708   0.484  0.00  0.00     0.026 A 
ATOM      8  C6  UNL d   1       2.908   0.986   1.858  0.00  0.00    -0.082 A 
ATOM      9  C7  UNL d   1       3.633   0.707   3.042  0.00  0.00     0.045 A 
ENDROOT
TORSDOF 0
ENDMDL
