MODEL 1
REMARK minimizedAffinity -5.79136086
REMARK minimizedRMSD -1
REMARK  0 active torsions:
REMARK  status: ('A' for Active; 'I' for Inactive)
ROOT
ATOM      1  C   UNL d   1       2.929   2.241   0.726  0.00  0.00    -0.002 A 
ATOM      2  C1  UNL d   1       2.081   2.828   1.656  0.00  0.00     0.010 A 
ATOM      3  C2  UNL d   1       0.782   2.348   1.835  0.00  0.00     0.041 A 
ATOM      4  C3  UNL d   1       0.346   1.257   1.058  0.00  0.00    -0.075 A 
ATOM      5  S   UNL d   1      -1.203   0.500   1.106  0.00  0.00     0.015 SA
ATOM      6  C4  UNL d   1      -0.775  -0.621  -0.104  0.00  0.00     0.022 A 
ATOM      7  C5  UNL d   1       0.513  -0.437  -0.546  0.00  0.00     0.026 A 
ATOM      8  C6  UNL d   1       1.181   0.648   0.117  0.00  0.00    -0.082 A 
ATOM      9  C7  UNL d   1       2.492   1.158  -0.042  0.00  0.00     0.045 A 
ENDROOT
TORSDOF 0
ENDMDL
