MODEL 1
REMARK minimizedAffinity -3.93091297
REMARK minimizedRMSD -1
REMARK  0 active torsions:
REMARK  status: ('A' for Active; 'I' for Inactive)
ROOT
ATOM      1  C   UNL d   1       1.515   2.979   1.688  0.00  0.00    -0.002 A 
ATOM      2  C1  UNL d   1       0.180   2.615   1.787  0.00  0.00     0.010 A 
ATOM      3  C2  UNL d   1      -0.299   1.485   1.120  0.00  0.00     0.041 A 
ATOM      4  C3  UNL d   1       0.597   0.719   0.348  0.00  0.00    -0.075 A 
ATOM      5  S   UNL d   1       0.236  -0.705  -0.554  0.00  0.00     0.015 SA
ATOM      6  C4  UNL d   1       1.846  -0.864  -1.090  0.00  0.00     0.022 A 
ATOM      7  C5  UNL d   1       2.653   0.137  -0.603  0.00  0.00     0.026 A 
ATOM      8  C6  UNL d   1       1.946   1.065   0.235  0.00  0.00    -0.082 A 
ATOM      9  C7  UNL d   1       2.400   2.217   0.921  0.00  0.00     0.045 A 
ENDROOT
TORSDOF 0
ENDMDL
