MODEL 1
REMARK minimizedAffinity -0.133429259
REMARK minimizedRMSD -1
REMARK  0 active torsions:
REMARK  status: ('A' for Active; 'I' for Inactive)
ROOT
ATOM      1  C   UNL d   1       0.778   2.006   1.868  0.00  0.00    -0.002 A 
ATOM      2  C1  UNL d   1       0.213   2.909   0.979  0.00  0.00     0.010 A 
ATOM      3  C2  UNL d   1      -0.376   2.464  -0.207  0.00  0.00     0.041 A 
ATOM      4  C3  UNL d   1      -0.388   1.084  -0.485  0.00  0.00    -0.075 A 
ATOM      5  S   UNL d   1      -1.054   0.309  -1.875  0.00  0.00     0.015 SA
ATOM      6  C4  UNL d   1      -0.605  -1.238  -1.320  0.00  0.00     0.022 A 
ATOM      7  C5  UNL d   1       0.039  -1.184  -0.106  0.00  0.00     0.026 A 
ATOM      8  C6  UNL d   1       0.174   0.155   0.395  0.00  0.00    -0.082 A 
ATOM      9  C7  UNL d   1       0.764   0.637   1.588  0.00  0.00     0.045 A 
ENDROOT
TORSDOF 0
ENDMDL
