MODEL 1
REMARK minimizedAffinity 1.34682047
REMARK minimizedRMSD -1
REMARK  0 active torsions:
REMARK  status: ('A' for Active; 'I' for Inactive)
ROOT
ATOM      1  C   UNL d   1      -1.133  -0.906   0.312  0.00  0.00    -0.002 A 
ATOM      2  C1  UNL d   1      -0.322  -1.565  -0.601  0.00  0.00     0.010 A 
ATOM      3  C2  UNL d   1       0.868  -0.984  -1.043  0.00  0.00     0.041 A 
ATOM      4  C3  UNL d   1       1.235   0.282  -0.545  0.00  0.00    -0.075 A 
ATOM      5  S   UNL d   1       2.648   1.186  -0.943  0.00  0.00     0.015 SA
ATOM      6  C4  UNL d   1       2.208   2.469   0.090  0.00  0.00     0.022 A 
ATOM      7  C5  UNL d   1       1.016   2.230   0.731  0.00  0.00     0.026 A 
ATOM      8  C6  UNL d   1       0.435   0.965   0.376  0.00  0.00    -0.082 A 
ATOM      9  C7  UNL d   1      -0.766   0.350   0.803  0.00  0.00     0.045 A 
ENDROOT
TORSDOF 0
ENDMDL
