MODEL 1
REMARK minimizedAffinity -4.38182545
REMARK minimizedRMSD -1
REMARK  0 active torsions:
REMARK  status: ('A' for Active; 'I' for Inactive)
ROOT
ATOM      1  C   UNL d   1       1.988   2.433   1.381  0.00  0.00    -0.002 A 
ATOM      2  C1  UNL d   1       2.708   1.734   0.423  0.00  0.00     0.010 A 
ATOM      3  C2  UNL d   1       2.124   0.671  -0.269  0.00  0.00     0.041 A 
ATOM      4  C3  UNL d   1       0.791   0.320   0.020  0.00  0.00    -0.075 A 
ATOM      5  S   UNL d   1      -0.131  -0.945  -0.702  0.00  0.00     0.015 SA
ATOM      6  C4  UNL d   1      -1.503  -0.587   0.244  0.00  0.00     0.022 A 
ATOM      7  C5  UNL d   1      -1.280   0.469   1.096  0.00  0.00     0.026 A 
ATOM      8  C6  UNL d   1       0.045   1.010   0.980  0.00  0.00    -0.082 A 
ATOM      9  C7  UNL d   1       0.665   2.082   1.665  0.00  0.00     0.045 A 
ENDROOT
TORSDOF 0
ENDMDL
