MODEL 1
REMARK minimizedAffinity -4.96790409
REMARK minimizedRMSD -1
REMARK  0 active torsions:
REMARK  status: ('A' for Active; 'I' for Inactive)
ROOT
ATOM      1  C   UNL d   1       3.202   2.631   0.624  0.00  0.00    -0.002 A 
ATOM      2  C1  UNL d   1       3.354   1.358   0.094  0.00  0.00     0.010 A 
ATOM      3  C2  UNL d   1       2.279   0.467   0.064  0.00  0.00     0.041 A 
ATOM      4  C3  UNL d   1       1.036   0.883   0.579  0.00  0.00    -0.075 A 
ATOM      5  S   UNL d   1      -0.421  -0.036   0.647  0.00  0.00     0.015 SA
ATOM      6  C4  UNL d   1      -1.281   1.240   1.380  0.00  0.00     0.022 A 
ATOM      7  C5  UNL d   1      -0.491   2.348   1.576  0.00  0.00     0.026 A 
ATOM      8  C6  UNL d   1       0.857   2.161   1.117  0.00  0.00    -0.082 A 
ATOM      9  C7  UNL d   1       1.967   3.040   1.134  0.00  0.00     0.045 A 
ENDROOT
TORSDOF 0
ENDMDL
