MODEL 1
REMARK minimizedAffinity -5.93502045
REMARK minimizedRMSD -1
REMARK  0 active torsions:
REMARK  status: ('A' for Active; 'I' for Inactive)
ROOT
ATOM      1  C   UNL d   1       1.762   2.863   1.510  0.00  0.00    -0.002 A 
ATOM      2  C1  UNL d   1       2.994   2.429   1.044  0.00  0.00     0.010 A 
ATOM      3  C2  UNL d   1       3.112   1.208   0.377  0.00  0.00     0.041 A 
ATOM      4  C3  UNL d   1       1.958   0.423   0.183  0.00  0.00    -0.075 A 
ATOM      5  S   UNL d   1       1.861  -1.106  -0.607  0.00  0.00     0.015 SA
ATOM      6  C4  UNL d   1       0.181  -1.219  -0.345  0.00  0.00     0.022 A 
ATOM      7  C5  UNL d   1      -0.311  -0.126   0.328  0.00  0.00     0.026 A 
ATOM      8  C6  UNL d   1       0.705   0.839   0.643  0.00  0.00    -0.082 A 
ATOM      9  C7  UNL d   1       0.619   2.082   1.316  0.00  0.00     0.045 A 
ENDROOT
TORSDOF 0
ENDMDL
