MODEL 1
REMARK minimizedAffinity -1.73655939
REMARK minimizedRMSD -1
REMARK  0 active torsions:
REMARK  status: ('A' for Active; 'I' for Inactive)
ROOT
ATOM      1  C   UNL d   1       3.415   1.190  -0.106  0.00  0.00    -0.002 A 
ATOM      2  C1  UNL d   1       2.565   2.150   0.426  0.00  0.00     0.010 A 
ATOM      3  C2  UNL d   1       1.190   1.919   0.499  0.00  0.00     0.041 A 
ATOM      4  C3  UNL d   1       0.679   0.695   0.026  0.00  0.00    -0.075 A 
ATOM      5  S   UNL d   1      -0.970   0.192   0.016  0.00  0.00     0.015 SA
ATOM      6  C4  UNL d   1      -0.586  -1.309  -0.694  0.00  0.00     0.022 A 
ATOM      7  C5  UNL d   1       0.763  -1.440  -0.925  0.00  0.00     0.026 A 
ATOM      8  C6  UNL d   1       1.514  -0.288  -0.513  0.00  0.00    -0.082 A 
ATOM      9  C7  UNL d   1       2.904  -0.023  -0.574  0.00  0.00     0.045 A 
ENDROOT
TORSDOF 0
ENDMDL
