MODEL 1
REMARK minimizedAffinity 6.55234623
REMARK minimizedRMSD -1
REMARK  0 active torsions:
REMARK  status: ('A' for Active; 'I' for Inactive)
ROOT
ATOM      1  C2' OXE d   1       1.252  -3.255  -0.832  0.00  0.00     0.078 C 
ATOM      2  C1' OXE d   1       3.061  -2.956  -2.957  0.00  0.00     0.078 C 
ATOM      3  C1  OXE d   1       3.037  -1.883  -1.897  0.00  0.00    -0.078 A 
ATOM      4  C2  OXE d   1       2.116  -2.014  -0.886  0.00  0.00    -0.078 A 
ATOM      5  C3  OXE d   1       2.090  -1.081   0.147  0.00  0.00     0.003 A 
ATOM      6  C4  OXE d   1       2.886   0.069   0.084  0.00  0.00    -0.002 A 
ATOM      7  C5  OXE d   1       3.802   0.242  -0.958  0.00  0.00    -0.002 A 
ATOM      8  C6  OXE d   1       3.920  -0.744  -1.932  0.00  0.00     0.003 A 
ENDROOT
TORSDOF 0
ENDMDL
