MODEL 1
REMARK minimizedAffinity 4.14959383
REMARK minimizedRMSD -1
REMARK  0 active torsions:
REMARK  status: ('A' for Active; 'I' for Inactive)
ROOT
ATOM      1  C2' OXE d   1      -1.685   0.205  -1.872  0.00  0.00     0.078 C 
ATOM      2  C1' OXE d   1      -3.290   1.129  -3.981  0.00  0.00     0.078 C 
ATOM      3  C1  OXE d   1      -3.982   0.569  -2.763  0.00  0.00    -0.078 A 
ATOM      4  C2  OXE d   1      -3.188   0.076  -1.756  0.00  0.00    -0.078 A 
ATOM      5  C3  OXE d   1      -3.775  -0.402  -0.587  0.00  0.00     0.003 A 
ATOM      6  C4  OXE d   1      -5.166  -0.526  -0.492  0.00  0.00    -0.002 A 
ATOM      7  C5  OXE d   1      -5.992  -0.067  -1.524  0.00  0.00    -0.002 A 
ATOM      8  C6  OXE d   1      -5.419   0.521  -2.645  0.00  0.00     0.003 A 
ENDROOT
TORSDOF 0
ENDMDL
