MODEL 1
REMARK minimizedAffinity 4.59627581
REMARK minimizedRMSD -1
REMARK  0 active torsions:
REMARK  status: ('A' for Active; 'I' for Inactive)
ROOT
ATOM      1  C2' OXE d   1       4.250   0.263  -1.459  0.00  0.00     0.078 C 
ATOM      2  C1' OXE d   1       3.878  -2.461  -2.027  0.00  0.00     0.078 C 
ATOM      3  C1  OXE d   1       2.951  -1.818  -1.026  0.00  0.00    -0.078 A 
ATOM      4  C2  OXE d   1       3.170  -0.496  -0.719  0.00  0.00    -0.078 A 
ATOM      5  C3  OXE d   1       2.309   0.160   0.156  0.00  0.00     0.003 A 
ATOM      6  C4  OXE d   1       1.319  -0.552   0.843  0.00  0.00    -0.002 A 
ATOM      7  C5  OXE d   1       1.104  -1.908   0.575  0.00  0.00    -0.002 A 
ATOM      8  C6  OXE d   1       1.882  -2.544  -0.386  0.00  0.00     0.003 A 
ENDROOT
TORSDOF 0
ENDMDL
