MODEL 1
REMARK minimizedAffinity 2.25740576
REMARK minimizedRMSD -1
REMARK  0 active torsions:
REMARK  status: ('A' for Active; 'I' for Inactive)
ROOT
ATOM      1  C2' OXE d   1       2.471   1.184   0.607  0.00  0.00     0.078 C 
ATOM      2  C1' OXE d   1       1.660   1.509   3.275  0.00  0.00     0.078 C 
ATOM      3  C1  OXE d   1       0.595   1.535   2.208  0.00  0.00    -0.078 A 
ATOM      4  C2  OXE d   1       1.006   1.422   0.902  0.00  0.00    -0.078 A 
ATOM      5  C3  OXE d   1       0.059   1.386  -0.118  0.00  0.00     0.003 A 
ATOM      6  C4  OXE d   1      -1.293   1.617   0.161  0.00  0.00    -0.002 A 
ATOM      7  C5  OXE d   1      -1.728   1.774   1.482  0.00  0.00    -0.002 A 
ATOM      8  C6  OXE d   1      -0.804   1.694   2.518  0.00  0.00     0.003 A 
ENDROOT
TORSDOF 0
ENDMDL
