MODEL 1
REMARK minimizedAffinity 8.96460915
REMARK minimizedRMSD -1
REMARK  0 active torsions:
REMARK  status: ('A' for Active; 'I' for Inactive)
ROOT
ATOM      1  C2' OXE d   1       3.479  -3.158  -2.163  0.00  0.00     0.078 C 
ATOM      2  C1' OXE d   1       1.046  -3.051  -0.766  0.00  0.00     0.078 C 
ATOM      3  C1  OXE d   1       2.059  -1.965  -0.500  0.00  0.00    -0.078 A 
ATOM      4  C2  OXE d   1       3.265  -2.051  -1.153  0.00  0.00    -0.078 A 
ATOM      5  C3  OXE d   1       4.213  -1.046  -0.985  0.00  0.00     0.003 A 
ATOM      6  C4  OXE d   1       4.011  -0.032  -0.042  0.00  0.00    -0.002 A 
ATOM      7  C5  OXE d   1       2.806   0.052   0.663  0.00  0.00    -0.002 A 
ATOM      8  C6  OXE d   1       1.805  -0.880   0.415  0.00  0.00     0.003 A 
ENDROOT
TORSDOF 0
ENDMDL
