MODEL 1
REMARK minimizedAffinity 3.67660785
REMARK minimizedRMSD -1
REMARK  0 active torsions:
REMARK  status: ('A' for Active; 'I' for Inactive)
ROOT
ATOM      1  C2' OXE d   1       3.558  -2.953  -2.127  0.00  0.00     0.078 C 
ATOM      2  C1' OXE d   1       1.432  -2.743  -0.305  0.00  0.00     0.078 C 
ATOM      3  C1  OXE d   1       2.352  -1.557  -0.452  0.00  0.00    -0.078 A 
ATOM      4  C2  OXE d   1       3.417  -1.686  -1.312  0.00  0.00    -0.078 A 
ATOM      5  C3  OXE d   1       4.265  -0.603  -1.526  0.00  0.00     0.003 A 
ATOM      6  C4  OXE d   1       4.134   0.562  -0.761  0.00  0.00    -0.002 A 
ATOM      7  C5  OXE d   1       3.080   0.699   0.149  0.00  0.00    -0.002 A 
ATOM      8  C6  OXE d   1       2.157  -0.333   0.284  0.00  0.00     0.003 A 
ENDROOT
TORSDOF 0
ENDMDL
