MODEL 1
REMARK minimizedAffinity 2.76469588
REMARK minimizedRMSD -1
REMARK  1 active torsions:
REMARK  status: ('A' for Active; 'I' for Inactive)
REMARK    1  A    between atoms: C1_2  and  C2_3 
ROOT
ATOM      1  C2  UNL d   1       0.495  -1.393   0.026  0.00  0.00    -0.081 A 
ATOM      2  C3  UNL d   1       1.157  -1.054   1.212  0.00  0.00     0.006 A 
ATOM      3  C4  UNL d   1       0.915   0.174   1.831  0.00  0.00     0.002 A 
ATOM      4  C5  UNL d   1       0.002   1.080   1.280  0.00  0.00    -0.080 A 
ATOM      5  C6  UNL d   1      -0.289   2.389   1.952  0.00  0.00     0.076 C 
ATOM      6  C7  UNL d   1      -0.646   0.748   0.086  0.00  0.00     0.002 A 
ATOM      7  C8  UNL d   1      -0.404  -0.479  -0.535  0.00  0.00     0.006 A 
ENDROOT
BRANCH   1   8
ATOM      8  C1  UNL d   1       0.705  -2.744  -0.610  0.00  0.00     0.054 C 
ATOM      9  C   UNL d   1      -0.614  -3.354  -1.063  0.00  0.00     0.018 C 
ENDBRANCH   1   8
TORSDOF 1
ENDMDL
