MODEL 1
REMARK minimizedAffinity -4.2139225
REMARK minimizedRMSD -1
REMARK  1 active torsions:
REMARK  status: ('A' for Active; 'I' for Inactive)
REMARK    1  A    between atoms: C1_2  and  C2_3 
ROOT
ATOM      1  C2  UNL d   1      -0.065  -2.188   0.039  0.00  0.00    -0.081 A 
ATOM      2  C3  UNL d   1      -0.533  -2.178   1.359  0.00  0.00     0.006 A 
ATOM      3  C4  UNL d   1      -0.595  -0.983   2.079  0.00  0.00     0.002 A 
ATOM      4  C5  UNL d   1      -0.198   0.222   1.490  0.00  0.00    -0.080 A 
ATOM      5  C6  UNL d   1      -0.288   1.517   2.243  0.00  0.00     0.076 C 
ATOM      6  C7  UNL d   1       0.286   0.210   0.178  0.00  0.00     0.002 A 
ATOM      7  C8  UNL d   1       0.349  -0.985  -0.543  0.00  0.00     0.006 A 
ENDROOT
BRANCH   1   8
ATOM      8  C1  UNL d   1      -0.058  -3.465  -0.762  0.00  0.00     0.054 C 
ATOM      9  C   UNL d   1      -1.212  -3.503  -1.753  0.00  0.00     0.018 C 
ENDBRANCH   1   8
TORSDOF 1
ENDMDL
