MODEL 1
REMARK minimizedAffinity 0.553405881
REMARK minimizedRMSD -1
REMARK  1 active torsions:
REMARK  status: ('A' for Active; 'I' for Inactive)
REMARK    1  A    between atoms: C1_2  and  C2_3 
ROOT
ATOM      1  C2  UNL d   1      -0.324  -2.008  -0.208  0.00  0.00    -0.081 A 
ATOM      2  C3  UNL d   1       0.746  -1.177  -0.563  0.00  0.00     0.006 A 
ATOM      3  C4  UNL d   1       0.872   0.095   0.002  0.00  0.00     0.002 A 
ATOM      4  C5  UNL d   1      -0.064   0.553   0.935  0.00  0.00    -0.080 A 
ATOM      5  C6  UNL d   1       0.077   1.905   1.570  0.00  0.00     0.076 C 
ATOM      6  C7  UNL d   1      -1.143  -0.270   1.276  0.00  0.00     0.002 A 
ATOM      7  C8  UNL d   1      -1.270  -1.541   0.711  0.00  0.00     0.006 A 
ENDROOT
BRANCH   1   8
ATOM      8  C1  UNL d   1      -0.427  -3.404  -0.766  0.00  0.00     0.054 C 
ATOM      9  C   UNL d   1       0.940  -4.067  -0.854  0.00  0.00     0.018 C 
ENDBRANCH   1   8
TORSDOF 1
ENDMDL
