MODEL 1
REMARK minimizedAffinity 8.71071148
REMARK minimizedRMSD -1
REMARK  1 active torsions:
REMARK  status: ('A' for Active; 'I' for Inactive)
REMARK    1  A    between atoms: C1_2  and  C2_3 
ROOT
ATOM      1  C2  UNL d   1       0.652   3.339   2.089  0.00  0.00    -0.081 A 
ATOM      2  C3  UNL d   1       0.982   2.056   1.636  0.00  0.00     0.006 A 
ATOM      3  C4  UNL d   1      -0.020   1.142   1.303  0.00  0.00     0.002 A 
ATOM      4  C5  UNL d   1      -1.369   1.498   1.410  0.00  0.00    -0.080 A 
ATOM      5  C6  UNL d   1      -2.455   0.537   1.027  0.00  0.00     0.076 C 
ATOM      6  C7  UNL d   1      -1.700   2.774   1.879  0.00  0.00     0.002 A 
ATOM      7  C8  UNL d   1      -0.698   3.688   2.213  0.00  0.00     0.006 A 
ENDROOT
BRANCH   1   8
ATOM      8  C1  UNL d   1       1.731   4.348   2.387  0.00  0.00     0.054 C 
ATOM      9  C   UNL d   1       1.873   5.357   1.255  0.00  0.00     0.018 C 
ENDBRANCH   1   8
TORSDOF 1
ENDMDL
