MODEL 1
REMARK minimizedAffinity 7.39817619
REMARK minimizedRMSD -1
REMARK  1 active torsions:
REMARK  status: ('A' for Active; 'I' for Inactive)
REMARK    1  A    between atoms: C1_2  and  C2_3 
ROOT
ATOM      1  C2  UNL d   1       2.256  -4.563  -1.185  0.00  0.00    -0.081 A 
ATOM      2  C3  UNL d   1       2.825  -3.610  -0.330  0.00  0.00     0.006 A 
ATOM      3  C4  UNL d   1       4.041  -3.004  -0.655  0.00  0.00     0.002 A 
ATOM      4  C5  UNL d   1       4.703  -3.333  -1.843  0.00  0.00    -0.080 A 
ATOM      5  C6  UNL d   1       5.993  -2.667  -2.218  0.00  0.00     0.076 C 
ATOM      6  C7  UNL d   1       4.144  -4.297  -2.688  0.00  0.00     0.002 A 
ATOM      7  C8  UNL d   1       2.929  -4.905  -2.363  0.00  0.00     0.006 A 
ENDROOT
BRANCH   1   8
ATOM      8  C1  UNL d   1       0.914  -5.171  -0.868  0.00  0.00     0.054 C 
ATOM      9  C   UNL d   1      -0.221  -4.336  -1.443  0.00  0.00     0.018 C 
ENDBRANCH   1   8
TORSDOF 1
ENDMDL
