MODEL 1
REMARK minimizedAffinity 0.330827653
REMARK minimizedRMSD -1
REMARK  0 active torsions:
REMARK  status: ('A' for Active; 'I' for Inactive)
ROOT
ATOM      1  C4' PXY d   1       0.770  -0.679   2.775  0.00  0.00     0.077 C 
ATOM      2  C1' PXY d   1      -4.234   0.685   0.223  0.00  0.00     0.077 C 
ATOM      3  C1  PXY d   1      -2.919   0.318   0.883  0.00  0.00    -0.082 A 
ATOM      4  C2  PXY d   1      -2.733   0.590   2.164  0.00  0.00     0.003 A 
ATOM      5  C3  PXY d   1      -1.538   0.295   2.769  0.00  0.00     0.003 A 
ATOM      6  C4  PXY d   1      -0.544  -0.335   2.069  0.00  0.00    -0.082 A 
ATOM      7  C5  PXY d   1      -0.731  -0.626   0.764  0.00  0.00     0.003 A 
ATOM      8  C6  PXY d   1      -1.935  -0.280   0.158  0.00  0.00     0.003 A 
ENDROOT
TORSDOF 0
ENDMDL
