MODEL 1
REMARK minimizedAffinity -1.94944966
REMARK minimizedRMSD -1
REMARK  0 active torsions:
REMARK  status: ('A' for Active; 'I' for Inactive)
ROOT
ATOM      1  C4' PXY d   1       1.766  -1.857   4.066  0.00  0.00     0.077 C 
ATOM      2  C1' PXY d   1      -2.694   0.527   1.266  0.00  0.00     0.077 C 
ATOM      3  C1  PXY d   1      -1.533  -0.107   2.006  0.00  0.00    -0.082 A 
ATOM      4  C2  PXY d   1      -0.451   0.610   2.262  0.00  0.00     0.003 A 
ATOM      5  C3  PXY d   1       0.622   0.043   2.901  0.00  0.00     0.003 A 
ATOM      6  C4  PXY d   1       0.565  -1.256   3.330  0.00  0.00    -0.082 A 
ATOM      7  C5  PXY d   1      -0.540  -1.991   3.082  0.00  0.00     0.003 A 
ATOM      8  C6  PXY d   1      -1.601  -1.409   2.395  0.00  0.00     0.003 A 
ENDROOT
TORSDOF 0
ENDMDL
