MODEL 1
REMARK minimizedAffinity -1.23350823
REMARK minimizedRMSD -1
REMARK  0 active torsions:
REMARK  status: ('A' for Active; 'I' for Inactive)
ROOT
ATOM      1  C4' PXY d   1       1.921  -1.432   3.854  0.00  0.00     0.077 C 
ATOM      2  C1' PXY d   1      -2.918  -0.145   0.965  0.00  0.00     0.077 C 
ATOM      3  C1  PXY d   1      -1.656  -0.488   1.732  0.00  0.00    -0.082 A 
ATOM      4  C2  PXY d   1      -0.560   0.229   1.544  0.00  0.00     0.003 A 
ATOM      5  C3  PXY d   1       0.598  -0.087   2.205  0.00  0.00     0.003 A 
ATOM      6  C4  PXY d   1       0.622  -1.116   3.108  0.00  0.00    -0.082 A 
ATOM      7  C5  PXY d   1      -0.495  -1.846   3.314  0.00  0.00     0.003 A 
ATOM      8  C6  PXY d   1      -1.650  -1.534   2.602  0.00  0.00     0.003 A 
ENDROOT
TORSDOF 0
ENDMDL
