MODEL 1
REMARK minimizedAffinity -1.51869726
REMARK minimizedRMSD -1
REMARK  0 active torsions:
REMARK  status: ('A' for Active; 'I' for Inactive)
ROOT
ATOM      1  C4' PXY d   1       2.220  -1.145   3.896  0.00  0.00     0.077 C 
ATOM      2  C1' PXY d   1      -2.947  -0.316   1.441  0.00  0.00     0.077 C 
ATOM      3  C1  PXY d   1      -1.597  -0.543   2.093  0.00  0.00    -0.082 A 
ATOM      4  C2  PXY d   1      -0.686   0.417   2.062  0.00  0.00     0.003 A 
ATOM      5  C3  PXY d   1       0.551   0.217   2.618  0.00  0.00     0.003 A 
ATOM      6  C4  PXY d   1       0.841  -0.957   3.259  0.00  0.00    -0.082 A 
ATOM      7  C5  PXY d   1      -0.087  -1.937   3.304  0.00  0.00     0.003 A 
ATOM      8  C6  PXY d   1      -1.322  -1.730   2.697  0.00  0.00     0.003 A 
ENDROOT
TORSDOF 0
ENDMDL
