MODEL 1
REMARK minimizedAffinity 7.77074051
REMARK minimizedRMSD -1
REMARK  0 active torsions:
REMARK  status: ('A' for Active; 'I' for Inactive)
ROOT
ATOM      1  C4' PXY d   1      -1.188  -1.265  -4.083  0.00  0.00     0.077 C 
ATOM      2  C1' PXY d   1      -2.980  -1.909   1.375  0.00  0.00     0.077 C 
ATOM      3  C1  PXY d   1      -2.498  -1.744  -0.053  0.00  0.00    -0.082 A 
ATOM      4  C2  PXY d   1      -3.137  -0.920  -0.868  0.00  0.00     0.003 A 
ATOM      5  C3  PXY d   1      -2.734  -0.783  -2.171  0.00  0.00     0.003 A 
ATOM      6  C4  PXY d   1      -1.634  -1.456  -2.631  0.00  0.00    -0.082 A 
ATOM      7  C5  PXY d   1      -0.970  -2.290  -1.803  0.00  0.00     0.003 A 
ATOM      8  C6  PXY d   1      -1.420  -2.446  -0.495  0.00  0.00     0.003 A 
ENDROOT
TORSDOF 0
ENDMDL
