MODEL 1
REMARK minimizedAffinity 6.18612814
REMARK minimizedRMSD -1
REMARK  0 active torsions:
REMARK  status: ('A' for Active; 'I' for Inactive)
ROOT
ATOM      1  C4' PXY d   1      -1.516  -0.980  -4.872  0.00  0.00     0.077 C 
ATOM      2  C1' PXY d   1       4.191  -0.165  -5.300  0.00  0.00     0.077 C 
ATOM      3  C1  PXY d   1       2.696  -0.390  -5.182  0.00  0.00    -0.082 A 
ATOM      4  C2  PXY d   1       1.872   0.245  -6.000  0.00  0.00     0.003 A 
ATOM      5  C3  PXY d   1       0.516   0.077  -5.886  0.00  0.00     0.003 A 
ATOM      6  C4  PXY d   1       0.000  -0.790  -4.961  0.00  0.00    -0.082 A 
ATOM      7  C5  PXY d   1       0.835  -1.450  -4.130  0.00  0.00     0.003 A 
ATOM      8  C6  PXY d   1       2.206  -1.235  -4.234  0.00  0.00     0.003 A 
ENDROOT
TORSDOF 0
ENDMDL
