MODEL 1
REMARK minimizedAffinity -2.64749861
REMARK minimizedRMSD -1
REMARK  0 active torsions:
REMARK  status: ('A' for Active; 'I' for Inactive)
ROOT
ATOM      1  C4' PXY d   1      -0.433  -2.508  -1.852  0.00  0.00     0.077 C 
ATOM      2  C1' PXY d   1      -2.106   0.487   2.801  0.00  0.00     0.077 C 
ATOM      3  C1  PXY d   1      -1.679  -0.303   1.579  0.00  0.00    -0.082 A 
ATOM      4  C2  PXY d   1      -0.411  -0.653   1.437  0.00  0.00     0.003 A 
ATOM      5  C3  PXY d   1      -0.002  -1.339   0.322  0.00  0.00     0.003 A 
ATOM      6  C4  PXY d   1      -0.910  -1.718  -0.630  0.00  0.00    -0.082 A 
ATOM      7  C5  PXY d   1      -2.208  -1.375  -0.486  0.00  0.00     0.003 A 
ATOM      8  C6  PXY d   1      -2.595  -0.642   0.632  0.00  0.00     0.003 A 
ENDROOT
TORSDOF 0
ENDMDL
