MODEL 1
REMARK minimizedAffinity -1.26615167
REMARK minimizedRMSD -1
REMARK  0 active torsions:
REMARK  status: ('A' for Active; 'I' for Inactive)
ROOT
ATOM      1  C4' PXY d   1       0.261  -0.882   2.213  0.00  0.00     0.077 C 
ATOM      2  C1' PXY d   1      -4.921   0.547   0.088  0.00  0.00     0.077 C 
ATOM      3  C1  PXY d   1      -3.561   0.184   0.650  0.00  0.00    -0.082 A 
ATOM      4  C2  PXY d   1      -2.873  -0.808   0.109  0.00  0.00     0.003 A 
ATOM      5  C3  PXY d   1      -1.655  -1.170   0.625  0.00  0.00     0.003 A 
ATOM      6  C4  PXY d   1      -1.112  -0.475   1.672  0.00  0.00    -0.082 A 
ATOM      7  C5  PXY d   1      -1.803   0.546   2.222  0.00  0.00     0.003 A 
ATOM      8  C6  PXY d   1      -3.055   0.871   1.710  0.00  0.00     0.003 A 
ENDROOT
TORSDOF 0
ENDMDL
