MODEL 1
REMARK minimizedAffinity 3.47984004
REMARK minimizedRMSD -1
REMARK  1 active torsions:
REMARK  status: ('A' for Active; 'I' for Inactive)
REMARK    1  A    between atoms: C1_2  and  C2_3 
ROOT
ATOM      1  C2  UNL d   1       2.363  -2.911   3.441  0.00  0.00    -0.073 A 
ATOM      2  C3  UNL d   1       2.461  -2.977   4.835  0.00  0.00    -0.002 A 
ATOM      3  C4  UNL d   1       3.694  -3.209   5.445  0.00  0.00     0.004 A 
ATOM      4  C5  UNL d   1       4.842  -3.371   4.669  0.00  0.00    -0.004 A 
ATOM      5  C6  UNL d   1       4.767  -3.297   3.275  0.00  0.00    -0.075 A 
ATOM      6  C7  UNL d   1       5.991  -3.471   2.425  0.00  0.00     0.076 C 
ATOM      7  C8  UNL d   1       3.524  -3.066   2.669  0.00  0.00     0.001 A 
ENDROOT
BRANCH   1   8
ATOM      8  C1  UNL d   1       1.035  -2.653   2.778  0.00  0.00     0.053 C 
ATOM      9  C   UNL d   1       1.137  -1.601   1.685  0.00  0.00     0.018 C 
ENDBRANCH   1   8
TORSDOF 1
ENDMDL
