MODEL 1
REMARK minimizedAffinity -0.865871608
REMARK minimizedRMSD -1
REMARK  1 active torsions:
REMARK  status: ('A' for Active; 'I' for Inactive)
REMARK    1  A    between atoms: C1_2  and  C2_3 
ROOT
ATOM      1  C2  UNL d   1      -5.538  -4.204  -3.258  0.00  0.00    -0.073 A 
ATOM      2  C3  UNL d   1      -5.935  -5.409  -3.849  0.00  0.00    -0.002 A 
ATOM      3  C4  UNL d   1      -5.501  -5.741  -5.133  0.00  0.00     0.004 A 
ATOM      4  C5  UNL d   1      -4.660  -4.877  -5.835  0.00  0.00    -0.004 A 
ATOM      5  C6  UNL d   1      -4.243  -3.674  -5.257  0.00  0.00    -0.075 A 
ATOM      6  C7  UNL d   1      -3.341  -2.732  -6.000  0.00  0.00     0.076 C 
ATOM      7  C8  UNL d   1      -4.686  -3.346  -3.968  0.00  0.00     0.001 A 
ENDROOT
BRANCH   1   8
ATOM      8  C1  UNL d   1      -6.000  -3.844  -1.869  0.00  0.00     0.053 C 
ATOM      9  C   UNL d   1      -5.962  -2.343  -1.627  0.00  0.00     0.018 C 
ENDBRANCH   1   8
TORSDOF 1
ENDMDL
