MODEL 1
REMARK minimizedAffinity 3.46078849
REMARK minimizedRMSD -1
REMARK  1 active torsions:
REMARK  status: ('A' for Active; 'I' for Inactive)
REMARK    1  A    between atoms: C1_2  and  C2_3 
ROOT
ATOM      1  C2  UNL d   1       1.145  -1.277   1.970  0.00  0.00    -0.073 A 
ATOM      2  C3  UNL d   1       1.014  -1.730   3.287  0.00  0.00    -0.002 A 
ATOM      3  C4  UNL d   1       0.659  -3.055   3.545  0.00  0.00     0.004 A 
ATOM      4  C5  UNL d   1       0.439  -3.941   2.490  0.00  0.00    -0.004 A 
ATOM      5  C6  UNL d   1       0.577  -3.509   1.167  0.00  0.00    -0.075 A 
ATOM      6  C7  UNL d   1       0.341  -4.449   0.020  0.00  0.00     0.076 C 
ATOM      7  C8  UNL d   1       0.930  -2.177   0.916  0.00  0.00     0.001 A 
ENDROOT
BRANCH   1   8
ATOM      8  C1  UNL d   1       1.534   0.151   1.687  0.00  0.00     0.053 C 
ATOM      9  C   UNL d   1       1.188   1.076   2.844  0.00  0.00     0.018 C 
ENDBRANCH   1   8
TORSDOF 1
ENDMDL
