MODEL 1
REMARK minimizedAffinity 0.905905962
REMARK minimizedRMSD -1
REMARK  1 active torsions:
REMARK  status: ('A' for Active; 'I' for Inactive)
REMARK    1  A    between atoms: C1_2  and  C2_3 
ROOT
ATOM      1  C2  UNL d   1       1.521  -1.687   2.086  0.00  0.00    -0.073 A 
ATOM      2  C3  UNL d   1       1.266  -1.374   3.426  0.00  0.00    -0.002 A 
ATOM      3  C4  UNL d   1       1.336  -2.365   4.407  0.00  0.00     0.004 A 
ATOM      4  C5  UNL d   1       1.669  -3.674   4.060  0.00  0.00    -0.004 A 
ATOM      5  C6  UNL d   1       1.939  -4.004   2.728  0.00  0.00    -0.075 A 
ATOM      6  C7  UNL d   1       2.297  -5.408   2.338  0.00  0.00     0.076 C 
ATOM      7  C8  UNL d   1       1.864  -3.004   1.748  0.00  0.00     0.001 A 
ENDROOT
BRANCH   1   8
ATOM      8  C1  UNL d   1       1.452  -0.620   1.025  0.00  0.00     0.053 C 
ATOM      9  C   UNL d   1       2.215   0.633   1.426  0.00  0.00     0.018 C 
ENDBRANCH   1   8
TORSDOF 1
ENDMDL
