MODEL 1
REMARK minimizedAffinity 4.32544899
REMARK minimizedRMSD -1
REMARK  1 active torsions:
REMARK  status: ('A' for Active; 'I' for Inactive)
REMARK    1  A    between atoms: C1_2  and  C2_3 
ROOT
ATOM      1  C2  UNL d   1       3.163  -3.711   4.729  0.00  0.00    -0.073 A 
ATOM      2  C3  UNL d   1       2.653  -2.850   3.751  0.00  0.00    -0.002 A 
ATOM      3  C4  UNL d   1       1.283  -2.811   3.491  0.00  0.00     0.004 A 
ATOM      4  C5  UNL d   1       0.408  -3.625   4.210  0.00  0.00    -0.004 A 
ATOM      5  C6  UNL d   1       0.897  -4.484   5.200  0.00  0.00    -0.075 A 
ATOM      6  C7  UNL d   1      -0.031  -5.368   5.981  0.00  0.00     0.076 C 
ATOM      7  C8  UNL d   1       2.275  -4.520   5.453  0.00  0.00     0.001 A 
ENDROOT
BRANCH   1   8
ATOM      8  C1  UNL d   1       4.641  -3.753   5.018  0.00  0.00     0.053 C 
ATOM      9  C   UNL d   1       5.471  -3.730   3.745  0.00  0.00     0.018 C 
ENDBRANCH   1   8
TORSDOF 1
ENDMDL
