MODEL 1
REMARK minimizedAffinity -4.86632299
REMARK minimizedRMSD -1
REMARK  3 active torsions:
REMARK  status: ('A' for Active; 'I' for Inactive)
REMARK    1  A    between atoms: C3'_2  and  C2'_3 
REMARK    2  A    between atoms: C2'_3  and  C1'_4 
REMARK    3  A    between atoms: C1'_4  and  C1_5 
ROOT
ATOM      1  C1  N4B d   1      -0.320   1.145   0.365  0.00  0.00    -0.075 A 
ATOM      2  C2  N4B d   1      -0.492   1.792  -0.878  0.00  0.00     0.002 A 
ATOM      3  C3  N4B d   1      -1.165   2.988  -0.942  0.00  0.00     0.002 A 
ATOM      4  C4  N4B d   1      -1.689   3.543   0.216  0.00  0.00    -0.004 A 
ATOM      5  C5  N4B d   1      -1.497   2.924   1.417  0.00  0.00     0.002 A 
ATOM      6  C6  N4B d   1      -0.819   1.724   1.496  0.00  0.00     0.002 A 
ENDROOT
BRANCH   1   7
ATOM      7  C1' N4B d   1       0.333  -0.206   0.473  0.00  0.00     0.057 C 
BRANCH   7   8
ATOM      8  C2' N4B d   1       0.846  -0.402   1.897  0.00  0.00     0.009 C 
BRANCH   8   9
ATOM      9  C3' N4B d   1       2.362  -0.346   1.968  0.00  0.00     0.004 C 
ATOM     10  C4' N4B d   1       2.919  -1.116   3.128  0.00  0.00     0.003 C 
ENDBRANCH   8   9
ENDBRANCH   7   8
ENDBRANCH   1   7
TORSDOF 3
ENDMDL
