MODEL 1
REMARK minimizedAffinity -4.21611738
REMARK minimizedRMSD -1
REMARK  3 active torsions:
REMARK  status: ('A' for Active; 'I' for Inactive)
REMARK    1  A    between atoms: C3'_2  and  C2'_3 
REMARK    2  A    between atoms: C2'_3  and  C1'_4 
REMARK    3  A    between atoms: C1'_4  and  C1_5 
ROOT
ATOM      1  C1  N4B d   1       0.107   0.190   0.046  0.00  0.00    -0.075 A 
ATOM      2  C2  N4B d   1       0.745   0.518   1.263  0.00  0.00     0.002 A 
ATOM      3  C3  N4B d   1       0.211   1.484   2.080  0.00  0.00     0.002 A 
ATOM      4  C4  N4B d   1      -0.945   2.146   1.694  0.00  0.00    -0.004 A 
ATOM      5  C5  N4B d   1      -1.569   1.806   0.529  0.00  0.00     0.002 A 
ATOM      6  C6  N4B d   1      -1.046   0.834  -0.300  0.00  0.00     0.002 A 
ENDROOT
BRANCH   1   7
ATOM      7  C1' N4B d   1       0.700  -0.798  -0.921  0.00  0.00     0.057 C 
BRANCH   7   8
ATOM      8  C2' N4B d   1      -0.357  -1.835  -1.289  0.00  0.00     0.009 C 
BRANCH   8   9
ATOM      9  C3' N4B d   1       0.173  -3.253  -1.175  0.00  0.00     0.004 C 
ATOM     10  C4' N4B d   1      -0.861  -4.289  -1.502  0.00  0.00     0.003 C 
ENDBRANCH   8   9
ENDBRANCH   7   8
ENDBRANCH   1   7
TORSDOF 3
ENDMDL
