MODEL 1
REMARK minimizedAffinity -5.5707922
REMARK minimizedRMSD -1
REMARK  3 active torsions:
REMARK  status: ('A' for Active; 'I' for Inactive)
REMARK    1  A    between atoms: C3'_2  and  C2'_3 
REMARK    2  A    between atoms: C2'_3  and  C1'_4 
REMARK    3  A    between atoms: C1'_4  and  C1_5 
ROOT
ATOM      1  C1  N4B d   1      -0.196   0.758   0.555  0.00  0.00    -0.075 A 
ATOM      2  C2  N4B d   1      -0.153   1.486   1.764  0.00  0.00     0.002 A 
ATOM      3  C3  N4B d   1      -0.605   2.783   1.801  0.00  0.00     0.002 A 
ATOM      4  C4  N4B d   1      -1.085   3.375   0.643  0.00  0.00    -0.004 A 
ATOM      5  C5  N4B d   1      -1.147   2.657  -0.515  0.00  0.00     0.002 A 
ATOM      6  C6  N4B d   1      -0.700   1.352  -0.566  0.00  0.00     0.002 A 
ENDROOT
BRANCH   1   7
ATOM      7  C1' N4B d   1       0.366  -0.633   0.445  0.00  0.00     0.057 C 
BRANCH   7   8
ATOM      8  C2' N4B d   1       0.332  -1.072  -1.016  0.00  0.00     0.009 C 
BRANCH   8   9
ATOM      9  C3' N4B d   1       0.348  -2.585  -1.154  0.00  0.00     0.004 C 
ATOM     10  C4' N4B d   1      -0.939  -3.132  -1.694  0.00  0.00     0.003 C 
ENDBRANCH   8   9
ENDBRANCH   7   8
ENDBRANCH   1   7
TORSDOF 3
ENDMDL
