MODEL 1
REMARK minimizedAffinity -5.40770578
REMARK minimizedRMSD -1
REMARK  3 active torsions:
REMARK  status: ('A' for Active; 'I' for Inactive)
REMARK    1  A    between atoms: C3'_2  and  C2'_3 
REMARK    2  A    between atoms: C2'_3  and  C1'_4 
REMARK    3  A    between atoms: C1'_4  and  C1_5 
ROOT
ATOM      1  C1  N4B d   1      -0.560   0.925   0.383  0.00  0.00    -0.075 A 
ATOM      2  C2  N4B d   1      -0.784   1.760   1.499  0.00  0.00     0.002 A 
ATOM      3  C3  N4B d   1      -0.872   3.121   1.333  0.00  0.00     0.002 A 
ATOM      4  C4  N4B d   1      -0.722   3.668   0.067  0.00  0.00    -0.004 A 
ATOM      5  C5  N4B d   1      -0.531   2.852  -1.010  0.00  0.00     0.002 A 
ATOM      6  C6  N4B d   1      -0.444   1.483  -0.857  0.00  0.00     0.002 A 
ENDROOT
BRANCH   1   7
ATOM      7  C1' N4B d   1      -0.370  -0.560   0.527  0.00  0.00     0.057 C 
BRANCH   7   8
ATOM      8  C2' N4B d   1       0.345  -1.096  -0.709  0.00  0.00     0.009 C 
BRANCH   8   9
ATOM      9  C3' N4B d   1      -0.282  -2.384  -1.214  0.00  0.00     0.004 C 
ATOM     10  C4' N4B d   1       0.550  -3.594  -0.909  0.00  0.00     0.003 C 
ENDBRANCH   8   9
ENDBRANCH   7   8
ENDBRANCH   1   7
TORSDOF 3
ENDMDL
