MODEL 1
REMARK minimizedAffinity -4.35170841
REMARK minimizedRMSD -1
REMARK  0 active torsions:
REMARK  status: ('A' for Active; 'I' for Inactive)
ROOT
ATOM      1  C1  DEN d   1      -0.526   1.132  -0.240  0.00  0.00     0.130 A 
ATOM      2  C2  DEN d   1      -1.303   0.108  -0.932  0.00  0.00    -0.031 A 
ATOM      3  C3  DEN d   1      -0.471  -1.107  -1.032  0.00  0.00     0.027 A 
ATOM      4  C4  DEN d   1       1.932  -1.503  -0.182  0.00  0.00     0.027 A 
ATOM      5  C5  DEN d   1       3.006  -0.924   0.458  0.00  0.00    -0.003 A 
ATOM      6  C6  DEN d   1       2.990   0.380   0.876  0.00  0.00     0.001 A 
ATOM      7  C7  DEN d   1       1.862   1.136   0.700  0.00  0.00     0.017 A 
ATOM      8  C8  DEN d   1       0.778   0.562   0.049  0.00  0.00    -0.094 A 
ATOM      9  C9  DEN d   1       0.808  -0.762  -0.356  0.00  0.00    -0.072 A 
ENDROOT
TORSDOF 0
ENDMDL
