MODEL 1
REMARK minimizedAffinity -4.6770215
REMARK minimizedRMSD -1
REMARK  0 active torsions:
REMARK  status: ('A' for Active; 'I' for Inactive)
ROOT
ATOM      1  C1  DEN d   1       1.823   1.625   0.064  0.00  0.00     0.130 A 
ATOM      2  C2  DEN d   1       2.958   1.065   0.792  0.00  0.00    -0.031 A 
ATOM      3  C3  DEN d   1       2.546  -0.239   1.348  0.00  0.00     0.027 A 
ATOM      4  C4  DEN d   1       0.273  -1.443   1.148  0.00  0.00     0.027 A 
ATOM      5  C5  DEN d   1      -1.003  -1.355   0.637  0.00  0.00    -0.003 A 
ATOM      6  C6  DEN d   1      -1.433  -0.261  -0.066  0.00  0.00     0.001 A 
ATOM      7  C7  DEN d   1      -0.566   0.770  -0.317  0.00  0.00     0.017 A 
ATOM      8  C8  DEN d   1       0.720   0.691   0.202  0.00  0.00    -0.094 A 
ATOM      9  C9  DEN d   1       1.140  -0.428   0.900  0.00  0.00    -0.072 A 
ENDROOT
TORSDOF 0
ENDMDL
