MODEL 1
REMARK minimizedAffinity -3.16901398
REMARK minimizedRMSD -1
REMARK  0 active torsions:
REMARK  status: ('A' for Active; 'I' for Inactive)
ROOT
ATOM      1  C1  DEN d   1      -1.999  -2.055  -0.659  0.00  0.00     0.130 A 
ATOM      2  C2  DEN d   1      -1.536  -1.108   0.352  0.00  0.00    -0.031 A 
ATOM      3  C3  DEN d   1      -1.924   0.249  -0.081  0.00  0.00     0.027 A 
ATOM      4  C4  DEN d   1      -3.196   0.973  -2.204  0.00  0.00     0.027 A 
ATOM      5  C5  DEN d   1      -3.786   0.527  -3.366  0.00  0.00    -0.003 A 
ATOM      6  C6  DEN d   1      -3.792  -0.796  -3.721  0.00  0.00     0.001 A 
ATOM      7  C7  DEN d   1      -3.236  -1.726  -2.883  0.00  0.00     0.017 A 
ATOM      8  C8  DEN d   1      -2.633  -1.283  -1.713  0.00  0.00    -0.094 A 
ATOM      9  C9  DEN d   1      -2.648   0.057  -1.366  0.00  0.00    -0.072 A 
ENDROOT
TORSDOF 0
ENDMDL
