MODEL 1
REMARK minimizedAffinity -5.97095156
REMARK minimizedRMSD -1
REMARK  0 active torsions:
REMARK  status: ('A' for Active; 'I' for Inactive)
ROOT
ATOM      1  C1  DEN d   1       2.640  -1.642   1.334  0.00  0.00     0.130 A 
ATOM      2  C2  DEN d   1       3.703  -0.641   1.332  0.00  0.00    -0.031 A 
ATOM      3  C3  DEN d   1       3.133   0.628   0.837  0.00  0.00     0.027 A 
ATOM      4  C4  DEN d   1       0.720   1.138   0.081  0.00  0.00     0.027 A 
ATOM      5  C5  DEN d   1      -0.535   0.602  -0.106  0.00  0.00    -0.003 A 
ATOM      6  C6  DEN d   1      -0.809  -0.718   0.140  0.00  0.00     0.001 A 
ATOM      7  C7  DEN d   1       0.175  -1.535   0.630  0.00  0.00     0.017 A 
ATOM      8  C8  DEN d   1       1.445  -1.003   0.814  0.00  0.00    -0.094 A 
ATOM      9  C9  DEN d   1       1.699   0.336   0.572  0.00  0.00    -0.072 A 
ENDROOT
TORSDOF 0
ENDMDL
