MODEL 1
REMARK minimizedAffinity -3.80412531
REMARK minimizedRMSD -1
REMARK  0 active torsions:
REMARK  status: ('A' for Active; 'I' for Inactive)
ROOT
ATOM      1  C1  DEN d   1       2.238  -1.388   1.350  0.00  0.00     0.130 A 
ATOM      2  C2  DEN d   1       3.582  -1.163   0.826  0.00  0.00    -0.031 A 
ATOM      3  C3  DEN d   1       3.522  -0.023  -0.111  0.00  0.00     0.027 A 
ATOM      4  C4  DEN d   1       1.489   1.410  -0.794  0.00  0.00     0.027 A 
ATOM      5  C5  DEN d   1       0.135   1.592  -0.621  0.00  0.00    -0.003 A 
ATOM      6  C6  DEN d   1      -0.614   0.778   0.187  0.00  0.00     0.001 A 
ATOM      7  C7  DEN d   1      -0.004  -0.228   0.890  0.00  0.00     0.017 A 
ATOM      8  C8  DEN d   1       1.360  -0.421   0.715  0.00  0.00    -0.094 A 
ATOM      9  C9  DEN d   1       2.102   0.420  -0.097  0.00  0.00    -0.072 A 
ENDROOT
TORSDOF 0
ENDMDL
