MODEL 1
REMARK minimizedAffinity -5.15335798
REMARK minimizedRMSD -1
REMARK  0 active torsions:
REMARK  status: ('A' for Active; 'I' for Inactive)
ROOT
ATOM      1  C1  DEN d   1      -1.056  -0.929   0.361  0.00  0.00     0.130 A 
ATOM      2  C2  DEN d   1      -0.995   0.378  -0.287  0.00  0.00    -0.031 A 
ATOM      3  C3  DEN d   1       0.315   0.983   0.028  0.00  0.00     0.027 A 
ATOM      4  C4  DEN d   1       2.245   0.025   1.445  0.00  0.00     0.027 A 
ATOM      5  C5  DEN d   1       2.653  -1.046   2.209  0.00  0.00    -0.003 A 
ATOM      6  C6  DEN d   1       1.846  -2.129   2.437  0.00  0.00     0.001 A 
ATOM      7  C7  DEN d   1       0.606  -2.186   1.857  0.00  0.00     0.017 A 
ATOM      8  C8  DEN d   1       0.185  -1.106   1.092  0.00  0.00    -0.094 A 
ATOM      9  C9  DEN d   1       1.020  -0.026   0.863  0.00  0.00    -0.072 A 
ENDROOT
TORSDOF 0
ENDMDL
