MODEL 1
REMARK minimizedAffinity -4.15734816
REMARK minimizedRMSD -1
REMARK  0 active torsions:
REMARK  status: ('A' for Active; 'I' for Inactive)
ROOT
ATOM      1  C1  DEN d   1       1.128   0.385  -1.239  0.00  0.00     0.130 A 
ATOM      2  C2  DEN d   1       1.350  -0.309   0.026  0.00  0.00    -0.031 A 
ATOM      3  C3  DEN d   1       0.036  -0.726   0.555  0.00  0.00     0.027 A 
ATOM      4  C4  DEN d   1      -2.309  -0.370  -0.460  0.00  0.00     0.027 A 
ATOM      5  C5  DEN d   1      -3.004   0.176  -1.516  0.00  0.00    -0.003 A 
ATOM      6  C6  DEN d   1      -2.378   0.854  -2.529  0.00  0.00     0.001 A 
ATOM      7  C7  DEN d   1      -1.013   0.964  -2.530  0.00  0.00     0.017 A 
ATOM      8  C8  DEN d   1      -0.306   0.423  -1.464  0.00  0.00    -0.094 A 
ATOM      9  C9  DEN d   1      -0.955  -0.269  -0.456  0.00  0.00    -0.072 A 
ENDROOT
TORSDOF 0
ENDMDL
