MODEL 1
REMARK minimizedAffinity -3.12661791
REMARK minimizedRMSD -1
REMARK  2 active torsions:
REMARK  status: ('A' for Active; 'I' for Inactive)
REMARK    1  A    between atoms: C1_2  and  C2_3 
REMARK    2  A    between atoms: C2_3  and  C3_4 
ROOT
ATOM      1  C3  UNL d   1       3.536  -5.958  -2.492  0.00  0.00    -0.075 A 
ATOM      2  C4  UNL d   1       2.228  -5.942  -2.996  0.00  0.00     0.002 A 
ATOM      3  C5  UNL d   1       1.998  -5.964  -4.372  0.00  0.00     0.002 A 
ATOM      4  C6  UNL d   1       3.072  -5.990  -5.259  0.00  0.00    -0.004 A 
ATOM      5  C7  UNL d   1       4.376  -5.989  -4.770  0.00  0.00     0.002 A 
ATOM      6  C8  UNL d   1       4.609  -5.972  -3.394  0.00  0.00     0.002 A 
ENDROOT
BRANCH   1   7
ATOM      7  C2  UNL d   1       3.791  -5.965  -1.003  0.00  0.00     0.056 C 
BRANCH   7   8
ATOM      8  C1  UNL d   1       2.517  -5.981  -0.152  0.00  0.00     0.007 C 
ATOM      9  C   UNL d   1       2.788  -5.829   1.338  0.00  0.00     0.009 C 
ENDBRANCH   7   8
ENDBRANCH   1   7
TORSDOF 2
ENDMDL
