MODEL 1
REMARK minimizedAffinity 7.05965471
REMARK minimizedRMSD -1
REMARK  2 active torsions:
REMARK  status: ('A' for Active; 'I' for Inactive)
REMARK    1  A    between atoms: C1_2  and  C2_3 
REMARK    2  A    between atoms: C2_3  and  C3_4 
ROOT
ATOM      1  C3  UNL d   1       3.988  -5.931  -2.125  0.00  0.00    -0.075 A 
ATOM      2  C4  UNL d   1       5.017  -5.866  -1.174  0.00  0.00     0.002 A 
ATOM      3  C5  UNL d   1       4.721  -5.876   0.190  0.00  0.00     0.002 A 
ATOM      4  C6  UNL d   1       3.397  -5.941   0.618  0.00  0.00    -0.004 A 
ATOM      5  C7  UNL d   1       2.367  -5.989  -0.318  0.00  0.00     0.002 A 
ATOM      6  C8  UNL d   1       2.660  -5.983  -1.683  0.00  0.00     0.002 A 
ENDROOT
BRANCH   1   7
ATOM      7  C2  UNL d   1       4.303  -5.950  -3.602  0.00  0.00     0.056 C 
BRANCH   7   8
ATOM      8  C1  UNL d   1       3.064  -5.974  -4.503  0.00  0.00     0.007 C 
ATOM      9  C   UNL d   1       3.395  -5.838  -5.984  0.00  0.00     0.009 C 
ENDBRANCH   7   8
ENDBRANCH   1   7
TORSDOF 2
ENDMDL
