MODEL 1
REMARK minimizedAffinity -0.30737257
REMARK minimizedRMSD -1
REMARK  2 active torsions:
REMARK  status: ('A' for Active; 'I' for Inactive)
REMARK    1  A    between atoms: C1_2  and  C2_3 
REMARK    2  A    between atoms: C2_3  and  C3_4 
ROOT
ATOM      1  C3  UNL d   1       2.083  -4.235   2.514  0.00  0.00    -0.075 A 
ATOM      2  C4  UNL d   1       3.035  -4.366   3.535  0.00  0.00     0.002 A 
ATOM      3  C5  UNL d   1       3.204  -3.354   4.480  0.00  0.00     0.002 A 
ATOM      4  C6  UNL d   1       2.433  -2.196   4.410  0.00  0.00    -0.004 A 
ATOM      5  C7  UNL d   1       1.495  -2.048   3.391  0.00  0.00     0.002 A 
ATOM      6  C8  UNL d   1       1.321  -3.061   2.446  0.00  0.00     0.002 A 
ENDROOT
BRANCH   1   7
ATOM      7  C2  UNL d   1       1.874  -5.340   1.505  0.00  0.00     0.056 C 
BRANCH   7   8
ATOM      8  C1  UNL d   1       3.171  -5.999   1.025  0.00  0.00     0.007 C 
ATOM      9  C   UNL d   1       3.319  -6.000  -0.490  0.00  0.00     0.009 C 
ENDBRANCH   7   8
ENDBRANCH   1   7
TORSDOF 2
ENDMDL
