MODEL 1
REMARK minimizedAffinity 5.2329092
REMARK minimizedRMSD -1
REMARK  2 active torsions:
REMARK  status: ('A' for Active; 'I' for Inactive)
REMARK    1  A    between atoms: C1_2  and  C2_3 
REMARK    2  A    between atoms: C2_3  and  C3_4 
ROOT
ATOM      1  C3  UNL d   1       2.382  -4.471   2.458  0.00  0.00    -0.075 A 
ATOM      2  C4  UNL d   1       1.555  -3.483   1.903  0.00  0.00     0.002 A 
ATOM      3  C5  UNL d   1       1.609  -2.170   2.370  0.00  0.00     0.002 A 
ATOM      4  C6  UNL d   1       2.480  -1.829   3.402  0.00  0.00    -0.004 A 
ATOM      5  C7  UNL d   1       3.294  -2.806   3.973  0.00  0.00     0.002 A 
ATOM      6  C8  UNL d   1       3.245  -4.120   3.504  0.00  0.00     0.002 A 
ENDROOT
BRANCH   1   7
ATOM      7  C2  UNL d   1       2.349  -5.888   1.937  0.00  0.00     0.056 C 
BRANCH   7   8
ATOM      8  C1  UNL d   1       2.510  -5.998   0.418  0.00  0.00     0.007 C 
ATOM      9  C   UNL d   1       3.964  -6.000  -0.034  0.00  0.00     0.009 C 
ENDBRANCH   7   8
ENDBRANCH   1   7
TORSDOF 2
ENDMDL
