MODEL 1
REMARK minimizedAffinity 3.99121165
REMARK minimizedRMSD -1
REMARK  2 active torsions:
REMARK  status: ('A' for Active; 'I' for Inactive)
REMARK    1  A    between atoms: C1_2  and  C2_3 
REMARK    2  A    between atoms: C2_3  and  C3_4 
ROOT
ATOM      1  C3  UNL d   1       3.762  -5.981  -2.216  0.00  0.00    -0.075 A 
ATOM      2  C4  UNL d   1       2.461  -5.984  -2.740  0.00  0.00     0.002 A 
ATOM      3  C5  UNL d   1       2.254  -5.996  -4.119  0.00  0.00     0.002 A 
ATOM      4  C6  UNL d   1       3.341  -5.995  -4.991  0.00  0.00    -0.004 A 
ATOM      5  C7  UNL d   1       4.637  -5.974  -4.481  0.00  0.00     0.002 A 
ATOM      6  C8  UNL d   1       4.848  -5.967  -3.101  0.00  0.00     0.002 A 
ENDROOT
BRANCH   1   7
ATOM      7  C2  UNL d   1       3.994  -5.998  -0.723  0.00  0.00     0.056 C 
BRANCH   7   8
ATOM      8  C1  UNL d   1       2.706  -5.994   0.108  0.00  0.00     0.007 C 
ATOM      9  C   UNL d   1       2.960  -5.938   1.608  0.00  0.00     0.009 C 
ENDBRANCH   7   8
ENDBRANCH   1   7
TORSDOF 2
ENDMDL
