MODEL 1
REMARK minimizedAffinity 7.20109177
REMARK minimizedRMSD -1
REMARK  2 active torsions:
REMARK  status: ('A' for Active; 'I' for Inactive)
REMARK    1  A    between atoms: C1_2  and  C2_3 
REMARK    2  A    between atoms: C2_3  and  C3_4 
ROOT
ATOM      1  C3  UNL d   1       2.157  -0.116   2.288  0.00  0.00    -0.075 A 
ATOM      2  C4  UNL d   1       3.176  -0.862   2.898  0.00  0.00     0.002 A 
ATOM      3  C5  UNL d   1       3.096  -2.254   2.956  0.00  0.00     0.002 A 
ATOM      4  C6  UNL d   1       1.995  -2.915   2.416  0.00  0.00    -0.004 A 
ATOM      5  C7  UNL d   1       0.969  -2.182   1.822  0.00  0.00     0.002 A 
ATOM      6  C8  UNL d   1       1.049  -0.789   1.759  0.00  0.00     0.002 A 
ENDROOT
BRANCH   1   7
ATOM      7  C2  UNL d   1       2.252   1.389   2.196  0.00  0.00     0.056 C 
BRANCH   7   8
ATOM      8  C1  UNL d   1       3.191   1.888   1.093  0.00  0.00     0.007 C 
ATOM      9  C   UNL d   1       2.721   3.185   0.447  0.00  0.00     0.009 C 
ENDBRANCH   7   8
ENDBRANCH   1   7
TORSDOF 2
ENDMDL
