MODEL 1
REMARK minimizedAffinity 8.54205513
REMARK minimizedRMSD -1
REMARK  0 active torsions:
REMARK  status: ('A' for Active; 'I' for Inactive)
ROOT
ATOM      1  C1  DEN d   1      -3.044   1.857  -1.112  0.00  0.00     0.130 A 
ATOM      2  C2  DEN d   1      -2.446   0.894  -2.034  0.00  0.00    -0.031 A 
ATOM      3  C3  DEN d   1      -2.817   1.288  -3.408  0.00  0.00     0.027 A 
ATOM      4  C4  DEN d   1      -4.246   3.286  -4.194  0.00  0.00     0.027 A 
ATOM      5  C5  DEN d   1      -4.980   4.374  -3.777  0.00  0.00    -0.003 A 
ATOM      6  C6  DEN d   1      -5.147   4.677  -2.452  0.00  0.00     0.001 A 
ATOM      7  C7  DEN d   1      -4.535   3.909  -1.497  0.00  0.00     0.017 A 
ATOM      8  C8  DEN d   1      -3.799   2.806  -1.910  0.00  0.00    -0.094 A 
ATOM      9  C9  DEN d   1      -3.632   2.523  -3.255  0.00  0.00    -0.072 A 
ENDROOT
TORSDOF 0
ENDMDL
