MODEL 1
REMARK minimizedAffinity 10.7417688
REMARK minimizedRMSD -1
REMARK  0 active torsions:
REMARK  status: ('A' for Active; 'I' for Inactive)
ROOT
ATOM      1  C1  DEN d   1       0.299  -0.633   2.287  0.00  0.00     0.130 A 
ATOM      2  C2  DEN d   1       1.606  -1.264   2.447  0.00  0.00    -0.031 A 
ATOM      3  C3  DEN d   1       1.918  -1.990   1.200  0.00  0.00     0.027 A 
ATOM      4  C4  DEN d   1       0.515  -2.192  -0.955  0.00  0.00     0.027 A 
ATOM      5  C5  DEN d   1      -0.671  -1.838  -1.559  0.00  0.00    -0.003 A 
ATOM      6  C6  DEN d   1      -1.624  -1.092  -0.917  0.00  0.00     0.001 A 
ATOM      7  C7  DEN d   1      -1.388  -0.638   0.354  0.00  0.00     0.017 A 
ATOM      8  C8  DEN d   1      -0.198  -0.997   0.972  0.00  0.00    -0.094 A 
ATOM      9  C9  DEN d   1       0.758  -1.741   0.302  0.00  0.00    -0.072 A 
ENDROOT
TORSDOF 0
ENDMDL
