MODEL 1
REMARK minimizedAffinity -3.13049054
REMARK minimizedRMSD -1
REMARK  0 active torsions:
REMARK  status: ('A' for Active; 'I' for Inactive)
ROOT
ATOM      1  C1  DEN d   1       0.788  -1.160   0.732  0.00  0.00     0.130 A 
ATOM      2  C2  DEN d   1       0.835  -2.177  -0.315  0.00  0.00    -0.031 A 
ATOM      3  C3  DEN d   1       1.487  -3.378   0.245  0.00  0.00     0.027 A 
ATOM      4  C4  DEN d   1       2.419  -3.761   2.619  0.00  0.00     0.027 A 
ATOM      5  C5  DEN d   1       2.618  -3.184   3.854  0.00  0.00    -0.003 A 
ATOM      6  C6  DEN d   1       2.254  -1.891   4.122  0.00  0.00     0.001 A 
ATOM      7  C7  DEN d   1       1.631  -1.147   3.155  0.00  0.00     0.017 A 
ATOM      8  C8  DEN d   1       1.434  -1.719   1.906  0.00  0.00    -0.094 A 
ATOM      9  C9  DEN d   1       1.798  -3.032   1.658  0.00  0.00    -0.072 A 
ENDROOT
TORSDOF 0
ENDMDL
