MODEL 1
REMARK minimizedAffinity 15.0008945
REMARK minimizedRMSD -1
REMARK  0 active torsions:
REMARK  status: ('A' for Active; 'I' for Inactive)
ROOT
ATOM      1  C1  DEN d   1       2.589  -1.486   3.064  0.00  0.00     0.130 A 
ATOM      2  C2  DEN d   1       1.825  -1.204   4.277  0.00  0.00    -0.031 A 
ATOM      3  C3  DEN d   1       1.596   0.253   4.344  0.00  0.00     0.027 A 
ATOM      4  C4  DEN d   1       2.341   2.090   2.694  0.00  0.00     0.027 A 
ATOM      5  C5  DEN d   1       3.023   2.338   1.523  0.00  0.00    -0.003 A 
ATOM      6  C6  DEN d   1       3.633   1.342   0.808  0.00  0.00     0.001 A 
ATOM      7  C7  DEN d   1       3.534   0.043   1.233  0.00  0.00     0.017 A 
ATOM      8  C8  DEN d   1       2.854  -0.214   2.416  0.00  0.00    -0.094 A 
ATOM      9  C9  DEN d   1       2.234   0.806   3.118  0.00  0.00    -0.072 A 
ENDROOT
TORSDOF 0
ENDMDL
