MODEL 1
REMARK minimizedAffinity 17.3866596
REMARK minimizedRMSD -1
REMARK  0 active torsions:
REMARK  status: ('A' for Active; 'I' for Inactive)
ROOT
ATOM      1  C1  DEN d   1       4.142  -2.527   3.626  0.00  0.00     0.130 A 
ATOM      2  C2  DEN d   1       3.149  -3.262   4.404  0.00  0.00    -0.031 A 
ATOM      3  C3  DEN d   1       1.820  -2.692   4.103  0.00  0.00     0.027 A 
ATOM      4  C4  DEN d   1       1.208  -0.757   2.512  0.00  0.00     0.027 A 
ATOM      5  C5  DEN d   1       1.713   0.184   1.642  0.00  0.00    -0.003 A 
ATOM      6  C6  DEN d   1       3.055   0.308   1.400  0.00  0.00     0.001 A 
ATOM      7  C7  DEN d   1       3.936  -0.552   2.001  0.00  0.00     0.017 A 
ATOM      8  C8  DEN d   1       3.435  -1.498   2.886  0.00  0.00    -0.094 A 
ATOM      9  C9  DEN d   1       2.073  -1.616   3.108  0.00  0.00    -0.072 A 
ENDROOT
TORSDOF 0
ENDMDL
