MODEL 1
REMARK minimizedAffinity 11.3205347
REMARK minimizedRMSD -1
REMARK  0 active torsions:
REMARK  status: ('A' for Active; 'I' for Inactive)
ROOT
ATOM      1  C1  DEN d   1       1.837  -0.814   4.263  0.00  0.00     0.130 A 
ATOM      2  C2  DEN d   1       2.178  -0.428   2.897  0.00  0.00    -0.031 A 
ATOM      3  C3  DEN d   1       2.494  -1.657   2.141  0.00  0.00     0.027 A 
ATOM      4  C4  DEN d   1       2.483  -4.106   2.949  0.00  0.00     0.027 A 
ATOM      5  C5  DEN d   1       2.270  -4.930   4.032  0.00  0.00    -0.003 A 
ATOM      6  C6  DEN d   1       1.933  -4.441   5.266  0.00  0.00     0.001 A 
ATOM      7  C7  DEN d   1       1.755  -3.094   5.437  0.00  0.00     0.017 A 
ATOM      8  C8  DEN d   1       1.976  -2.256   4.352  0.00  0.00    -0.094 A 
ATOM      9  C9  DEN d   1       2.304  -2.771   3.109  0.00  0.00    -0.072 A 
ENDROOT
TORSDOF 0
ENDMDL
