MODEL 1
REMARK minimizedAffinity 11.2750692
REMARK minimizedRMSD -1
REMARK  0 active torsions:
REMARK  status: ('A' for Active; 'I' for Inactive)
ROOT
ATOM      1  C1  DEN d   1       1.163  -1.323   2.970  0.00  0.00     0.130 A 
ATOM      2  C2  DEN d   1       1.871  -0.090   2.638  0.00  0.00    -0.031 A 
ATOM      3  C3  DEN d   1       3.231  -0.178   3.207  0.00  0.00     0.027 A 
ATOM      4  C4  DEN d   1       4.305  -2.095   4.557  0.00  0.00     0.027 A 
ATOM      5  C5  DEN d   1       4.091  -3.343   5.100  0.00  0.00    -0.003 A 
ATOM      6  C6  DEN d   1       2.885  -3.985   5.001  0.00  0.00     0.001 A 
ATOM      7  C7  DEN d   1       1.860  -3.401   4.305  0.00  0.00     0.017 A 
ATOM      8  C8  DEN d   1       2.066  -2.139   3.761  0.00  0.00    -0.094 A 
ATOM      9  C9  DEN d   1       3.296  -1.512   3.861  0.00  0.00    -0.072 A 
ENDROOT
TORSDOF 0
ENDMDL
