MODEL 1
REMARK minimizedAffinity 11.3799534
REMARK minimizedRMSD -1
REMARK  0 active torsions:
REMARK  status: ('A' for Active; 'I' for Inactive)
ROOT
ATOM      1  C1  DEN d   1      -5.845   2.455  -5.923  0.00  0.00     0.130 A 
ATOM      2  C2  DEN d   1      -5.899   3.402  -4.812  0.00  0.00    -0.031 A 
ATOM      3  C3  DEN d   1      -5.970   2.629  -3.556  0.00  0.00     0.027 A 
ATOM      4  C4  DEN d   1      -5.996   0.071  -3.224  0.00  0.00     0.027 A 
ATOM      5  C5  DEN d   1      -5.979  -1.145  -3.871  0.00  0.00    -0.003 A 
ATOM      6  C6  DEN d   1      -5.951  -1.245  -5.237  0.00  0.00     0.001 A 
ATOM      7  C7  DEN d   1      -5.894  -0.109  -6.000  0.00  0.00     0.017 A 
ATOM      8  C8  DEN d   1      -5.918   1.121  -5.355  0.00  0.00    -0.094 A 
ATOM      9  C9  DEN d   1      -5.934   1.201  -3.973  0.00  0.00    -0.072 A 
ENDROOT
TORSDOF 0
ENDMDL
