MODEL 1
REMARK minimizedAffinity -0.338204354
REMARK minimizedRMSD -1
REMARK  0 active torsions:
REMARK  status: ('A' for Active; 'I' for Inactive)
ROOT
ATOM      1  O1  BZF d   1      -1.039   1.426   3.340  0.00  0.00    -0.204 OA
ATOM      2  C2  BZF d   1       0.006   2.254   2.977  0.00  0.00     0.174 A 
ATOM      3  C3  BZF d   1       0.383   2.018   1.704  0.00  0.00    -0.012 A 
ATOM      4  C3A BZF d   1      -0.540   1.041   1.213  0.00  0.00    -0.107 A 
ATOM      5  C4  BZF d   1      -0.693   0.415   0.009  0.00  0.00     0.055 A 
ATOM      6  C5  BZF d   1      -1.648  -0.542  -0.122  0.00  0.00    -0.016 A 
ATOM      7  C6  BZF d   1      -2.464  -0.902   0.931  0.00  0.00     0.022 A 
ATOM      8  C7  BZF d   1      -2.354  -0.305   2.143  0.00  0.00     0.029 A 
ATOM      9  C7A BZF d   1      -1.411   0.685   2.268  0.00  0.00     0.058 A 
ENDROOT
TORSDOF 0
ENDMDL
