MODEL 1
REMARK minimizedAffinity -2.99017549
REMARK minimizedRMSD -1
REMARK  0 active torsions:
REMARK  status: ('A' for Active; 'I' for Inactive)
ROOT
ATOM      1  O1  BZF d   1       1.486  -0.776   0.990  0.00  0.00    -0.204 OA
ATOM      2  C2  BZF d   1       2.655  -0.045   0.903  0.00  0.00     0.174 A 
ATOM      3  C3  BZF d   1       2.465   1.215   1.345  0.00  0.00    -0.012 A 
ATOM      4  C3A BZF d   1       1.115   1.248   1.818  0.00  0.00    -0.107 A 
ATOM      5  C4  BZF d   1       0.344   2.220   2.389  0.00  0.00     0.055 A 
ATOM      6  C5  BZF d   1      -0.959   1.951   2.668  0.00  0.00    -0.016 A 
ATOM      7  C6  BZF d   1      -1.523   0.725   2.384  0.00  0.00     0.022 A 
ATOM      8  C7  BZF d   1      -0.797  -0.272   1.823  0.00  0.00     0.029 A 
ATOM      9  C7A BZF d   1       0.528  -0.014   1.570  0.00  0.00     0.058 A 
ENDROOT
TORSDOF 0
ENDMDL
