MODEL 1
REMARK minimizedAffinity 3.05232215
REMARK minimizedRMSD -1
REMARK  0 active torsions:
REMARK  status: ('A' for Active; 'I' for Inactive)
ROOT
ATOM      1  O1  BZF d   1      -1.750  -0.019   3.011  0.00  0.00    -0.204 OA
ATOM      2  C2  BZF d   1      -1.022   0.890   3.755  0.00  0.00     0.174 A 
ATOM      3  C3  BZF d   1       0.017   1.369   3.040  0.00  0.00    -0.012 A 
ATOM      4  C3A BZF d   1      -0.121   0.788   1.740  0.00  0.00    -0.107 A 
ATOM      5  C4  BZF d   1       0.597   0.894   0.583  0.00  0.00     0.055 A 
ATOM      6  C5  BZF d   1       0.239   0.139  -0.488  0.00  0.00    -0.016 A 
ATOM      7  C6  BZF d   1      -0.827  -0.735  -0.437  0.00  0.00     0.022 A 
ATOM      8  C7  BZF d   1      -1.573  -0.870   0.687  0.00  0.00     0.029 A 
ATOM      9  C7A BZF d   1      -1.234  -0.084   1.761  0.00  0.00     0.058 A 
ENDROOT
TORSDOF 0
ENDMDL
