MODEL 1
REMARK minimizedAffinity -1.56965268
REMARK minimizedRMSD -1
REMARK  0 active torsions:
REMARK  status: ('A' for Active; 'I' for Inactive)
ROOT
ATOM      1  O1  BZF d   1       1.675   1.502   2.497  0.00  0.00    -0.204 OA
ATOM      2  C2  BZF d   1       2.625   1.618   1.501  0.00  0.00     0.174 A 
ATOM      3  C3  BZF d   1       2.147   1.155   0.328  0.00  0.00    -0.012 A 
ATOM      4  C3A BZF d   1       0.784   0.807   0.588  0.00  0.00    -0.107 A 
ATOM      5  C4  BZF d   1      -0.222   0.306  -0.188  0.00  0.00     0.055 A 
ATOM      6  C5  BZF d   1      -1.416   0.010   0.388  0.00  0.00    -0.016 A 
ATOM      7  C6  BZF d   1      -1.638   0.197   1.737  0.00  0.00     0.022 A 
ATOM      8  C7  BZF d   1      -0.672   0.697   2.546  0.00  0.00     0.029 A 
ATOM      9  C7A BZF d   1       0.525   1.028   1.960  0.00  0.00     0.058 A 
ENDROOT
TORSDOF 0
ENDMDL
