MODEL 1
REMARK minimizedAffinity -4.22792292
REMARK minimizedRMSD -1
REMARK  0 active torsions:
REMARK  status: ('A' for Active; 'I' for Inactive)
ROOT
ATOM      1  O1  BZF d   1       1.416   2.115   2.275  0.00  0.00    -0.204 OA
ATOM      2  C2  BZF d   1       2.290   1.975   1.215  0.00  0.00     0.174 A 
ATOM      3  C3  BZF d   1       1.829   1.066   0.332  0.00  0.00    -0.012 A 
ATOM      4  C3A BZF d   1       0.544   0.677   0.828  0.00  0.00    -0.107 A 
ATOM      5  C4  BZF d   1      -0.414  -0.186   0.379  0.00  0.00     0.055 A 
ATOM      6  C5  BZF d   1      -1.523  -0.392   1.135  0.00  0.00    -0.016 A 
ATOM      7  C6  BZF d   1      -1.705   0.243   2.346  0.00  0.00     0.022 A 
ATOM      8  C7  BZF d   1      -0.785   1.112   2.831  0.00  0.00     0.029 A 
ATOM      9  C7A BZF d   1       0.322   1.348   2.053  0.00  0.00     0.058 A 
ENDROOT
TORSDOF 0
ENDMDL
