MODEL 1
REMARK minimizedAffinity -5.27350712
REMARK minimizedRMSD -1
REMARK  0 active torsions:
REMARK  status: ('A' for Active; 'I' for Inactive)
ROOT
ATOM      1  O1  BZF d   1      -1.618   0.878   3.003  0.00  0.00    -0.204 OA
ATOM      2  C2  BZF d   1      -0.854   1.103   4.132  0.00  0.00     0.174 A 
ATOM      3  C3  BZF d   1       0.451   0.876   3.880  0.00  0.00    -0.012 A 
ATOM      4  C3A BZF d   1       0.517   0.574   2.483  0.00  0.00    -0.107 A 
ATOM      5  C4  BZF d   1       1.545   0.275   1.635  0.00  0.00     0.055 A 
ATOM      6  C5  BZF d   1       1.265  -0.041   0.343  0.00  0.00    -0.016 A 
ATOM      7  C6  BZF d   1      -0.030  -0.071  -0.132  0.00  0.00     0.022 A 
ATOM      8  C7  BZF d   1      -1.082   0.223   0.670  0.00  0.00     0.029 A 
ATOM      9  C7A BZF d   1      -0.799   0.575   1.967  0.00  0.00     0.058 A 
ENDROOT
TORSDOF 0
ENDMDL
