MODEL 1
REMARK minimizedAffinity 0.0869775042
REMARK minimizedRMSD -1
REMARK  0 active torsions:
REMARK  status: ('A' for Active; 'I' for Inactive)
ROOT
ATOM      1  O1  BZF d   1      -2.524  -0.425   1.576  0.00  0.00    -0.204 OA
ATOM      2  C2  BZF d   1      -2.532  -0.833   0.256  0.00  0.00     0.174 A 
ATOM      3  C3  BZF d   1      -1.439  -0.378  -0.392  0.00  0.00    -0.012 A 
ATOM      4  C3A BZF d   1      -0.657   0.283   0.608  0.00  0.00    -0.107 A 
ATOM      5  C4  BZF d   1       0.547   0.925   0.585  0.00  0.00     0.055 A 
ATOM      6  C5  BZF d   1       0.998   1.526   1.718  0.00  0.00    -0.016 A 
ATOM      7  C6  BZF d   1       0.268   1.508   2.888  0.00  0.00     0.022 A 
ATOM      8  C7  BZF d   1      -0.930   0.879   2.962  0.00  0.00     0.029 A 
ATOM      9  C7A BZF d   1      -1.373   0.243   1.827  0.00  0.00     0.058 A 
ENDROOT
TORSDOF 0
ENDMDL
