MODEL 1
REMARK minimizedAffinity -0.441026211
REMARK minimizedRMSD -1
REMARK  0 active torsions:
REMARK  status: ('A' for Active; 'I' for Inactive)
ROOT
ATOM      1  O1  BZF d   1      -1.951  -0.180   1.977  0.00  0.00    -0.204 OA
ATOM      2  C2  BZF d   1      -1.727  -0.883   0.808  0.00  0.00     0.174 A 
ATOM      3  C3  BZF d   1      -0.521  -0.575   0.290  0.00  0.00    -0.012 A 
ATOM      4  C3A BZF d   1       0.083   0.310   1.238  0.00  0.00    -0.107 A 
ATOM      5  C4  BZF d   1       1.290   0.946   1.293  0.00  0.00     0.055 A 
ATOM      6  C5  BZF d   1       1.541   1.798   2.321  0.00  0.00    -0.016 A 
ATOM      7  C6  BZF d   1       0.608   2.042   3.307  0.00  0.00     0.022 A 
ATOM      8  C7  BZF d   1      -0.602   1.431   3.298  0.00  0.00     0.029 A 
ATOM      9  C7A BZF d   1      -0.846   0.543   2.278  0.00  0.00     0.058 A 
ENDROOT
TORSDOF 0
ENDMDL
