MODEL 1
REMARK minimizedAffinity 4.7646637
REMARK minimizedRMSD -1
REMARK  0 active torsions:
REMARK  status: ('A' for Active; 'I' for Inactive)
ROOT
ATOM      1  O1  BZF d   1      -1.540  -1.339   3.495  0.00  0.00    -0.204 OA
ATOM      2  C2  BZF d   1      -0.313  -1.234   4.122  0.00  0.00     0.174 A 
ATOM      3  C3  BZF d   1       0.597  -0.671   3.301  0.00  0.00    -0.012 A 
ATOM      4  C3A BZF d   1      -0.129  -0.322   2.118  0.00  0.00    -0.107 A 
ATOM      5  C4  BZF d   1       0.222   0.284   0.946  0.00  0.00     0.055 A 
ATOM      6  C5  BZF d   1      -0.708   0.411  -0.037  0.00  0.00    -0.016 A 
ATOM      7  C6  BZF d   1      -1.995  -0.061   0.117  0.00  0.00     0.022 A 
ATOM      8  C7  BZF d   1      -2.392  -0.665   1.264  0.00  0.00     0.029 A 
ATOM      9  C7A BZF d   1      -1.463  -0.765   2.271  0.00  0.00     0.058 A 
ENDROOT
TORSDOF 0
ENDMDL
