MODEL 1
REMARK minimizedAffinity -5.54496241
REMARK minimizedRMSD -1
REMARK  0 active torsions:
REMARK  status: ('A' for Active; 'I' for Inactive)
ROOT
ATOM      1  C   UNL d   1       1.656   4.459  -1.150  0.00  0.00     0.078 C 
ATOM      2  C1  UNL d   1       1.481   2.983  -0.949  0.00  0.00    -0.077 A 
ATOM      3  C2  UNL d   1       0.912   2.477   0.225  0.00  0.00    -0.001 A 
ATOM      4  C3  UNL d   1       0.764   1.100   0.402  0.00  0.00     0.003 A 
ATOM      5  C4  UNL d   1       1.185   0.218  -0.591  0.00  0.00    -0.005 A 
ATOM      6  C5  UNL d   1       1.755   0.712  -1.762  0.00  0.00     0.003 A 
ATOM      7  C6  UNL d   1       1.904   2.088  -1.941  0.00  0.00    -0.001 A 
ENDROOT
TORSDOF 0
ENDMDL
