MODEL 1
REMARK minimizedAffinity -4.13284445
REMARK minimizedRMSD -1
REMARK  0 active torsions:
REMARK  status: ('A' for Active; 'I' for Inactive)
ROOT
ATOM      1  C   UNL d   1       2.095   4.223  -1.480  0.00  0.00     0.078 C 
ATOM      2  C1  UNL d   1       1.709   2.821  -1.112  0.00  0.00    -0.077 A 
ATOM      3  C2  UNL d   1       1.529   1.841  -2.095  0.00  0.00    -0.001 A 
ATOM      4  C3  UNL d   1       1.159   0.543  -1.739  0.00  0.00     0.003 A 
ATOM      5  C4  UNL d   1       0.966   0.213  -0.399  0.00  0.00    -0.005 A 
ATOM      6  C5  UNL d   1       1.141   1.183   0.586  0.00  0.00     0.003 A 
ATOM      7  C6  UNL d   1       1.510   2.481   0.232  0.00  0.00    -0.001 A 
ENDROOT
TORSDOF 0
ENDMDL
