MODEL 1
REMARK minimizedAffinity -1.70159018
REMARK minimizedRMSD -1
REMARK  0 active torsions:
REMARK  status: ('A' for Active; 'I' for Inactive)
ROOT
ATOM      1  C   UNL d   1       1.201   4.243  -1.384  0.00  0.00     0.078 C 
ATOM      2  C1  UNL d   1       1.214   2.743  -1.401  0.00  0.00    -0.077 A 
ATOM      3  C2  UNL d   1       1.525   2.038  -2.571  0.00  0.00    -0.001 A 
ATOM      4  C3  UNL d   1       1.524   0.643  -2.575  0.00  0.00     0.003 A 
ATOM      5  C4  UNL d   1       1.212  -0.060  -1.413  0.00  0.00    -0.005 A 
ATOM      6  C5  UNL d   1       0.900   0.632  -0.245  0.00  0.00     0.003 A 
ATOM      7  C6  UNL d   1       0.900   2.028  -0.239  0.00  0.00    -0.001 A 
ENDROOT
TORSDOF 0
ENDMDL
