MODEL 1
REMARK minimizedAffinity -2.19740319
REMARK minimizedRMSD -1
REMARK  0 active torsions:
REMARK  status: ('A' for Active; 'I' for Inactive)
ROOT
ATOM      1  C   UNL d   1       1.857   1.851   1.833  0.00  0.00     0.078 C 
ATOM      2  C1  UNL d   1       1.622   1.612   0.371  0.00  0.00    -0.077 A 
ATOM      3  C2  UNL d   1       1.756   2.649  -0.560  0.00  0.00    -0.001 A 
ATOM      4  C3  UNL d   1       1.525   2.414  -1.916  0.00  0.00     0.003 A 
ATOM      5  C4  UNL d   1       1.158   1.143  -2.354  0.00  0.00    -0.005 A 
ATOM      6  C5  UNL d   1       1.020   0.105  -1.434  0.00  0.00     0.003 A 
ATOM      7  C6  UNL d   1       1.251   0.338  -0.078  0.00  0.00    -0.001 A 
ENDROOT
TORSDOF 0
ENDMDL
