MODEL 1
REMARK minimizedAffinity -4.28699636
REMARK minimizedRMSD -1
REMARK  0 active torsions:
REMARK  status: ('A' for Active; 'I' for Inactive)
ROOT
ATOM      1  C   UNL d   1       0.951   1.056   1.412  0.00  0.00     0.078 C 
ATOM      2  C1  UNL d   1       1.077   1.110  -0.081  0.00  0.00    -0.077 A 
ATOM      3  C2  UNL d   1       0.529   0.106  -0.888  0.00  0.00    -0.001 A 
ATOM      4  C3  UNL d   1       0.663   0.164  -2.276  0.00  0.00     0.003 A 
ATOM      5  C4  UNL d   1       1.345   1.225  -2.869  0.00  0.00    -0.005 A 
ATOM      6  C5  UNL d   1       1.896   2.227  -2.074  0.00  0.00     0.003 A 
ATOM      7  C6  UNL d   1       1.763   2.171  -0.686  0.00  0.00    -0.001 A 
ENDROOT
TORSDOF 0
ENDMDL
