MODEL 1
REMARK minimizedAffinity -4.18021727
REMARK minimizedRMSD -1
REMARK  0 active torsions:
REMARK  status: ('A' for Active; 'I' for Inactive)
ROOT
ATOM      1  C   UNL d   1       0.783   0.010  -1.093  0.00  0.00     0.078 C 
ATOM      2  C1  UNL d   1       1.090   1.448  -0.798  0.00  0.00    -0.077 A 
ATOM      3  C2  UNL d   1       1.093   1.929   0.517  0.00  0.00    -0.001 A 
ATOM      4  C3  UNL d   1       1.371   3.272   0.776  0.00  0.00     0.003 A 
ATOM      5  C4  UNL d   1       1.646   4.145  -0.274  0.00  0.00    -0.005 A 
ATOM      6  C5  UNL d   1       1.643   3.676  -1.586  0.00  0.00     0.003 A 
ATOM      7  C6  UNL d   1       1.366   2.333  -1.847  0.00  0.00    -0.001 A 
ENDROOT
TORSDOF 0
ENDMDL
