MODEL 1
REMARK minimizedAffinity -1.53522789
REMARK minimizedRMSD -1
REMARK  0 active torsions:
REMARK  status: ('A' for Active; 'I' for Inactive)
ROOT
ATOM      1  C   UNL d   1       1.411  -0.400  -1.879  0.00  0.00     0.078 C 
ATOM      2  C1  UNL d   1       0.902  -1.717  -1.373  0.00  0.00    -0.077 A 
ATOM      3  C2  UNL d   1      -0.089  -2.422  -2.066  0.00  0.00    -0.001 A 
ATOM      4  C3  UNL d   1      -0.560  -3.641  -1.578  0.00  0.00     0.003 A 
ATOM      5  C4  UNL d   1      -0.047  -4.166  -0.393  0.00  0.00    -0.005 A 
ATOM      6  C5  UNL d   1       0.938  -3.470   0.305  0.00  0.00     0.003 A 
ATOM      7  C6  UNL d   1       1.410  -2.251  -0.182  0.00  0.00    -0.001 A 
ENDROOT
TORSDOF 0
ENDMDL
