MODEL 1
REMARK minimizedAffinity -5.6523881
REMARK minimizedRMSD -1
REMARK  0 active torsions:
REMARK  status: ('A' for Active; 'I' for Inactive)
ROOT
ATOM      1  C   UNL d   1       1.887   4.552  -0.943  0.00  0.00     0.078 C 
ATOM      2  C1  UNL d   1       1.475   3.184  -0.488  0.00  0.00    -0.077 A 
ATOM      3  C2  UNL d   1       1.237   2.917   0.866  0.00  0.00    -0.001 A 
ATOM      4  C3  UNL d   1       0.864   1.636   1.277  0.00  0.00     0.003 A 
ATOM      5  C4  UNL d   1       0.727   0.613   0.341  0.00  0.00    -0.005 A 
ATOM      6  C5  UNL d   1       0.964   0.869  -1.007  0.00  0.00     0.003 A 
ATOM      7  C6  UNL d   1       1.337   2.149  -1.421  0.00  0.00    -0.001 A 
ENDROOT
TORSDOF 0
ENDMDL
