MODEL 1
REMARK minimizedAffinity -3.37530208
REMARK minimizedRMSD -1
REMARK  0 active torsions:
REMARK  status: ('A' for Active; 'I' for Inactive)
ROOT
ATOM      1  C   UNL d   1       1.101   0.346  -1.286  0.00  0.00     0.078 C 
ATOM      2  C1  UNL d   1       1.230   1.801  -0.944  0.00  0.00    -0.077 A 
ATOM      3  C2  UNL d   1       1.411   2.763  -1.945  0.00  0.00    -0.001 A 
ATOM      4  C3  UNL d   1       1.539   4.112  -1.612  0.00  0.00     0.003 A 
ATOM      5  C4  UNL d   1       1.489   4.512  -0.278  0.00  0.00    -0.005 A 
ATOM      6  C5  UNL d   1       1.311   3.561   0.725  0.00  0.00     0.003 A 
ATOM      7  C6  UNL d   1       1.182   2.211   0.394  0.00  0.00    -0.001 A 
ENDROOT
TORSDOF 0
ENDMDL
