MODEL 1
REMARK minimizedAffinity -4.25204325
REMARK minimizedRMSD -1
REMARK  0 active torsions:
REMARK  status: ('A' for Active; 'I' for Inactive)
ROOT
ATOM      1  C   UNL d   1       1.219   3.329  -1.816  0.00  0.00     0.078 C 
ATOM      2  C1  UNL d   1       1.083   2.132  -0.923  0.00  0.00    -0.077 A 
ATOM      3  C2  UNL d   1       1.078   0.835  -1.451  0.00  0.00    -0.001 A 
ATOM      4  C3  UNL d   1       0.941  -0.270  -0.609  0.00  0.00     0.003 A 
ATOM      5  C4  UNL d   1       0.806  -0.089   0.766  0.00  0.00    -0.005 A 
ATOM      6  C5  UNL d   1       0.808   1.198   1.300  0.00  0.00     0.003 A 
ATOM      7  C6  UNL d   1       0.945   2.304   0.460  0.00  0.00    -0.001 A 
ENDROOT
TORSDOF 0
ENDMDL
