MODEL 1
REMARK minimizedAffinity 2.71973062
REMARK minimizedRMSD -1
REMARK  0 active torsions:
REMARK  status: ('A' for Active; 'I' for Inactive)
ROOT
ATOM      1  C   UNL d   1       1.947   2.811  -1.831  0.00  0.00     0.078 C 
ATOM      2  C1  UNL d   1       1.652   1.563  -1.055  0.00  0.00    -0.077 A 
ATOM      3  C2  UNL d   1       1.069   0.450  -1.674  0.00  0.00    -0.001 A 
ATOM      4  C3  UNL d   1       0.791  -0.702  -0.937  0.00  0.00     0.003 A 
ATOM      5  C4  UNL d   1       1.091  -0.753   0.423  0.00  0.00    -0.005 A 
ATOM      6  C5  UNL d   1       1.669   0.350   1.048  0.00  0.00     0.003 A 
ATOM      7  C6  UNL d   1       1.948   1.503   0.313  0.00  0.00    -0.001 A 
ENDROOT
TORSDOF 0
ENDMDL
