MODEL 1
REMARK minimizedAffinity -3.35428381
REMARK minimizedRMSD -1
REMARK  0 active torsions:
REMARK  status: ('A' for Active; 'I' for Inactive)
ROOT
ATOM      1  C   UNL d   1       1.169  -0.747  -2.759  0.00  0.00     0.078 C 
ATOM      2  C1  UNL d   1       1.146   0.306  -1.692  0.00  0.00    -0.077 A 
ATOM      3  C2  UNL d   1       1.048   1.664  -2.021  0.00  0.00    -0.001 A 
ATOM      4  C3  UNL d   1       1.037   2.634  -1.018  0.00  0.00     0.003 A 
ATOM      5  C4  UNL d   1       1.127   2.257   0.321  0.00  0.00    -0.005 A 
ATOM      6  C5  UNL d   1       1.227   0.909   0.657  0.00  0.00     0.003 A 
ATOM      7  C6  UNL d   1       1.238  -0.063  -0.344  0.00  0.00    -0.001 A 
ENDROOT
TORSDOF 0
ENDMDL
