MODEL 1
REMARK minimizedAffinity -3.76480436
REMARK minimizedRMSD -1
REMARK  0 active torsions:
REMARK  status: ('A' for Active; 'I' for Inactive)
ROOT
ATOM      1  C   UNL d   1       1.540   4.273  -1.025  0.00  0.00     0.078 C 
ATOM      2  C1  UNL d   1       1.363   2.797  -0.830  0.00  0.00    -0.077 A 
ATOM      3  C2  UNL d   1       0.882   2.282   0.381  0.00  0.00    -0.001 A 
ATOM      4  C3  UNL d   1       0.732   0.905   0.552  0.00  0.00     0.003 A 
ATOM      5  C4  UNL d   1       1.060   0.031  -0.483  0.00  0.00    -0.005 A 
ATOM      6  C5  UNL d   1       1.541   0.534  -1.690  0.00  0.00     0.003 A 
ATOM      7  C6  UNL d   1       1.692   1.911  -1.863  0.00  0.00    -0.001 A 
ENDROOT
TORSDOF 0
ENDMDL
