MODEL 1
REMARK minimizedAffinity -4.12435484
REMARK minimizedRMSD -1
REMARK  0 active torsions:
REMARK  status: ('A' for Active; 'I' for Inactive)
ROOT
ATOM      1  C   UNL d   1       1.851   3.851  -1.612  0.00  0.00     0.078 C 
ATOM      2  C1  UNL d   1       1.493   2.541  -0.977  0.00  0.00    -0.077 A 
ATOM      3  C2  UNL d   1       1.407   1.369  -1.739  0.00  0.00    -0.001 A 
ATOM      4  C3  UNL d   1       1.064   0.158  -1.136  0.00  0.00     0.003 A 
ATOM      5  C4  UNL d   1       0.802   0.107   0.232  0.00  0.00    -0.005 A 
ATOM      6  C5  UNL d   1       0.883   1.268   0.998  0.00  0.00     0.003 A 
ATOM      7  C6  UNL d   1       1.227   2.480   0.397  0.00  0.00    -0.001 A 
ENDROOT
TORSDOF 0
ENDMDL
