MODEL 1
REMARK minimizedAffinity -0.499879092
REMARK minimizedRMSD -1
REMARK  0 active torsions:
REMARK  status: ('A' for Active; 'I' for Inactive)
ROOT
ATOM      1  C   UNL d   1      -5.249  -1.741   3.001  0.00  0.00     0.078 C 
ATOM      2  C1  UNL d   1      -4.962  -0.346   3.472  0.00  0.00    -0.077 A 
ATOM      3  C2  UNL d   1      -6.000   0.567   3.693  0.00  0.00    -0.001 A 
ATOM      4  C3  UNL d   1      -5.718   1.865   4.122  0.00  0.00     0.003 A 
ATOM      5  C4  UNL d   1      -4.398   2.261   4.333  0.00  0.00    -0.005 A 
ATOM      6  C5  UNL d   1      -3.359   1.360   4.114  0.00  0.00     0.003 A 
ATOM      7  C6  UNL d   1      -3.639   0.061   3.684  0.00  0.00    -0.001 A 
ENDROOT
TORSDOF 0
ENDMDL
