MODEL 1
REMARK minimizedAffinity -3.65229797
REMARK minimizedRMSD -1
REMARK  0 active torsions:
REMARK  status: ('A' for Active; 'I' for Inactive)
ROOT
ATOM      1  C   UNL d   1       0.629   2.329   1.439  0.00  0.00     0.078 C 
ATOM      2  C1  UNL d   1       0.999   1.587   0.190  0.00  0.00    -0.077 A 
ATOM      3  C2  UNL d   1       1.234   2.269  -1.011  0.00  0.00    -0.001 A 
ATOM      4  C3  UNL d   1       1.568   1.565  -2.169  0.00  0.00     0.003 A 
ATOM      5  C4  UNL d   1       1.670   0.175  -2.138  0.00  0.00    -0.005 A 
ATOM      6  C5  UNL d   1       1.437  -0.512  -0.949  0.00  0.00     0.003 A 
ATOM      7  C6  UNL d   1       1.102   0.191   0.210  0.00  0.00    -0.001 A 
ENDROOT
TORSDOF 0
ENDMDL
