MODEL 1
REMARK minimizedAffinity -3.65074563
REMARK minimizedRMSD -1
REMARK  0 active torsions:
REMARK  status: ('A' for Active; 'I' for Inactive)
ROOT
ATOM      1  C   UNL d   1       1.757   5.121  -1.011  0.00  0.00     0.078 C 
ATOM      2  C1  UNL d   1       1.410   3.664  -0.945  0.00  0.00    -0.077 A 
ATOM      3  C2  UNL d   1       1.758   2.890   0.169  0.00  0.00    -0.001 A 
ATOM      4  C3  UNL d   1       1.437   1.532   0.212  0.00  0.00     0.003 A 
ATOM      5  C4  UNL d   1       0.768   0.936  -0.855  0.00  0.00    -0.005 A 
ATOM      6  C5  UNL d   1       0.420   1.698  -1.968  0.00  0.00     0.003 A 
ATOM      7  C6  UNL d   1       0.740   3.056  -2.014  0.00  0.00    -0.001 A 
ENDROOT
TORSDOF 0
ENDMDL
