MODEL 1
REMARK minimizedAffinity -3.2165432
REMARK minimizedRMSD -1
REMARK  0 active torsions:
REMARK  status: ('A' for Active; 'I' for Inactive)
ROOT
ATOM      1  C   UNL d   1       0.386  -0.494  -2.376  0.00  0.00     0.020 A 
ATOM      2  C1  UNL d   1       1.112  -0.090  -1.256  0.00  0.00     0.020 A 
ATOM      3  C2  UNL d   1       0.452   0.170  -0.053  0.00  0.00     0.034 A 
ATOM      4  C3  UNL d   1      -0.937   0.027   0.033  0.00  0.00     0.017 A 
ATOM      5  C4  UNL d   1      -1.665  -0.378  -1.092  0.00  0.00     0.017 A 
ATOM      6  C5  UNL d   1      -0.999  -0.637  -2.294  0.00  0.00     0.034 A 
ATOM      7 Cl   UNL d   1      -3.382  -0.576  -1.063  0.00  0.00    -0.070 Cl
ATOM      8 Cl1  UNL d   1      -1.687   0.366   1.552  0.00  0.00    -0.070 Cl
ENDROOT
TORSDOF 0
ENDMDL
