MODEL 1
REMARK minimizedAffinity -1.42002881
REMARK minimizedRMSD -1
REMARK  0 active torsions:
REMARK  status: ('A' for Active; 'I' for Inactive)
ROOT
ATOM      1  C   UNL d   1      -1.973   0.896   0.641  0.00  0.00     0.020 A 
ATOM      2  C1  UNL d   1      -1.358   0.162   1.654  0.00  0.00     0.020 A 
ATOM      3  C2  UNL d   1      -0.214  -0.589   1.376  0.00  0.00     0.034 A 
ATOM      4  C3  UNL d   1       0.317  -0.608   0.081  0.00  0.00     0.017 A 
ATOM      5  C4  UNL d   1      -0.301   0.129  -0.935  0.00  0.00     0.017 A 
ATOM      6  C5  UNL d   1      -1.446   0.880  -0.650  0.00  0.00     0.034 A 
ATOM      7 Cl   UNL d   1       0.296   0.155  -2.557  0.00  0.00    -0.070 Cl
ATOM      8 Cl1  UNL d   1       1.734  -1.559  -0.192  0.00  0.00    -0.070 Cl
ENDROOT
TORSDOF 0
ENDMDL
