MODEL 1
REMARK minimizedAffinity -2.15292692
REMARK minimizedRMSD -1
REMARK  0 active torsions:
REMARK  status: ('A' for Active; 'I' for Inactive)
ROOT
ATOM      1  C   UNL d   1      -2.096   0.412   0.832  0.00  0.00     0.020 A 
ATOM      2  C1  UNL d   1      -1.794   0.568   2.184  0.00  0.00     0.020 A 
ATOM      3  C2  UNL d   1      -0.530   0.216   2.662  0.00  0.00     0.034 A 
ATOM      4  C3  UNL d   1       0.437  -0.294   1.787  0.00  0.00     0.017 A 
ATOM      5  C4  UNL d   1       0.132  -0.450   0.430  0.00  0.00     0.017 A 
ATOM      6  C5  UNL d   1      -1.135  -0.096  -0.043  0.00  0.00     0.034 A 
ATOM      7 Cl   UNL d   1       1.273  -1.072  -0.710  0.00  0.00    -0.070 Cl
ATOM      8 Cl1  UNL d   1       1.979  -0.708   2.447  0.00  0.00    -0.070 Cl
ENDROOT
TORSDOF 0
ENDMDL
