MODEL 1
REMARK minimizedAffinity -3.66051292
REMARK minimizedRMSD -1
REMARK  0 active torsions:
REMARK  status: ('A' for Active; 'I' for Inactive)
ROOT
ATOM      1  C   UNL d   1      -2.283   0.444   1.188  0.00  0.00     0.020 A 
ATOM      2  C1  UNL d   1      -1.645   0.140   2.390  0.00  0.00     0.020 A 
ATOM      3  C2  UNL d   1      -0.324  -0.313   2.384  0.00  0.00     0.034 A 
ATOM      4  C3  UNL d   1       0.363  -0.463   1.174  0.00  0.00     0.017 A 
ATOM      5  C4  UNL d   1      -0.278  -0.157  -0.032  0.00  0.00     0.017 A 
ATOM      6  C5  UNL d   1      -1.601   0.296  -0.020  0.00  0.00     0.034 A 
ATOM      7 Cl   UNL d   1       0.505  -0.316  -1.564  0.00  0.00    -0.070 Cl
ATOM      8 Cl1  UNL d   1       1.995  -1.026   1.241  0.00  0.00    -0.070 Cl
ENDROOT
TORSDOF 0
ENDMDL
