MODEL 1
REMARK minimizedAffinity -0.914108694
REMARK minimizedRMSD -1
REMARK  0 active torsions:
REMARK  status: ('A' for Active; 'I' for Inactive)
ROOT
ATOM      1  C   UNL d   1       1.655  -0.511   1.643  0.00  0.00     0.020 A 
ATOM      2  C1  UNL d   1       2.366  -1.073   0.583  0.00  0.00     0.020 A 
ATOM      3  C2  UNL d   1       1.814  -1.082  -0.700  0.00  0.00     0.034 A 
ATOM      4  C3  UNL d   1       0.548  -0.529  -0.926  0.00  0.00     0.017 A 
ATOM      5  C4  UNL d   1      -0.164   0.034   0.139  0.00  0.00     0.017 A 
ATOM      6  C5  UNL d   1       0.393   0.041   1.421  0.00  0.00     0.034 A 
ATOM      7 Cl   UNL d   1      -1.731   0.735  -0.062  0.00  0.00    -0.070 Cl
ATOM      8 Cl1  UNL d   1      -0.073  -0.575  -2.538  0.00  0.00    -0.070 Cl
ENDROOT
TORSDOF 0
ENDMDL
