MODEL 1
REMARK minimizedAffinity 6.15562153
REMARK minimizedRMSD -1
REMARK  0 active torsions:
REMARK  status: ('A' for Active; 'I' for Inactive)
ROOT
ATOM      1  C   UNL d   1      -3.007   0.087   0.744  0.00  0.00     0.020 A 
ATOM      2  C1  UNL d   1      -2.230  -0.083  -0.401  0.00  0.00     0.020 A 
ATOM      3  C2  UNL d   1      -0.867  -0.367  -0.285  0.00  0.00     0.034 A 
ATOM      4  C3  UNL d   1      -0.278  -0.482   0.979  0.00  0.00     0.017 A 
ATOM      5  C4  UNL d   1      -1.059  -0.312   2.128  0.00  0.00     0.017 A 
ATOM      6  C5  UNL d   1      -2.422  -0.028   2.006  0.00  0.00     0.034 A 
ATOM      7 Cl   UNL d   1      -0.402  -0.440   3.722  0.00  0.00    -0.070 Cl
ATOM      8 Cl1  UNL d   1       1.412  -0.836   1.048  0.00  0.00    -0.070 Cl
ENDROOT
TORSDOF 0
ENDMDL
