MODEL 1
REMARK minimizedAffinity -1.9750787
REMARK minimizedRMSD -1
REMARK  0 active torsions:
REMARK  status: ('A' for Active; 'I' for Inactive)
ROOT
ATOM      1  C   UNL d   1      -2.211   0.587   0.741  0.00  0.00     0.020 A 
ATOM      2  C1  UNL d   1      -1.614   0.136   1.918  0.00  0.00     0.020 A 
ATOM      3  C2  UNL d   1      -0.391  -0.536   1.867  0.00  0.00     0.034 A 
ATOM      4  C3  UNL d   1       0.239  -0.760   0.638  0.00  0.00     0.017 A 
ATOM      5  C4  UNL d   1      -0.361  -0.307  -0.543  0.00  0.00     0.017 A 
ATOM      6  C5  UNL d   1      -1.586   0.365  -0.486  0.00  0.00     0.034 A 
ATOM      7 Cl   UNL d   1       0.355  -0.546  -2.097  0.00  0.00    -0.070 Cl
ATOM      8 Cl1  UNL d   1       1.749  -1.598   0.650  0.00  0.00    -0.070 Cl
ENDROOT
TORSDOF 0
ENDMDL
