MODEL 1
REMARK minimizedAffinity 3.32671809
REMARK minimizedRMSD -1
REMARK  0 active torsions:
REMARK  status: ('A' for Active; 'I' for Inactive)
ROOT
ATOM      1  C   UNL d   1       0.862   0.504   0.330  0.00  0.00     0.020 A 
ATOM      2  C1  UNL d   1       0.516   0.188  -0.984  0.00  0.00     0.020 A 
ATOM      3  C2  UNL d   1      -0.746  -0.338  -1.266  0.00  0.00     0.034 A 
ATOM      4  C3  UNL d   1      -1.667  -0.551  -0.234  0.00  0.00     0.017 A 
ATOM      5  C4  UNL d   1      -1.319  -0.233   1.084  0.00  0.00     0.017 A 
ATOM      6  C5  UNL d   1      -0.054   0.294   1.361  0.00  0.00     0.034 A 
ATOM      7 Cl   UNL d   1      -2.402  -0.467   2.411  0.00  0.00    -0.070 Cl
ATOM      8 Cl1  UNL d   1      -3.210  -1.205  -0.655  0.00  0.00    -0.070 Cl
ENDROOT
TORSDOF 0
ENDMDL
