MODEL 1
REMARK minimizedAffinity -1.23648715
REMARK minimizedRMSD -1
REMARK  0 active torsions:
REMARK  status: ('A' for Active; 'I' for Inactive)
ROOT
ATOM      1  C   UNL d   1       1.168   1.265  -3.662  0.00  0.00     0.020 A 
ATOM      2  C1  UNL d   1       1.372  -0.114  -3.673  0.00  0.00     0.020 A 
ATOM      3  C2  UNL d   1       0.883  -0.901  -2.628  0.00  0.00     0.034 A 
ATOM      4  C3  UNL d   1       0.186  -0.309  -1.568  0.00  0.00     0.017 A 
ATOM      5  C4  UNL d   1      -0.018   1.076  -1.558  0.00  0.00     0.017 A 
ATOM      6  C5  UNL d   1       0.474   1.858  -2.607  0.00  0.00     0.034 A 
ATOM      7 Cl   UNL d   1      -0.868   1.878  -0.285  0.00  0.00    -0.070 Cl
ATOM      8 Cl1  UNL d   1      -0.391  -1.342  -0.309  0.00  0.00    -0.070 Cl
ENDROOT
TORSDOF 0
ENDMDL
