MODEL 1
REMARK minimizedAffinity 18.0517292
REMARK minimizedRMSD -1
REMARK  0 active torsions:
REMARK  status: ('A' for Active; 'I' for Inactive)
ROOT
ATOM      1  C   UNL d   1       1.806  -1.147   3.966  0.00  0.00    -0.002 A 
ATOM      2  C1  UNL d   1       2.432  -1.897   2.981  0.00  0.00     0.010 A 
ATOM      3  C2  UNL d   1       2.915  -1.285   1.822  0.00  0.00     0.041 A 
ATOM      4  C3  UNL d   1       2.757   0.107   1.670  0.00  0.00    -0.075 A 
ATOM      5  S   UNL d   1       3.270   1.072   0.336  0.00  0.00     0.015 SA
ATOM      6  C4  UNL d   1       2.670   2.501   1.044  0.00  0.00     0.022 A 
ATOM      7  C5  UNL d   1       2.090   2.267   2.268  0.00  0.00     0.026 A 
ATOM      8  C6  UNL d   1       2.131   0.883   2.649  0.00  0.00    -0.082 A 
ATOM      9  C7  UNL d   1       1.652   0.233   3.812  0.00  0.00     0.045 A 
ENDROOT
TORSDOF 0
ENDMDL
