MODEL 1
REMARK minimizedAffinity 15.7369909
REMARK minimizedRMSD -1
REMARK  0 active torsions:
REMARK  status: ('A' for Active; 'I' for Inactive)
ROOT
ATOM      1  C   UNL d   1      -5.978   3.673   1.756  0.00  0.00    -0.002 A 
ATOM      2  C1  UNL d   1      -5.998   4.102   0.436  0.00  0.00     0.010 A 
ATOM      3  C2  UNL d   1      -4.955   3.777  -0.433  0.00  0.00     0.041 A 
ATOM      4  C3  UNL d   1      -3.881   3.004   0.050  0.00  0.00    -0.075 A 
ATOM      5  S   UNL d   1      -2.495   2.484  -0.832  0.00  0.00     0.015 SA
ATOM      6  C4  UNL d   1      -1.843   1.679   0.521  0.00  0.00     0.022 A 
ATOM      7  C5  UNL d   1      -2.650   1.794   1.628  0.00  0.00     0.026 A 
ATOM      8  C6  UNL d   1      -3.838   2.559   1.375  0.00  0.00    -0.082 A 
ATOM      9  C7  UNL d   1      -4.911   2.906   2.231  0.00  0.00     0.045 A 
ENDROOT
TORSDOF 0
ENDMDL
