MODEL 1
REMARK minimizedAffinity 21.463747
REMARK minimizedRMSD -1
REMARK  0 active torsions:
REMARK  status: ('A' for Active; 'I' for Inactive)
ROOT
ATOM      1  C   UNL d   1       0.873  -1.758  -1.462  0.00  0.00    -0.002 A 
ATOM      2  C1  UNL d   1       1.916  -2.609  -1.128  0.00  0.00     0.010 A 
ATOM      3  C2  UNL d   1       1.659  -3.908  -0.686  0.00  0.00     0.041 A 
ATOM      4  C3  UNL d   1       0.322  -4.342  -0.586  0.00  0.00    -0.075 A 
ATOM      5  S   UNL d   1      -0.232  -5.891  -0.069  0.00  0.00     0.015 SA
ATOM      6  C4  UNL d   1      -1.867  -5.459  -0.281  0.00  0.00     0.022 A 
ATOM      7  C5  UNL d   1      -2.005  -4.169  -0.734  0.00  0.00     0.026 A 
ATOM      8  C6  UNL d   1      -0.745  -3.504  -0.918  0.00  0.00    -0.082 A 
ATOM      9  C7  UNL d   1      -0.452  -2.192  -1.362  0.00  0.00     0.045 A 
ENDROOT
TORSDOF 0
ENDMDL
