MODEL 1
REMARK minimizedAffinity 17.428894
REMARK minimizedRMSD -1
REMARK  0 active torsions:
REMARK  status: ('A' for Active; 'I' for Inactive)
ROOT
ATOM      1  C   UNL d   1       2.078   4.576  -1.388  0.00  0.00    -0.002 A 
ATOM      2  C1  UNL d   1       0.692   4.627  -1.362  0.00  0.00     0.010 A 
ATOM      3  C2  UNL d   1      -0.002   4.472  -0.161  0.00  0.00     0.041 A 
ATOM      4  C3  UNL d   1       0.728   4.265   1.026  0.00  0.00    -0.075 A 
ATOM      5  S   UNL d   1       0.092   4.050   2.614  0.00  0.00     0.015 SA
ATOM      6  C4  UNL d   1       1.645   3.888   3.296  0.00  0.00     0.022 A 
ATOM      7  C5  UNL d   1       2.637   3.992   2.349  0.00  0.00     0.026 A 
ATOM      8  C6  UNL d   1       2.125   4.211   1.026  0.00  0.00    -0.082 A 
ATOM      9  C7  UNL d   1       2.799   4.371  -0.209  0.00  0.00     0.045 A 
ENDROOT
TORSDOF 0
ENDMDL
