MODEL 1
REMARK minimizedAffinity 9.75969696
REMARK minimizedRMSD -1
REMARK  0 active torsions:
REMARK  status: ('A' for Active; 'I' for Inactive)
ROOT
ATOM      1  C   UNL d   1       5.041  -3.762   5.115  0.00  0.00    -0.002 A 
ATOM      2  C1  UNL d   1       4.365  -2.765   4.427  0.00  0.00     0.010 A 
ATOM      3  C2  UNL d   1       2.978  -2.823   4.274  0.00  0.00     0.041 A 
ATOM      4  C3  UNL d   1       2.276  -3.910   4.831  0.00  0.00    -0.075 A 
ATOM      5  S   UNL d   1       0.576  -4.190   4.770  0.00  0.00     0.015 SA
ATOM      6  C4  UNL d   1       0.708  -5.639   5.657  0.00  0.00     0.022 A 
ATOM      7  C5  UNL d   1       2.010  -5.918   6.000  0.00  0.00     0.026 A 
ATOM      8  C6  UNL d   1       2.935  -4.925   5.530  0.00  0.00    -0.082 A 
ATOM      9  C7  UNL d   1       4.341  -4.838   5.667  0.00  0.00     0.045 A 
ENDROOT
TORSDOF 0
ENDMDL
