MODEL 1
REMARK minimizedAffinity 10.5585308
REMARK minimizedRMSD -1
REMARK  0 active torsions:
REMARK  status: ('A' for Active; 'I' for Inactive)
ROOT
ATOM      1  C   UNL d   1       2.493   4.547   0.379  0.00  0.00    -0.002 A 
ATOM      2  C1  UNL d   1       1.484   4.673  -0.566  0.00  0.00     0.010 A 
ATOM      3  C2  UNL d   1       1.776   5.096  -1.864  0.00  0.00     0.041 A 
ATOM      4  C3  UNL d   1       3.112   5.392  -2.201  0.00  0.00    -0.075 A 
ATOM      5  S   UNL d   1       3.705   5.926  -3.729  0.00  0.00     0.015 SA
ATOM      6  C4  UNL d   1       5.311   5.999  -3.164  0.00  0.00     0.022 A 
ATOM      7  C5  UNL d   1       5.410   5.629  -1.844  0.00  0.00     0.026 A 
ATOM      8  C6  UNL d   1       4.145   5.272  -1.267  0.00  0.00    -0.082 A 
ATOM      9  C7  UNL d   1       3.816   4.841   0.041  0.00  0.00     0.045 A 
ENDROOT
TORSDOF 0
ENDMDL
