MODEL 1
REMARK minimizedAffinity 7.22359753
REMARK minimizedRMSD -1
REMARK  0 active torsions:
REMARK  status: ('A' for Active; 'I' for Inactive)
ROOT
ATOM      1  C   UNL d   1       2.419  -2.101   2.762  0.00  0.00    -0.002 A 
ATOM      2  C1  UNL d   1       1.881  -1.068   2.007  0.00  0.00     0.010 A 
ATOM      3  C2  UNL d   1       1.838   0.233   2.512  0.00  0.00     0.041 A 
ATOM      4  C3  UNL d   1       2.351   0.481   3.800  0.00  0.00    -0.075 A 
ATOM      5  S   UNL d   1       2.405   1.995   4.624  0.00  0.00     0.015 SA
ATOM      6  C4  UNL d   1       3.144   1.306   5.997  0.00  0.00     0.022 A 
ATOM      7  C5  UNL d   1       3.352  -0.045   5.848  0.00  0.00     0.026 A 
ATOM      8  C6  UNL d   1       2.899  -0.543   4.579  0.00  0.00    -0.082 A 
ATOM      9  C7  UNL d   1       2.927  -1.851   4.039  0.00  0.00     0.045 A 
ENDROOT
TORSDOF 0
ENDMDL
