MODEL 1
REMARK minimizedAffinity -1.91107738
REMARK minimizedRMSD -1
REMARK  1 active torsions:
REMARK  status: ('A' for Active; 'I' for Inactive)
REMARK    1  A    between atoms: C1_2  and  C2_3 
ROOT
ATOM      1  C2  UNL d   1       1.510  -3.367   0.281  0.00  0.00    -0.081 A 
ATOM      2  C3  UNL d   1       2.068  -2.113   0.558  0.00  0.00     0.006 A 
ATOM      3  C4  UNL d   1       1.245  -1.004   0.771  0.00  0.00     0.002 A 
ATOM      4  C5  UNL d   1      -0.147  -1.132   0.719  0.00  0.00    -0.080 A 
ATOM      5  C6  UNL d   1      -1.042   0.044   0.976  0.00  0.00     0.076 C 
ATOM      6  C7  UNL d   1      -0.704  -2.382   0.425  0.00  0.00     0.002 A 
ATOM      7  C8  UNL d   1       0.118  -3.491   0.212  0.00  0.00     0.006 A 
ENDROOT
BRANCH   1   8
ATOM      8  C1  UNL d   1       2.392  -4.578   0.115  0.00  0.00     0.054 C 
ATOM      9  C   UNL d   1       3.865  -4.195   0.126  0.00  0.00     0.018 C 
ENDBRANCH   1   8
TORSDOF 1
ENDMDL
