MODEL 1
REMARK minimizedAffinity -3.22957015
REMARK minimizedRMSD -1
REMARK  1 active torsions:
REMARK  status: ('A' for Active; 'I' for Inactive)
REMARK    1  A    between atoms: C1_2  and  C2_3 
ROOT
ATOM      1  C2  UNL d   1       2.722  -3.000  -0.160  0.00  0.00    -0.081 A 
ATOM      2  C3  UNL d   1       1.438  -3.540  -0.016  0.00  0.00     0.006 A 
ATOM      3  C4  UNL d   1       0.355  -2.717   0.299  0.00  0.00     0.002 A 
ATOM      4  C5  UNL d   1       0.535  -1.339   0.467  0.00  0.00    -0.080 A 
ATOM      5  C6  UNL d   1      -0.625  -0.440   0.775  0.00  0.00     0.076 C 
ATOM      6  C7  UNL d   1       1.820  -0.802   0.340  0.00  0.00     0.002 A 
ATOM      7  C8  UNL d   1       2.904  -1.625   0.026  0.00  0.00     0.006 A 
ENDROOT
BRANCH   1   8
ATOM      8  C1  UNL d   1       3.881  -3.875  -0.563  0.00  0.00     0.054 C 
ATOM      9  C   UNL d   1       3.986  -5.101   0.333  0.00  0.00     0.018 C 
ENDBRANCH   1   8
TORSDOF 1
ENDMDL
