MODEL 1
REMARK minimizedAffinity -6.73977804
REMARK minimizedRMSD -1
REMARK  1 active torsions:
REMARK  status: ('A' for Active; 'I' for Inactive)
REMARK    1  A    between atoms: C1_2  and  C2_3 
ROOT
ATOM      1  C2  UNL d   1       2.034  -2.264   0.356  0.00  0.00    -0.081 A 
ATOM      2  C3  UNL d   1       2.007  -0.915   0.731  0.00  0.00     0.006 A 
ATOM      3  C4  UNL d   1       0.791  -0.266   0.956  0.00  0.00     0.002 A 
ATOM      4  C5  UNL d   1      -0.418  -0.956   0.817  0.00  0.00    -0.080 A 
ATOM      5  C6  UNL d   1      -1.729  -0.280   1.084  0.00  0.00     0.076 C 
ATOM      6  C7  UNL d   1      -0.392  -2.299   0.425  0.00  0.00     0.002 A 
ATOM      7  C8  UNL d   1       0.824  -2.948   0.200  0.00  0.00     0.006 A 
ENDROOT
BRANCH   1   8
ATOM      8  C1  UNL d   1       3.346  -2.984   0.176  0.00  0.00     0.054 C 
ATOM      9  C   UNL d   1       3.150  -4.493   0.153  0.00  0.00     0.018 C 
ENDBRANCH   1   8
TORSDOF 1
ENDMDL
