MODEL 1
REMARK minimizedAffinity -5.21798086
REMARK minimizedRMSD -1
REMARK  1 active torsions:
REMARK  status: ('A' for Active; 'I' for Inactive)
REMARK    1  A    between atoms: C1_2  and  C2_3 
ROOT
ATOM      1  C2  UNL d   1       1.327  -1.748   0.341  0.00  0.00    -0.081 A 
ATOM      2  C3  UNL d   1       0.825  -3.044   0.170  0.00  0.00     0.006 A 
ATOM      3  C4  UNL d   1       1.690  -4.111  -0.083  0.00  0.00     0.002 A 
ATOM      4  C5  UNL d   1       3.071  -3.902  -0.161  0.00  0.00    -0.080 A 
ATOM      5  C6  UNL d   1       4.013  -5.044  -0.402  0.00  0.00     0.076 C 
ATOM      6  C7  UNL d   1       3.571  -2.605  -0.008  0.00  0.00     0.002 A 
ATOM      7  C8  UNL d   1       2.707  -1.537   0.244  0.00  0.00     0.006 A 
ENDROOT
BRANCH   1   8
ATOM      8  C1  UNL d   1       0.403  -0.606   0.678  0.00  0.00     0.054 C 
ATOM      9  C   UNL d   1      -0.963  -1.111   1.120  0.00  0.00     0.018 C 
ENDBRANCH   1   8
TORSDOF 1
ENDMDL
