MODEL 1
REMARK minimizedAffinity 0.295466602
REMARK minimizedRMSD -1
REMARK  1 active torsions:
REMARK  status: ('A' for Active; 'I' for Inactive)
REMARK    1  A    between atoms: C1_2  and  C2_3 
ROOT
ATOM      1  C2  UNL d   1       4.182   3.511  -1.815  0.00  0.00    -0.081 A 
ATOM      2  C3  UNL d   1       4.323   2.131  -1.629  0.00  0.00     0.006 A 
ATOM      3  C4  UNL d   1       3.613   1.231  -2.428  0.00  0.00     0.002 A 
ATOM      4  C5  UNL d   1       2.757   1.697  -3.431  0.00  0.00    -0.080 A 
ATOM      5  C6  UNL d   1       2.012   0.742  -4.316  0.00  0.00     0.076 C 
ATOM      6  C7  UNL d   1       2.602   3.076  -3.606  0.00  0.00     0.002 A 
ATOM      7  C8  UNL d   1       3.311   3.976  -2.807  0.00  0.00     0.006 A 
ENDROOT
BRANCH   1   8
ATOM      8  C1  UNL d   1       4.995   4.482  -0.998  0.00  0.00     0.054 C 
ATOM      9  C   UNL d   1       4.773   5.915  -1.460  0.00  0.00     0.018 C 
ENDBRANCH   1   8
TORSDOF 1
ENDMDL
