MODEL 1
REMARK minimizedAffinity 2.83456945
REMARK minimizedRMSD -1
REMARK  1 active torsions:
REMARK  status: ('A' for Active; 'I' for Inactive)
REMARK    1  A    between atoms: C1_2  and  C2_3 
ROOT
ATOM      1  C2  UNL d   1       0.824  -2.998   0.214  0.00  0.00    -0.081 A 
ATOM      2  C3  UNL d   1       1.697  -2.161   0.918  0.00  0.00     0.006 A 
ATOM      3  C4  UNL d   1       1.270  -0.907   1.364  0.00  0.00     0.002 A 
ATOM      4  C5  UNL d   1      -0.037  -0.475   1.120  0.00  0.00    -0.080 A 
ATOM      5  C6  UNL d   1      -0.517   0.856   1.619  0.00  0.00     0.076 C 
ATOM      6  C7  UNL d   1      -0.904  -1.304   0.401  0.00  0.00     0.002 A 
ATOM      7  C8  UNL d   1      -0.478  -2.557  -0.046  0.00  0.00     0.006 A 
ENDROOT
BRANCH   1   8
ATOM      8  C1  UNL d   1       1.261  -4.377  -0.212  0.00  0.00     0.054 C 
ATOM      9  C   UNL d   1       2.642  -4.712   0.334  0.00  0.00     0.018 C 
ENDBRANCH   1   8
TORSDOF 1
ENDMDL
