MODEL 1
REMARK minimizedAffinity -3.74736118
REMARK minimizedRMSD -1
REMARK  1 active torsions:
REMARK  status: ('A' for Active; 'I' for Inactive)
REMARK    1  A    between atoms: C1_2  and  C2_3 
ROOT
ATOM      1  C2  UNL d   1      -0.079  -1.414   0.496  0.00  0.00    -0.081 A 
ATOM      2  C3  UNL d   1       1.194  -0.836   0.567  0.00  0.00     0.006 A 
ATOM      3  C4  UNL d   1       2.338  -1.621   0.407  0.00  0.00     0.002 A 
ATOM      4  C5  UNL d   1       2.228  -2.995   0.166  0.00  0.00    -0.080 A 
ATOM      5  C6  UNL d   1       3.448  -3.844  -0.037  0.00  0.00     0.076 C 
ATOM      6  C7  UNL d   1       0.957  -3.575   0.113  0.00  0.00     0.002 A 
ATOM      7  C8  UNL d   1      -0.188  -2.791   0.273  0.00  0.00     0.006 A 
ENDROOT
BRANCH   1   8
ATOM      8  C1  UNL d   1      -1.316  -0.559   0.603  0.00  0.00     0.054 C 
ATOM      9  C   UNL d   1      -1.184   0.468   1.719  0.00  0.00     0.018 C 
ENDBRANCH   1   8
TORSDOF 1
ENDMDL
