MODEL 1
REMARK minimizedAffinity -4.04826403
REMARK minimizedRMSD -1
REMARK  0 active torsions:
REMARK  status: ('A' for Active; 'I' for Inactive)
ROOT
ATOM      1  C   UNL d   1       1.063  -0.829   1.313  0.00  0.00     0.124 A 
ATOM      2  C1  UNL d   1      -0.144  -0.192   1.565  0.00  0.00     0.062 A 
ATOM      3  C2  UNL d   1      -0.876   0.360   0.517  0.00  0.00     0.162 A 
ATOM      4  C3  UNL d   1      -0.403   0.277  -0.792  0.00  0.00    -0.034 A 
ATOM      5  C4  UNL d   1       0.813  -0.364  -1.038  0.00  0.00     0.162 A 
ATOM      6  C5  UNL d   1       1.540  -0.915   0.012  0.00  0.00     0.062 A 
ATOM      7  F   UNL d   1       2.707  -1.529  -0.233  0.00  0.00    -0.097 F 
ATOM      8  F1  UNL d   1       1.297  -0.462  -2.285  0.00  0.00    -0.096 F 
ATOM      9  I   UNL d   1      -1.494   1.102  -2.361  0.00  0.00    -0.060 I 
ATOM     10  F2  UNL d   1      -2.039   0.969   0.790  0.00  0.00    -0.096 F 
ATOM     11  F3  UNL d   1      -0.607  -0.108   2.820  0.00  0.00    -0.097 F 
ATOM     12  F4  UNL d   1       1.766  -1.359   2.322  0.00  0.00    -0.092 F 
ENDROOT
TORSDOF 0
ENDMDL
