MODEL 1
REMARK minimizedAffinity -0.94343406
REMARK minimizedRMSD -1
REMARK  0 active torsions:
REMARK  status: ('A' for Active; 'I' for Inactive)
ROOT
ATOM      1  C   UNL d   1       0.841  -0.897   1.950  0.00  0.00     0.124 A 
ATOM      2  C1  UNL d   1       1.465  -0.618   0.742  0.00  0.00     0.062 A 
ATOM      3  C2  UNL d   1       0.798   0.111  -0.238  0.00  0.00     0.162 A 
ATOM      4  C3  UNL d   1      -0.501   0.567  -0.014  0.00  0.00    -0.034 A 
ATOM      5  C4  UNL d   1      -1.122   0.282   1.203  0.00  0.00     0.162 A 
ATOM      6  C5  UNL d   1      -0.451  -0.447   2.179  0.00  0.00     0.062 A 
ATOM      7  F   UNL d   1      -1.056  -0.716   3.346  0.00  0.00    -0.097 F 
ATOM      8  F1  UNL d   1      -2.371   0.705   1.451  0.00  0.00    -0.096 F 
ATOM      9  I   UNL d   1      -1.502   1.657  -1.478  0.00  0.00    -0.060 I 
ATOM     10  F2  UNL d   1       1.425   0.366  -1.396  0.00  0.00    -0.096 F 
ATOM     11  F3  UNL d   1       2.714  -1.053   0.518  0.00  0.00    -0.097 F 
ATOM     12  F4  UNL d   1       1.485  -1.599   2.891  0.00  0.00    -0.092 F 
ENDROOT
TORSDOF 0
ENDMDL
