MODEL 1
REMARK minimizedAffinity -3.0018363
REMARK minimizedRMSD -1
REMARK  0 active torsions:
REMARK  status: ('A' for Active; 'I' for Inactive)
ROOT
ATOM      1  C   UNL d   1      -0.188   0.597  -2.382  0.00  0.00     0.124 A 
ATOM      2  C1  UNL d   1      -0.737   1.414  -1.404  0.00  0.00     0.062 A 
ATOM      3  C2  UNL d   1      -0.472   1.172  -0.059  0.00  0.00     0.162 A 
ATOM      4  C3  UNL d   1       0.349   0.107   0.316  0.00  0.00    -0.034 A 
ATOM      5  C4  UNL d   1       0.897  -0.710  -0.674  0.00  0.00     0.162 A 
ATOM      6  C5  UNL d   1       0.628  -0.464  -2.017  0.00  0.00     0.062 A 
ATOM      7  F   UNL d   1       1.160  -1.255  -2.960  0.00  0.00    -0.097 F 
ATOM      8  F1  UNL d   1       1.690  -1.742  -0.349  0.00  0.00    -0.096 F 
ATOM      9  I   UNL d   1       0.748  -0.258   2.325  0.00  0.00    -0.060 I 
ATOM     10  F2  UNL d   1      -1.016   1.977   0.865  0.00  0.00    -0.096 F 
ATOM     11  F3  UNL d   1      -1.527   2.439  -1.754  0.00  0.00    -0.097 F 
ATOM     12  F4  UNL d   1      -0.446   0.832  -3.675  0.00  0.00    -0.092 F 
ENDROOT
TORSDOF 0
ENDMDL
