MODEL 1
REMARK minimizedAffinity -1.7552284
REMARK minimizedRMSD -1
REMARK  0 active torsions:
REMARK  status: ('A' for Active; 'I' for Inactive)
ROOT
ATOM      1  C   UNL d   1      -0.648   2.696  -2.175  0.00  0.00     0.124 A 
ATOM      2  C1  UNL d   1      -1.552   3.737  -2.016  0.00  0.00     0.062 A 
ATOM      3  C2  UNL d   1      -2.880   3.576  -2.402  0.00  0.00     0.162 A 
ATOM      4  C3  UNL d   1      -3.312   2.368  -2.951  0.00  0.00    -0.034 A 
ATOM      5  C4  UNL d   1      -2.396   1.326  -3.108  0.00  0.00     0.162 A 
ATOM      6  C5  UNL d   1      -1.070   1.492  -2.721  0.00  0.00     0.062 A 
ATOM      7  F   UNL d   1      -0.198   0.485  -2.875  0.00  0.00    -0.097 F 
ATOM      8  F1  UNL d   1      -2.777   0.152  -3.632  0.00  0.00    -0.096 F 
ATOM      9  I   UNL d   1      -5.296   2.123  -3.529  0.00  0.00    -0.060 I 
ATOM     10  F2  UNL d   1      -3.732   4.598  -2.237  0.00  0.00    -0.096 F 
ATOM     11  F3  UNL d   1      -1.146   4.901  -1.490  0.00  0.00    -0.097 F 
ATOM     12  F4  UNL d   1       0.629   2.854  -1.803  0.00  0.00    -0.092 F 
ENDROOT
TORSDOF 0
ENDMDL
