MODEL 1
REMARK minimizedAffinity -2.24965262
REMARK minimizedRMSD -1
REMARK  0 active torsions:
REMARK  status: ('A' for Active; 'I' for Inactive)
ROOT
ATOM      1  C   UNL d   1       0.811  -0.861   1.733  0.00  0.00     0.124 A 
ATOM      2  C1  UNL d   1      -0.541  -0.658   1.975  0.00  0.00     0.062 A 
ATOM      3  C2  UNL d   1      -1.334  -0.023   1.024  0.00  0.00     0.162 A 
ATOM      4  C3  UNL d   1      -0.778   0.415  -0.178  0.00  0.00    -0.034 A 
ATOM      5  C4  UNL d   1       0.582   0.209  -0.413  0.00  0.00     0.162 A 
ATOM      6  C5  UNL d   1       1.371  -0.427   0.540  0.00  0.00     0.062 A 
ATOM      7  F   UNL d   1       2.677  -0.621   0.305  0.00  0.00    -0.097 F 
ATOM      8  F1  UNL d   1       1.150   0.617  -1.558  0.00  0.00    -0.096 F 
ATOM      9  I   UNL d   1      -1.961   1.366  -1.602  0.00  0.00    -0.060 I 
ATOM     10  F2  UNL d   1      -2.638   0.159   1.284  0.00  0.00    -0.096 F 
ATOM     11  F3  UNL d   1      -1.085  -1.076   3.127  0.00  0.00    -0.097 F 
ATOM     12  F4  UNL d   1       1.572  -1.472   2.650  0.00  0.00    -0.092 F 
ENDROOT
TORSDOF 0
ENDMDL
