MODEL 1
REMARK minimizedAffinity -0.0498062074
REMARK minimizedRMSD -1
REMARK  0 active torsions:
REMARK  status: ('A' for Active; 'I' for Inactive)
ROOT
ATOM      1  C   UNL d   1       0.896  -1.086   1.420  0.00  0.00     0.124 A 
ATOM      2  C1  UNL d   1       1.368  -1.089   0.114  0.00  0.00     0.062 A 
ATOM      3  C2  UNL d   1       0.749  -0.305  -0.855  0.00  0.00     0.162 A 
ATOM      4  C3  UNL d   1      -0.348   0.490  -0.523  0.00  0.00    -0.034 A 
ATOM      5  C4  UNL d   1      -0.817   0.487   0.792  0.00  0.00     0.162 A 
ATOM      6  C5  UNL d   1      -0.195  -0.298   1.757  0.00  0.00     0.062 A 
ATOM      7  F   UNL d   1      -0.653  -0.294   3.018  0.00  0.00    -0.097 F 
ATOM      8  F1  UNL d   1      -1.870   1.239   1.145  0.00  0.00    -0.096 F 
ATOM      9  I   UNL d   1      -1.275   1.663  -1.970  0.00  0.00    -0.060 I 
ATOM     10  F2  UNL d   1       1.226  -0.328  -2.109  0.00  0.00    -0.096 F 
ATOM     11  F3  UNL d   1       2.422  -1.850  -0.214  0.00  0.00    -0.097 F 
ATOM     12  F4  UNL d   1       1.493  -1.842   2.351  0.00  0.00    -0.092 F 
ENDROOT
TORSDOF 0
ENDMDL
