MODEL 1
REMARK minimizedAffinity -1.60354316
REMARK minimizedRMSD -1
REMARK  0 active torsions:
REMARK  status: ('A' for Active; 'I' for Inactive)
ROOT
ATOM      1  C   UNL d   1       1.197  -0.748   0.849  0.00  0.00     0.124 A 
ATOM      2  C1  UNL d   1       1.366  -0.935  -0.516  0.00  0.00     0.062 A 
ATOM      3  C2  UNL d   1       0.525  -0.294  -1.420  0.00  0.00     0.162 A 
ATOM      4  C3  UNL d   1      -0.493   0.543  -0.963  0.00  0.00    -0.034 A 
ATOM      5  C4  UNL d   1      -0.658   0.726   0.411  0.00  0.00     0.162 A 
ATOM      6  C5  UNL d   1       0.186   0.082   1.311  0.00  0.00     0.062 A 
ATOM      7  F   UNL d   1       0.021   0.265   2.629  0.00  0.00    -0.097 F 
ATOM      8  F1  UNL d   1      -1.626   1.523   0.886  0.00  0.00    -0.096 F 
ATOM      9  I   UNL d   1      -1.754   1.504  -2.311  0.00  0.00    -0.060 I 
ATOM     10  F2  UNL d   1       0.711  -0.494  -2.734  0.00  0.00    -0.096 F 
ATOM     11  F3  UNL d   1       2.342  -1.738  -0.966  0.00  0.00    -0.097 F 
ATOM     12  F4  UNL d   1       2.008  -1.367   1.716  0.00  0.00    -0.092 F 
ENDROOT
TORSDOF 0
ENDMDL
