MODEL 1
REMARK minimizedAffinity -2.11314511
REMARK minimizedRMSD -1
REMARK  0 active torsions:
REMARK  status: ('A' for Active; 'I' for Inactive)
ROOT
ATOM      1  C   UNL d   1       0.039  -0.142  -1.947  0.00  0.00     0.124 A 
ATOM      2  C1  UNL d   1      -0.751   0.484  -0.993  0.00  0.00     0.062 A 
ATOM      3  C2  UNL d   1      -0.453   0.349   0.360  0.00  0.00     0.162 A 
ATOM      4  C3  UNL d   1       0.641  -0.414   0.767  0.00  0.00    -0.034 A 
ATOM      5  C4  UNL d   1       1.430  -1.042  -0.198  0.00  0.00     0.162 A 
ATOM      6  C5  UNL d   1       1.128  -0.904  -1.549  0.00  0.00     0.062 A 
ATOM      7  F   UNL d   1       1.893  -1.510  -2.469  0.00  0.00    -0.097 F 
ATOM      8  F1  UNL d   1       2.489  -1.784   0.159  0.00  0.00    -0.096 F 
ATOM      9  I   UNL d   1       1.089  -0.618   2.790  0.00  0.00    -0.060 I 
ATOM     10  F2  UNL d   1      -1.234   0.966   1.260  0.00  0.00    -0.096 F 
ATOM     11  F3  UNL d   1      -1.804   1.220  -1.375  0.00  0.00    -0.097 F 
ATOM     12  F4  UNL d   1      -0.250  -0.012  -3.248  0.00  0.00    -0.092 F 
ENDROOT
TORSDOF 0
ENDMDL
