MODEL 1
REMARK minimizedAffinity -0.621428609
REMARK minimizedRMSD -1
REMARK  0 active torsions:
REMARK  status: ('A' for Active; 'I' for Inactive)
ROOT
ATOM      1  C   UNL d   1      -0.152   0.399  -2.053  0.00  0.00     0.124 A 
ATOM      2  C1  UNL d   1       0.658  -0.702  -1.812  0.00  0.00     0.062 A 
ATOM      3  C2  UNL d   1       1.017  -1.035  -0.509  0.00  0.00     0.162 A 
ATOM      4  C3  UNL d   1       0.564  -0.268   0.564  0.00  0.00    -0.034 A 
ATOM      5  C4  UNL d   1      -0.250   0.838   0.314  0.00  0.00     0.162 A 
ATOM      6  C5  UNL d   1      -0.606   1.168  -0.990  0.00  0.00     0.062 A 
ATOM      7  F   UNL d   1      -1.389   2.232  -1.220  0.00  0.00    -0.097 F 
ATOM      8  F1  UNL d   1      -0.703   1.598   1.323  0.00  0.00    -0.096 F 
ATOM      9  I   UNL d   1       1.098  -0.764   2.514  0.00  0.00    -0.060 I 
ATOM     10  F2  UNL d   1       1.801  -2.105  -0.306  0.00  0.00    -0.096 F 
ATOM     11  F3  UNL d   1       1.098  -1.445  -2.837  0.00  0.00    -0.097 F 
ATOM     12  F4  UNL d   1      -0.495   0.719  -3.307  0.00  0.00    -0.092 F 
ENDROOT
TORSDOF 0
ENDMDL
