MODEL 1
REMARK minimizedAffinity 7.01163435
REMARK minimizedRMSD -1
REMARK  0 active torsions:
REMARK  status: ('A' for Active; 'I' for Inactive)
ROOT
ATOM      1  C   UNL d   1      -1.237   0.329  -0.820  0.00  0.00     0.124 A 
ATOM      2  C1  UNL d   1      -1.728  -0.392   0.260  0.00  0.00     0.062 A 
ATOM      3  C2  UNL d   1      -0.863  -0.842   1.253  0.00  0.00     0.162 A 
ATOM      4  C3  UNL d   1       0.503  -0.572   1.171  0.00  0.00    -0.034 A 
ATOM      5  C4  UNL d   1       0.990   0.152   0.082  0.00  0.00     0.162 A 
ATOM      6  C5  UNL d   1       0.121   0.600  -0.908  0.00  0.00     0.062 A 
ATOM      7  F   UNL d   1       0.598   1.296  -1.951  0.00  0.00    -0.097 F 
ATOM      8  F1  UNL d   1       2.298   0.430  -0.028  0.00  0.00    -0.096 F 
ATOM      9  I   UNL d   1       1.800  -1.243   2.654  0.00  0.00    -0.060 I 
ATOM     10  F2  UNL d   1      -1.365  -1.535   2.285  0.00  0.00    -0.096 F 
ATOM     11  F3  UNL d   1      -3.040  -0.656   0.347  0.00  0.00    -0.097 F 
ATOM     12  F4  UNL d   1      -2.072   0.760  -1.775  0.00  0.00    -0.092 F 
ENDROOT
TORSDOF 0
ENDMDL
