MODEL 1
REMARK minimizedAffinity 1.04942763
REMARK minimizedRMSD -1
REMARK  0 active torsions:
REMARK  status: ('A' for Active; 'I' for Inactive)
ROOT
ATOM      1  C   UNL d   1      -1.014  -0.175  -0.460  0.00  0.00     0.124 A 
ATOM      2  C1  UNL d   1      -1.528  -0.247   0.827  0.00  0.00     0.062 A 
ATOM      3  C2  UNL d   1      -0.674  -0.426   1.913  0.00  0.00     0.162 A 
ATOM      4  C3  UNL d   1       0.703  -0.531   1.715  0.00  0.00    -0.034 A 
ATOM      5  C4  UNL d   1       1.212  -0.458   0.417  0.00  0.00     0.162 A 
ATOM      6  C5  UNL d   1       0.355  -0.280  -0.664  0.00  0.00     0.062 A 
ATOM      7  F   UNL d   1       0.853  -0.210  -1.907  0.00  0.00    -0.097 F 
ATOM      8  F1  UNL d   1       2.530  -0.557   0.192  0.00  0.00    -0.096 F 
ATOM      9  I   UNL d   1       1.982  -0.798   3.335  0.00  0.00    -0.060 I 
ATOM     10  F2  UNL d   1      -1.198  -0.492   3.145  0.00  0.00    -0.096 F 
ATOM     11  F3  UNL d   1      -2.850  -0.146   1.027  0.00  0.00    -0.097 F 
ATOM     12  F4  UNL d   1      -1.837  -0.004  -1.502  0.00  0.00    -0.092 F 
ENDROOT
TORSDOF 0
ENDMDL
