MODEL 1
REMARK minimizedAffinity 9.4788084
REMARK minimizedRMSD -1
REMARK  1 active torsions:
REMARK  status: ('A' for Active; 'I' for Inactive)
REMARK    1  A    between atoms: C1_2  and  C2_3 
ROOT
ATOM      1  C2  UNL d   1       2.004  -4.655   4.629  0.00  0.00    -0.077 A 
ATOM      2  C3  UNL d   1       2.752  -4.558   3.447  0.00  0.00     0.002 A 
ATOM      3  C4  UNL d   1       3.049  -3.308   2.899  0.00  0.00     0.002 A 
ATOM      4  C5  UNL d   1       2.606  -2.147   3.529  0.00  0.00    -0.004 A 
ATOM      5  C6  UNL d   1       1.860  -2.233   4.704  0.00  0.00     0.002 A 
ATOM      6  C7  UNL d   1       1.561  -3.481   5.252  0.00  0.00     0.002 A 
ENDROOT
BRANCH   1   7
ATOM      7  C1  UNL d   1       1.725  -5.999   5.247  0.00  0.00     0.055 C 
ATOM      8  C   UNL d   1       0.400  -6.000   5.996  0.00  0.00     0.019 C 
ENDBRANCH   1   7
TORSDOF 1
ENDMDL
