MODEL 1
REMARK minimizedAffinity 5.21260452
REMARK minimizedRMSD -1
REMARK  1 active torsions:
REMARK  status: ('A' for Active; 'I' for Inactive)
REMARK    1  A    between atoms: C1_2  and  C2_3 
ROOT
ATOM      1  C2  UNL d   1       4.254  -1.746   4.172  0.00  0.00    -0.077 A 
ATOM      2  C3  UNL d   1       3.353  -2.627   4.787  0.00  0.00     0.002 A 
ATOM      3  C4  UNL d   1       1.989  -2.562   4.493  0.00  0.00     0.002 A 
ATOM      4  C5  UNL d   1       1.516  -1.621   3.581  0.00  0.00    -0.004 A 
ATOM      5  C6  UNL d   1       2.403  -0.740   2.965  0.00  0.00     0.002 A 
ATOM      6  C7  UNL d   1       3.766  -0.803   3.259  0.00  0.00     0.002 A 
ENDROOT
BRANCH   1   7
ATOM      7  C1  UNL d   1       5.731  -1.847   4.451  0.00  0.00     0.055 C 
ATOM      8  C   UNL d   1       5.999  -2.113   5.925  0.00  0.00     0.019 C 
ENDBRANCH   1   7
TORSDOF 1
ENDMDL
