MODEL 1
REMARK minimizedAffinity -2.37486291
REMARK minimizedRMSD -1
REMARK  1 active torsions:
REMARK  status: ('A' for Active; 'I' for Inactive)
REMARK    1  A    between atoms: C1_2  and  C2_3 
ROOT
ATOM      1  C2  UNL d   1       4.418  -2.011   3.817  0.00  0.00    -0.077 A 
ATOM      2  C3  UNL d   1       4.207  -0.995   2.873  0.00  0.00     0.002 A 
ATOM      3  C4  UNL d   1       2.949  -0.823   2.291  0.00  0.00     0.002 A 
ATOM      4  C5  UNL d   1       1.893  -1.658   2.648  0.00  0.00    -0.004 A 
ATOM      5  C6  UNL d   1       2.094  -2.672   3.584  0.00  0.00     0.002 A 
ATOM      6  C7  UNL d   1       3.350  -2.847   4.166  0.00  0.00     0.002 A 
ENDROOT
BRANCH   1   7
ATOM      7  C1  UNL d   1       5.760  -2.167   4.482  0.00  0.00     0.055 C 
ATOM      8  C   UNL d   1       5.636  -2.112   5.998  0.00  0.00     0.019 C 
ENDBRANCH   1   7
TORSDOF 1
ENDMDL
