MODEL 1
REMARK minimizedAffinity 7.3578639
REMARK minimizedRMSD -1
REMARK  1 active torsions:
REMARK  status: ('A' for Active; 'I' for Inactive)
REMARK    1  A    between atoms: C1_2  and  C2_3 
ROOT
ATOM      1  C2  UNL d   1       3.835  -2.467   4.901  0.00  0.00    -0.077 A 
ATOM      2  C3  UNL d   1       3.704  -1.128   4.506  0.00  0.00     0.002 A 
ATOM      3  C4  UNL d   1       2.734  -0.759   3.571  0.00  0.00     0.002 A 
ATOM      4  C5  UNL d   1       1.887  -1.722   3.028  0.00  0.00    -0.004 A 
ATOM      5  C6  UNL d   1       2.011  -3.056   3.412  0.00  0.00     0.002 A 
ATOM      6  C7  UNL d   1       2.980  -3.427   4.346  0.00  0.00     0.002 A 
ENDROOT
BRANCH   1   7
ATOM      7  C1  UNL d   1       4.848  -2.859   5.946  0.00  0.00     0.055 C 
ATOM      8  C   UNL d   1       6.000  -1.866   6.000  0.00  0.00     0.019 C 
ENDBRANCH   1   7
TORSDOF 1
ENDMDL
