MODEL 1
REMARK minimizedAffinity 1.03780282
REMARK minimizedRMSD -1
REMARK  1 active torsions:
REMARK  status: ('A' for Active; 'I' for Inactive)
REMARK    1  A    between atoms: C1_2  and  C2_3 
ROOT
ATOM      1  C2  UNL d   1       2.639  -1.743   3.749  0.00  0.00    -0.077 A 
ATOM      2  C3  UNL d   1       4.038  -1.835   3.753  0.00  0.00     0.002 A 
ATOM      3  C4  UNL d   1       4.710  -2.330   4.872  0.00  0.00     0.002 A 
ATOM      4  C5  UNL d   1       3.992  -2.741   5.993  0.00  0.00    -0.004 A 
ATOM      5  C6  UNL d   1       2.601  -2.652   6.000  0.00  0.00     0.002 A 
ATOM      6  C7  UNL d   1       1.927  -2.157   4.883  0.00  0.00     0.002 A 
ENDROOT
BRANCH   1   7
ATOM      7  C1  UNL d   1       1.909  -1.256   2.525  0.00  0.00     0.055 C 
ATOM      8  C   UNL d   1       2.337   0.156   2.151  0.00  0.00     0.019 C 
ENDBRANCH   1   7
TORSDOF 1
ENDMDL
