MODEL 1
REMARK minimizedAffinity 10.2027464
REMARK minimizedRMSD -1
REMARK  1 active torsions:
REMARK  status: ('A' for Active; 'I' for Inactive)
REMARK    1  A    between atoms: C1_2  and  C2_3 
ROOT
ATOM      1  C2  UNL d   1       3.324  -2.239   4.209  0.00  0.00    -0.077 A 
ATOM      2  C3  UNL d   1       3.609  -2.419   5.570  0.00  0.00     0.002 A 
ATOM      3  C4  UNL d   1       4.927  -2.587   6.000  0.00  0.00     0.002 A 
ATOM      4  C5  UNL d   1       5.970  -2.572   5.076  0.00  0.00    -0.004 A 
ATOM      5  C6  UNL d   1       5.697  -2.395   3.720  0.00  0.00     0.002 A 
ATOM      6  C7  UNL d   1       4.380  -2.228   3.289  0.00  0.00     0.002 A 
ENDROOT
BRANCH   1   7
ATOM      7  C1  UNL d   1       1.908  -2.008   3.750  0.00  0.00     0.055 C 
ATOM      8  C   UNL d   1       1.847  -0.957   2.650  0.00  0.00     0.019 C 
ENDBRANCH   1   7
TORSDOF 1
ENDMDL
