MODEL 1
REMARK minimizedAffinity 6.48176384
REMARK minimizedRMSD -1
REMARK  1 active torsions:
REMARK  status: ('A' for Active; 'I' for Inactive)
REMARK    1  A    between atoms: C1_2  and  C2_3 
ROOT
ATOM      1  C2  UNL d   1       2.865  -3.259   3.606  0.00  0.00    -0.077 A 
ATOM      2  C3  UNL d   1       2.417  -1.975   3.944  0.00  0.00     0.002 A 
ATOM      3  C4  UNL d   1       1.738  -1.194   3.006  0.00  0.00     0.002 A 
ATOM      4  C5  UNL d   1       1.498  -1.691   1.727  0.00  0.00    -0.004 A 
ATOM      5  C6  UNL d   1       1.941  -2.966   1.380  0.00  0.00     0.002 A 
ATOM      6  C7  UNL d   1       2.621  -3.747   2.316  0.00  0.00     0.002 A 
ENDROOT
BRANCH   1   7
ATOM      7  C1  UNL d   1       3.554  -4.122   4.631  0.00  0.00     0.055 C 
ATOM      8  C   UNL d   1       2.592  -4.550   5.730  0.00  0.00     0.019 C 
ENDBRANCH   1   7
TORSDOF 1
ENDMDL
