MODEL 1
REMARK minimizedAffinity 4.6492095
REMARK minimizedRMSD -1
REMARK  0 active torsions:
REMARK  status: ('A' for Active; 'I' for Inactive)
ROOT
ATOM      1  C   UNL d   1       4.370  -3.193  -4.005  0.00  0.00     0.020 A 
ATOM      2  C1  UNL d   1       4.688  -4.550  -3.989  0.00  0.00     0.020 A 
ATOM      3  C2  UNL d   1       4.960  -5.189  -2.777  0.00  0.00     0.034 A 
ATOM      4  C3  UNL d   1       4.913  -4.470  -1.577  0.00  0.00     0.017 A 
ATOM      5  C4  UNL d   1       4.593  -3.108  -1.594  0.00  0.00     0.017 A 
ATOM      6  C5  UNL d   1       4.322  -2.473  -2.811  0.00  0.00     0.034 A 
ATOM      7 Cl   UNL d   1       4.516  -2.155  -0.155  0.00  0.00    -0.070 Cl
ATOM      8 Cl1  UNL d   1       5.260  -5.324  -0.115  0.00  0.00    -0.070 Cl
ENDROOT
TORSDOF 0
ENDMDL
