MODEL 1
REMARK minimizedAffinity -0.452109724
REMARK minimizedRMSD -1
REMARK  0 active torsions:
REMARK  status: ('A' for Active; 'I' for Inactive)
ROOT
ATOM      1  C   UNL d   1      -5.901   1.512  -2.551  0.00  0.00     0.020 A 
ATOM      2  C1  UNL d   1      -5.668   2.507  -1.602  0.00  0.00     0.020 A 
ATOM      3  C2  UNL d   1      -5.534   3.837  -2.005  0.00  0.00     0.034 A 
ATOM      4  C3  UNL d   1      -5.632   4.176  -3.359  0.00  0.00     0.017 A 
ATOM      5  C4  UNL d   1      -5.866   3.176  -4.311  0.00  0.00     0.017 A 
ATOM      6  C5  UNL d   1      -6.000   1.846  -3.902  0.00  0.00     0.034 A 
ATOM      7 Cl   UNL d   1      -6.000   3.517  -6.000  0.00  0.00    -0.070 Cl
ATOM      8 Cl1  UNL d   1      -5.456   5.841  -3.786  0.00  0.00    -0.070 Cl
ENDROOT
TORSDOF 0
ENDMDL
