MODEL 1
REMARK minimizedAffinity -0.442220777
REMARK minimizedRMSD -1
REMARK  0 active torsions:
REMARK  status: ('A' for Active; 'I' for Inactive)
ROOT
ATOM      1  C   UNL d   1      -4.998   5.079  -5.837  0.00  0.00     0.020 A 
ATOM      2  C1  UNL d   1      -5.994   5.248  -4.877  0.00  0.00     0.020 A 
ATOM      3  C2  UNL d   1      -5.999   4.455  -3.728  0.00  0.00     0.034 A 
ATOM      4  C3  UNL d   1      -5.005   3.488  -3.537  0.00  0.00     0.017 A 
ATOM      5  C4  UNL d   1      -4.006   3.318  -4.501  0.00  0.00     0.017 A 
ATOM      6  C5  UNL d   1      -4.006   4.116  -5.650  0.00  0.00     0.034 A 
ATOM      7 Cl   UNL d   1      -2.746   2.146  -4.335  0.00  0.00    -0.070 Cl
ATOM      8 Cl1  UNL d   1      -5.073   2.542  -2.092  0.00  0.00    -0.070 Cl
ENDROOT
TORSDOF 0
ENDMDL
