MODEL 1
REMARK minimizedAffinity 10.701251
REMARK minimizedRMSD -1
REMARK  0 active torsions:
REMARK  status: ('A' for Active; 'I' for Inactive)
ROOT
ATOM      1  C   UNL d   1      -1.530   5.581  -0.054  0.00  0.00     0.020 A 
ATOM      2  C1  UNL d   1      -2.400   5.578   1.036  0.00  0.00     0.020 A 
ATOM      3  C2  UNL d   1      -2.435   4.479   1.897  0.00  0.00     0.034 A 
ATOM      4  C3  UNL d   1      -1.600   3.379   1.670  0.00  0.00     0.017 A 
ATOM      5  C4  UNL d   1      -0.727   3.384   0.576  0.00  0.00     0.017 A 
ATOM      6  C5  UNL d   1      -0.695   4.486  -0.283  0.00  0.00     0.034 A 
ATOM      7 Cl   UNL d   1       0.334   2.064   0.232  0.00  0.00    -0.070 Cl
ATOM      8 Cl1  UNL d   1      -1.697   2.055   2.776  0.00  0.00    -0.070 Cl
ENDROOT
TORSDOF 0
ENDMDL
