MODEL 1
REMARK minimizedAffinity 3.35317254
REMARK minimizedRMSD -1
REMARK  0 active torsions:
REMARK  status: ('A' for Active; 'I' for Inactive)
ROOT
ATOM      1  C   UNL d   1      -5.740   3.885  -5.819  0.00  0.00     0.020 A 
ATOM      2  C1  UNL d   1      -4.728   4.827  -6.000  0.00  0.00     0.020 A 
ATOM      3  C2  UNL d   1      -3.975   5.261  -4.906  0.00  0.00     0.034 A 
ATOM      4  C3  UNL d   1      -4.233   4.754  -3.628  0.00  0.00     0.017 A 
ATOM      5  C4  UNL d   1      -5.249   3.808  -3.447  0.00  0.00     0.017 A 
ATOM      6  C5  UNL d   1      -6.000   3.376  -4.545  0.00  0.00     0.034 A 
ATOM      7 Cl   UNL d   1      -5.626   3.136  -1.900  0.00  0.00    -0.070 Cl
ATOM      8 Cl1  UNL d   1      -3.263   5.336  -2.322  0.00  0.00    -0.070 Cl
ENDROOT
TORSDOF 0
ENDMDL
