MODEL 1
REMARK minimizedAffinity -3.3697443
REMARK minimizedRMSD -1
REMARK  0 active torsions:
REMARK  status: ('A' for Active; 'I' for Inactive)
ROOT
ATOM      1  C   UNL d   1      -4.669   3.739  -5.576  0.00  0.00     0.020 A 
ATOM      2  C1  UNL d   1      -5.601   4.756  -5.373  0.00  0.00     0.020 A 
ATOM      3  C2  UNL d   1      -5.998   5.090  -4.076  0.00  0.00     0.034 A 
ATOM      4  C3  UNL d   1      -5.463   4.407  -2.978  0.00  0.00     0.017 A 
ATOM      5  C4  UNL d   1      -4.528   3.386  -3.183  0.00  0.00     0.017 A 
ATOM      6  C5  UNL d   1      -4.133   3.056  -4.483  0.00  0.00     0.034 A 
ATOM      7 Cl   UNL d   1      -3.823   2.499  -1.878  0.00  0.00    -0.070 Cl
ATOM      8 Cl1  UNL d   1      -6.000   4.873  -1.403  0.00  0.00    -0.070 Cl
ENDROOT
TORSDOF 0
ENDMDL
