MODEL 1
REMARK minimizedAffinity -0.810717762
REMARK minimizedRMSD -1
REMARK  0 active torsions:
REMARK  status: ('A' for Active; 'I' for Inactive)
ROOT
ATOM      1  C   UNL d   1      -4.579   2.288  -2.130  0.00  0.00     0.020 A 
ATOM      2  C1  UNL d   1      -5.089   3.416  -1.488  0.00  0.00     0.020 A 
ATOM      3  C2  UNL d   1      -5.522   4.510  -2.239  0.00  0.00     0.034 A 
ATOM      4  C3  UNL d   1      -5.446   4.480  -3.636  0.00  0.00     0.017 A 
ATOM      5  C4  UNL d   1      -4.935   3.347  -4.280  0.00  0.00     0.017 A 
ATOM      6  C5  UNL d   1      -4.502   2.253  -3.523  0.00  0.00     0.034 A 
ATOM      7 Cl   UNL d   1      -4.810   3.235  -6.000  0.00  0.00    -0.070 Cl
ATOM      8 Cl1  UNL d   1      -6.000   5.869  -4.502  0.00  0.00    -0.070 Cl
ENDROOT
TORSDOF 0
ENDMDL
