MODEL 1
REMARK minimizedAffinity -0.775758088
REMARK minimizedRMSD -1
REMARK  0 active torsions:
REMARK  status: ('A' for Active; 'I' for Inactive)
ROOT
ATOM      1  C   UNL d   1      -4.860   3.662  -4.094  0.00  0.00     0.020 A 
ATOM      2  C1  UNL d   1      -5.816   2.647  -4.082  0.00  0.00     0.020 A 
ATOM      3  C2  UNL d   1      -5.528   1.409  -4.659  0.00  0.00     0.034 A 
ATOM      4  C3  UNL d   1      -4.280   1.181  -5.250  0.00  0.00     0.017 A 
ATOM      5  C4  UNL d   1      -3.320   2.200  -5.261  0.00  0.00     0.017 A 
ATOM      6  C5  UNL d   1      -3.614   3.438  -4.682  0.00  0.00     0.034 A 
ATOM      7 Cl   UNL d   1      -1.758   1.994  -5.971  0.00  0.00    -0.070 Cl
ATOM      8 Cl1  UNL d   1      -3.991  -0.374  -5.944  0.00  0.00    -0.070 Cl
ENDROOT
TORSDOF 0
ENDMDL
