MODEL 1
REMARK minimizedAffinity -0.0356777981
REMARK minimizedRMSD -1
REMARK  0 active torsions:
REMARK  status: ('A' for Active; 'I' for Inactive)
ROOT
ATOM      1  C   UNL d   1       0.850  -2.055   0.159  0.00  0.00     0.172 C 
ATOM      2  N   UNL d   1      -0.216  -2.788  -0.482  0.00  0.00    -0.070 N 
ATOM      3  C1  UNL d   1      -0.077  -3.969  -1.161  0.00  0.00    -0.004 A 
ATOM      4  C2  UNL d   1      -1.322  -4.341  -1.621  0.00  0.00    -0.047 A 
ATOM      5  C3  UNL d   1      -2.241  -3.348  -1.205  0.00  0.00    -0.047 A 
ATOM      6  C4  UNL d   1      -1.529  -2.399  -0.502  0.00  0.00    -0.004 A 
ENDROOT
TORSDOF 0
ENDMDL
