MODEL 1
REMARK minimizedAffinity 6.62799644
REMARK minimizedRMSD -1
REMARK  0 active torsions:
REMARK  status: ('A' for Active; 'I' for Inactive)
ROOT
ATOM      1  C   UNL d   1      -4.131  -1.558  -1.670  0.00  0.00     0.172 C 
ATOM      2  N   UNL d   1      -2.946  -2.150  -1.096  0.00  0.00    -0.070 N 
ATOM      3  C1  UNL d   1      -2.322  -3.283  -1.544  0.00  0.00    -0.004 A 
ATOM      4  C2  UNL d   1      -1.233  -3.515  -0.733  0.00  0.00    -0.047 A 
ATOM      5  C3  UNL d   1      -1.202  -2.486   0.238  0.00  0.00    -0.047 A 
ATOM      6  C4  UNL d   1      -2.273  -1.655  -0.010  0.00  0.00    -0.004 A 
ENDROOT
TORSDOF 0
ENDMDL
