MODEL 1
REMARK minimizedAffinity 4.82986736
REMARK minimizedRMSD -1
REMARK  0 active torsions:
REMARK  status: ('A' for Active; 'I' for Inactive)
ROOT
ATOM      1  C   UNL d   1       4.289   5.069   2.866  0.00  0.00     0.172 C 
ATOM      2  N   UNL d   1       3.844   3.753   2.471  0.00  0.00    -0.070 N 
ATOM      3  C1  UNL d   1       2.541   3.372   2.290  0.00  0.00    -0.004 A 
ATOM      4  C2  UNL d   1       2.537   2.046   1.916  0.00  0.00    -0.047 A 
ATOM      5  C3  UNL d   1       3.884   1.614   1.872  0.00  0.00    -0.047 A 
ATOM      6  C4  UNL d   1       4.672   2.691   2.220  0.00  0.00    -0.004 A 
ENDROOT
TORSDOF 0
ENDMDL
