MODEL 1
REMARK minimizedAffinity 2.12078857
REMARK minimizedRMSD -1
REMARK  0 active torsions:
REMARK  status: ('A' for Active; 'I' for Inactive)
ROOT
ATOM      1  C   UNL d   1       1.981   1.585   1.512  0.00  0.00     0.172 C 
ATOM      2  N   UNL d   1       3.002   2.473   2.015  0.00  0.00    -0.070 N 
ATOM      3  C1  UNL d   1       4.343   2.199   2.068  0.00  0.00    -0.004 A 
ATOM      4  C2  UNL d   1       4.977   3.296   2.610  0.00  0.00    -0.047 A 
ATOM      5  C3  UNL d   1       3.983   4.263   2.893  0.00  0.00    -0.047 A 
ATOM      6  C4  UNL d   1       2.770   3.727   2.515  0.00  0.00    -0.004 A 
ENDROOT
TORSDOF 0
ENDMDL
