MODEL 1
REMARK minimizedAffinity 3.56037831
REMARK minimizedRMSD -1
REMARK  0 active torsions:
REMARK  status: ('A' for Active; 'I' for Inactive)
ROOT
ATOM      1  C   UNL d   1       0.689  -2.812  -0.006  0.00  0.00     0.172 C 
ATOM      2  N   UNL d   1       1.567  -1.682  -0.200  0.00  0.00    -0.070 N 
ATOM      3  C1  UNL d   1       2.572  -1.602  -1.127  0.00  0.00    -0.004 A 
ATOM      4  C2  UNL d   1       3.172  -0.368  -0.993  0.00  0.00    -0.047 A 
ATOM      5  C3  UNL d   1       2.504   0.317   0.050  0.00  0.00    -0.047 A 
ATOM      6  C4  UNL d   1       1.515  -0.519   0.523  0.00  0.00    -0.004 A 
ENDROOT
TORSDOF 0
ENDMDL
