MODEL 1
REMARK minimizedAffinity 1.8313818
REMARK minimizedRMSD -1
REMARK  0 active torsions:
REMARK  status: ('A' for Active; 'I' for Inactive)
ROOT
ATOM      1  C   UNL d   1      -2.993  -1.780   1.366  0.00  0.00     0.172 C 
ATOM      2  N   UNL d   1      -2.139  -2.540   0.484  0.00  0.00    -0.070 N 
ATOM      3  C1  UNL d   1      -0.774  -2.619   0.568  0.00  0.00    -0.004 A 
ATOM      4  C2  UNL d   1      -0.336  -3.439  -0.449  0.00  0.00    -0.047 A 
ATOM      5  C3  UNL d   1      -1.477  -3.867  -1.169  0.00  0.00    -0.047 A 
ATOM      6  C4  UNL d   1      -2.579  -3.296  -0.570  0.00  0.00    -0.004 A 
ENDROOT
TORSDOF 0
ENDMDL
