MODEL 1
REMARK minimizedAffinity 4.80436897
REMARK minimizedRMSD -1
REMARK  0 active torsions:
REMARK  status: ('A' for Active; 'I' for Inactive)
ROOT
ATOM      1  C   UNL d   1      -5.263   3.332  -3.680  0.00  0.00     0.172 C 
ATOM      2  N   UNL d   1      -5.444   2.515  -2.503  0.00  0.00    -0.070 N 
ATOM      3  C1  UNL d   1      -5.100   2.869  -1.226  0.00  0.00    -0.004 A 
ATOM      4  C2  UNL d   1      -5.433   1.822  -0.394  0.00  0.00    -0.047 A 
ATOM      5  C3  UNL d   1      -5.996   0.803  -1.199  0.00  0.00    -0.047 A 
ATOM      6  C4  UNL d   1      -5.991   1.259  -2.501  0.00  0.00    -0.004 A 
ENDROOT
TORSDOF 0
ENDMDL
