MODEL 1
REMARK minimizedAffinity 1.70709765
REMARK minimizedRMSD -1
REMARK  0 active torsions:
REMARK  status: ('A' for Active; 'I' for Inactive)
ROOT
ATOM      1  C   UNL d   1      -4.124  -6.000   0.053  0.00  0.00     0.172 C 
ATOM      2  N   UNL d   1      -2.924  -5.357  -0.426  0.00  0.00    -0.070 N 
ATOM      3  C1  UNL d   1      -2.789  -4.022  -0.703  0.00  0.00    -0.004 A 
ATOM      4  C2  UNL d   1      -1.497  -3.809  -1.134  0.00  0.00    -0.047 A 
ATOM      5  C3  UNL d   1      -0.833  -5.059  -1.116  0.00  0.00    -0.047 A 
ATOM      6  C4  UNL d   1      -1.739  -5.999  -0.674  0.00  0.00    -0.004 A 
ENDROOT
TORSDOF 0
ENDMDL
