MODEL 1
REMARK minimizedAffinity 4.66913939
REMARK minimizedRMSD -1
REMARK  0 active torsions:
REMARK  status: ('A' for Active; 'I' for Inactive)
ROOT
ATOM      1  C   UNL d   1      -2.691  -3.185  -1.578  0.00  0.00     0.172 C 
ATOM      2  N   UNL d   1      -1.612  -4.143  -1.609  0.00  0.00    -0.070 N 
ATOM      3  C1  UNL d   1      -0.382  -3.979  -1.029  0.00  0.00    -0.004 A 
ATOM      4  C2  UNL d   1       0.359  -5.113  -1.283  0.00  0.00    -0.047 A 
ATOM      5  C3  UNL d   1      -0.454  -5.989  -2.041  0.00  0.00    -0.047 A 
ATOM      6  C4  UNL d   1      -1.668  -5.363  -2.228  0.00  0.00    -0.004 A 
ENDROOT
TORSDOF 0
ENDMDL
