MODEL 1
REMARK minimizedAffinity 6.38060093
REMARK minimizedRMSD -1
REMARK  0 active torsions:
REMARK  status: ('A' for Active; 'I' for Inactive)
ROOT
ATOM      1  C   UNL d   1      -3.750  -0.137   0.378  0.00  0.00     0.172 C 
ATOM      2  N   UNL d   1      -4.477   0.916  -0.291  0.00  0.00    -0.070 N 
ATOM      3  C1  UNL d   1      -5.619   0.753  -1.029  0.00  0.00    -0.004 A 
ATOM      4  C2  UNL d   1      -6.000   1.992  -1.496  0.00  0.00    -0.047 A 
ATOM      5  C3  UNL d   1      -5.054   2.932  -1.024  0.00  0.00    -0.047 A 
ATOM      6  C4  UNL d   1      -4.122   2.239  -0.280  0.00  0.00    -0.004 A 
ENDROOT
TORSDOF 0
ENDMDL
