MODEL 1
REMARK minimizedAffinity 3.42112851
REMARK minimizedRMSD -1
REMARK  0 active torsions:
REMARK  status: ('A' for Active; 'I' for Inactive)
ROOT
ATOM      1  C   UNL d   1      -5.211  -2.830   3.312  0.00  0.00     0.172 C 
ATOM      2  N   UNL d   1      -4.131  -2.009   2.816  0.00  0.00    -0.070 N 
ATOM      3  C1  UNL d   1      -2.938  -1.790   3.451  0.00  0.00    -0.004 A 
ATOM      4  C2  UNL d   1      -2.183  -0.956   2.655  0.00  0.00    -0.047 A 
ATOM      5  C3  UNL d   1      -2.950  -0.663   1.502  0.00  0.00    -0.047 A 
ATOM      6  C4  UNL d   1      -4.151  -1.328   1.628  0.00  0.00    -0.004 A 
ENDROOT
TORSDOF 0
ENDMDL
