MODEL 1
REMARK minimizedAffinity 0.484911561
REMARK minimizedRMSD -1
REMARK  0 active torsions:
REMARK  status: ('A' for Active; 'I' for Inactive)
ROOT
ATOM      1  C   UNL d   1       2.997   1.032  -3.288  0.00  0.00     0.172 C 
ATOM      2  N   UNL d   1       2.133   1.545  -4.324  0.00  0.00    -0.070 N 
ATOM      3  C1  UNL d   1       0.898   1.052  -4.651  0.00  0.00    -0.004 A 
ATOM      4  C2  UNL d   1       0.400   1.814  -5.686  0.00  0.00    -0.047 A 
ATOM      5  C3  UNL d   1       1.369   2.798  -5.992  0.00  0.00    -0.047 A 
ATOM      6  C4  UNL d   1       2.432   2.609  -5.134  0.00  0.00    -0.004 A 
ENDROOT
TORSDOF 0
ENDMDL
