MODEL 1
REMARK minimizedAffinity 1.69248724
REMARK minimizedRMSD -1
REMARK  0 active torsions:
REMARK  status: ('A' for Active; 'I' for Inactive)
ROOT
ATOM      1  C   UNL d   1       1.696  -2.221   0.382  0.00  0.00     0.172 C 
ATOM      2  N   UNL d   1       0.385  -2.662  -0.033  0.00  0.00    -0.070 N 
ATOM      3  C1  UNL d   1       0.114  -3.802  -0.741  0.00  0.00    -0.004 A 
ATOM      4  C2  UNL d   1      -1.249  -3.863  -0.937  0.00  0.00    -0.047 A 
ATOM      5  C3  UNL d   1      -1.816  -2.719  -0.326  0.00  0.00    -0.047 A 
ATOM      6  C4  UNL d   1      -0.782  -1.993   0.226  0.00  0.00    -0.004 A 
ENDROOT
TORSDOF 0
ENDMDL
