MODEL 1
REMARK minimizedAffinity 6.68860722
REMARK minimizedRMSD -1
REMARK  0 active torsions:
REMARK  status: ('A' for Active; 'I' for Inactive)
ROOT
ATOM      1  C   UNL d   1      -0.387  -3.037   0.509  0.00  0.00     0.172 C 
ATOM      2  N   UNL d   1      -1.660  -2.912  -0.162  0.00  0.00    -0.070 N 
ATOM      3  C1  UNL d   1      -2.610  -1.962   0.100  0.00  0.00    -0.004 A 
ATOM      4  C2  UNL d   1      -3.673  -2.182  -0.749  0.00  0.00    -0.047 A 
ATOM      5  C3  UNL d   1      -3.350  -3.304  -1.548  0.00  0.00    -0.047 A 
ATOM      6  C4  UNL d   1      -2.099  -3.737  -1.164  0.00  0.00    -0.004 A 
ENDROOT
TORSDOF 0
ENDMDL
