MODEL 1
REMARK minimizedAffinity 5.93067884
REMARK minimizedRMSD -1
REMARK  0 active torsions:
REMARK  status: ('A' for Active; 'I' for Inactive)
ROOT
ATOM      1  C   UNL d   1       4.784   1.874   2.036  0.00  0.00     0.172 C 
ATOM      2  N   UNL d   1       3.641   2.693   2.364  0.00  0.00    -0.070 N 
ATOM      3  C1  UNL d   1       3.663   4.045   2.582  0.00  0.00    -0.004 A 
ATOM      4  C2  UNL d   1       2.376   4.448   2.865  0.00  0.00    -0.047 A 
ATOM      5  C3  UNL d   1       1.552   3.299   2.816  0.00  0.00    -0.047 A 
ATOM      6  C4  UNL d   1       2.361   2.226   2.504  0.00  0.00    -0.004 A 
ENDROOT
TORSDOF 0
ENDMDL
