MODEL 1
REMARK minimizedAffinity 3.56482005
REMARK minimizedRMSD -1
REMARK  0 active torsions:
REMARK  status: ('A' for Active; 'I' for Inactive)
ROOT
ATOM      1  O1  BZF d   1      -5.978  -3.550   2.002  0.00  0.00    -0.204 OA
ATOM      2  C2  BZF d   1      -6.000  -4.244   3.196  0.00  0.00     0.174 A 
ATOM      3  C3  BZF d   1      -5.956  -3.395   4.244  0.00  0.00    -0.012 A 
ATOM      4  C3A BZF d   1      -5.997  -2.086   3.669  0.00  0.00    -0.107 A 
ATOM      5  C4  BZF d   1      -5.997  -0.827   4.199  0.00  0.00     0.055 A 
ATOM      6  C5  BZF d   1      -5.969   0.242   3.361  0.00  0.00    -0.016 A 
ATOM      7  C6  BZF d   1      -5.935   0.090   1.990  0.00  0.00     0.022 A 
ATOM      8  C7  BZF d   1      -5.938  -1.138   1.418  0.00  0.00     0.029 A 
ATOM      9  C7A BZF d   1      -6.000  -2.221   2.261  0.00  0.00     0.058 A 
ENDROOT
TORSDOF 0
ENDMDL
