MODEL 1
REMARK minimizedAffinity 0.0375409462
REMARK minimizedRMSD -1
REMARK  0 active torsions:
REMARK  status: ('A' for Active; 'I' for Inactive)
ROOT
ATOM      1  O1  BZF d   1      -2.148   1.311  -0.472  0.00  0.00    -0.204 OA
ATOM      2  C2  BZF d   1      -1.485   0.368  -1.233  0.00  0.00     0.174 A 
ATOM      3  C3  BZF d   1      -0.378  -0.067  -0.598  0.00  0.00    -0.012 A 
ATOM      4  C3A BZF d   1      -0.396   0.582   0.677  0.00  0.00    -0.107 A 
ATOM      5  C4  BZF d   1       0.431   0.542   1.763  0.00  0.00     0.055 A 
ATOM      6  C5  BZF d   1       0.170   1.352   2.822  0.00  0.00    -0.016 A 
ATOM      7  C6  BZF d   1      -0.905   2.217   2.828  0.00  0.00     0.022 A 
ATOM      8  C7  BZF d   1      -1.757   2.288   1.776  0.00  0.00     0.029 A 
ATOM      9  C7A BZF d   1      -1.514   1.446   0.718  0.00  0.00     0.058 A 
ENDROOT
TORSDOF 0
ENDMDL
