MODEL 1
REMARK minimizedAffinity -2.63368177
REMARK minimizedRMSD -1
REMARK  0 active torsions:
REMARK  status: ('A' for Active; 'I' for Inactive)
ROOT
ATOM      1  O1  BZF d   1       0.217  -0.138  -1.760  0.00  0.00    -0.204 OA
ATOM      2  C2  BZF d   1       0.624  -1.344  -1.223  0.00  0.00     0.174 A 
ATOM      3  C3  BZF d   1       0.446  -1.357   0.113  0.00  0.00    -0.012 A 
ATOM      4  C3A BZF d   1      -0.192  -0.114   0.420  0.00  0.00    -0.107 A 
ATOM      5  C4  BZF d   1      -0.639   0.451   1.580  0.00  0.00     0.055 A 
ATOM      6  C5  BZF d   1      -1.149   1.710   1.548  0.00  0.00    -0.016 A 
ATOM      7  C6  BZF d   1      -1.223   2.434   0.376  0.00  0.00     0.022 A 
ATOM      8  C7  BZF d   1      -0.797   1.914  -0.801  0.00  0.00     0.029 A 
ATOM      9  C7A BZF d   1      -0.311   0.629  -0.777  0.00  0.00     0.058 A 
ENDROOT
TORSDOF 0
ENDMDL
