MODEL 1
REMARK minimizedAffinity -4.90689993
REMARK minimizedRMSD -1
REMARK  0 active torsions:
REMARK  status: ('A' for Active; 'I' for Inactive)
ROOT
ATOM      1  O1  BZF d   1      -0.166   1.822   2.490  0.00  0.00    -0.204 OA
ATOM      2  C2  BZF d   1      -0.908   2.881   2.004  0.00  0.00     0.174 A 
ATOM      3  C3  BZF d   1      -1.164   2.723   0.690  0.00  0.00    -0.012 A 
ATOM      4  C3A BZF d   1      -0.621   1.443   0.352  0.00  0.00    -0.107 A 
ATOM      5  C4  BZF d   1      -0.575   0.718  -0.805  0.00  0.00     0.055 A 
ATOM      6  C5  BZF d   1       0.093  -0.465  -0.817  0.00  0.00    -0.016 A 
ATOM      7  C6  BZF d   1       0.731  -0.950   0.306  0.00  0.00     0.022 A 
ATOM      8  C7  BZF d   1       0.708  -0.269   1.478  0.00  0.00     0.029 A 
ATOM      9  C7A BZF d   1       0.006   0.911   1.502  0.00  0.00     0.058 A 
ENDROOT
TORSDOF 0
ENDMDL
