MODEL 1
REMARK minimizedAffinity -3.81598806
REMARK minimizedRMSD -1
REMARK  0 active torsions:
REMARK  status: ('A' for Active; 'I' for Inactive)
ROOT
ATOM      1  O1  BZF d   1       0.488  -0.908   0.659  0.00  0.00    -0.204 OA
ATOM      2  C2  BZF d   1       0.351  -1.354  -0.642  0.00  0.00     0.174 A 
ATOM      3  C3  BZF d   1      -0.420  -0.510  -1.358  0.00  0.00    -0.012 A 
ATOM      4  C3A BZF d   1      -0.712   0.576  -0.473  0.00  0.00    -0.107 A 
ATOM      5  C4  BZF d   1      -1.424   1.733  -0.610  0.00  0.00     0.055 A 
ATOM      6  C5  BZF d   1      -1.577   2.546   0.468  0.00  0.00    -0.016 A 
ATOM      7  C6  BZF d   1      -1.038   2.230   1.698  0.00  0.00     0.022 A 
ATOM      8  C7  BZF d   1      -0.320   1.095   1.881  0.00  0.00     0.029 A 
ATOM      9  C7A BZF d   1      -0.135   0.288   0.785  0.00  0.00     0.058 A 
ENDROOT
TORSDOF 0
ENDMDL
