MODEL 1
REMARK minimizedAffinity -4.35443115
REMARK minimizedRMSD -1
REMARK  0 active torsions:
REMARK  status: ('A' for Active; 'I' for Inactive)
ROOT
ATOM      1  O1  BZF d   1      -1.055  -0.541  -1.043  0.00  0.00    -0.204 OA
ATOM      2  C2  BZF d   1       0.130  -1.228  -1.216  0.00  0.00     0.174 A 
ATOM      3  C3  BZF d   1       1.082  -0.756  -0.385  0.00  0.00    -0.012 A 
ATOM      4  C3A BZF d   1       0.426   0.230   0.418  0.00  0.00    -0.107 A 
ATOM      5  C4  BZF d   1       0.841   1.040   1.435  0.00  0.00     0.055 A 
ATOM      6  C5  BZF d   1      -0.029   1.944   1.957  0.00  0.00    -0.016 A 
ATOM      7  C6  BZF d   1      -1.319   2.068   1.483  0.00  0.00     0.022 A 
ATOM      8  C7  BZF d   1      -1.778   1.283   0.478  0.00  0.00     0.029 A 
ATOM      9  C7A BZF d   1      -0.911   0.346  -0.029  0.00  0.00     0.058 A 
ENDROOT
TORSDOF 0
ENDMDL
