MODEL 1
REMARK minimizedAffinity 0.13126345
REMARK minimizedRMSD -1
REMARK  0 active torsions:
REMARK  status: ('A' for Active; 'I' for Inactive)
ROOT
ATOM      1  O1  BZF d   1      -0.373   2.151  -1.096  0.00  0.00    -0.204 OA
ATOM      2  C2  BZF d   1      -0.080   0.962  -1.735  0.00  0.00     0.174 A 
ATOM      3  C3  BZF d   1       0.181  -0.011  -0.838  0.00  0.00    -0.012 A 
ATOM      4  C3A BZF d   1      -0.049   0.585   0.442  0.00  0.00    -0.107 A 
ATOM      5  C4  BZF d   1       0.029   0.118   1.723  0.00  0.00     0.055 A 
ATOM      6  C5  BZF d   1      -0.188   0.978   2.753  0.00  0.00    -0.016 A 
ATOM      7  C6  BZF d   1      -0.478   2.309   2.540  0.00  0.00     0.022 A 
ATOM      8  C7  BZF d   1      -0.570   2.817   1.287  0.00  0.00     0.029 A 
ATOM      9  C7A BZF d   1      -0.385   1.944   0.243  0.00  0.00     0.058 A 
ENDROOT
TORSDOF 0
ENDMDL
