MODEL 1
REMARK minimizedAffinity -3.26622629
REMARK minimizedRMSD -1
REMARK  0 active torsions:
REMARK  status: ('A' for Active; 'I' for Inactive)
ROOT
ATOM      1  O1  BZF d   1      -0.653   1.821   2.469  0.00  0.00    -0.204 OA
ATOM      2  C2  BZF d   1      -1.639   2.525   1.804  0.00  0.00     0.174 A 
ATOM      3  C3  BZF d   1      -1.732   2.121   0.521  0.00  0.00    -0.012 A 
ATOM      4  C3A BZF d   1      -0.805   1.037   0.399  0.00  0.00    -0.107 A 
ATOM      5  C4  BZF d   1      -0.454   0.214  -0.632  0.00  0.00     0.055 A 
ATOM      6  C5  BZF d   1       0.537  -0.696  -0.442  0.00  0.00    -0.016 A 
ATOM      7  C6  BZF d   1       1.201  -0.806   0.762  0.00  0.00     0.022 A 
ATOM      8  C7  BZF d   1       0.885  -0.014   1.815  0.00  0.00     0.029 A 
ATOM      9  C7A BZF d   1      -0.139   0.884   1.637  0.00  0.00     0.058 A 
ENDROOT
TORSDOF 0
ENDMDL
