MODEL 1
REMARK minimizedAffinity -4.77912712
REMARK minimizedRMSD -1
REMARK  0 active torsions:
REMARK  status: ('A' for Active; 'I' for Inactive)
ROOT
ATOM      1  C1  DEN d   1      -0.399  -0.349   1.525  0.00  0.00     0.130 A 
ATOM      2  C2  DEN d   1      -1.824  -0.396   1.209  0.00  0.00    -0.031 A 
ATOM      3  C3  DEN d   1      -1.994  -1.208  -0.013  0.00  0.00     0.027 A 
ATOM      4  C4  DEN d   1      -0.200  -2.395  -1.435  0.00  0.00     0.027 A 
ATOM      5  C5  DEN d   1       1.151  -2.632  -1.569  0.00  0.00    -0.003 A 
ATOM      6  C6  DEN d   1       2.074  -2.101  -0.708  0.00  0.00     0.001 A 
ATOM      7  C7  DEN d   1       1.656  -1.343   0.353  0.00  0.00     0.017 A 
ATOM      8  C8  DEN d   1       0.296  -1.093   0.491  0.00  0.00    -0.094 A 
ATOM      9  C9  DEN d   1      -0.623  -1.649  -0.383  0.00  0.00    -0.072 A 
ENDROOT
TORSDOF 0
ENDMDL
