MODEL 1
REMARK minimizedAffinity -4.37361908
REMARK minimizedRMSD -1
REMARK  0 active torsions:
REMARK  status: ('A' for Active; 'I' for Inactive)
ROOT
ATOM      1  C1  DEN d   1      -2.037  -1.181   0.112  0.00  0.00     0.130 A 
ATOM      2  C2  DEN d   1      -3.281  -0.612  -0.399  0.00  0.00    -0.031 A 
ATOM      3  C3  DEN d   1      -3.751   0.400   0.569  0.00  0.00     0.027 A 
ATOM      4  C4  DEN d   1      -2.674   1.141   2.793  0.00  0.00     0.027 A 
ATOM      5  C5  DEN d   1      -1.618   0.935   3.652  0.00  0.00    -0.003 A 
ATOM      6  C6  DEN d   1      -0.653  -0.007   3.410  0.00  0.00     0.001 A 
ATOM      7  C7  DEN d   1      -0.701  -0.748   2.259  0.00  0.00     0.017 A 
ATOM      8  C8  DEN d   1      -1.767  -0.551   1.391  0.00  0.00    -0.094 A 
ATOM      9  C9  DEN d   1      -2.726   0.415   1.647  0.00  0.00    -0.072 A 
ENDROOT
TORSDOF 0
ENDMDL
