MODEL 1
REMARK minimizedAffinity -1.03608072
REMARK minimizedRMSD -1
REMARK  0 active torsions:
REMARK  status: ('A' for Active; 'I' for Inactive)
ROOT
ATOM      1  C1  DEN d   1      -1.449  -0.782   2.203  0.00  0.00     0.130 A 
ATOM      2  C2  DEN d   1      -0.830  -1.322   0.996  0.00  0.00    -0.031 A 
ATOM      3  C3  DEN d   1      -1.620  -0.866  -0.166  0.00  0.00     0.027 A 
ATOM      4  C4  DEN d   1      -3.728   0.620  -0.211  0.00  0.00     0.027 A 
ATOM      5  C5  DEN d   1      -4.631   1.311   0.566  0.00  0.00    -0.003 A 
ATOM      6  C6  DEN d   1      -4.558   1.324   1.934  0.00  0.00     0.001 A 
ATOM      7  C7  DEN d   1      -3.533   0.670   2.565  0.00  0.00     0.017 A 
ATOM      8  C8  DEN d   1      -2.622  -0.034   1.788  0.00  0.00    -0.094 A 
ATOM      9  C9  DEN d   1      -2.706  -0.025   0.407  0.00  0.00    -0.072 A 
ENDROOT
TORSDOF 0
ENDMDL
