MODEL 1
REMARK minimizedAffinity -3.42233872
REMARK minimizedRMSD -1
REMARK  0 active torsions:
REMARK  status: ('A' for Active; 'I' for Inactive)
ROOT
ATOM      1  C1  DEN d   1      -3.410  -0.471  -0.364  0.00  0.00     0.130 A 
ATOM      2  C2  DEN d   1      -3.854   0.262   0.818  0.00  0.00    -0.031 A 
ATOM      3  C3  DEN d   1      -2.799   0.153   1.846  0.00  0.00     0.027 A 
ATOM      4  C4  DEN d   1      -0.531  -1.070   1.721  0.00  0.00     0.027 A 
ATOM      5  C5  DEN d   1       0.284  -1.844   0.925  0.00  0.00    -0.003 A 
ATOM      6  C6  DEN d   1      -0.086  -2.240  -0.333  0.00  0.00     0.001 A 
ATOM      7  C7  DEN d   1      -1.285  -1.825  -0.850  0.00  0.00     0.017 A 
ATOM      8  C8  DEN d   1      -2.116  -1.051  -0.051  0.00  0.00    -0.094 A 
ATOM      9  C9  DEN d   1      -1.718  -0.650   1.213  0.00  0.00    -0.072 A 
ENDROOT
TORSDOF 0
ENDMDL
