MODEL 1
REMARK minimizedAffinity -4.08567572
REMARK minimizedRMSD -1
REMARK  0 active torsions:
REMARK  status: ('A' for Active; 'I' for Inactive)
ROOT
ATOM      1  C1  DEN d   1      -1.076  -2.704  -0.690  0.00  0.00     0.130 A 
ATOM      2  C2  DEN d   1       0.290  -2.723  -0.175  0.00  0.00    -0.031 A 
ATOM      3  C3  DEN d   1       0.393  -1.701   0.886  0.00  0.00     0.027 A 
ATOM      4  C4  DEN d   1      -1.424  -0.101   1.777  0.00  0.00     0.027 A 
ATOM      5  C5  DEN d   1      -2.736   0.295   1.642  0.00  0.00    -0.003 A 
ATOM      6  C6  DEN d   1      -3.571  -0.253   0.704  0.00  0.00     0.001 A 
ATOM      7  C7  DEN d   1      -3.114  -1.260  -0.105  0.00  0.00     0.017 A 
ATOM      8  C8  DEN d   1      -1.790  -1.659   0.021  0.00  0.00    -0.094 A 
ATOM      9  C9  DEN d   1      -0.966  -1.101   0.983  0.00  0.00    -0.072 A 
ENDROOT
TORSDOF 0
ENDMDL
