MODEL 1
REMARK minimizedAffinity -5.95586157
REMARK minimizedRMSD -1
REMARK  0 active torsions:
REMARK  status: ('A' for Active; 'I' for Inactive)
ROOT
ATOM      1  C1  DEN d   1      -2.345  -0.032   2.406  0.00  0.00     0.130 A 
ATOM      2  C2  DEN d   1      -3.101   0.088   1.162  0.00  0.00    -0.031 A 
ATOM      3  C3  DEN d   1      -2.241  -0.385   0.058  0.00  0.00     0.027 A 
ATOM      4  C4  DEN d   1       0.171  -1.291   0.154  0.00  0.00     0.027 A 
ATOM      5  C5  DEN d   1       1.233  -1.571   0.986  0.00  0.00    -0.003 A 
ATOM      6  C6  DEN d   1       1.189  -1.327   2.333  0.00  0.00     0.001 A 
ATOM      7  C7  DEN d   1       0.044  -0.830   2.896  0.00  0.00     0.017 A 
ATOM      8  C8  DEN d   1      -1.029  -0.539   2.063  0.00  0.00    -0.094 A 
ATOM      9  C9  DEN d   1      -0.969  -0.804   0.705  0.00  0.00    -0.072 A 
ENDROOT
TORSDOF 0
ENDMDL
