MODEL 1
REMARK minimizedAffinity -1.18515396
REMARK minimizedRMSD -1
REMARK  0 active torsions:
REMARK  status: ('A' for Active; 'I' for Inactive)
ROOT
ATOM      1  C1  DEN d   1      -0.146  -1.912  -0.048  0.00  0.00     0.130 A 
ATOM      2  C2  DEN d   1       0.708  -2.018   1.132  0.00  0.00    -0.031 A 
ATOM      3  C3  DEN d   1       0.092  -1.225   2.214  0.00  0.00     0.027 A 
ATOM      4  C4  DEN d   1      -2.092   0.146   2.180  0.00  0.00     0.027 A 
ATOM      5  C5  DEN d   1      -3.154   0.546   1.399  0.00  0.00    -0.003 A 
ATOM      6  C6  DEN d   1      -3.270   0.186   0.082  0.00  0.00     0.001 A 
ATOM      7  C7  DEN d   1      -2.329  -0.636  -0.481  0.00  0.00     0.017 A 
ATOM      8  C8  DEN d   1      -1.251  -1.037   0.298  0.00  0.00    -0.094 A 
ATOM      9  C9  DEN d   1      -1.159  -0.672   1.630  0.00  0.00    -0.072 A 
ENDROOT
TORSDOF 0
ENDMDL
