MODEL 1
REMARK minimizedAffinity -3.44605541
REMARK minimizedRMSD -1
REMARK  0 active torsions:
REMARK  status: ('A' for Active; 'I' for Inactive)
ROOT
ATOM      1  C1  DEN d   1      -0.471  -0.510   3.467  0.00  0.00     0.130 A 
ATOM      2  C2  DEN d   1       0.783  -1.037   2.937  0.00  0.00    -0.031 A 
ATOM      3  C3  DEN d   1       0.637  -1.178   1.474  0.00  0.00     0.027 A 
ATOM      4  C4  DEN d   1      -1.397  -0.629  -0.014  0.00  0.00     0.027 A 
ATOM      5  C5  DEN d   1      -2.695  -0.168  -0.015  0.00  0.00    -0.003 A 
ATOM      6  C6  DEN d   1      -3.349   0.176   1.138  0.00  0.00     0.001 A 
ATOM      7  C7  DEN d   1      -2.691   0.108   2.338  0.00  0.00     0.017 A 
ATOM      8  C8  DEN d   1      -1.385  -0.363   2.348  0.00  0.00    -0.094 A 
ATOM      9  C9  DEN d   1      -0.737  -0.694   1.170  0.00  0.00    -0.072 A 
ENDROOT
TORSDOF 0
ENDMDL
