MODEL 1
REMARK minimizedAffinity -2.63689923
REMARK minimizedRMSD -1
REMARK  0 active torsions:
REMARK  status: ('A' for Active; 'I' for Inactive)
ROOT
ATOM      1  C2' OXE d   1      -1.846   0.096   1.347  0.00  0.00     0.078 C 
ATOM      2  C1' OXE d   1      -0.047  -1.270  -0.319  0.00  0.00     0.078 C 
ATOM      3  C1  OXE d   1      -0.021   0.238  -0.343  0.00  0.00    -0.078 A 
ATOM      4  C2  OXE d   1      -0.937   0.898   0.441  0.00  0.00    -0.078 A 
ATOM      5  C3  OXE d   1      -0.920   2.289   0.498  0.00  0.00     0.003 A 
ATOM      6  C4  OXE d   1      -0.083   3.023  -0.351  0.00  0.00    -0.002 A 
ATOM      7  C5  OXE d   1       0.830   2.371  -1.186  0.00  0.00    -0.002 A 
ATOM      8  C6  OXE d   1       0.903   0.982  -1.163  0.00  0.00     0.003 A 
ENDROOT
TORSDOF 0
ENDMDL
