MODEL 1
REMARK minimizedAffinity -5.04704332
REMARK minimizedRMSD -1
REMARK  0 active torsions:
REMARK  status: ('A' for Active; 'I' for Inactive)
ROOT
ATOM      1  C2' OXE d   1      -1.891  -0.000   1.338  0.00  0.00     0.078 C 
ATOM      2  C1' OXE d   1       0.438  -0.992   0.124  0.00  0.00     0.078 C 
ATOM      3  C1  OXE d   1       0.210   0.499   0.097  0.00  0.00    -0.078 A 
ATOM      4  C2  OXE d   1      -0.955   0.971   0.652  0.00  0.00    -0.078 A 
ATOM      5  C3  OXE d   1      -1.189   2.342   0.702  0.00  0.00     0.003 A 
ATOM      6  C4  OXE d   1      -0.323   3.233   0.056  0.00  0.00    -0.002 A 
ATOM      7  C5  OXE d   1       0.850   2.769  -0.551  0.00  0.00    -0.002 A 
ATOM      8  C6  OXE d   1       1.152   1.413  -0.502  0.00  0.00     0.003 A 
ENDROOT
TORSDOF 0
ENDMDL
