MODEL 1
REMARK minimizedAffinity -4.72586632
REMARK minimizedRMSD -1
REMARK  0 active torsions:
REMARK  status: ('A' for Active; 'I' for Inactive)
ROOT
ATOM      1  C2' OXE d   1      -2.023   1.147   0.210  0.00  0.00     0.078 C 
ATOM      2  C1' OXE d   1       0.152   2.766  -0.516  0.00  0.00     0.078 C 
ATOM      3  C1  OXE d   1       0.445   1.365  -0.043  0.00  0.00    -0.078 A 
ATOM      4  C2  OXE d   1      -0.621   0.595   0.354  0.00  0.00    -0.078 A 
ATOM      5  C3  OXE d   1      -0.411  -0.724   0.747  0.00  0.00     0.003 A 
ATOM      6  C4  OXE d   1       0.889  -1.223   0.887  0.00  0.00    -0.002 A 
ATOM      7  C5  OXE d   1       1.992  -0.443   0.525  0.00  0.00    -0.002 A 
ATOM      8  C6  OXE d   1       1.786   0.836   0.019  0.00  0.00     0.003 A 
ENDROOT
TORSDOF 0
ENDMDL
