MODEL 1
REMARK minimizedAffinity -5.31485891
REMARK minimizedRMSD -1
REMARK  0 active torsions:
REMARK  status: ('A' for Active; 'I' for Inactive)
ROOT
ATOM      1  C2' OXE d   1       3.289   2.257   0.225  0.00  0.00     0.078 C 
ATOM      2  C1' OXE d   1       0.711   3.351   0.045  0.00  0.00     0.078 C 
ATOM      3  C1  OXE d   1       0.831   1.888   0.391  0.00  0.00    -0.078 A 
ATOM      4  C2  OXE d   1       2.095   1.350   0.432  0.00  0.00    -0.078 A 
ATOM      5  C3  OXE d   1       2.266   0.019   0.800  0.00  0.00     0.003 A 
ATOM      6  C4  OXE d   1       1.156  -0.816   0.979  0.00  0.00    -0.002 A 
ATOM      7  C5  OXE d   1      -0.141  -0.297   0.904  0.00  0.00    -0.002 A 
ATOM      8  C6  OXE d   1      -0.319   1.059   0.653  0.00  0.00     0.003 A 
ENDROOT
TORSDOF 0
ENDMDL
