MODEL 1
REMARK minimizedAffinity -5.06927633
REMARK minimizedRMSD -1
REMARK  0 active torsions:
REMARK  status: ('A' for Active; 'I' for Inactive)
ROOT
ATOM      1  C2' OXE d   1       0.521   3.422  -0.495  0.00  0.00     0.078 C 
ATOM      2  C1' OXE d   1       2.680   1.629  -0.426  0.00  0.00     0.078 C 
ATOM      3  C1  OXE d   1       1.329   1.120   0.008  0.00  0.00    -0.078 A 
ATOM      4  C2  OXE d   1       0.287   2.017   0.015  0.00  0.00    -0.078 A 
ATOM      5  C3  OXE d   1      -0.992   1.585   0.353  0.00  0.00     0.003 A 
ATOM      6  C4  OXE d   1      -1.198   0.286   0.834  0.00  0.00    -0.002 A 
ATOM      7  C5  OXE d   1      -0.143  -0.632   0.872  0.00  0.00    -0.002 A 
ATOM      8  C6  OXE d   1       1.115  -0.244   0.423  0.00  0.00     0.003 A 
ENDROOT
TORSDOF 0
ENDMDL
