MODEL 1
REMARK minimizedAffinity -4.02808571
REMARK minimizedRMSD -1
REMARK  0 active torsions:
REMARK  status: ('A' for Active; 'I' for Inactive)
ROOT
ATOM      1  C2' OXE d   1      -1.093   0.071   1.666  0.00  0.00     0.078 C 
ATOM      2  C1' OXE d   1      -1.184   2.813   2.259  0.00  0.00     0.078 C 
ATOM      3  C1  OXE d   1      -0.266   2.364   1.151  0.00  0.00    -0.078 A 
ATOM      4  C2  OXE d   1      -0.192   1.015   0.898  0.00  0.00    -0.078 A 
ATOM      5  C3  OXE d   1       0.598   0.551  -0.150  0.00  0.00     0.003 A 
ATOM      6  C4  OXE d   1       1.435   1.430  -0.848  0.00  0.00    -0.002 A 
ATOM      7  C5  OXE d   1       1.406   2.802  -0.580  0.00  0.00    -0.002 A 
ATOM      8  C6  OXE d   1       0.531   3.290   0.385  0.00  0.00     0.003 A 
ENDROOT
TORSDOF 0
ENDMDL
