MODEL 1
REMARK minimizedAffinity -3.13565803
REMARK minimizedRMSD -1
REMARK  0 active torsions:
REMARK  status: ('A' for Active; 'I' for Inactive)
ROOT
ATOM      1  C2' OXE d   1      -1.750   1.545   0.125  0.00  0.00     0.078 C 
ATOM      2  C1' OXE d   1      -0.432  -0.933   0.178  0.00  0.00     0.078 C 
ATOM      3  C1  OXE d   1       0.374   0.300   0.501  0.00  0.00    -0.078 A 
ATOM      4  C2  OXE d   1      -0.267   1.513   0.427  0.00  0.00    -0.078 A 
ATOM      5  C3  OXE d   1       0.416   2.677   0.768  0.00  0.00     0.003 A 
ATOM      6  C4  OXE d   1       1.789   2.639   1.037  0.00  0.00    -0.002 A 
ATOM      7  C5  OXE d   1       2.472   1.418   1.078  0.00  0.00    -0.002 A 
ATOM      8  C6  OXE d   1       1.771   0.238   0.855  0.00  0.00     0.003 A 
ENDROOT
TORSDOF 0
ENDMDL
