MODEL 1
REMARK minimizedAffinity -1.21676362
REMARK minimizedRMSD -1
REMARK  0 active torsions:
REMARK  status: ('A' for Active; 'I' for Inactive)
ROOT
ATOM      1  C2' OXE d   1       2.584   0.117   0.778  0.00  0.00     0.078 C 
ATOM      2  C1' OXE d   1       1.868   2.669   1.702  0.00  0.00     0.078 C 
ATOM      3  C1  OXE d   1       0.778   1.797   1.131  0.00  0.00    -0.078 A 
ATOM      4  C2  OXE d   1       1.146   0.568   0.638  0.00  0.00    -0.078 A 
ATOM      5  C3  OXE d   1       0.172  -0.299   0.150  0.00  0.00     0.003 A 
ATOM      6  C4  OXE d   1      -1.155   0.130   0.015  0.00  0.00    -0.002 A 
ATOM      7  C5  OXE d   1      -1.543   1.393   0.474  0.00  0.00    -0.002 A 
ATOM      8  C6  OXE d   1      -0.599   2.221   1.072  0.00  0.00     0.003 A 
ENDROOT
TORSDOF 0
ENDMDL
