MODEL 1
REMARK minimizedAffinity -3.82104778
REMARK minimizedRMSD -1
REMARK  0 active torsions:
REMARK  status: ('A' for Active; 'I' for Inactive)
ROOT
ATOM      1  C2' OXE d   1      -1.413   0.015   1.783  0.00  0.00     0.078 C 
ATOM      2  C1' OXE d   1      -0.221  -1.220  -0.438  0.00  0.00     0.078 C 
ATOM      3  C1  OXE d   1      -0.066   0.274  -0.296  0.00  0.00    -0.078 A 
ATOM      4  C2  OXE d   1      -0.692   0.876   0.769  0.00  0.00    -0.078 A 
ATOM      5  C3  OXE d   1      -0.536   2.243   0.977  0.00  0.00     0.003 A 
ATOM      6  C4  OXE d   1       0.123   3.034   0.028  0.00  0.00    -0.002 A 
ATOM      7  C5  OXE d   1       0.735   2.447  -1.084  0.00  0.00    -0.002 A 
ATOM      8  C6  OXE d   1       0.685   1.065  -1.239  0.00  0.00     0.003 A 
ENDROOT
TORSDOF 0
ENDMDL
