MODEL 1
REMARK minimizedAffinity -3.2393949
REMARK minimizedRMSD -1
REMARK  0 active torsions:
REMARK  status: ('A' for Active; 'I' for Inactive)
ROOT
ATOM      1  C2' OXE d   1       0.529  -2.827  -2.600  0.00  0.00     0.078 C 
ATOM      2  C1' OXE d   1      -0.019  -2.652   0.147  0.00  0.00     0.078 C 
ATOM      3  C1  OXE d   1      -1.108  -3.174  -0.755  0.00  0.00    -0.078 A 
ATOM      4  C2  OXE d   1      -0.848  -3.212  -2.104  0.00  0.00    -0.078 A 
ATOM      5  C3  OXE d   1      -1.799  -3.736  -2.975  0.00  0.00     0.003 A 
ATOM      6  C4  OXE d   1      -3.073  -4.080  -2.510  0.00  0.00    -0.002 A 
ATOM      7  C5  OXE d   1      -3.373  -4.012  -1.145  0.00  0.00    -0.002 A 
ATOM      8  C6  OXE d   1      -2.390  -3.602  -0.251  0.00  0.00     0.003 A 
ENDROOT
TORSDOF 0
ENDMDL
