MODEL 1
REMARK minimizedAffinity -5.26057768
REMARK minimizedRMSD -1
REMARK  0 active torsions:
REMARK  status: ('A' for Active; 'I' for Inactive)
ROOT
ATOM      1  C2' OXE d   1       0.012  -0.850   0.229  0.00  0.00     0.078 C 
ATOM      2  C1' OXE d   1       2.280   0.627  -0.515  0.00  0.00     0.078 C 
ATOM      3  C1  OXE d   1       1.035   1.391  -0.140  0.00  0.00    -0.078 A 
ATOM      4  C2  OXE d   1      -0.084   0.660   0.177  0.00  0.00    -0.078 A 
ATOM      5  C3  OXE d   1      -1.243   1.314   0.583  0.00  0.00     0.003 A 
ATOM      6  C4  OXE d   1      -1.327   2.711   0.523  0.00  0.00    -0.002 A 
ATOM      7  C5  OXE d   1      -0.211   3.474   0.164  0.00  0.00    -0.002 A 
ATOM      8  C6  OXE d   1       0.988   2.833  -0.128  0.00  0.00     0.003 A 
ENDROOT
TORSDOF 0
ENDMDL
