MODEL 1
REMARK minimizedAffinity -2.25121546
REMARK minimizedRMSD -1
REMARK  0 active torsions:
REMARK  status: ('A' for Active; 'I' for Inactive)
ROOT
ATOM      1  C2' OXE d   1      -2.211   0.524   0.776  0.00  0.00     0.078 C 
ATOM      2  C1' OXE d   1      -0.332   2.605   0.639  0.00  0.00     0.078 C 
ATOM      3  C1  OXE d   1       0.173   1.191   0.498  0.00  0.00    -0.078 A 
ATOM      4  C2  OXE d   1      -0.747   0.177   0.613  0.00  0.00    -0.078 A 
ATOM      5  C3  OXE d   1      -0.343  -1.143   0.437  0.00  0.00     0.003 A 
ATOM      6  C4  OXE d   1       1.015  -1.456   0.297  0.00  0.00    -0.002 A 
ATOM      7  C5  OXE d   1       1.973  -0.440   0.217  0.00  0.00    -0.002 A 
ATOM      8  C6  OXE d   1       1.565   0.888   0.273  0.00  0.00     0.003 A 
ENDROOT
TORSDOF 0
ENDMDL
