MODEL 1
REMARK minimizedAffinity -1.35551465
REMARK minimizedRMSD -1
REMARK  0 active torsions:
REMARK  status: ('A' for Active; 'I' for Inactive)
ROOT
ATOM      1  C2' OXE d   1       1.082   2.776   1.384  0.00  0.00     0.078 C 
ATOM      2  C1' OXE d   1       2.247   0.284   0.827  0.00  0.00     0.078 C 
ATOM      3  C1  OXE d   1       0.756   0.421   0.642  0.00  0.00    -0.078 A 
ATOM      4  C2  OXE d   1       0.188   1.631   0.961  0.00  0.00    -0.078 A 
ATOM      5  C3  OXE d   1      -1.174   1.828   0.756  0.00  0.00     0.003 A 
ATOM      6  C4  OXE d   1      -1.996   0.761   0.374  0.00  0.00    -0.002 A 
ATOM      7  C5  OXE d   1      -1.443  -0.491   0.082  0.00  0.00    -0.002 A 
ATOM      8  C6  OXE d   1      -0.066  -0.665   0.169  0.00  0.00     0.003 A 
ENDROOT
TORSDOF 0
ENDMDL
