MODEL 1
REMARK minimizedAffinity -4.49834967
REMARK minimizedRMSD -1
REMARK  0 active torsions:
REMARK  status: ('A' for Active; 'I' for Inactive)
ROOT
ATOM      1  C2' OXE d   1       0.802  -0.184  -1.972  0.00  0.00     0.078 C 
ATOM      2  C1' OXE d   1      -0.592  -1.214   0.236  0.00  0.00     0.078 C 
ATOM      3  C1  OXE d   1      -0.443   0.283   0.134  0.00  0.00    -0.078 A 
ATOM      4  C2  OXE d   1       0.281   0.776  -0.925  0.00  0.00    -0.078 A 
ATOM      5  C3  OXE d   1       0.403   2.152  -1.095  0.00  0.00     0.003 A 
ATOM      6  C4  OXE d   1      -0.072   3.033  -0.117  0.00  0.00    -0.002 A 
ATOM      7  C5  OXE d   1      -0.778   2.550   0.990  0.00  0.00    -0.002 A 
ATOM      8  C6  OXE d   1      -1.008   1.183   1.109  0.00  0.00     0.003 A 
ENDROOT
TORSDOF 0
ENDMDL
