MODEL 1
REMARK minimizedAffinity -3.11205006
REMARK minimizedRMSD -1
REMARK  0 active torsions:
REMARK  status: ('A' for Active; 'I' for Inactive)
ROOT
ATOM      1  C2' OXE d   1      -0.592   2.380   1.447  0.00  0.00     0.078 C 
ATOM      2  C1' OXE d   1       1.120   2.273  -0.775  0.00  0.00     0.078 C 
ATOM      3  C1  OXE d   1       0.547   0.974  -0.265  0.00  0.00    -0.078 A 
ATOM      4  C2  OXE d   1      -0.252   1.031   0.852  0.00  0.00    -0.078 A 
ATOM      5  C3  OXE d   1      -0.850  -0.131   1.331  0.00  0.00     0.003 A 
ATOM      6  C4  OXE d   1      -0.522  -1.376   0.781  0.00  0.00    -0.002 A 
ATOM      7  C5  OXE d   1       0.322  -1.460  -0.332  0.00  0.00    -0.002 A 
ATOM      8  C6  OXE d   1       0.830  -0.293  -0.892  0.00  0.00     0.003 A 
ENDROOT
TORSDOF 0
ENDMDL
