MODEL 1
REMARK minimizedAffinity -4.84514618
REMARK minimizedRMSD -1
REMARK  0 active torsions:
REMARK  status: ('A' for Active; 'I' for Inactive)
ROOT
ATOM      1  C2' OXE d   1      -0.431  -1.421  -0.046  0.00  0.00     0.078 C 
ATOM      2  C1' OXE d   1       2.258  -0.658   0.208  0.00  0.00     0.078 C 
ATOM      3  C1  OXE d   1       1.241   0.426  -0.044  0.00  0.00    -0.078 A 
ATOM      4  C2  OXE d   1      -0.067   0.039  -0.214  0.00  0.00    -0.078 A 
ATOM      5  C3  OXE d   1      -1.053   1.004  -0.394  0.00  0.00     0.003 A 
ATOM      6  C4  OXE d   1      -0.707   2.350  -0.558  0.00  0.00    -0.002 A 
ATOM      7  C5  OXE d   1       0.624   2.761  -0.429  0.00  0.00    -0.002 A 
ATOM      8  C6  OXE d   1       1.603   1.819  -0.130  0.00  0.00     0.003 A 
ENDROOT
TORSDOF 0
ENDMDL
