MODEL 1
REMARK minimizedAffinity -4.45796394
REMARK minimizedRMSD -1
REMARK  0 active torsions:
REMARK  status: ('A' for Active; 'I' for Inactive)
ROOT
ATOM      1  C1  DEN d   1      -0.670   1.160  -0.622  0.00  0.00     0.130 A 
ATOM      2  C2  DEN d   1      -1.646   0.114  -0.331  0.00  0.00    -0.031 A 
ATOM      3  C3  DEN d   1      -0.925  -1.171  -0.241  0.00  0.00     0.027 A 
ATOM      4  C4  DEN d   1       1.596  -1.641  -0.518  0.00  0.00     0.027 A 
ATOM      5  C5  DEN d   1       2.821  -1.071  -0.784  0.00  0.00    -0.003 A 
ATOM      6  C6  DEN d   1       2.963   0.266  -1.046  0.00  0.00     0.001 A 
ATOM      7  C7  DEN d   1       1.867   1.086  -1.003  0.00  0.00     0.017 A 
ATOM      8  C8  DEN d   1       0.627   0.518  -0.743  0.00  0.00    -0.094 A 
ATOM      9  C9  DEN d   1       0.506  -0.834  -0.468  0.00  0.00    -0.072 A 
ENDROOT
TORSDOF 0
ENDMDL
