MODEL 1
REMARK minimizedAffinity -3.17118979
REMARK minimizedRMSD -1
REMARK  0 active torsions:
REMARK  status: ('A' for Active; 'I' for Inactive)
ROOT
ATOM      1  C1  DEN d   1       2.495   0.494  -1.222  0.00  0.00     0.130 A 
ATOM      2  C2  DEN d   1       3.210  -0.737  -1.549  0.00  0.00    -0.031 A 
ATOM      3  C3  DEN d   1       2.376  -1.877  -1.119  0.00  0.00     0.027 A 
ATOM      4  C4  DEN d   1       0.057  -1.856   0.011  0.00  0.00     0.027 A 
ATOM      5  C5  DEN d   1      -0.947  -1.049   0.499  0.00  0.00    -0.003 A 
ATOM      6  C6  DEN d   1      -0.859   0.318   0.479  0.00  0.00     0.001 A 
ATOM      7  C7  DEN d   1       0.236   0.920  -0.081  0.00  0.00     0.017 A 
ATOM      8  C8  DEN d   1       1.255   0.112  -0.569  0.00  0.00    -0.094 A 
ATOM      9  C9  DEN d   1       1.143  -1.267  -0.551  0.00  0.00    -0.072 A 
ENDROOT
TORSDOF 0
ENDMDL
