MODEL 1
REMARK minimizedAffinity 3.19827461
REMARK minimizedRMSD -1
REMARK  0 active torsions:
REMARK  status: ('A' for Active; 'I' for Inactive)
ROOT
ATOM      1  C1  DEN d   1      -1.003  -1.133   0.841  0.00  0.00     0.130 A 
ATOM      2  C2  DEN d   1      -0.210  -0.570  -0.248  0.00  0.00    -0.031 A 
ATOM      3  C3  DEN d   1       0.187   0.799   0.138  0.00  0.00     0.027 A 
ATOM      4  C4  DEN d   1      -0.342   2.092   2.306  0.00  0.00     0.027 A 
ATOM      5  C5  DEN d   1      -0.993   2.032   3.518  0.00  0.00    -0.003 A 
ATOM      6  C6  DEN d   1      -1.715   0.934   3.906  0.00  0.00     0.001 A 
ATOM      7  C7  DEN d   1      -1.766  -0.166   3.091  0.00  0.00     0.017 A 
ATOM      8  C8  DEN d   1      -1.119  -0.110   1.864  0.00  0.00    -0.094 A 
ATOM      9  C9  DEN d   1      -0.384   1.004   1.496  0.00  0.00    -0.072 A 
ENDROOT
TORSDOF 0
ENDMDL
