MODEL 1
REMARK minimizedAffinity 0.991381288
REMARK minimizedRMSD -1
REMARK  0 active torsions:
REMARK  status: ('A' for Active; 'I' for Inactive)
ROOT
ATOM      1  C1  DEN d   1       0.117   0.723   0.305  0.00  0.00     0.130 A 
ATOM      2  C2  DEN d   1      -0.957  -0.199   0.666  0.00  0.00    -0.031 A 
ATOM      3  C3  DEN d   1      -0.616  -1.531   0.127  0.00  0.00     0.027 A 
ATOM      4  C4  DEN d   1       1.462  -2.252  -1.220  0.00  0.00     0.027 A 
ATOM      5  C5  DEN d   1       2.643  -1.817  -1.780  0.00  0.00    -0.003 A 
ATOM      6  C6  DEN d   1       3.045  -0.510  -1.715  0.00  0.00     0.001 A 
ATOM      7  C7  DEN d   1       2.280   0.402  -1.036  0.00  0.00     0.017 A 
ATOM      8  C8  DEN d   1       1.085  -0.027  -0.474  0.00  0.00    -0.094 A 
ATOM      9  C9  DEN d   1       0.702  -1.356  -0.540  0.00  0.00    -0.072 A 
ENDROOT
TORSDOF 0
ENDMDL
