MODEL 1
REMARK minimizedAffinity -4.43839598
REMARK minimizedRMSD -1
REMARK  0 active torsions:
REMARK  status: ('A' for Active; 'I' for Inactive)
ROOT
ATOM      1  C1  DEN d   1       2.089  -1.432  -0.872  0.00  0.00     0.130 A 
ATOM      2  C2  DEN d   1       1.349  -2.547  -0.289  0.00  0.00    -0.031 A 
ATOM      3  C3  DEN d   1       0.021  -2.048   0.121  0.00  0.00     0.027 A 
ATOM      4  C4  DEN d   1      -0.957   0.329  -0.095  0.00  0.00     0.027 A 
ATOM      5  C5  DEN d   1      -0.699   1.615  -0.515  0.00  0.00    -0.003 A 
ATOM      6  C6  DEN d   1       0.509   1.980  -1.048  0.00  0.00     0.001 A 
ATOM      7  C7  DEN d   1       1.489   1.038  -1.217  0.00  0.00     0.017 A 
ATOM      8  C8  DEN d   1       1.239  -0.259  -0.789  0.00  0.00    -0.094 A 
ATOM      9  C9  DEN d   1       0.007  -0.611  -0.264  0.00  0.00    -0.072 A 
ENDROOT
TORSDOF 0
ENDMDL
