MODEL 1
REMARK minimizedAffinity -3.23377466
REMARK minimizedRMSD -1
REMARK  0 active torsions:
REMARK  status: ('A' for Active; 'I' for Inactive)
ROOT
ATOM      1  C1  DEN d   1       1.944   1.160  -1.409  0.00  0.00     0.130 A 
ATOM      2  C2  DEN d   1       3.084   0.248  -1.435  0.00  0.00    -0.031 A 
ATOM      3  C3  DEN d   1       2.650  -1.042  -0.862  0.00  0.00     0.027 A 
ATOM      4  C4  DEN d   1       0.334  -1.713   0.054  0.00  0.00     0.027 A 
ATOM      5  C5  DEN d   1      -0.948  -1.272   0.297  0.00  0.00    -0.003 A 
ATOM      6  C6  DEN d   1      -1.343   0.010   0.022  0.00  0.00     0.001 A 
ATOM      7  C7  DEN d   1      -0.460   0.884  -0.555  0.00  0.00     0.017 A 
ATOM      8  C8  DEN d   1       0.837   0.449  -0.796  0.00  0.00    -0.094 A 
ATOM      9  C9  DEN d   1       1.214  -0.855  -0.522  0.00  0.00    -0.072 A 
ENDROOT
TORSDOF 0
ENDMDL
