MODEL 1
REMARK minimizedAffinity -6.19304705
REMARK minimizedRMSD -1
REMARK  0 active torsions:
REMARK  status: ('A' for Active; 'I' for Inactive)
ROOT
ATOM      1  C1  DEN d   1      -0.472  -1.682  -0.392  0.00  0.00     0.130 A 
ATOM      2  C2  DEN d   1      -1.368  -0.615   0.047  0.00  0.00    -0.031 A 
ATOM      3  C3  DEN d   1      -0.603   0.648   0.057  0.00  0.00     0.027 A 
ATOM      4  C4  DEN d   1       1.867   1.054  -0.566  0.00  0.00     0.027 A 
ATOM      5  C5  DEN d   1       3.032   0.451  -0.986  0.00  0.00    -0.003 A 
ATOM      6  C6  DEN d   1       3.119  -0.898  -1.204  0.00  0.00     0.001 A 
ATOM      7  C7  DEN d   1       2.009  -1.684  -1.045  0.00  0.00     0.017 A 
ATOM      8  C8  DEN d   1       0.833  -1.085  -0.614  0.00  0.00    -0.094 A 
ATOM      9  C9  DEN d   1       0.761   0.282  -0.411  0.00  0.00    -0.072 A 
ENDROOT
TORSDOF 0
ENDMDL
