MODEL 1
REMARK minimizedAffinity -6.57557869
REMARK minimizedRMSD -1
REMARK  0 active torsions:
REMARK  status: ('A' for Active; 'I' for Inactive)
ROOT
ATOM      1  C1  DEN d   1       0.964   1.718  -2.054  0.00  0.00     0.130 A 
ATOM      2  C2  DEN d   1       2.228   1.355  -2.689  0.00  0.00    -0.031 A 
ATOM      3  C3  DEN d   1       2.644   0.041  -2.158  0.00  0.00     0.027 A 
ATOM      4  C4  DEN d   1       1.457  -1.460  -0.429  0.00  0.00     0.027 A 
ATOM      5  C5  DEN d   1       0.362  -1.570   0.398  0.00  0.00    -0.003 A 
ATOM      6  C6  DEN d   1      -0.585  -0.584   0.491  0.00  0.00     0.001 A 
ATOM      7  C7  DEN d   1      -0.477   0.536  -0.291  0.00  0.00     0.017 A 
ATOM      8  C8  DEN d   1       0.629   0.657  -1.122  0.00  0.00    -0.094 A 
ATOM      9  C9  DEN d   1       1.568  -0.356  -1.210  0.00  0.00    -0.072 A 
ENDROOT
TORSDOF 0
ENDMDL
