MODEL 1
REMARK minimizedAffinity -4.78213501
REMARK minimizedRMSD -1
REMARK  0 active torsions:
REMARK  status: ('A' for Active; 'I' for Inactive)
ROOT
ATOM      1  C1  DEN d   1       0.215   1.645  -1.471  0.00  0.00     0.130 A 
ATOM      2  C2  DEN d   1      -1.185   1.461  -1.097  0.00  0.00    -0.031 A 
ATOM      3  C3  DEN d   1      -1.332   0.104  -0.532  0.00  0.00     0.027 A 
ATOM      4  C4  DEN d   1       0.464  -1.717  -0.196  0.00  0.00     0.027 A 
ATOM      5  C5  DEN d   1       1.794  -2.027  -0.371  0.00  0.00    -0.003 A 
ATOM      6  C6  DEN d   1       2.677  -1.156  -0.952  0.00  0.00     0.001 A 
ATOM      7  C7  DEN d   1       2.249   0.088  -1.337  0.00  0.00     0.017 A 
ATOM      8  C8  DEN d   1       0.908   0.405  -1.170  0.00  0.00    -0.094 A 
ATOM      9  C9  DEN d   1       0.034  -0.485  -0.570  0.00  0.00    -0.072 A 
ENDROOT
TORSDOF 0
ENDMDL
