MODEL 1
REMARK minimizedAffinity -3.54596281
REMARK minimizedRMSD -1
REMARK  0 active torsions:
REMARK  status: ('A' for Active; 'I' for Inactive)
ROOT
ATOM      1  C1  DEN d   1      -0.851   0.135   0.279  0.00  0.00     0.130 A 
ATOM      2  C2  DEN d   1      -0.448   1.440   0.796  0.00  0.00    -0.031 A 
ATOM      3  C3  DEN d   1       0.961   1.667   0.415  0.00  0.00     0.027 A 
ATOM      4  C4  DEN d   1       2.547   0.134  -0.922  0.00  0.00     0.027 A 
ATOM      5  C5  DEN d   1       2.660  -1.081  -1.561  0.00  0.00    -0.003 A 
ATOM      6  C6  DEN d   1       1.630  -1.983  -1.602  0.00  0.00     0.001 A 
ATOM      7  C7  DEN d   1       0.426  -1.664  -1.031  0.00  0.00     0.017 A 
ATOM      8  C8  DEN d   1       0.307  -0.444  -0.378  0.00  0.00    -0.094 A 
ATOM      9  C9  DEN d   1       1.356   0.459  -0.359  0.00  0.00    -0.072 A 
ENDROOT
TORSDOF 0
ENDMDL
