MODEL 1
REMARK minimizedAffinity -3.35632086
REMARK minimizedRMSD -1
REMARK  0 active torsions:
REMARK  status: ('A' for Active; 'I' for Inactive)
ROOT
ATOM      1  C1  DEN d   1       0.125   0.460   0.410  0.00  0.00     0.130 A 
ATOM      2  C2  DEN d   1      -0.099  -0.825  -0.248  0.00  0.00    -0.031 A 
ATOM      3  C3  DEN d   1      -1.300  -1.441   0.351  0.00  0.00     0.027 A 
ATOM      4  C4  DEN d   1      -2.829  -0.533   2.219  0.00  0.00     0.027 A 
ATOM      5  C5  DEN d   1      -3.034   0.512   3.093  0.00  0.00    -0.003 A 
ATOM      6  C6  DEN d   1      -2.189   1.587   3.157  0.00  0.00     0.001 A 
ATOM      7  C7  DEN d   1      -1.123   1.664   2.301  0.00  0.00     0.017 A 
ATOM      8  C8  DEN d   1      -0.905   0.612   1.421  0.00  0.00    -0.094 A 
ATOM      9  C9  DEN d   1      -1.778  -0.461   1.364  0.00  0.00    -0.072 A 
ENDROOT
TORSDOF 0
ENDMDL
