MODEL 1
REMARK minimizedAffinity -5.79522181
REMARK minimizedRMSD -1
REMARK  0 active torsions:
REMARK  status: ('A' for Active; 'I' for Inactive)
ROOT
ATOM      1  C1  DEN d   1      -0.493   0.852   0.039  0.00  0.00     0.130 A 
ATOM      2  C2  DEN d   1      -1.357  -0.310   0.229  0.00  0.00    -0.031 A 
ATOM      3  C3  DEN d   1      -0.586  -1.516  -0.135  0.00  0.00     0.027 A 
ATOM      4  C4  DEN d   1       1.849  -1.695  -0.965  0.00  0.00     0.027 A 
ATOM      5  C5  DEN d   1       2.979  -0.979  -1.295  0.00  0.00    -0.003 A 
ATOM      6  C6  DEN d   1       3.019   0.389  -1.236  0.00  0.00     0.001 A 
ATOM      7  C7  DEN d   1       1.922   1.082  -0.795  0.00  0.00     0.017 A 
ATOM      8  C8  DEN d   1       0.778   0.367  -0.468  0.00  0.00    -0.094 A 
ATOM      9  C9  DEN d   1       0.761  -1.016  -0.522  0.00  0.00    -0.072 A 
ENDROOT
TORSDOF 0
ENDMDL
