MODEL 1
REMARK minimizedAffinity -2.40310574
REMARK minimizedRMSD -1
REMARK  0 active torsions:
REMARK  status: ('A' for Active; 'I' for Inactive)
ROOT
ATOM      1  C1  DEN d   1       1.056  -1.846  -0.007  0.00  0.00     0.130 A 
ATOM      2  C2  DEN d   1       2.199  -1.739  -0.909  0.00  0.00    -0.031 A 
ATOM      3  C3  DEN d   1       2.160  -0.405  -1.541  0.00  0.00     0.027 A 
ATOM      4  C4  DEN d   1       0.451   1.498  -1.207  0.00  0.00     0.027 A 
ATOM      5  C5  DEN d   1      -0.702   1.869  -0.550  0.00  0.00    -0.003 A 
ATOM      6  C6  DEN d   1      -1.362   1.023   0.301  0.00  0.00     0.001 A 
ATOM      7  C7  DEN d   1      -0.850  -0.222   0.552  0.00  0.00     0.017 A 
ATOM      8  C8  DEN d   1       0.307  -0.607  -0.112  0.00  0.00    -0.094 A 
ATOM      9  C9  DEN d   1       0.967   0.268  -0.959  0.00  0.00    -0.072 A 
ENDROOT
TORSDOF 0
ENDMDL
