MODEL 1
REMARK minimizedAffinity -2.63746953
REMARK minimizedRMSD -1
REMARK  0 active torsions:
REMARK  status: ('A' for Active; 'I' for Inactive)
ROOT
ATOM      1  C   UNL d   1       0.809  -1.408   2.568  0.00  0.00     0.172 C 
ATOM      2  N   UNL d   1       2.225  -1.128   2.622  0.00  0.00    -0.070 N 
ATOM      3  C1  UNL d   1       2.990  -0.680   1.578  0.00  0.00    -0.004 A 
ATOM      4  C2  UNL d   1       4.283  -0.536   2.034  0.00  0.00    -0.047 A 
ATOM      5  C3  UNL d   1       4.295  -0.912   3.398  0.00  0.00    -0.047 A 
ATOM      6  C4  UNL d   1       3.008  -1.274   3.736  0.00  0.00    -0.004 A 
ENDROOT
TORSDOF 0
ENDMDL
