MODEL 1
REMARK minimizedAffinity -2.82043624
REMARK minimizedRMSD -1
REMARK  0 active torsions:
REMARK  status: ('A' for Active; 'I' for Inactive)
ROOT
ATOM      1  C   UNL d   1       4.773  -0.271   2.576  0.00  0.00     0.172 C 
ATOM      2  N   UNL d   1       3.579  -0.923   3.059  0.00  0.00    -0.070 N 
ATOM      3  C1  UNL d   1       2.456  -1.182   2.319  0.00  0.00    -0.004 A 
ATOM      4  C2  UNL d   1       1.547  -1.814   3.140  0.00  0.00    -0.047 A 
ATOM      5  C3  UNL d   1       2.143  -1.938   4.417  0.00  0.00    -0.047 A 
ATOM      6  C4  UNL d   1       3.401  -1.378   4.339  0.00  0.00    -0.004 A 
ENDROOT
TORSDOF 0
ENDMDL
