MODEL 1
REMARK minimizedAffinity -2.11685658
REMARK minimizedRMSD -1
REMARK  0 active torsions:
REMARK  status: ('A' for Active; 'I' for Inactive)
ROOT
ATOM      1  C   UNL d   1       0.329   0.181   0.310  0.00  0.00     0.172 C 
ATOM      2  N   UNL d   1       1.009  -0.839   1.073  0.00  0.00    -0.070 N 
ATOM      3  C1  UNL d   1       1.958  -0.617   2.035  0.00  0.00    -0.004 A 
ATOM      4  C2  UNL d   1       2.359  -1.841   2.524  0.00  0.00    -0.047 A 
ATOM      5  C3  UNL d   1       1.625  -2.834   1.831  0.00  0.00    -0.047 A 
ATOM      6  C4  UNL d   1       0.798  -2.185   0.939  0.00  0.00    -0.004 A 
ENDROOT
TORSDOF 0
ENDMDL
