MODEL 1
REMARK minimizedAffinity -1.93078196
REMARK minimizedRMSD -1
REMARK  0 active torsions:
REMARK  status: ('A' for Active; 'I' for Inactive)
ROOT
ATOM      1  C   UNL d   1       1.078  -1.143   1.419  0.00  0.00     0.172 C 
ATOM      2  N   UNL d   1       2.308  -0.991   2.160  0.00  0.00    -0.070 N 
ATOM      3  C1  UNL d   1       3.517  -0.624   1.633  0.00  0.00    -0.004 A 
ATOM      4  C2  UNL d   1       4.434  -0.592   2.661  0.00  0.00    -0.047 A 
ATOM      5  C3  UNL d   1       3.752  -0.953   3.847  0.00  0.00    -0.047 A 
ATOM      6  C4  UNL d   1       2.437  -1.195   3.508  0.00  0.00    -0.004 A 
ENDROOT
TORSDOF 0
ENDMDL
