MODEL 1
REMARK minimizedAffinity -3.05558181
REMARK minimizedRMSD -1
REMARK  0 active torsions:
REMARK  status: ('A' for Active; 'I' for Inactive)
ROOT
ATOM      1  C   UNL d   1      -0.146   0.518   0.906  0.00  0.00     0.172 C 
ATOM      2  N   UNL d   1       0.723  -0.562   1.311  0.00  0.00    -0.070 N 
ATOM      3  C1  UNL d   1       0.843  -1.055   2.583  0.00  0.00    -0.004 A 
ATOM      4  C2  UNL d   1       1.769  -2.076   2.554  0.00  0.00    -0.047 A 
ATOM      5  C3  UNL d   1       2.221  -2.200   1.218  0.00  0.00    -0.047 A 
ATOM      6  C4  UNL d   1       1.557  -1.250   0.471  0.00  0.00    -0.004 A 
ENDROOT
TORSDOF 0
ENDMDL
