MODEL 1
REMARK minimizedAffinity 0.276474804
REMARK minimizedRMSD -1
REMARK  0 active torsions:
REMARK  status: ('A' for Active; 'I' for Inactive)
ROOT
ATOM      1  C   UNL d   1       4.223   4.218   0.455  0.00  0.00     0.172 C 
ATOM      2  N   UNL d   1       2.807   4.477   0.574  0.00  0.00    -0.070 N 
ATOM      3  C1  UNL d   1       2.234   5.421   1.383  0.00  0.00    -0.004 A 
ATOM      4  C2  UNL d   1       0.868   5.353   1.209  0.00  0.00    -0.047 A 
ATOM      5  C3  UNL d   1       0.613   4.332   0.263  0.00  0.00    -0.047 A 
ATOM      6  C4  UNL d   1       1.831   3.806  -0.113  0.00  0.00    -0.004 A 
ENDROOT
TORSDOF 0
ENDMDL
