MODEL 1
REMARK minimizedAffinity -3.12964368
REMARK minimizedRMSD -1
REMARK  0 active torsions:
REMARK  status: ('A' for Active; 'I' for Inactive)
ROOT
ATOM      1  C   UNL d   1      -3.983  -1.823  -0.434  0.00  0.00     0.172 C 
ATOM      2  N   UNL d   1      -4.474  -0.615  -1.056  0.00  0.00    -0.070 N 
ATOM      3  C1  UNL d   1      -3.864   0.062  -2.078  0.00  0.00    -0.004 A 
ATOM      4  C2  UNL d   1      -4.645   1.155  -2.385  0.00  0.00    -0.047 A 
ATOM      5  C3  UNL d   1      -5.762   1.135  -1.517  0.00  0.00    -0.047 A 
ATOM      6  C4  UNL d   1      -5.631   0.029  -0.704  0.00  0.00    -0.004 A 
ENDROOT
TORSDOF 0
ENDMDL
