MODEL 1
REMARK minimizedAffinity 3.89536905
REMARK minimizedRMSD -1
REMARK  0 active torsions:
REMARK  status: ('A' for Active; 'I' for Inactive)
ROOT
ATOM      1  C   UNL d   1      -4.688  -1.234  -2.885  0.00  0.00     0.172 C 
ATOM      2  N   UNL d   1      -3.986   0.024  -2.984  0.00  0.00    -0.070 N 
ATOM      3  C1  UNL d   1      -4.562   1.244  -3.220  0.00  0.00    -0.004 A 
ATOM      4  C2  UNL d   1      -3.559   2.188  -3.240  0.00  0.00    -0.047 A 
ATOM      5  C3  UNL d   1      -2.337   1.513  -3.009  0.00  0.00    -0.047 A 
ATOM      6  C4  UNL d   1      -2.631   0.174  -2.853  0.00  0.00    -0.004 A 
ENDROOT
TORSDOF 0
ENDMDL
