MODEL 1
REMARK minimizedAffinity -1.07571888
REMARK minimizedRMSD -1
REMARK  0 active torsions:
REMARK  status: ('A' for Active; 'I' for Inactive)
ROOT
ATOM      1  C   UNL d   1       1.920   0.444  -0.382  0.00  0.00     0.172 C 
ATOM      2  N   UNL d   1       2.775   1.607  -0.396  0.00  0.00    -0.070 N 
ATOM      3  C1  UNL d   1       2.429   2.858   0.039  0.00  0.00    -0.004 A 
ATOM      4  C2  UNL d   1       3.517   3.684  -0.142  0.00  0.00    -0.047 A 
ATOM      5  C3  UNL d   1       4.553   2.903  -0.706  0.00  0.00    -0.047 A 
ATOM      6  C4  UNL d   1       4.067   1.621  -0.854  0.00  0.00    -0.004 A 
ENDROOT
TORSDOF 0
ENDMDL
