MODEL 1
REMARK minimizedAffinity 3.38648105
REMARK minimizedRMSD -1
REMARK  0 active torsions:
REMARK  status: ('A' for Active; 'I' for Inactive)
ROOT
ATOM      1  C   UNL d   1       1.753  -0.807   0.664  0.00  0.00     0.172 C 
ATOM      2  N   UNL d   1       2.829  -0.915   1.621  0.00  0.00    -0.070 N 
ATOM      3  C1  UNL d   1       2.716  -1.397   2.897  0.00  0.00    -0.004 A 
ATOM      4  C2  UNL d   1       3.962  -1.336   3.483  0.00  0.00    -0.047 A 
ATOM      5  C3  UNL d   1       4.854  -0.797   2.525  0.00  0.00    -0.047 A 
ATOM      6  C4  UNL d   1       4.126  -0.546   1.382  0.00  0.00    -0.004 A 
ENDROOT
TORSDOF 0
ENDMDL
