MODEL 1
REMARK minimizedAffinity 1.43761456
REMARK minimizedRMSD -1
REMARK  0 active torsions:
REMARK  status: ('A' for Active; 'I' for Inactive)
ROOT
ATOM      1  C   UNL d   1      -1.392  -3.208   0.612  0.00  0.00     0.172 C 
ATOM      2  N   UNL d   1      -0.343  -2.263   0.310  0.00  0.00    -0.070 N 
ATOM      3  C1  UNL d   1       0.693  -2.471  -0.561  0.00  0.00    -0.004 A 
ATOM      4  C2  UNL d   1       1.473  -1.334  -0.568  0.00  0.00    -0.047 A 
ATOM      5  C3  UNL d   1       0.885  -0.412   0.330  0.00  0.00    -0.047 A 
ATOM      6  C4  UNL d   1      -0.237  -1.012   0.860  0.00  0.00    -0.004 A 
ENDROOT
TORSDOF 0
ENDMDL
