MODEL 1
REMARK minimizedAffinity 4.31206274
REMARK minimizedRMSD -1
REMARK  0 active torsions:
REMARK  status: ('A' for Active; 'I' for Inactive)
ROOT
ATOM      1  C   UNL d   1       3.337  -1.450   2.211  0.00  0.00     0.172 C 
ATOM      2  N   UNL d   1       2.493  -0.808   1.231  0.00  0.00    -0.070 N 
ATOM      3  C1  UNL d   1       2.888  -0.391  -0.012  0.00  0.00    -0.004 A 
ATOM      4  C2  UNL d   1       1.794   0.168  -0.637  0.00  0.00    -0.047 A 
ATOM      5  C3  UNL d   1       0.704   0.085   0.262  0.00  0.00    -0.047 A 
ATOM      6  C4  UNL d   1       1.165  -0.524   1.410  0.00  0.00    -0.004 A 
ENDROOT
TORSDOF 0
ENDMDL
