MODEL 1
REMARK minimizedAffinity 0.943490684
REMARK minimizedRMSD -1
REMARK  0 active torsions:
REMARK  status: ('A' for Active; 'I' for Inactive)
ROOT
ATOM      1  C   UNL d   1      -3.880  -5.552  -3.776  0.00  0.00     0.172 C 
ATOM      2  N   UNL d   1      -2.602  -5.634  -4.443  0.00  0.00    -0.070 N 
ATOM      3  C1  UNL d   1      -2.405  -6.000  -5.748  0.00  0.00    -0.004 A 
ATOM      4  C2  UNL d   1      -1.051  -5.953  -6.000  0.00  0.00    -0.047 A 
ATOM      5  C3  UNL d   1      -0.412  -5.545  -4.805  0.00  0.00    -0.047 A 
ATOM      6  C4  UNL d   1      -1.396  -5.355  -3.857  0.00  0.00    -0.004 A 
ENDROOT
TORSDOF 0
ENDMDL
