MODEL 1
REMARK minimizedAffinity 1.57896435
REMARK minimizedRMSD -1
REMARK  0 active torsions:
REMARK  status: ('A' for Active; 'I' for Inactive)
ROOT
ATOM      1  C   UNL d   1       0.066   0.124   0.676  0.00  0.00     0.172 C 
ATOM      2  N   UNL d   1       1.386  -0.384   0.967  0.00  0.00    -0.070 N 
ATOM      3  C1  UNL d   1       2.411  -0.508   0.067  0.00  0.00    -0.004 A 
ATOM      4  C2  UNL d   1       3.498  -1.029   0.734  0.00  0.00    -0.047 A 
ATOM      5  C3  UNL d   1       3.113  -1.228   2.082  0.00  0.00    -0.047 A 
ATOM      6  C4  UNL d   1       1.801  -0.820   2.198  0.00  0.00    -0.004 A 
ENDROOT
TORSDOF 0
ENDMDL
