MODEL 1
REMARK minimizedAffinity -5.92168617
REMARK minimizedRMSD -1
REMARK  0 active torsions:
REMARK  status: ('A' for Active; 'I' for Inactive)
ROOT
ATOM      1  C   UNL d   1      -1.734   2.744   1.741  0.00  0.00     0.077 C 
ATOM      2  C1  UNL d   1      -0.789   1.631   1.400  0.00  0.00    -0.074 A 
ATOM      3  C2  UNL d   1      -0.157   0.891   2.404  0.00  0.00    -0.005 A 
ATOM      4  C3  UNL d   1       0.713  -0.148   2.071  0.00  0.00     0.006 A 
ATOM      5  C4  UNL d   1       0.958  -0.456   0.733  0.00  0.00    -0.005 A 
ATOM      6  C5  UNL d   1       0.335   0.272  -0.285  0.00  0.00    -0.074 A 
ATOM      7  C6  UNL d   1       0.581  -0.053  -1.729  0.00  0.00     0.077 C 
ATOM      8  C7  UNL d   1      -0.543   1.310   0.057  0.00  0.00    -0.001 A 
ENDROOT
TORSDOF 0
ENDMDL
