MODEL 1
REMARK minimizedAffinity -2.37184429
REMARK minimizedRMSD -1
REMARK  0 active torsions:
REMARK  status: ('A' for Active; 'I' for Inactive)
ROOT
ATOM      1  C   UNL d   1      -0.384  -4.068  -0.219  0.00  0.00     0.077 C 
ATOM      2  C1  UNL d   1      -0.322  -2.641   0.238  0.00  0.00    -0.074 A 
ATOM      3  C2  UNL d   1      -0.501  -2.309   1.585  0.00  0.00    -0.005 A 
ATOM      4  C3  UNL d   1      -0.431  -0.978   1.997  0.00  0.00     0.006 A 
ATOM      5  C4  UNL d   1      -0.181   0.033   1.068  0.00  0.00    -0.005 A 
ATOM      6  C5  UNL d   1       0.002  -0.280  -0.283  0.00  0.00    -0.074 A 
ATOM      7  C6  UNL d   1       0.281   0.793  -1.293  0.00  0.00     0.077 C 
ATOM      8  C7  UNL d   1      -0.063  -1.621  -0.688  0.00  0.00    -0.001 A 
ENDROOT
TORSDOF 0
ENDMDL
