MODEL 1
REMARK minimizedAffinity -3.08538365
REMARK minimizedRMSD -1
REMARK  0 active torsions:
REMARK  status: ('A' for Active; 'I' for Inactive)
ROOT
ATOM      1  C   UNL d   1      -1.240  -3.073  -1.124  0.00  0.00     0.077 C 
ATOM      2  C1  UNL d   1      -0.513  -1.830  -0.704  0.00  0.00    -0.074 A 
ATOM      3  C2  UNL d   1       0.403  -1.210  -1.559  0.00  0.00    -0.005 A 
ATOM      4  C3  UNL d   1       1.064  -0.048  -1.159  0.00  0.00     0.006 A 
ATOM      5  C4  UNL d   1       0.816   0.504   0.098  0.00  0.00    -0.005 A 
ATOM      6  C5  UNL d   1      -0.098  -0.102   0.966  0.00  0.00    -0.074 A 
ATOM      7  C6  UNL d   1      -0.384   0.484   2.317  0.00  0.00     0.077 C 
ATOM      8  C7  UNL d   1      -0.763  -1.265   0.554  0.00  0.00    -0.001 A 
ENDROOT
TORSDOF 0
ENDMDL
