MODEL 1
REMARK minimizedAffinity 5.83913708
REMARK minimizedRMSD -1
REMARK  0 active torsions:
REMARK  status: ('A' for Active; 'I' for Inactive)
ROOT
ATOM      1  C   UNL d   1       0.778  -0.907   4.096  0.00  0.00     0.077 C 
ATOM      2  C1  UNL d   1       0.798  -0.142   2.806  0.00  0.00    -0.074 A 
ATOM      3  C2  UNL d   1       1.096  -0.780   1.597  0.00  0.00    -0.005 A 
ATOM      4  C3  UNL d   1       1.102  -0.058   0.404  0.00  0.00     0.006 A 
ATOM      5  C4  UNL d   1       0.811   1.307   0.407  0.00  0.00    -0.005 A 
ATOM      6  C5  UNL d   1       0.511   1.961   1.606  0.00  0.00    -0.074 A 
ATOM      7  C6  UNL d   1       0.187   3.426   1.626  0.00  0.00     0.077 C 
ATOM      8  C7  UNL d   1       0.500   1.227   2.800  0.00  0.00    -0.001 A 
ENDROOT
TORSDOF 0
ENDMDL
