MODEL 1
REMARK minimizedAffinity -3.82524896
REMARK minimizedRMSD -1
REMARK  0 active torsions:
REMARK  status: ('A' for Active; 'I' for Inactive)
ROOT
ATOM      1  C   UNL d   1       0.694  -5.200  -0.108  0.00  0.00     0.077 C 
ATOM      2  C1  UNL d   1       0.004  -4.060  -0.796  0.00  0.00    -0.074 A 
ATOM      3  C2  UNL d   1      -0.957  -4.292  -1.784  0.00  0.00    -0.005 A 
ATOM      4  C3  UNL d   1      -1.598  -3.222  -2.409  0.00  0.00     0.006 A 
ATOM      5  C4  UNL d   1      -1.284  -1.910  -2.051  0.00  0.00    -0.005 A 
ATOM      6  C5  UNL d   1      -0.326  -1.658  -1.064  0.00  0.00    -0.074 A 
ATOM      7  C6  UNL d   1       0.017  -0.254  -0.661  0.00  0.00     0.077 C 
ATOM      8  C7  UNL d   1       0.308  -2.739  -0.437  0.00  0.00    -0.001 A 
ENDROOT
TORSDOF 0
ENDMDL
