MODEL 1
REMARK minimizedAffinity -4.20015526
REMARK minimizedRMSD -1
REMARK  0 active torsions:
REMARK  status: ('A' for Active; 'I' for Inactive)
ROOT
ATOM      1  C   UNL d   1       0.124   1.351  -2.124  0.00  0.00     0.077 C 
ATOM      2  C1  UNL d   1      -0.469   1.346  -0.747  0.00  0.00    -0.074 A 
ATOM      3  C2  UNL d   1      -0.757   2.544  -0.084  0.00  0.00    -0.005 A 
ATOM      4  C3  UNL d   1      -1.318   2.523   1.193  0.00  0.00     0.006 A 
ATOM      5  C4  UNL d   1      -1.596   1.308   1.819  0.00  0.00    -0.005 A 
ATOM      6  C5  UNL d   1      -1.316   0.100   1.171  0.00  0.00    -0.074 A 
ATOM      7  C6  UNL d   1      -1.619  -1.215   1.825  0.00  0.00     0.077 C 
ATOM      8  C7  UNL d   1      -0.759   0.129  -0.115  0.00  0.00    -0.001 A 
ENDROOT
TORSDOF 0
ENDMDL
