MODEL 1
REMARK minimizedAffinity 2.99067211
REMARK minimizedRMSD -1
REMARK  0 active torsions:
REMARK  status: ('A' for Active; 'I' for Inactive)
ROOT
ATOM      1  C   UNL d   1      -1.030  -3.682  -2.648  0.00  0.00     0.077 C 
ATOM      2  C1  UNL d   1      -1.545  -2.310  -2.330  0.00  0.00    -0.074 A 
ATOM      3  C2  UNL d   1      -2.858  -2.119  -1.887  0.00  0.00    -0.005 A 
ATOM      4  C3  UNL d   1      -3.319  -0.837  -1.586  0.00  0.00     0.006 A 
ATOM      5  C4  UNL d   1      -2.474   0.264  -1.724  0.00  0.00    -0.005 A 
ATOM      6  C5  UNL d   1      -1.158   0.093  -2.165  0.00  0.00    -0.074 A 
ATOM      7  C6  UNL d   1      -0.233   1.265  -2.310  0.00  0.00     0.077 C 
ATOM      8  C7  UNL d   1      -0.699  -1.199  -2.459  0.00  0.00    -0.001 A 
ENDROOT
TORSDOF 0
ENDMDL
