MODEL 1
REMARK minimizedAffinity 5.03809071
REMARK minimizedRMSD -1
REMARK  0 active torsions:
REMARK  status: ('A' for Active; 'I' for Inactive)
ROOT
ATOM      1  C   UNL d   1       1.877  -4.958  -1.109  0.00  0.00     0.077 C 
ATOM      2  C1  UNL d   1       3.056  -4.489  -1.910  0.00  0.00    -0.074 A 
ATOM      3  C2  UNL d   1       3.272  -4.954  -3.211  0.00  0.00    -0.005 A 
ATOM      4  C3  UNL d   1       4.367  -4.502  -3.947  0.00  0.00     0.006 A 
ATOM      5  C4  UNL d   1       5.256  -3.582  -3.390  0.00  0.00    -0.005 A 
ATOM      6  C5  UNL d   1       5.056  -3.105  -2.091  0.00  0.00    -0.074 A 
ATOM      7  C6  UNL d   1       5.996  -2.108  -1.481  0.00  0.00     0.077 C 
ATOM      8  C7  UNL d   1       3.949  -3.559  -1.360  0.00  0.00    -0.001 A 
ENDROOT
TORSDOF 0
ENDMDL
