MODEL 1
REMARK minimizedAffinity 2.93025613
REMARK minimizedRMSD -1
REMARK  0 active torsions:
REMARK  status: ('A' for Active; 'I' for Inactive)
ROOT
ATOM      1  C   UNL d   1      -0.668   2.787  -1.537  0.00  0.00     0.077 C 
ATOM      2  C1  UNL d   1      -0.802   2.619  -0.053  0.00  0.00    -0.074 A 
ATOM      3  C2  UNL d   1      -1.768   3.330   0.667  0.00  0.00    -0.005 A 
ATOM      4  C3  UNL d   1      -1.886   3.155   2.046  0.00  0.00     0.006 A 
ATOM      5  C4  UNL d   1      -1.042   2.270   2.717  0.00  0.00    -0.005 A 
ATOM      6  C5  UNL d   1      -0.071   1.550   2.014  0.00  0.00    -0.074 A 
ATOM      7  C6  UNL d   1       0.838   0.588   2.719  0.00  0.00     0.077 C 
ATOM      8  C7  UNL d   1       0.037   1.726   0.628  0.00  0.00    -0.001 A 
ENDROOT
TORSDOF 0
ENDMDL
