MODEL 1
REMARK minimizedAffinity 0.263518065
REMARK minimizedRMSD -1
REMARK  0 active torsions:
REMARK  status: ('A' for Active; 'I' for Inactive)
ROOT
ATOM      1  C   UNL d   1      -2.188  -3.171  -4.887  0.00  0.00     0.077 C 
ATOM      2  C1  UNL d   1      -1.411  -3.023  -3.613  0.00  0.00    -0.074 A 
ATOM      3  C2  UNL d   1      -1.431  -4.026  -2.638  0.00  0.00    -0.005 A 
ATOM      4  C3  UNL d   1      -0.696  -3.878  -1.462  0.00  0.00     0.006 A 
ATOM      5  C4  UNL d   1       0.067  -2.729  -1.250  0.00  0.00    -0.005 A 
ATOM      6  C5  UNL d   1       0.101  -1.717  -2.214  0.00  0.00    -0.074 A 
ATOM      7  C6  UNL d   1       0.923  -0.480  -2.006  0.00  0.00     0.077 C 
ATOM      8  C7  UNL d   1      -0.636  -1.875  -3.396  0.00  0.00    -0.001 A 
ENDROOT
TORSDOF 0
ENDMDL
