MODEL 1
REMARK minimizedAffinity -0.226738065
REMARK minimizedRMSD -1
REMARK  2 active torsions:
REMARK  status: ('A' for Active; 'I' for Inactive)
REMARK    1  A    between atoms: C2'_3  and  C1'_4 
REMARK    2  A    between atoms: C1'_4  and  C1_5 
ROOT
ATOM      1  C1  I4B d   1       2.226  -1.267  -0.836  0.00  0.00    -0.075 A 
ATOM      2  C2  I4B d   1       2.988  -0.135  -0.986  0.00  0.00     0.003 A 
ATOM      3  C3  I4B d   1       4.064  -0.116  -1.906  0.00  0.00     0.002 A 
ATOM      4  C4  I4B d   1       4.372  -1.260  -2.615  0.00  0.00    -0.004 A 
ATOM      5  C5  I4B d   1       3.584  -2.399  -2.479  0.00  0.00     0.002 A 
ATOM      6  C6  I4B d   1       2.497  -2.400  -1.593  0.00  0.00     0.003 A 
ENDROOT
BRANCH   1   7
ATOM      7  C1' I4B d   1       1.119  -1.263   0.169  0.00  0.00     0.060 C 
BRANCH   7   8
ATOM      8  C2' I4B d   1      -0.170  -0.939  -0.559  0.00  0.00    -0.013 C 
ATOM      9  C4' I4B d   1      -0.137   0.453  -1.134  0.00  0.00     0.013 C 
ATOM     10  C3' I4B d   1      -0.365  -1.965  -1.635  0.00  0.00     0.013 C 
ENDBRANCH   7   8
ENDBRANCH   1   7
TORSDOF 2
ENDMDL
