MODEL 1
REMARK minimizedAffinity 1.23173201
REMARK minimizedRMSD -1
REMARK  2 active torsions:
REMARK  status: ('A' for Active; 'I' for Inactive)
REMARK    1  A    between atoms: C2'_3  and  C1'_4 
REMARK    2  A    between atoms: C1'_4  and  C1_5 
ROOT
ATOM      1  C1  I4B d   1       2.375   0.237  -1.173  0.00  0.00    -0.075 A 
ATOM      2  C2  I4B d   1       2.703  -1.084  -1.351  0.00  0.00     0.003 A 
ATOM      3  C3  I4B d   1       4.029  -1.450  -1.687  0.00  0.00     0.002 A 
ATOM      4  C4  I4B d   1       4.977  -0.466  -1.883  0.00  0.00    -0.004 A 
ATOM      5  C5  I4B d   1       4.647   0.871  -1.680  0.00  0.00     0.002 A 
ATOM      6  C6  I4B d   1       3.341   1.224  -1.311  0.00  0.00     0.003 A 
ENDROOT
BRANCH   1   7
ATOM      7  C1' I4B d   1       0.957   0.590  -0.852  0.00  0.00     0.060 C 
BRANCH   7   8
ATOM      8  C2' I4B d   1       0.136  -0.683  -0.903  0.00  0.00    -0.013 C 
ATOM      9  C4' I4B d   1      -0.703  -0.840   0.338  0.00  0.00     0.013 C 
ATOM     10  C3' I4B d   1      -0.721  -0.632  -2.133  0.00  0.00     0.013 C 
ENDBRANCH   7   8
ENDBRANCH   1   7
TORSDOF 2
ENDMDL
