MODEL 1
REMARK minimizedAffinity 3.81482196
REMARK minimizedRMSD -1
REMARK  2 active torsions:
REMARK  status: ('A' for Active; 'I' for Inactive)
REMARK    1  A    between atoms: C2'_3  and  C1'_4 
REMARK    2  A    between atoms: C1'_4  and  C1_5 
ROOT
ATOM      1  C1  I4B d   1      -1.334   0.677   0.966  0.00  0.00    -0.075 A 
ATOM      2  C2  I4B d   1      -1.257   1.762   1.803  0.00  0.00     0.003 A 
ATOM      3  C3  I4B d   1      -2.428   2.282   2.406  0.00  0.00     0.002 A 
ATOM      4  C4  I4B d   1      -3.653   1.720   2.107  0.00  0.00    -0.004 A 
ATOM      5  C5  I4B d   1      -3.727   0.606   1.277  0.00  0.00     0.002 A 
ATOM      6  C6  I4B d   1      -2.559   0.073   0.712  0.00  0.00     0.003 A 
ENDROOT
BRANCH   1   7
ATOM      7  C1' I4B d   1      -0.082   0.174   0.320  0.00  0.00     0.060 C 
BRANCH   7   8
ATOM      8  C2' I4B d   1      -0.456  -0.980  -0.587  0.00  0.00    -0.013 C 
ATOM      9  C4' I4B d   1      -0.853  -0.493  -1.955  0.00  0.00     0.013 C 
ATOM     10  C3' I4B d   1       0.720  -1.908  -0.663  0.00  0.00     0.013 C 
ENDBRANCH   7   8
ENDBRANCH   1   7
TORSDOF 2
ENDMDL
