MODEL 1
REMARK minimizedAffinity -3.93164158
REMARK minimizedRMSD -1
REMARK  2 active torsions:
REMARK  status: ('A' for Active; 'I' for Inactive)
REMARK    1  A    between atoms: C2'_3  and  C1'_4 
REMARK    2  A    between atoms: C1'_4  and  C1_5 
ROOT
ATOM      1  C1  I4B d   1      -1.988   0.506   0.418  0.00  0.00    -0.075 A 
ATOM      2  C2  I4B d   1      -2.058  -0.606   1.220  0.00  0.00     0.003 A 
ATOM      3  C3  I4B d   1      -1.235  -1.728   0.957  0.00  0.00     0.002 A 
ATOM      4  C4  I4B d   1      -0.400  -1.715  -0.142  0.00  0.00    -0.004 A 
ATOM      5  C5  I4B d   1      -0.314  -0.579  -0.941  0.00  0.00     0.002 A 
ATOM      6  C6  I4B d   1      -1.104   0.544  -0.653  0.00  0.00     0.003 A 
ENDROOT
BRANCH   1   7
ATOM      7  C1' I4B d   1      -2.895   1.660   0.705  0.00  0.00     0.060 C 
BRANCH   7   8
ATOM      8  C2' I4B d   1      -4.224   1.104   1.173  0.00  0.00    -0.013 C 
ATOM      9  C4' I4B d   1      -4.660   1.747   2.463  0.00  0.00     0.013 C 
ATOM     10  C3' I4B d   1      -5.231   1.336   0.086  0.00  0.00     0.013 C 
ENDBRANCH   7   8
ENDBRANCH   1   7
TORSDOF 2
ENDMDL
