MODEL 1
REMARK minimizedAffinity -2.02808475
REMARK minimizedRMSD -1
REMARK  2 active torsions:
REMARK  status: ('A' for Active; 'I' for Inactive)
REMARK    1  A    between atoms: C2'_3  and  C1'_4 
REMARK    2  A    between atoms: C1'_4  and  C1_5 
ROOT
ATOM      1  C1  I4B d   1      -2.680   0.529   1.630  0.00  0.00    -0.075 A 
ATOM      2  C2  I4B d   1      -3.452   0.564   2.765  0.00  0.00     0.003 A 
ATOM      3  C3  I4B d   1      -4.656   1.307   2.786  0.00  0.00     0.002 A 
ATOM      4  C4  I4B d   1      -5.024   2.037   1.673  0.00  0.00    -0.004 A 
ATOM      5  C5  I4B d   1      -4.252   1.982   0.516  0.00  0.00     0.002 A 
ATOM      6  C6  I4B d   1      -3.079   1.214   0.490  0.00  0.00     0.003 A 
ENDROOT
BRANCH   1   7
ATOM      7  C1' I4B d   1      -1.397  -0.239   1.654  0.00  0.00     0.060 C 
BRANCH   7   8
ATOM      8  C2' I4B d   1      -1.227  -0.906   0.304  0.00  0.00    -0.013 C 
ATOM      9  C4' I4B d   1      -0.169  -0.216  -0.515  0.00  0.00     0.013 C 
ATOM     10  C3' I4B d   1      -0.876  -2.345   0.540  0.00  0.00     0.013 C 
ENDBRANCH   7   8
ENDBRANCH   1   7
TORSDOF 2
ENDMDL
