MODEL 1
REMARK minimizedAffinity -4.88118887
REMARK minimizedRMSD -1
REMARK  2 active torsions:
REMARK  status: ('A' for Active; 'I' for Inactive)
REMARK    1  A    between atoms: C2'_3  and  C1'_4 
REMARK    2  A    between atoms: C1'_4  and  C1_5 
ROOT
ATOM      1  C1  I4B d   1      -1.612  -0.401   1.223  0.00  0.00    -0.075 A 
ATOM      2  C2  I4B d   1      -0.827   0.340   0.375  0.00  0.00     0.003 A 
ATOM      3  C3  I4B d   1       0.118  -0.300  -0.464  0.00  0.00     0.002 A 
ATOM      4  C4  I4B d   1       0.279  -1.669  -0.386  0.00  0.00    -0.004 A 
ATOM      5  C5  I4B d   1      -0.534  -2.420   0.458  0.00  0.00     0.002 A 
ATOM      6  C6  I4B d   1      -1.494  -1.785   1.259  0.00  0.00     0.003 A 
ENDROOT
BRANCH   1   7
ATOM      7  C1' I4B d   1      -2.576   0.310   2.119  0.00  0.00     0.060 C 
BRANCH   7   8
ATOM      8  C2' I4B d   1      -3.744   0.774   1.272  0.00  0.00    -0.013 C 
ATOM      9  C4' I4B d   1      -4.958   1.044   2.120  0.00  0.00     0.013 C 
ATOM     10  C3' I4B d   1      -3.317   2.006   0.530  0.00  0.00     0.013 C 
ENDBRANCH   7   8
ENDBRANCH   1   7
TORSDOF 2
ENDMDL
