MODEL 1
REMARK minimizedAffinity -4.33649111
REMARK minimizedRMSD -1
REMARK  2 active torsions:
REMARK  status: ('A' for Active; 'I' for Inactive)
REMARK    1  A    between atoms: C2'_3  and  C1'_4 
REMARK    2  A    between atoms: C1'_4  and  C1_5 
ROOT
ATOM      1  C1  I4B d   1       0.264  -0.934  -1.400  0.00  0.00    -0.075 A 
ATOM      2  C2  I4B d   1       1.574  -1.338  -1.466  0.00  0.00     0.003 A 
ATOM      3  C3  I4B d   1       1.894  -2.660  -1.857  0.00  0.00     0.002 A 
ATOM      4  C4  I4B d   1       0.877  -3.555  -2.124  0.00  0.00    -0.004 A 
ATOM      5  C5  I4B d   1      -0.450  -3.137  -2.080  0.00  0.00     0.002 A 
ATOM      6  C6  I4B d   1      -0.758  -1.815  -1.728  0.00  0.00     0.003 A 
ENDROOT
BRANCH   1   7
ATOM      7  C1' I4B d   1      -0.039   0.460  -0.951  0.00  0.00     0.060 C 
BRANCH   7   8
ATOM      8  C2' I4B d   1      -1.464   0.486  -0.438  0.00  0.00    -0.013 C 
ATOM      9  C4' I4B d   1      -1.541  -0.011   0.982  0.00  0.00     0.013 C 
ATOM     10  C3' I4B d   1      -1.970   1.893  -0.547  0.00  0.00     0.013 C 
ENDBRANCH   7   8
ENDBRANCH   1   7
TORSDOF 2
ENDMDL
