MODEL 1
REMARK minimizedAffinity 5.17060184
REMARK minimizedRMSD -1
REMARK  2 active torsions:
REMARK  status: ('A' for Active; 'I' for Inactive)
REMARK    1  A    between atoms: C2'_3  and  C1'_4 
REMARK    2  A    between atoms: C1'_4  and  C1_5 
ROOT
ATOM      1  C1  I4B d   1      -1.006   2.972   1.363  0.00  0.00    -0.075 A 
ATOM      2  C2  I4B d   1      -1.306   3.922   2.307  0.00  0.00     0.003 A 
ATOM      3  C3  I4B d   1      -0.341   4.296   3.273  0.00  0.00     0.002 A 
ATOM      4  C4  I4B d   1       0.885   3.663   3.290  0.00  0.00    -0.004 A 
ATOM      5  C5  I4B d   1       1.195   2.716   2.318  0.00  0.00     0.002 A 
ATOM      6  C6  I4B d   1       0.248   2.377   1.341  0.00  0.00     0.003 A 
ENDROOT
BRANCH   1   7
ATOM      7  C1' I4B d   1      -2.061   2.577   0.378  0.00  0.00     0.060 C 
BRANCH   7   8
ATOM      8  C2' I4B d   1      -2.708   1.300   0.874  0.00  0.00    -0.013 C 
ATOM      9  C4' I4B d   1      -1.746   0.485   1.697  0.00  0.00     0.013 C 
ATOM     10  C3' I4B d   1      -3.921   1.676   1.672  0.00  0.00     0.013 C 
ENDBRANCH   7   8
ENDBRANCH   1   7
TORSDOF 2
ENDMDL
