MODEL 1
REMARK minimizedAffinity -2.5427916
REMARK minimizedRMSD -1
REMARK  2 active torsions:
REMARK  status: ('A' for Active; 'I' for Inactive)
REMARK    1  A    between atoms: C2'_3  and  C1'_4 
REMARK    2  A    between atoms: C1'_4  and  C1_5 
ROOT
ATOM      1  C1  I4B d   1       0.388   0.041   0.222  0.00  0.00    -0.075 A 
ATOM      2  C2  I4B d   1       0.625  -0.568  -0.986  0.00  0.00     0.003 A 
ATOM      3  C3  I4B d   1       0.774  -1.974  -1.058  0.00  0.00     0.002 A 
ATOM      4  C4  I4B d   1       0.731  -2.722   0.100  0.00  0.00    -0.004 A 
ATOM      5  C5  I4B d   1       0.468  -2.106   1.321  0.00  0.00     0.002 A 
ATOM      6  C6  I4B d   1       0.284  -0.717   1.381  0.00  0.00     0.003 A 
ENDROOT
BRANCH   1   7
ATOM      7  C1' I4B d   1       0.268   1.531   0.266  0.00  0.00     0.060 C 
BRANCH   7   8
ATOM      8  C2' I4B d   1       1.425   2.068   1.085  0.00  0.00    -0.013 C 
ATOM      9  C4' I4B d   1       2.681   2.158   0.260  0.00  0.00     0.013 C 
ATOM     10  C3' I4B d   1       1.030   3.413   1.617  0.00  0.00     0.013 C 
ENDBRANCH   7   8
ENDBRANCH   1   7
TORSDOF 2
ENDMDL
