MODEL 1
REMARK minimizedAffinity 2.36330795
REMARK minimizedRMSD -1
REMARK  0 active torsions:
REMARK  status: ('A' for Active; 'I' for Inactive)
ROOT
ATOM      1  C1  DEN d   1       0.485  -1.835  -1.531  0.00  0.00     0.130 A 
ATOM      2  C2  DEN d   1      -0.807  -1.816  -0.850  0.00  0.00    -0.031 A 
ATOM      3  C3  DEN d   1      -0.806  -0.686   0.100  0.00  0.00     0.027 A 
ATOM      4  C4  DEN d   1       1.059   1.032   0.577  0.00  0.00     0.027 A 
ATOM      5  C5  DEN d   1       2.342   1.414   0.253  0.00  0.00    -0.003 A 
ATOM      6  C6  DEN d   1       3.102   0.727  -0.656  0.00  0.00     0.001 A 
ATOM      7  C7  DEN d   1       2.569  -0.355  -1.306  0.00  0.00     0.017 A 
ATOM      8  C8  DEN d   1       1.279  -0.751  -0.980  0.00  0.00    -0.094 A 
ATOM      9  C9  DEN d   1       0.522  -0.036  -0.067  0.00  0.00    -0.072 A 
ENDROOT
TORSDOF 0
ENDMDL
