MODEL 1
REMARK minimizedAffinity 0.600499392
REMARK minimizedRMSD -1
REMARK  0 active torsions:
REMARK  status: ('A' for Active; 'I' for Inactive)
ROOT
ATOM      1  C1  DEN d   1       0.787  -0.228  -0.538  0.00  0.00     0.130 A 
ATOM      2  C2  DEN d   1      -0.292  -0.059  -1.507  0.00  0.00    -0.031 A 
ATOM      3  C3  DEN d   1      -0.824   1.311  -1.365  0.00  0.00     0.027 A 
ATOM      4  C4  DEN d   1      -0.083   3.180   0.251  0.00  0.00     0.027 A 
ATOM      5  C5  DEN d   1       0.786   3.504   1.269  0.00  0.00    -0.003 A 
ATOM      6  C6  DEN d   1       1.686   2.603   1.776  0.00  0.00     0.001 A 
ATOM      7  C7  DEN d   1       1.768   1.348   1.234  0.00  0.00     0.017 A 
ATOM      8  C8  DEN d   1       0.890   1.012   0.212  0.00  0.00    -0.094 A 
ATOM      9  C9  DEN d   1      -0.004   1.940  -0.295  0.00  0.00    -0.072 A 
ENDROOT
TORSDOF 0
ENDMDL
