MODEL 1
REMARK minimizedAffinity 15.249897
REMARK minimizedRMSD -1
REMARK  0 active torsions:
REMARK  status: ('A' for Active; 'I' for Inactive)
ROOT
ATOM      1  C1  DEN d   1       2.987  -0.084  -2.036  0.00  0.00     0.130 A 
ATOM      2  C2  DEN d   1       2.356  -0.322  -0.741  0.00  0.00    -0.031 A 
ATOM      3  C3  DEN d   1       3.081   0.469   0.273  0.00  0.00     0.027 A 
ATOM      4  C4  DEN d   1       5.107   2.036  -0.035  0.00  0.00     0.027 A 
ATOM      5  C5  DEN d   1       6.000   2.549  -0.949  0.00  0.00    -0.003 A 
ATOM      6  C6  DEN d   1       5.973   2.197  -2.273  0.00  0.00     0.001 A 
ATOM      7  C7  DEN d   1       5.005   1.342  -2.728  0.00  0.00     0.017 A 
ATOM      8  C8  DEN d   1       4.106   0.814  -1.811  0.00  0.00    -0.094 A 
ATOM      9  C9  DEN d   1       4.142   1.192  -0.480  0.00  0.00    -0.072 A 
ENDROOT
TORSDOF 0
ENDMDL
