MODEL 1
REMARK minimizedAffinity 9.11313343
REMARK minimizedRMSD -1
REMARK  0 active torsions:
REMARK  status: ('A' for Active; 'I' for Inactive)
ROOT
ATOM      1  C1  DEN d   1       4.847   2.624   0.127  0.00  0.00     0.130 A 
ATOM      2  C2  DEN d   1       6.000   2.815  -0.749  0.00  0.00    -0.031 A 
ATOM      3  C3  DEN d   1       5.880   1.867  -1.874  0.00  0.00     0.027 A 
ATOM      4  C4  DEN d   1       4.029   0.133  -2.345  0.00  0.00     0.027 A 
ATOM      5  C5  DEN d   1       2.850  -0.406  -1.877  0.00  0.00    -0.003 A 
ATOM      6  C6  DEN d   1       2.277   0.001  -0.701  0.00  0.00     0.001 A 
ATOM      7  C7  DEN d   1       2.859   1.006   0.025  0.00  0.00     0.017 A 
ATOM      8  C8  DEN d   1       4.051   1.549  -0.436  0.00  0.00    -0.094 A 
ATOM      9  C9  DEN d   1       4.608   1.133  -1.633  0.00  0.00    -0.072 A 
ENDROOT
TORSDOF 0
ENDMDL
