MODEL 1
REMARK minimizedAffinity 9.52776527
REMARK minimizedRMSD -1
REMARK  0 active torsions:
REMARK  status: ('A' for Active; 'I' for Inactive)
ROOT
ATOM      1  C1  DEN d   1       1.827   3.009   5.671  0.00  0.00     0.130 A 
ATOM      2  C2  DEN d   1       1.109   2.583   4.473  0.00  0.00    -0.031 A 
ATOM      3  C3  DEN d   1       1.968   2.857   3.303  0.00  0.00     0.027 A 
ATOM      4  C4  DEN d   1       4.331   3.888   3.232  0.00  0.00     0.027 A 
ATOM      5  C5  DEN d   1       5.348   4.418   3.995  0.00  0.00    -0.003 A 
ATOM      6  C6  DEN d   1       5.250   4.546   5.355  0.00  0.00     0.001 A 
ATOM      7  C7  DEN d   1       4.128   4.097   6.000  0.00  0.00     0.017 A 
ATOM      8  C8  DEN d   1       3.095   3.568   5.237  0.00  0.00    -0.094 A 
ATOM      9  C9  DEN d   1       3.218   3.436   3.864  0.00  0.00    -0.072 A 
ENDROOT
TORSDOF 0
ENDMDL
