MODEL 1
REMARK minimizedAffinity 1.03081989
REMARK minimizedRMSD -1
REMARK  0 active torsions:
REMARK  status: ('A' for Active; 'I' for Inactive)
ROOT
ATOM      1  C1  DEN d   1       1.698   4.917   4.109  0.00  0.00     0.130 A 
ATOM      2  C2  DEN d   1       1.800   3.892   3.073  0.00  0.00    -0.031 A 
ATOM      3  C3  DEN d   1       3.209   3.457   2.997  0.00  0.00     0.027 A 
ATOM      4  C4  DEN d   1       5.232   4.263   4.379  0.00  0.00     0.027 A 
ATOM      5  C5  DEN d   1       5.642   5.128   5.369  0.00  0.00    -0.003 A 
ATOM      6  C6  DEN d   1       4.780   6.000   5.980  0.00  0.00     0.001 A 
ATOM      7  C7  DEN d   1       3.454   5.995   5.638  0.00  0.00     0.017 A 
ATOM      8  C8  DEN d   1       3.034   5.131   4.635  0.00  0.00    -0.094 A 
ATOM      9  C9  DEN d   1       3.919   4.248   4.038  0.00  0.00    -0.072 A 
ENDROOT
TORSDOF 0
ENDMDL
