MODEL 1
REMARK minimizedAffinity 7.83002901
REMARK minimizedRMSD -1
REMARK  0 active torsions:
REMARK  status: ('A' for Active; 'I' for Inactive)
ROOT
ATOM      1  C1  DEN d   1       1.317   2.983   6.000  0.00  0.00     0.130 A 
ATOM      2  C2  DEN d   1       0.346   2.142   5.305  0.00  0.00    -0.031 A 
ATOM      3  C3  DEN d   1       0.649   2.192   3.861  0.00  0.00     0.027 A 
ATOM      4  C4  DEN d   1       2.520   3.481   2.639  0.00  0.00     0.027 A 
ATOM      5  C5  DEN d   1       3.583   4.340   2.805  0.00  0.00    -0.003 A 
ATOM      6  C6  DEN d   1       3.942   4.831   4.032  0.00  0.00     0.001 A 
ATOM      7  C7  DEN d   1       3.258   4.429   5.149  0.00  0.00     0.017 A 
ATOM      8  C8  DEN d   1       2.180   3.568   4.990  0.00  0.00    -0.094 A 
ATOM      9  C9  DEN d   1       1.841   3.074   3.742  0.00  0.00    -0.072 A 
ENDROOT
TORSDOF 0
ENDMDL
