MODEL 1
REMARK minimizedAffinity 5.72074699
REMARK minimizedRMSD -1
REMARK  0 active torsions:
REMARK  status: ('A' for Active; 'I' for Inactive)
ROOT
ATOM      1  C1  DEN d   1       0.079   0.945  -0.952  0.00  0.00     0.130 A 
ATOM      2  C2  DEN d   1      -0.824  -0.011  -1.586  0.00  0.00    -0.031 A 
ATOM      3  C3  DEN d   1      -2.210   0.421  -1.316  0.00  0.00     0.027 A 
ATOM      4  C4  DEN d   1      -3.041   2.472   0.010  0.00  0.00     0.027 A 
ATOM      5  C5  DEN d   1      -2.648   3.569   0.744  0.00  0.00    -0.003 A 
ATOM      6  C6  DEN d   1      -1.329   3.847   0.991  0.00  0.00     0.001 A 
ATOM      7  C7  DEN d   1      -0.355   3.043   0.461  0.00  0.00     0.017 A 
ATOM      8  C8  DEN d   1      -0.744   1.931  -0.274  0.00  0.00    -0.094 A 
ATOM      9  C9  DEN d   1      -2.082   1.673  -0.523  0.00  0.00    -0.072 A 
ENDROOT
TORSDOF 0
ENDMDL
