MODEL 1
REMARK minimizedAffinity 5.02843618
REMARK minimizedRMSD -1
REMARK  0 active torsions:
REMARK  status: ('A' for Active; 'I' for Inactive)
ROOT
ATOM      1  C1  DEN d   1       0.486   3.614   1.637  0.00  0.00     0.130 A 
ATOM      2  C2  DEN d   1      -0.760   3.764   0.890  0.00  0.00    -0.031 A 
ATOM      3  C3  DEN d   1      -0.705   2.861  -0.276  0.00  0.00     0.027 A 
ATOM      4  C4  DEN d   1       1.176   1.248  -0.993  0.00  0.00     0.027 A 
ATOM      5  C5  DEN d   1       2.434   0.781  -0.681  0.00  0.00    -0.003 A 
ATOM      6  C6  DEN d   1       3.139   1.247   0.398  0.00  0.00     0.001 A 
ATOM      7  C7  DEN d   1       2.572   2.176   1.229  0.00  0.00     0.017 A 
ATOM      8  C8  DEN d   1       1.307   2.657   0.917  0.00  0.00    -0.094 A 
ATOM      9  C9  DEN d   1       0.606   2.165  -0.171  0.00  0.00    -0.072 A 
ENDROOT
TORSDOF 0
ENDMDL
