MODEL 1
REMARK minimizedAffinity -1.2309351
REMARK minimizedRMSD -1
REMARK  0 active torsions:
REMARK  status: ('A' for Active; 'I' for Inactive)
ROOT
ATOM      1  C   UNL d   1      -5.411  -5.978  -1.232  0.00  0.00     0.077 C 
ATOM      2  C1  UNL d   1      -5.361  -5.322  -2.580  0.00  0.00    -0.074 A 
ATOM      3  C2  UNL d   1      -6.000  -4.099  -2.809  0.00  0.00    -0.005 A 
ATOM      4  C3  UNL d   1      -5.937  -3.496  -4.065  0.00  0.00     0.006 A 
ATOM      5  C4  UNL d   1      -5.235  -4.109  -5.104  0.00  0.00    -0.005 A 
ATOM      6  C5  UNL d   1      -4.590  -5.332  -4.894  0.00  0.00    -0.074 A 
ATOM      7  C6  UNL d   1      -3.824  -6.000  -5.997  0.00  0.00     0.077 C 
ATOM      8  C7  UNL d   1      -4.652  -5.928  -3.627  0.00  0.00    -0.001 A 
ENDROOT
TORSDOF 0
ENDMDL
