MODEL 1
REMARK minimizedAffinity 6.23263073
REMARK minimizedRMSD -1
REMARK  0 active torsions:
REMARK  status: ('A' for Active; 'I' for Inactive)
ROOT
ATOM      1  C   UNL d   1       4.253  -0.616  -2.067  0.00  0.00     0.077 C 
ATOM      2  C1  UNL d   1       4.850  -0.691  -3.441  0.00  0.00    -0.074 A 
ATOM      3  C2  UNL d   1       5.143   0.471  -4.162  0.00  0.00    -0.005 A 
ATOM      4  C3  UNL d   1       5.707   0.386  -5.435  0.00  0.00     0.006 A 
ATOM      5  C4  UNL d   1       5.984  -0.860  -5.998  0.00  0.00    -0.005 A 
ATOM      6  C5  UNL d   1       5.699  -2.033  -5.291  0.00  0.00    -0.074 A 
ATOM      7  C6  UNL d   1       6.000  -3.380  -5.878  0.00  0.00     0.077 C 
ATOM      8  C7  UNL d   1       5.139  -1.939  -4.010  0.00  0.00    -0.001 A 
ENDROOT
TORSDOF 0
ENDMDL
