MODEL 1
REMARK minimizedAffinity 5.14847088
REMARK minimizedRMSD -1
REMARK  0 active torsions:
REMARK  status: ('A' for Active; 'I' for Inactive)
ROOT
ATOM      1  C   UNL d   1       5.990  -2.615  -5.998  0.00  0.00     0.077 C 
ATOM      2  C1  UNL d   1       5.264  -1.505  -5.297  0.00  0.00    -0.074 A 
ATOM      3  C2  UNL d   1       4.748  -1.684  -4.010  0.00  0.00    -0.005 A 
ATOM      4  C3  UNL d   1       4.083  -0.639  -3.367  0.00  0.00     0.006 A 
ATOM      5  C4  UNL d   1       3.930   0.593  -4.004  0.00  0.00    -0.005 A 
ATOM      6  C5  UNL d   1       4.441   0.790  -5.291  0.00  0.00    -0.074 A 
ATOM      7  C6  UNL d   1       4.293   2.111  -5.986  0.00  0.00     0.077 C 
ATOM      8  C7  UNL d   1       5.113  -0.262  -5.927  0.00  0.00    -0.001 A 
ENDROOT
TORSDOF 0
ENDMDL
