MODEL 1
REMARK minimizedAffinity 1.57155776
REMARK minimizedRMSD -1
REMARK  0 active torsions:
REMARK  status: ('A' for Active; 'I' for Inactive)
ROOT
ATOM      1  C   UNL d   1      -5.986  -3.839  -5.997  0.00  0.00     0.077 C 
ATOM      2  C1  UNL d   1      -5.487  -4.311  -4.663  0.00  0.00    -0.074 A 
ATOM      3  C2  UNL d   1      -4.906  -5.575  -4.520  0.00  0.00    -0.005 A 
ATOM      4  C3  UNL d   1      -4.438  -5.997  -3.276  0.00  0.00     0.006 A 
ATOM      5  C4  UNL d   1      -4.546  -5.161  -2.164  0.00  0.00    -0.005 A 
ATOM      6  C5  UNL d   1      -5.124  -3.893  -2.288  0.00  0.00    -0.074 A 
ATOM      7  C6  UNL d   1      -5.239  -2.978  -1.106  0.00  0.00     0.077 C 
ATOM      8  C7  UNL d   1      -5.586  -3.474  -3.543  0.00  0.00    -0.001 A 
ENDROOT
TORSDOF 0
ENDMDL
