MODEL 1
REMARK minimizedAffinity 2.93671942
REMARK minimizedRMSD -1
REMARK  0 active torsions:
REMARK  status: ('A' for Active; 'I' for Inactive)
ROOT
ATOM      1  C   UNL d   1       3.924   0.962  -5.562  0.00  0.00     0.077 C 
ATOM      2  C1  UNL d   1       4.097  -0.026  -4.447  0.00  0.00    -0.074 A 
ATOM      3  C2  UNL d   1       5.312  -0.133  -3.763  0.00  0.00    -0.005 A 
ATOM      4  C3  UNL d   1       5.454  -1.050  -2.722  0.00  0.00     0.006 A 
ATOM      5  C4  UNL d   1       4.385  -1.867  -2.354  0.00  0.00    -0.005 A 
ATOM      6  C5  UNL d   1       3.161  -1.773  -3.025  0.00  0.00    -0.074 A 
ATOM      7  C6  UNL d   1       1.999  -2.637  -2.636  0.00  0.00     0.077 C 
ATOM      8  C7  UNL d   1       3.024  -0.844  -4.066  0.00  0.00    -0.001 A 
ENDROOT
TORSDOF 0
ENDMDL
