MODEL 1
REMARK minimizedAffinity -0.577417433
REMARK minimizedRMSD -1
REMARK  0 active torsions:
REMARK  status: ('A' for Active; 'I' for Inactive)
ROOT
ATOM      1  C   UNL d   1      -5.733  -2.243  -6.000  0.00  0.00     0.077 C 
ATOM      2  C1  UNL d   1      -5.643  -3.557  -5.282  0.00  0.00    -0.074 A 
ATOM      3  C2  UNL d   1      -6.000  -4.750  -5.919  0.00  0.00    -0.005 A 
ATOM      4  C3  UNL d   1      -5.902  -5.965  -5.241  0.00  0.00     0.006 A 
ATOM      5  C4  UNL d   1      -5.448  -6.000  -3.922  0.00  0.00    -0.005 A 
ATOM      6  C5  UNL d   1      -5.086  -4.817  -3.269  0.00  0.00    -0.074 A 
ATOM      7  C6  UNL d   1      -4.587  -4.838  -1.855  0.00  0.00     0.077 C 
ATOM      8  C7  UNL d   1      -5.180  -3.601  -3.959  0.00  0.00    -0.001 A 
ENDROOT
TORSDOF 0
ENDMDL
