MODEL 1
REMARK minimizedAffinity 6.13857698
REMARK minimizedRMSD -1
REMARK  0 active torsions:
REMARK  status: ('A' for Active; 'I' for Inactive)
ROOT
ATOM      1  C   UNL d   1       3.309  -1.417  -2.903  0.00  0.00     0.077 C 
ATOM      2  C1  UNL d   1       4.123  -0.760  -3.978  0.00  0.00    -0.074 A 
ATOM      3  C2  UNL d   1       5.252  -1.391  -4.510  0.00  0.00    -0.005 A 
ATOM      4  C3  UNL d   1       5.994  -0.772  -5.516  0.00  0.00     0.006 A 
ATOM      5  C4  UNL d   1       5.615   0.481  -5.999  0.00  0.00    -0.005 A 
ATOM      6  C5  UNL d   1       4.489   1.126  -5.480  0.00  0.00    -0.074 A 
ATOM      7  C6  UNL d   1       4.062   2.468  -5.995  0.00  0.00     0.077 C 
ATOM      8  C7  UNL d   1       3.744   0.495  -4.474  0.00  0.00    -0.001 A 
ENDROOT
TORSDOF 0
ENDMDL
