MODEL 1
REMARK minimizedAffinity 8.68686485
REMARK minimizedRMSD -1
REMARK  0 active torsions:
REMARK  status: ('A' for Active; 'I' for Inactive)
ROOT
ATOM      1  C   UNL d   1       3.875  -0.962  -2.254  0.00  0.00     0.077 C 
ATOM      2  C1  UNL d   1       4.437  -0.462  -3.551  0.00  0.00    -0.074 A 
ATOM      3  C2  UNL d   1       5.493  -1.128  -4.181  0.00  0.00    -0.005 A 
ATOM      4  C3  UNL d   1       5.999  -0.657  -5.392  0.00  0.00     0.006 A 
ATOM      5  C4  UNL d   1       5.456   0.484  -5.984  0.00  0.00    -0.005 A 
ATOM      6  C5  UNL d   1       4.400   1.163  -5.369  0.00  0.00    -0.074 A 
ATOM      7  C6  UNL d   1       3.798   2.385  -5.997  0.00  0.00     0.077 C 
ATOM      8  C7  UNL d   1       3.892   0.679  -4.156  0.00  0.00    -0.001 A 
ENDROOT
TORSDOF 0
ENDMDL
