MODEL 1
REMARK minimizedAffinity 1.13597155
REMARK minimizedRMSD -1
REMARK  0 active torsions:
REMARK  status: ('A' for Active; 'I' for Inactive)
ROOT
ATOM      1  C   UNL d   1       1.952  -1.442   1.777  0.00  0.00     0.077 C 
ATOM      2  C1  UNL d   1       2.039  -2.272   0.530  0.00  0.00    -0.074 A 
ATOM      3  C2  UNL d   1       1.213  -3.386   0.349  0.00  0.00    -0.005 A 
ATOM      4  C3  UNL d   1       1.298  -4.142  -0.820  0.00  0.00     0.006 A 
ATOM      5  C4  UNL d   1       2.209  -3.792  -1.818  0.00  0.00    -0.005 A 
ATOM      6  C5  UNL d   1       3.042  -2.681  -1.655  0.00  0.00    -0.074 A 
ATOM      7  C6  UNL d   1       4.018  -2.286  -2.722  0.00  0.00     0.077 C 
ATOM      8  C7  UNL d   1       2.945  -1.922  -0.481  0.00  0.00    -0.001 A 
ENDROOT
TORSDOF 0
ENDMDL
