MODEL 1
REMARK minimizedAffinity 3.7458365
REMARK minimizedRMSD -1
REMARK  0 active torsions:
REMARK  status: ('A' for Active; 'I' for Inactive)
ROOT
ATOM      1  C   UNL d   1       3.789   2.322  -3.139  0.00  0.00     0.077 C 
ATOM      2  C1  UNL d   1       4.553   1.309  -3.938  0.00  0.00    -0.074 A 
ATOM      3  C2  UNL d   1       4.936   1.575  -5.257  0.00  0.00    -0.005 A 
ATOM      4  C3  UNL d   1       5.655   0.627  -5.985  0.00  0.00     0.006 A 
ATOM      5  C4  UNL d   1       5.998  -0.594  -5.403  0.00  0.00    -0.005 A 
ATOM      6  C5  UNL d   1       5.625  -0.877  -4.086  0.00  0.00    -0.074 A 
ATOM      7  C6  UNL d   1       5.994  -2.180  -3.442  0.00  0.00     0.077 C 
ATOM      8  C7  UNL d   1       4.908   0.084  -3.358  0.00  0.00    -0.001 A 
ENDROOT
TORSDOF 0
ENDMDL
