MODEL 1
REMARK minimizedAffinity 4.11345434
REMARK minimizedRMSD -1
REMARK  0 active torsions:
REMARK  status: ('A' for Active; 'I' for Inactive)
ROOT
ATOM      1  C4' PXY d   1       1.637   2.121  -0.547  0.00  0.00     0.077 C 
ATOM      2  C1' PXY d   1      -1.434  -2.757  -0.102  0.00  0.00     0.077 C 
ATOM      3  C1  PXY d   1      -0.623  -1.480  -0.207  0.00  0.00    -0.082 A 
ATOM      4  C2  PXY d   1      -1.040  -0.504  -0.997  0.00  0.00     0.003 A 
ATOM      5  C3  PXY d   1      -0.302   0.645  -1.129  0.00  0.00     0.003 A 
ATOM      6  C4  PXY d   1       0.846   0.818  -0.403  0.00  0.00    -0.082 A 
ATOM      7  C5  PXY d   1       1.272  -0.169   0.414  0.00  0.00     0.003 A 
ATOM      8  C6  PXY d   1       0.530  -1.344   0.501  0.00  0.00     0.003 A 
ENDROOT
TORSDOF 0
ENDMDL
