MODEL 1
REMARK minimizedAffinity 11.922533
REMARK minimizedRMSD -1
REMARK  0 active torsions:
REMARK  status: ('A' for Active; 'I' for Inactive)
ROOT
ATOM      1  C4' PXY d   1      -1.947  -5.603   1.175  0.00  0.00     0.077 C 
ATOM      2  C1' PXY d   1       2.543  -1.970   0.939  0.00  0.00     0.077 C 
ATOM      3  C1  PXY d   1       1.374  -2.933   1.000  0.00  0.00    -0.082 A 
ATOM      4  C2  PXY d   1       0.172  -2.527   0.625  0.00  0.00     0.003 A 
ATOM      5  C3  PXY d   1      -0.903  -3.375   0.703  0.00  0.00     0.003 A 
ATOM      6  C4  PXY d   1      -0.736  -4.668   1.121  0.00  0.00    -0.082 A 
ATOM      7  C5  PXY d   1       0.489  -5.094   1.496  0.00  0.00     0.003 A 
ATOM      8  C6  PXY d   1       1.559  -4.205   1.447  0.00  0.00     0.003 A 
ENDROOT
TORSDOF 0
ENDMDL
