MODEL 1
REMARK minimizedAffinity 6.75736046
REMARK minimizedRMSD -1
REMARK  0 active torsions:
REMARK  status: ('A' for Active; 'I' for Inactive)
ROOT
ATOM      1  C4' PXY d   1       1.345  -5.989   1.256  0.00  0.00     0.077 C 
ATOM      2  C1' PXY d   1      -1.881  -1.530  -0.510  0.00  0.00     0.077 C 
ATOM      3  C1  PXY d   1      -1.024  -2.694  -0.052  0.00  0.00    -0.082 A 
ATOM      4  C2  PXY d   1      -1.584  -3.873   0.165  0.00  0.00     0.003 A 
ATOM      5  C3  PXY d   1      -0.830  -4.928   0.610  0.00  0.00     0.003 A 
ATOM      6  C4  PXY d   1       0.521  -4.789   0.784  0.00  0.00    -0.082 A 
ATOM      7  C5  PXY d   1       1.102  -3.592   0.555  0.00  0.00     0.003 A 
ATOM      8  C6  PXY d   1       0.311  -2.522   0.143  0.00  0.00     0.003 A 
ENDROOT
TORSDOF 0
ENDMDL
