MODEL 1
REMARK minimizedAffinity -1.29809403
REMARK minimizedRMSD -1
REMARK  0 active torsions:
REMARK  status: ('A' for Active; 'I' for Inactive)
ROOT
ATOM      1  C4' PXY d   1       5.998  -2.426  -5.972  0.00  0.00     0.077 C 
ATOM      2  C1' PXY d   1       5.979   1.859  -2.091  0.00  0.00     0.077 C 
ATOM      3  C1  PXY d   1       5.979   0.743  -3.118  0.00  0.00    -0.082 A 
ATOM      4  C2  PXY d   1       5.968  -0.517  -2.714  0.00  0.00     0.003 A 
ATOM      5  C3  PXY d   1       6.000  -1.538  -3.629  0.00  0.00     0.003 A 
ATOM      6  C4  PXY d   1       5.989  -1.267  -4.971  0.00  0.00    -0.082 A 
ATOM      7  C5  PXY d   1       5.990   0.016  -5.390  0.00  0.00     0.003 A 
ATOM      8  C6  PXY d   1       5.999   1.038  -4.446  0.00  0.00     0.003 A 
ENDROOT
TORSDOF 0
ENDMDL
