MODEL 1
REMARK minimizedAffinity -2.28420639
REMARK minimizedRMSD -1
REMARK  0 active torsions:
REMARK  status: ('A' for Active; 'I' for Inactive)
ROOT
ATOM      1  C4' PXY d   1       2.983   4.082  -3.774  0.00  0.00     0.077 C 
ATOM      2  C1' PXY d   1       0.369  -0.406  -1.235  0.00  0.00     0.077 C 
ATOM      3  C1  PXY d   1       1.056   0.764  -1.912  0.00  0.00    -0.082 A 
ATOM      4  C2  PXY d   1       1.629   1.701  -1.175  0.00  0.00     0.003 A 
ATOM      5  C3  PXY d   1       2.227   2.782  -1.769  0.00  0.00     0.003 A 
ATOM      6  C4  PXY d   1       2.286   2.878  -3.134  0.00  0.00    -0.082 A 
ATOM      7  C5  PXY d   1       1.713   1.920  -3.893  0.00  0.00     0.003 A 
ATOM      8  C6  PXY d   1       1.075   0.852  -3.270  0.00  0.00     0.003 A 
ENDROOT
TORSDOF 0
ENDMDL
