MODEL 1
REMARK minimizedAffinity 1.84557295
REMARK minimizedRMSD -1
REMARK  0 active torsions:
REMARK  status: ('A' for Active; 'I' for Inactive)
ROOT
ATOM      1  C4' PXY d   1       5.967  -2.631  -5.931  0.00  0.00     0.077 C 
ATOM      2  C1' PXY d   1       5.999   1.977  -2.442  0.00  0.00     0.077 C 
ATOM      3  C1  PXY d   1       5.996   0.762  -3.347  0.00  0.00    -0.082 A 
ATOM      4  C2  PXY d   1       5.993   0.924  -4.661  0.00  0.00     0.003 A 
ATOM      5  C3  PXY d   1       5.958  -0.164  -5.494  0.00  0.00     0.003 A 
ATOM      6  C4  PXY d   1       5.980  -1.432  -4.979  0.00  0.00    -0.082 A 
ATOM      7  C5  PXY d   1       5.994  -1.607  -3.640  0.00  0.00     0.003 A 
ATOM      8  C6  PXY d   1       5.988  -0.489  -2.811  0.00  0.00     0.003 A 
ENDROOT
TORSDOF 0
ENDMDL
