MODEL 1
REMARK minimizedAffinity -1.89279926
REMARK minimizedRMSD -1
REMARK  0 active torsions:
REMARK  status: ('A' for Active; 'I' for Inactive)
ROOT
ATOM      1  C4' PXY d   1       5.998  -2.468  -5.978  0.00  0.00     0.077 C 
ATOM      2  C1' PXY d   1       5.650   2.106  -2.461  0.00  0.00     0.077 C 
ATOM      3  C1  PXY d   1       5.735   0.913  -3.393  0.00  0.00    -0.082 A 
ATOM      4  C2  PXY d   1       5.886  -0.301  -2.888  0.00  0.00     0.003 A 
ATOM      5  C3  PXY d   1       5.997  -1.387  -3.718  0.00  0.00     0.003 A 
ATOM      6  C4  PXY d   1       5.898  -1.236  -5.075  0.00  0.00    -0.082 A 
ATOM      7  C5  PXY d   1       5.733  -0.002  -5.596  0.00  0.00     0.003 A 
ATOM      8  C6  PXY d   1       5.664   1.093  -4.739  0.00  0.00     0.003 A 
ENDROOT
TORSDOF 0
ENDMDL
