MODEL 1
REMARK minimizedAffinity 11.0457878
REMARK minimizedRMSD -1
REMARK  0 active torsions:
REMARK  status: ('A' for Active; 'I' for Inactive)
ROOT
ATOM      1  C4' PXY d   1       2.307   2.285   0.198  0.00  0.00     0.077 C 
ATOM      2  C1' PXY d   1       2.937   4.098  -5.255  0.00  0.00     0.077 C 
ATOM      3  C1  PXY d   1       2.762   3.630  -3.824  0.00  0.00    -0.082 A 
ATOM      4  C2  PXY d   1       3.793   3.118  -3.171  0.00  0.00     0.003 A 
ATOM      5  C3  PXY d   1       3.644   2.661  -1.887  0.00  0.00     0.003 A 
ATOM      6  C4  PXY d   1       2.440   2.778  -1.246  0.00  0.00    -0.082 A 
ATOM      7  C5  PXY d   1       1.386   3.309  -1.901  0.00  0.00     0.003 A 
ATOM      8  C6  PXY d   1       1.548   3.729  -3.218  0.00  0.00     0.003 A 
ENDROOT
TORSDOF 0
ENDMDL
