MODEL 1
REMARK minimizedAffinity 4.60476303
REMARK minimizedRMSD -1
REMARK  0 active torsions:
REMARK  status: ('A' for Active; 'I' for Inactive)
ROOT
ATOM      1  C4' PXY d   1       5.915  -2.382  -5.998  0.00  0.00     0.077 C 
ATOM      2  C1' PXY d   1       5.881   2.076  -2.319  0.00  0.00     0.077 C 
ATOM      3  C1  PXY d   1       5.895   0.900  -3.274  0.00  0.00    -0.082 A 
ATOM      4  C2  PXY d   1       5.908   1.117  -4.579  0.00  0.00     0.003 A 
ATOM      5  C3  PXY d   1       5.889   0.065  -5.458  0.00  0.00     0.003 A 
ATOM      6  C4  PXY d   1       5.910  -1.224  -4.996  0.00  0.00    -0.082 A 
ATOM      7  C5  PXY d   1       5.907  -1.454  -3.666  0.00  0.00     0.003 A 
ATOM      8  C6  PXY d   1       5.885  -0.372  -2.791  0.00  0.00     0.003 A 
ENDROOT
TORSDOF 0
ENDMDL
