MODEL 1
REMARK minimizedAffinity 2.63016415
REMARK minimizedRMSD -1
REMARK  0 active torsions:
REMARK  status: ('A' for Active; 'I' for Inactive)
ROOT
ATOM      1  C4' PXY d   1       0.405   2.288  -0.928  0.00  0.00     0.077 C 
ATOM      2  C1' PXY d   1       1.742  -2.865  -3.182  0.00  0.00     0.077 C 
ATOM      3  C1  PXY d   1       1.384  -1.519  -2.582  0.00  0.00    -0.082 A 
ATOM      4  C2  PXY d   1       1.448  -0.431  -3.331  0.00  0.00     0.003 A 
ATOM      5  C3  PXY d   1       1.159   0.798  -2.796  0.00  0.00     0.003 A 
ATOM      6  C4  PXY d   1       0.748   0.907  -1.494  0.00  0.00    -0.082 A 
ATOM      7  C5  PXY d   1       0.669  -0.200  -0.726  0.00  0.00     0.003 A 
ATOM      8  C6  PXY d   1       1.007  -1.433  -1.277  0.00  0.00     0.003 A 
ENDROOT
TORSDOF 0
ENDMDL
