MODEL 1
REMARK minimizedAffinity 12.0501328
REMARK minimizedRMSD -1
REMARK  0 active torsions:
REMARK  status: ('A' for Active; 'I' for Inactive)
ROOT
ATOM      1  C4' PXY d   1      -0.449  -0.836   0.090  0.00  0.00     0.077 C 
ATOM      2  C1' PXY d   1       1.636   1.994  -4.499  0.00  0.00     0.077 C 
ATOM      3  C1  PXY d   1       1.089   1.241  -3.302  0.00  0.00    -0.082 A 
ATOM      4  C2  PXY d   1       0.428   1.897  -2.362  0.00  0.00     0.003 A 
ATOM      5  C3  PXY d   1      -0.046   1.237  -1.258  0.00  0.00     0.003 A 
ATOM      6  C4  PXY d   1       0.113  -0.118  -1.140  0.00  0.00    -0.082 A 
ATOM      7  C5  PXY d   1       0.776  -0.797  -2.100  0.00  0.00     0.003 A 
ATOM      8  C6  PXY d   1       1.285  -0.101  -3.193  0.00  0.00     0.003 A 
ENDROOT
TORSDOF 0
ENDMDL
