MODEL 1
REMARK minimizedAffinity 2.12646818
REMARK minimizedRMSD -1
REMARK  0 active torsions:
REMARK  status: ('A' for Active; 'I' for Inactive)
ROOT
ATOM      1  C4' PXY d   1       1.229  -2.183  -3.575  0.00  0.00     0.077 C 
ATOM      2  C1' PXY d   1       0.867   2.692  -0.491  0.00  0.00     0.077 C 
ATOM      3  C1  PXY d   1       0.965   1.407  -1.289  0.00  0.00    -0.082 A 
ATOM      4  C2  PXY d   1       1.162   1.463  -2.596  0.00  0.00     0.003 A 
ATOM      5  C3  PXY d   1       1.222   0.311  -3.338  0.00  0.00     0.003 A 
ATOM      6  C4  PXY d   1       1.132  -0.911  -2.728  0.00  0.00    -0.082 A 
ATOM      7  C5  PXY d   1       0.942  -0.977  -1.393  0.00  0.00     0.003 A 
ATOM      8  C6  PXY d   1       0.843   0.205  -0.664  0.00  0.00     0.003 A 
ENDROOT
TORSDOF 0
ENDMDL
