MODEL 1
REMARK minimizedAffinity 2.49893403
REMARK minimizedRMSD -1
REMARK  0 active torsions:
REMARK  status: ('A' for Active; 'I' for Inactive)
ROOT
ATOM      1  C4' PXY d   1       1.137   1.011  -4.009  0.00  0.00     0.077 C 
ATOM      2  C1' PXY d   1       0.444  -1.946   0.909  0.00  0.00     0.077 C 
ATOM      3  C1  PXY d   1       0.635  -1.180  -0.385  0.00  0.00    -0.082 A 
ATOM      4  C2  PXY d   1       0.343   0.110  -0.430  0.00  0.00     0.003 A 
ATOM      5  C3  PXY d   1       0.479   0.812  -1.600  0.00  0.00     0.003 A 
ATOM      6  C4  PXY d   1       0.969   0.199  -2.722  0.00  0.00    -0.082 A 
ATOM      7  C5  PXY d   1       1.279  -1.114  -2.681  0.00  0.00     0.003 A 
ATOM      8  C6  PXY d   1       1.095  -1.818  -1.495  0.00  0.00     0.003 A 
ENDROOT
TORSDOF 0
ENDMDL
