MODEL 1
REMARK minimizedAffinity -3.25693154
REMARK minimizedRMSD -1
REMARK  0 active torsions:
REMARK  status: ('A' for Active; 'I' for Inactive)
ROOT
ATOM      1  C4' PXY d   1       1.017   2.589  -0.275  0.00  0.00     0.077 C 
ATOM      2  C1' PXY d   1       1.364  -2.467  -3.056  0.00  0.00     0.077 C 
ATOM      3  C1  PXY d   1       1.278  -1.135  -2.337  0.00  0.00    -0.082 A 
ATOM      4  C2  PXY d   1       1.240  -1.107  -1.015  0.00  0.00     0.003 A 
ATOM      5  C3  PXY d   1       1.130   0.087  -0.349  0.00  0.00     0.003 A 
ATOM      6  C4  PXY d   1       1.113   1.268  -1.043  0.00  0.00    -0.082 A 
ATOM      7  C5  PXY d   1       1.163   1.248  -2.392  0.00  0.00     0.003 A 
ATOM      8  C6  PXY d   1       1.232   0.023  -3.050  0.00  0.00     0.003 A 
ENDROOT
TORSDOF 0
ENDMDL
