MODEL 1
REMARK minimizedAffinity 3.1259656
REMARK minimizedRMSD -1
REMARK  0 active torsions:
REMARK  status: ('A' for Active; 'I' for Inactive)
ROOT
ATOM      1  C4' PXY d   1       5.999   1.217  -6.000  0.00  0.00     0.077 C 
ATOM      2  C1' PXY d   1       1.114  -0.572  -3.480  0.00  0.00     0.077 C 
ATOM      3  C1  PXY d   1       2.400  -0.100  -4.129  0.00  0.00    -0.082 A 
ATOM      4  C2  PXY d   1       2.385   0.313  -5.386  0.00  0.00     0.003 A 
ATOM      5  C3  PXY d   1       3.545   0.713  -5.999  0.00  0.00     0.003 A 
ATOM      6  C4  PXY d   1       4.723   0.740  -5.301  0.00  0.00    -0.082 A 
ATOM      7  C5  PXY d   1       4.744   0.331  -4.015  0.00  0.00     0.003 A 
ATOM      8  C6  PXY d   1       3.564  -0.110  -3.424  0.00  0.00     0.003 A 
ENDROOT
TORSDOF 0
ENDMDL
