MODEL 1
REMARK minimizedAffinity 6.56576204
REMARK minimizedRMSD -1
REMARK  0 active torsions:
REMARK  status: ('A' for Active; 'I' for Inactive)
ROOT
ATOM      1  C4' PXY d   1      -3.691   0.704   5.242  0.00  0.00     0.077 C 
ATOM      2  C1' PXY d   1      -6.000  -4.351   3.652  0.00  0.00     0.077 C 
ATOM      3  C1  PXY d   1      -5.400  -3.019   4.058  0.00  0.00    -0.082 A 
ATOM      4  C2  PXY d   1      -4.296  -2.994   4.788  0.00  0.00     0.003 A 
ATOM      5  C3  PXY d   1      -3.758  -1.800   5.191  0.00  0.00     0.003 A 
ATOM      6  C4  PXY d   1      -4.326  -0.617   4.800  0.00  0.00    -0.082 A 
ATOM      7  C5  PXY d   1      -5.446  -0.633   4.047  0.00  0.00     0.003 A 
ATOM      8  C6  PXY d   1      -6.000  -1.857   3.682  0.00  0.00     0.003 A 
ENDROOT
TORSDOF 0
ENDMDL
