MODEL 1
REMARK minimizedAffinity 6.77615929
REMARK minimizedRMSD -1
REMARK  0 active torsions:
REMARK  status: ('A' for Active; 'I' for Inactive)
ROOT
ATOM      1  C4' PXY d   1       5.999   0.381  -5.599  0.00  0.00     0.077 C 
ATOM      2  C1' PXY d   1       1.767   4.318  -5.668  0.00  0.00     0.077 C 
ATOM      3  C1  PXY d   1       2.884   3.293  -5.658  0.00  0.00    -0.082 A 
ATOM      4  C2  PXY d   1       2.621   2.043  -5.312  0.00  0.00     0.003 A 
ATOM      5  C3  PXY d   1       3.626   1.110  -5.268  0.00  0.00     0.003 A 
ATOM      6  C4  PXY d   1       4.901   1.448  -5.632  0.00  0.00    -0.082 A 
ATOM      7  C5  PXY d   1       5.175   2.719  -5.997  0.00  0.00     0.003 A 
ATOM      8  C6  PXY d   1       4.150   3.660  -5.996  0.00  0.00     0.003 A 
ENDROOT
TORSDOF 0
ENDMDL
