MODEL 1
REMARK minimizedAffinity -2.30674958
REMARK minimizedRMSD -1
REMARK  0 active torsions:
REMARK  status: ('A' for Active; 'I' for Inactive)
ROOT
ATOM      1  C4' PXY d   1       1.122   0.752  -0.682  0.00  0.00     0.077 C 
ATOM      2  C1' PXY d   1       1.418  -1.501  -5.997  0.00  0.00     0.077 C 
ATOM      3  C1  PXY d   1       1.336  -0.921  -4.598  0.00  0.00    -0.082 A 
ATOM      4  C2  PXY d   1       1.157   0.380  -4.439  0.00  0.00     0.003 A 
ATOM      5  C3  PXY d   1       1.113   0.925  -3.181  0.00  0.00     0.003 A 
ATOM      6  C4  PXY d   1       1.201   0.122  -2.075  0.00  0.00    -0.082 A 
ATOM      7  C5  PXY d   1       1.373  -1.207  -2.230  0.00  0.00     0.003 A 
ATOM      8  C6  PXY d   1       1.456  -1.735  -3.515  0.00  0.00     0.003 A 
ENDROOT
TORSDOF 0
ENDMDL
