MODEL 1
REMARK minimizedAffinity 1.83932352
REMARK minimizedRMSD -1
REMARK  0 active torsions:
REMARK  status: ('A' for Active; 'I' for Inactive)
ROOT
ATOM      1  C4' PXY d   1       0.002  -1.514   0.767  0.00  0.00     0.077 C 
ATOM      2  C1' PXY d   1       2.193   0.112  -4.329  0.00  0.00     0.077 C 
ATOM      3  C1  PXY d   1       1.623  -0.303  -2.988  0.00  0.00    -0.082 A 
ATOM      4  C2  PXY d   1       1.459  -1.588  -2.716  0.00  0.00     0.003 A 
ATOM      5  C3  PXY d   1       0.914  -1.980  -1.520  0.00  0.00     0.003 A 
ATOM      6  C4  PXY d   1       0.584  -1.049  -0.571  0.00  0.00    -0.082 A 
ATOM      7  C5  PXY d   1       0.758   0.263  -0.837  0.00  0.00     0.003 A 
ATOM      8  C6  PXY d   1       1.273   0.642  -2.073  0.00  0.00     0.003 A 
ENDROOT
TORSDOF 0
ENDMDL
