MODEL 1
REMARK minimizedAffinity -6.71886969
REMARK minimizedRMSD -1
REMARK  0 active torsions:
REMARK  status: ('A' for Active; 'I' for Inactive)
ROOT
ATOM      1  C2' OXE d   1      -1.127  -0.144   1.881  0.00  0.00     0.078 C 
ATOM      2  C1' OXE d   1       0.342  -0.482  -0.487  0.00  0.00     0.078 C 
ATOM      3  C1  OXE d   1      -0.144   0.906  -0.153  0.00  0.00    -0.078 A 
ATOM      4  C2  OXE d   1      -0.901   1.054   0.984  0.00  0.00    -0.078 A 
ATOM      5  C3  OXE d   1      -1.328   2.322   1.367  0.00  0.00     0.003 A 
ATOM      6  C4  OXE d   1      -1.124   3.423   0.527  0.00  0.00    -0.002 A 
ATOM      7  C5  OXE d   1      -0.389   3.287  -0.655  0.00  0.00    -0.002 A 
ATOM      8  C6  OXE d   1       0.144   2.046  -0.988  0.00  0.00     0.003 A 
ENDROOT
TORSDOF 0
ENDMDL
