MODEL 1
REMARK minimizedAffinity -4.87910748
REMARK minimizedRMSD -1
REMARK  0 active torsions:
REMARK  status: ('A' for Active; 'I' for Inactive)
ROOT
ATOM      1  C2' OXE d   1       0.415  -0.768  -0.760  0.00  0.00     0.078 C 
ATOM      2  C1' OXE d   1      -0.266  -1.095   1.943  0.00  0.00     0.078 C 
ATOM      3  C1  OXE d   1      -0.610   0.218   1.285  0.00  0.00    -0.078 A 
ATOM      4  C2  OXE d   1      -0.231   0.386  -0.025  0.00  0.00    -0.078 A 
ATOM      5  C3  OXE d   1      -0.572   1.557  -0.696  0.00  0.00     0.003 A 
ATOM      6  C4  OXE d   1      -1.160   2.624  -0.006  0.00  0.00    -0.002 A 
ATOM      7  C5  OXE d   1      -1.518   2.488   1.340  0.00  0.00    -0.002 A 
ATOM      8  C6  OXE d   1      -1.289   1.279   1.987  0.00  0.00     0.003 A 
ENDROOT
TORSDOF 0
ENDMDL
