MODEL 1
REMARK minimizedAffinity -1.48298883
REMARK minimizedRMSD -1
REMARK  0 active torsions:
REMARK  status: ('A' for Active; 'I' for Inactive)
ROOT
ATOM      1  C2' OXE d   1      -2.246   2.779   1.553  0.00  0.00     0.078 C 
ATOM      2  C1' OXE d   1      -0.239   2.335   3.465  0.00  0.00     0.078 C 
ATOM      3  C1  OXE d   1      -0.288   1.415   2.271  0.00  0.00    -0.078 A 
ATOM      4  C2  OXE d   1      -1.302   1.610   1.364  0.00  0.00    -0.078 A 
ATOM      5  C3  OXE d   1      -1.362   0.824   0.216  0.00  0.00     0.003 A 
ATOM      6  C4  OXE d   1      -0.491  -0.260   0.054  0.00  0.00    -0.002 A 
ATOM      7  C5  OXE d   1       0.524  -0.501   0.986  0.00  0.00    -0.002 A 
ATOM      8  C6  OXE d   1       0.665   0.351   2.076  0.00  0.00     0.003 A 
ENDROOT
TORSDOF 0
ENDMDL
