MODEL 1
REMARK minimizedAffinity -2.6582346
REMARK minimizedRMSD -1
REMARK  0 active torsions:
REMARK  status: ('A' for Active; 'I' for Inactive)
ROOT
ATOM      1  C2' OXE d   1      -1.929   2.029   1.377  0.00  0.00     0.078 C 
ATOM      2  C1' OXE d   1      -0.707   2.588  -1.088  0.00  0.00     0.078 C 
ATOM      3  C1  OXE d   1      -0.415   1.256  -0.444  0.00  0.00    -0.078 A 
ATOM      4  C2  OXE d   1      -0.980   1.010   0.784  0.00  0.00    -0.078 A 
ATOM      5  C3  OXE d   1      -0.787  -0.225   1.396  0.00  0.00     0.003 A 
ATOM      6  C4  OXE d   1       0.100  -1.158   0.846  0.00  0.00    -0.002 A 
ATOM      7  C5  OXE d   1       0.717  -0.911  -0.385  0.00  0.00    -0.002 A 
ATOM      8  C6  OXE d   1       0.438   0.271  -1.062  0.00  0.00     0.003 A 
ENDROOT
TORSDOF 0
ENDMDL
