MODEL 1
REMARK minimizedAffinity 0.111399129
REMARK minimizedRMSD -1
REMARK  0 active torsions:
REMARK  status: ('A' for Active; 'I' for Inactive)
ROOT
ATOM      1  C2' OXE d   1       0.038   2.065  -1.255  0.00  0.00     0.078 C 
ATOM      2  C1' OXE d   1      -1.285   1.183   1.059  0.00  0.00     0.078 C 
ATOM      3  C1  OXE d   1      -0.424   0.190   0.319  0.00  0.00    -0.078 A 
ATOM      4  C2  OXE d   1       0.182   0.617  -0.838  0.00  0.00    -0.078 A 
ATOM      5  C3  OXE d   1       1.031  -0.243  -1.530  0.00  0.00     0.003 A 
ATOM      6  C4  OXE d   1       1.150  -1.583  -1.143  0.00  0.00    -0.002 A 
ATOM      7  C5  OXE d   1       0.510  -2.050   0.009  0.00  0.00    -0.002 A 
ATOM      8  C6  OXE d   1      -0.245  -1.167   0.774  0.00  0.00     0.003 A 
ENDROOT
TORSDOF 0
ENDMDL
