MODEL 1
REMARK minimizedAffinity -3.50436163
REMARK minimizedRMSD -1
REMARK  0 active torsions:
REMARK  status: ('A' for Active; 'I' for Inactive)
ROOT
ATOM      1  C2' OXE d   1      -2.099   2.407   1.035  0.00  0.00     0.078 C 
ATOM      2  C1' OXE d   1      -1.054   0.855   3.127  0.00  0.00     0.078 C 
ATOM      3  C1  OXE d   1      -0.627   0.518   1.720  0.00  0.00    -0.078 A 
ATOM      4  C2  OXE d   1      -1.179   1.252   0.699  0.00  0.00    -0.078 A 
ATOM      5  C3  OXE d   1      -0.778   1.019  -0.613  0.00  0.00     0.003 A 
ATOM      6  C4  OXE d   1       0.065  -0.056  -0.916  0.00  0.00    -0.002 A 
ATOM      7  C5  OXE d   1       0.608  -0.842   0.106  0.00  0.00    -0.002 A 
ATOM      8  C6  OXE d   1       0.307  -0.542   1.430  0.00  0.00     0.003 A 
ENDROOT
TORSDOF 0
ENDMDL
