MODEL 1
REMARK minimizedAffinity -4.18091536
REMARK minimizedRMSD -1
REMARK  0 active torsions:
REMARK  status: ('A' for Active; 'I' for Inactive)
ROOT
ATOM      1  C2' OXE d   1       0.699  -0.899  -0.395  0.00  0.00     0.078 C 
ATOM      2  C1' OXE d   1      -0.517  -1.240   2.112  0.00  0.00     0.078 C 
ATOM      3  C1  OXE d   1      -0.890  -0.019   1.309  0.00  0.00    -0.078 A 
ATOM      4  C2  OXE d   1      -0.255   0.164   0.105  0.00  0.00    -0.078 A 
ATOM      5  C3  OXE d   1      -0.602   1.246  -0.700  0.00  0.00     0.003 A 
ATOM      6  C4  OXE d   1      -1.478   2.230  -0.226  0.00  0.00    -0.002 A 
ATOM      7  C5  OXE d   1      -2.106   2.083   1.016  0.00  0.00    -0.002 A 
ATOM      8  C6  OXE d   1      -1.856   0.946   1.775  0.00  0.00     0.003 A 
ENDROOT
TORSDOF 0
ENDMDL
