MODEL 1
REMARK minimizedAffinity -2.7612412
REMARK minimizedRMSD -1
REMARK  0 active torsions:
REMARK  status: ('A' for Active; 'I' for Inactive)
ROOT
ATOM      1  C2' OXE d   1       1.627   1.041  -1.919  0.00  0.00     0.078 C 
ATOM      2  C1' OXE d   1       0.644  -1.575  -1.654  0.00  0.00     0.078 C 
ATOM      3  C1  OXE d   1      -0.114  -0.466  -0.968  0.00  0.00    -0.078 A 
ATOM      4  C2  OXE d   1       0.400   0.804  -1.064  0.00  0.00    -0.078 A 
ATOM      5  C3  OXE d   1      -0.289   1.872  -0.496  0.00  0.00     0.003 A 
ATOM      6  C4  OXE d   1      -1.417   1.643   0.301  0.00  0.00    -0.002 A 
ATOM      7  C5  OXE d   1      -1.935   0.351   0.445  0.00  0.00    -0.002 A 
ATOM      8  C6  OXE d   1      -1.321  -0.706  -0.216  0.00  0.00     0.003 A 
ENDROOT
TORSDOF 0
ENDMDL
