MODEL 1
REMARK minimizedAffinity -5.27653074
REMARK minimizedRMSD -1
REMARK  0 active torsions:
REMARK  status: ('A' for Active; 'I' for Inactive)
ROOT
ATOM      1  C2' OXE d   1      -1.444  -0.843   2.804  0.00  0.00     0.078 C 
ATOM      2  C1' OXE d   1      -2.481   1.469   1.596  0.00  0.00     0.078 C 
ATOM      3  C1  OXE d   1      -1.388   0.726   0.870  0.00  0.00    -0.078 A 
ATOM      4  C2  OXE d   1      -0.854  -0.378   1.490  0.00  0.00    -0.078 A 
ATOM      5  C3  OXE d   1       0.118  -1.132   0.839  0.00  0.00     0.003 A 
ATOM      6  C4  OXE d   1       0.666  -0.690  -0.371  0.00  0.00    -0.002 A 
ATOM      7  C5  OXE d   1       0.164   0.454  -1.001  0.00  0.00    -0.002 A 
ATOM      8  C6  OXE d   1      -0.890   1.148  -0.416  0.00  0.00     0.003 A 
ENDROOT
TORSDOF 0
ENDMDL
