MODEL 1
REMARK minimizedAffinity -3.49851608
REMARK minimizedRMSD -1
REMARK  0 active torsions:
REMARK  status: ('A' for Active; 'I' for Inactive)
ROOT
ATOM      1  C2' OXE d   1      -0.194   2.458  -1.506  0.00  0.00     0.078 C 
ATOM      2  C1' OXE d   1      -1.576   1.670   0.807  0.00  0.00     0.078 C 
ATOM      3  C1  OXE d   1      -0.598   0.693   0.205  0.00  0.00    -0.078 A 
ATOM      4  C2  OXE d   1       0.039   1.068  -0.953  0.00  0.00    -0.078 A 
ATOM      5  C3  OXE d   1       0.992   0.227  -1.520  0.00  0.00     0.003 A 
ATOM      6  C4  OXE d   1       1.195  -1.061  -1.009  0.00  0.00    -0.002 A 
ATOM      7  C5  OXE d   1       0.527  -1.479   0.147  0.00  0.00    -0.002 A 
ATOM      8  C6  OXE d   1      -0.339  -0.600   0.789  0.00  0.00     0.003 A 
ENDROOT
TORSDOF 0
ENDMDL
