MODEL 1
REMARK minimizedAffinity -3.89975119
REMARK minimizedRMSD -1
REMARK  0 active torsions:
REMARK  status: ('A' for Active; 'I' for Inactive)
ROOT
ATOM      1  C2' OXE d   1      -0.023  -1.010   2.270  0.00  0.00     0.078 C 
ATOM      2  C1' OXE d   1       0.551  -0.830  -0.472  0.00  0.00     0.078 C 
ATOM      3  C1  OXE d   1      -0.384   0.195   0.120  0.00  0.00    -0.078 A 
ATOM      4  C2  OXE d   1      -0.696   0.071   1.453  0.00  0.00    -0.078 A 
ATOM      5  C3  OXE d   1      -1.510   1.022   2.061  0.00  0.00     0.003 A 
ATOM      6  C4  OXE d   1      -2.137   2.013   1.296  0.00  0.00    -0.002 A 
ATOM      7  C5  OXE d   1      -1.864   2.133  -0.071  0.00  0.00    -0.002 A 
ATOM      8  C6  OXE d   1      -0.959   1.260  -0.664  0.00  0.00     0.003 A 
ENDROOT
TORSDOF 0
ENDMDL
