MODEL 1
REMARK minimizedAffinity -2.96548629
REMARK minimizedRMSD -1
REMARK  0 active torsions:
REMARK  status: ('A' for Active; 'I' for Inactive)
ROOT
ATOM      1  C2' OXE d   1       0.971  -0.528  -0.649  0.00  0.00     0.078 C 
ATOM      2  C1' OXE d   1       0.136   2.054  -1.367  0.00  0.00     0.078 C 
ATOM      3  C1  OXE d   1      -0.519   1.411  -0.170  0.00  0.00    -0.078 A 
ATOM      4  C2  OXE d   1      -0.137   0.129   0.146  0.00  0.00    -0.078 A 
ATOM      5  C3  OXE d   1      -0.669  -0.491   1.273  0.00  0.00     0.003 A 
ATOM      6  C4  OXE d   1      -1.701   0.119   1.996  0.00  0.00    -0.002 A 
ATOM      7  C5  OXE d   1      -2.133   1.409   1.667  0.00  0.00    -0.002 A 
ATOM      8  C6  OXE d   1      -1.523   2.084   0.615  0.00  0.00     0.003 A 
ENDROOT
TORSDOF 0
ENDMDL
