MODEL 1
REMARK minimizedAffinity -2.96654725
REMARK minimizedRMSD -1
REMARK  0 active torsions:
REMARK  status: ('A' for Active; 'I' for Inactive)
ROOT
ATOM      1  C2' OXE d   1       1.247  -0.170  -0.739  0.00  0.00     0.078 C 
ATOM      2  C1' OXE d   1       0.235   2.446  -0.825  0.00  0.00     0.078 C 
ATOM      3  C1  OXE d   1      -0.237   1.546   0.289  0.00  0.00    -0.078 A 
ATOM      4  C2  OXE d   1       0.227   0.253   0.296  0.00  0.00    -0.078 A 
ATOM      5  C3  OXE d   1      -0.134  -0.603   1.333  0.00  0.00     0.003 A 
ATOM      6  C4  OXE d   1      -1.085  -0.207   2.280  0.00  0.00    -0.002 A 
ATOM      7  C5  OXE d   1      -1.601   1.093   2.268  0.00  0.00    -0.002 A 
ATOM      8  C6  OXE d   1      -1.157   1.993   1.306  0.00  0.00     0.003 A 
ENDROOT
TORSDOF 0
ENDMDL
