MODEL 1
REMARK minimizedAffinity -2.98825574
REMARK minimizedRMSD -1
REMARK  0 active torsions:
REMARK  status: ('A' for Active; 'I' for Inactive)
ROOT
ATOM      1  C2' OXE d   1       0.802  -0.638  -0.668  0.00  0.00     0.078 C 
ATOM      2  C1' OXE d   1       0.957   2.072  -1.384  0.00  0.00     0.078 C 
ATOM      3  C1  OXE d   1       0.092   1.705  -0.205  0.00  0.00    -0.078 A 
ATOM      4  C2  OXE d   1      -0.015   0.371   0.109  0.00  0.00    -0.078 A 
ATOM      5  C3  OXE d   1      -0.757  -0.018   1.221  0.00  0.00     0.003 A 
ATOM      6  C4  OXE d   1      -1.518   0.920   1.929  0.00  0.00    -0.002 A 
ATOM      7  C5  OXE d   1      -1.455   2.279   1.601  0.00  0.00    -0.002 A 
ATOM      8  C6  OXE d   1      -0.623   2.692   0.566  0.00  0.00     0.003 A 
ENDROOT
TORSDOF 0
ENDMDL
