MODEL 1
REMARK minimizedAffinity -5.57613707
REMARK minimizedRMSD -1
REMARK  0 active torsions:
REMARK  status: ('A' for Active; 'I' for Inactive)
ROOT
ATOM      1  C2' OXE d   1       0.203  -1.124   2.030  0.00  0.00     0.078 C 
ATOM      2  C1' OXE d   1       1.080  -0.707  -0.604  0.00  0.00     0.078 C 
ATOM      3  C1  OXE d   1       0.262   0.381   0.046  0.00  0.00    -0.078 A 
ATOM      4  C2  OXE d   1      -0.202   0.149   1.318  0.00  0.00    -0.078 A 
ATOM      5  C3  OXE d   1      -0.915   1.142   1.984  0.00  0.00     0.003 A 
ATOM      6  C4  OXE d   1      -1.294   2.312   1.315  0.00  0.00    -0.002 A 
ATOM      7  C5  OXE d   1      -0.865   2.551   0.005  0.00  0.00    -0.002 A 
ATOM      8  C6  OXE d   1      -0.052   1.617  -0.628  0.00  0.00     0.003 A 
ENDROOT
TORSDOF 0
ENDMDL
