MODEL 1
REMARK minimizedAffinity -4.66110182
REMARK minimizedRMSD -1
REMARK  0 active torsions:
REMARK  status: ('A' for Active; 'I' for Inactive)
ROOT
ATOM      1  C2' OXE d   1       0.857  -0.723   2.065  0.00  0.00     0.078 C 
ATOM      2  C1' OXE d   1       0.977  -0.492  -0.730  0.00  0.00     0.078 C 
ATOM      3  C1  OXE d   1      -0.113   0.259  -0.009  0.00  0.00    -0.078 A 
ATOM      4  C2  OXE d   1      -0.193   0.103   1.354  0.00  0.00    -0.078 A 
ATOM      5  C3  OXE d   1      -1.147   0.816   2.075  0.00  0.00     0.003 A 
ATOM      6  C4  OXE d   1      -2.121   1.570   1.409  0.00  0.00    -0.002 A 
ATOM      7  C5  OXE d   1      -2.081   1.711   0.018  0.00  0.00    -0.002 A 
ATOM      8  C6  OXE d   1      -1.061   1.097  -0.700  0.00  0.00     0.003 A 
ENDROOT
TORSDOF 0
ENDMDL
