MODEL 1
REMARK minimizedAffinity -4.79186773
REMARK minimizedRMSD -1
REMARK  0 active torsions:
REMARK  status: ('A' for Active; 'I' for Inactive)
ROOT
ATOM      1  C2' OXE d   1       0.031  -0.837  -0.123  0.00  0.00     0.078 C 
ATOM      2  C1' OXE d   1      -1.584  -0.335   2.118  0.00  0.00     0.078 C 
ATOM      3  C1  OXE d   1      -1.212   0.835   1.242  0.00  0.00    -0.078 A 
ATOM      4  C2  OXE d   1      -0.384   0.588   0.174  0.00  0.00    -0.078 A 
ATOM      5  C3  OXE d   1      -0.055   1.623  -0.697  0.00  0.00     0.003 A 
ATOM      6  C4  OXE d   1      -0.434   2.939  -0.410  0.00  0.00    -0.002 A 
ATOM      7  C5  OXE d   1      -1.246   3.219   0.695  0.00  0.00    -0.002 A 
ATOM      8  C6  OXE d   1      -1.678   2.174   1.505  0.00  0.00     0.003 A 
ENDROOT
TORSDOF 0
ENDMDL
