MODEL 1
REMARK minimizedAffinity -0.556037784
REMARK minimizedRMSD -1
REMARK  0 active torsions:
REMARK  status: ('A' for Active; 'I' for Inactive)
ROOT
ATOM      1  C2' OXE d   1      -1.879   1.613   1.198  0.00  0.00     0.078 C 
ATOM      2  C1' OXE d   1      -0.723   2.262  -1.277  0.00  0.00     0.078 C 
ATOM      3  C1  OXE d   1      -0.405   0.912  -0.684  0.00  0.00    -0.078 A 
ATOM      4  C2  OXE d   1      -0.937   0.622   0.549  0.00  0.00    -0.078 A 
ATOM      5  C3  OXE d   1      -0.720  -0.631   1.117  0.00  0.00     0.003 A 
ATOM      6  C4  OXE d   1       0.160  -1.538   0.515  0.00  0.00    -0.002 A 
ATOM      7  C5  OXE d   1       0.745  -1.247  -0.722  0.00  0.00    -0.002 A 
ATOM      8  C6  OXE d   1       0.439  -0.046  -1.354  0.00  0.00     0.003 A 
ENDROOT
TORSDOF 0
ENDMDL
