MODEL 1
REMARK minimizedAffinity -5.35490513
REMARK minimizedRMSD -1
REMARK  0 active torsions:
REMARK  status: ('A' for Active; 'I' for Inactive)
ROOT
ATOM      1  C   UNL d   1      -2.250   1.121   1.500  0.00  0.00     0.020 A 
ATOM      2  C1  UNL d   1      -2.415   2.468   1.179  0.00  0.00     0.020 A 
ATOM      3  C2  UNL d   1      -1.566   3.073   0.250  0.00  0.00     0.034 A 
ATOM      4  C3  UNL d   1      -0.548   2.332  -0.361  0.00  0.00     0.017 A 
ATOM      5  C4  UNL d   1      -0.383   0.980  -0.038  0.00  0.00     0.017 A 
ATOM      6  C5  UNL d   1      -1.237   0.379   0.893  0.00  0.00     0.034 A 
ATOM      7 Cl   UNL d   1       0.850   0.000  -0.750  0.00  0.00    -0.070 Cl
ATOM      8 Cl1  UNL d   1       0.465   3.145  -1.500  0.00  0.00    -0.070 Cl
ENDROOT
TORSDOF 0
ENDMDL
