MODEL 1
REMARK minimizedAffinity -3.26868773
REMARK minimizedRMSD -1
REMARK  0 active torsions:
REMARK  status: ('A' for Active; 'I' for Inactive)
ROOT
ATOM      1  C   UNL d   1      -2.039   1.721   1.238  0.00  0.00     0.020 A 
ATOM      2  C1  UNL d   1      -2.344   1.166  -0.004  0.00  0.00     0.020 A 
ATOM      3  C2  UNL d   1      -1.490   0.220  -0.576  0.00  0.00     0.034 A 
ATOM      4  C3  UNL d   1      -0.325  -0.172   0.094  0.00  0.00     0.017 A 
ATOM      5  C4  UNL d   1      -0.019   0.386   1.341  0.00  0.00     0.017 A 
ATOM      6  C5  UNL d   1      -0.878   1.332   1.909  0.00  0.00     0.034 A 
ATOM      7 Cl   UNL d   1       1.399  -0.048   2.228  0.00  0.00    -0.070 Cl
ATOM      8 Cl1  UNL d   1       0.685  -1.346  -0.671  0.00  0.00    -0.070 Cl
ENDROOT
TORSDOF 0
ENDMDL
