MODEL 1
REMARK minimizedAffinity -2.28928089
REMARK minimizedRMSD -1
REMARK  0 active torsions:
REMARK  status: ('A' for Active; 'I' for Inactive)
ROOT
ATOM      1  C   UNL d   1      -0.353  -2.259  -3.173  0.00  0.00     0.020 A 
ATOM      2  C1  UNL d   1      -0.179  -3.620  -2.922  0.00  0.00     0.020 A 
ATOM      3  C2  UNL d   1       0.537  -4.037  -1.798  0.00  0.00     0.034 A 
ATOM      4  C3  UNL d   1       1.082  -3.092  -0.921  0.00  0.00     0.017 A 
ATOM      5  C4  UNL d   1       0.907  -1.727  -1.173  0.00  0.00     0.017 A 
ATOM      6  C5  UNL d   1       0.189  -1.315  -2.300  0.00  0.00     0.034 A 
ATOM      7 Cl   UNL d   1       1.550  -0.503  -0.136  0.00  0.00    -0.070 Cl
ATOM      8 Cl1  UNL d   1       1.956  -3.679   0.449  0.00  0.00    -0.070 Cl
ENDROOT
TORSDOF 0
ENDMDL
