MODEL 1
REMARK minimizedAffinity -3.38799763
REMARK minimizedRMSD -1
REMARK  0 active torsions:
REMARK  status: ('A' for Active; 'I' for Inactive)
ROOT
ATOM      1  C   UNL d   1      -1.962   1.137   1.862  0.00  0.00     0.020 A 
ATOM      2  C1  UNL d   1      -1.957   2.518   1.674  0.00  0.00     0.020 A 
ATOM      3  C2  UNL d   1      -1.160   3.084   0.676  0.00  0.00     0.034 A 
ATOM      4  C3  UNL d   1      -0.364   2.269  -0.136  0.00  0.00     0.017 A 
ATOM      5  C4  UNL d   1      -0.369   0.882   0.054  0.00  0.00     0.017 A 
ATOM      6  C5  UNL d   1      -1.169   0.321   1.054  0.00  0.00     0.034 A 
ATOM      7 Cl   UNL d   1       0.586  -0.189  -0.909  0.00  0.00    -0.070 Cl
ATOM      8 Cl1  UNL d   1       0.597   3.036  -1.349  0.00  0.00    -0.070 Cl
ENDROOT
TORSDOF 0
ENDMDL
