MODEL 1
REMARK minimizedAffinity -5.46233845
REMARK minimizedRMSD -1
REMARK  0 active torsions:
REMARK  status: ('A' for Active; 'I' for Inactive)
ROOT
ATOM      1  C   UNL d   1      -0.898   3.166  -0.198  0.00  0.00     0.020 A 
ATOM      2  C1  UNL d   1      -1.632   3.034   0.980  0.00  0.00     0.020 A 
ATOM      3  C2  UNL d   1      -1.550   1.855   1.725  0.00  0.00     0.034 A 
ATOM      4  C3  UNL d   1      -0.732   0.805   1.292  0.00  0.00     0.017 A 
ATOM      5  C4  UNL d   1       0.004   0.939   0.109  0.00  0.00     0.017 A 
ATOM      6  C5  UNL d   1      -0.082   2.121  -0.632  0.00  0.00     0.034 A 
ATOM      7 Cl   UNL d   1       1.035  -0.313  -0.488  0.00  0.00    -0.070 Cl
ATOM      8 Cl1  UNL d   1      -0.678  -0.624   2.263  0.00  0.00    -0.070 Cl
ENDROOT
TORSDOF 0
ENDMDL
