MODEL 1
REMARK minimizedAffinity -3.37490034
REMARK minimizedRMSD -1
REMARK  0 active torsions:
REMARK  status: ('A' for Active; 'I' for Inactive)
ROOT
ATOM      1  C   UNL d   1       1.448  -0.227  -1.875  0.00  0.00     0.020 A 
ATOM      2  C1  UNL d   1       1.062  -1.097  -0.855  0.00  0.00     0.020 A 
ATOM      3  C2  UNL d   1       0.320  -0.618   0.227  0.00  0.00     0.034 A 
ATOM      4  C3  UNL d   1      -0.039   0.733   0.292  0.00  0.00     0.017 A 
ATOM      5  C4  UNL d   1       0.348   1.605  -0.732  0.00  0.00     0.017 A 
ATOM      6  C5  UNL d   1       1.091   1.120  -1.813  0.00  0.00     0.034 A 
ATOM      7 Cl   UNL d   1      -0.057   3.285  -0.722  0.00  0.00    -0.070 Cl
ATOM      8 Cl1  UNL d   1      -0.957   1.256   1.659  0.00  0.00    -0.070 Cl
ENDROOT
TORSDOF 0
ENDMDL
