MODEL 1
REMARK minimizedAffinity -2.59262896
REMARK minimizedRMSD -1
REMARK  0 active torsions:
REMARK  status: ('A' for Active; 'I' for Inactive)
ROOT
ATOM      1  C   UNL d   1      -0.480  -3.377  -1.811  0.00  0.00     0.020 A 
ATOM      2  C1  UNL d   1       0.095  -2.797  -2.941  0.00  0.00     0.020 A 
ATOM      3  C2  UNL d   1       0.434  -1.442  -2.935  0.00  0.00     0.034 A 
ATOM      4  C3  UNL d   1       0.197  -0.663  -1.797  0.00  0.00     0.017 A 
ATOM      5  C4  UNL d   1      -0.380  -1.246  -0.663  0.00  0.00     0.017 A 
ATOM      6  C5  UNL d   1      -0.717  -2.603  -0.675  0.00  0.00     0.034 A 
ATOM      7 Cl   UNL d   1      -0.702  -0.348   0.778  0.00  0.00    -0.070 Cl
ATOM      8 Cl1  UNL d   1       0.641   1.006  -1.860  0.00  0.00    -0.070 Cl
ENDROOT
TORSDOF 0
ENDMDL
