MODEL 1
REMARK minimizedAffinity -3.62214875
REMARK minimizedRMSD -1
REMARK  0 active torsions:
REMARK  status: ('A' for Active; 'I' for Inactive)
ROOT
ATOM      1  C   UNL d   1      -0.617   3.630  -0.694  0.00  0.00     0.020 A 
ATOM      2  C1  UNL d   1      -1.476   3.783   0.393  0.00  0.00     0.020 A 
ATOM      3  C2  UNL d   1      -1.812   2.679   1.179  0.00  0.00     0.034 A 
ATOM      4  C3  UNL d   1      -1.289   1.416   0.878  0.00  0.00     0.017 A 
ATOM      5  C4  UNL d   1      -0.427   1.263  -0.214  0.00  0.00     0.017 A 
ATOM      6  C5  UNL d   1      -0.094   2.372  -0.997  0.00  0.00     0.034 A 
ATOM      7 Cl   UNL d   1       0.258  -0.264  -0.647  0.00  0.00    -0.070 Cl
ATOM      8 Cl1  UNL d   1      -1.747   0.094   1.892  0.00  0.00    -0.070 Cl
ENDROOT
TORSDOF 0
ENDMDL
