MODEL 1
REMARK minimizedAffinity -5.34158564
REMARK minimizedRMSD -1
REMARK  0 active torsions:
REMARK  status: ('A' for Active; 'I' for Inactive)
ROOT
ATOM      1  C   UNL d   1      -1.417   3.458   0.000  0.00  0.00     0.020 A 
ATOM      2  C1  UNL d   1      -2.032   3.074   1.191  0.00  0.00     0.020 A 
ATOM      3  C2  UNL d   1      -1.774   1.815   1.736  0.00  0.00     0.034 A 
ATOM      4  C3  UNL d   1      -0.898   0.934   1.089  0.00  0.00     0.017 A 
ATOM      5  C4  UNL d   1      -0.282   1.321  -0.106  0.00  0.00     0.017 A 
ATOM      6  C5  UNL d   1      -0.544   2.583  -0.647  0.00  0.00     0.034 A 
ATOM      7 Cl   UNL d   1       0.811   0.290  -0.961  0.00  0.00    -0.070 Cl
ATOM      8 Cl1  UNL d   1      -0.625  -0.607   1.820  0.00  0.00    -0.070 Cl
ENDROOT
TORSDOF 0
ENDMDL
