MODEL 1
REMARK minimizedAffinity -4.19188595
REMARK minimizedRMSD -1
REMARK  0 active torsions:
REMARK  status: ('A' for Active; 'I' for Inactive)
ROOT
ATOM      1  C   UNL d   1      -1.813   2.479   1.364  0.00  0.00     0.020 A 
ATOM      2  C1  UNL d   1      -1.727   2.441  -0.028  0.00  0.00     0.020 A 
ATOM      3  C2  UNL d   1      -0.897   1.506  -0.650  0.00  0.00     0.034 A 
ATOM      4  C3  UNL d   1      -0.151   0.606   0.118  0.00  0.00     0.017 A 
ATOM      5  C4  UNL d   1      -0.238   0.645   1.515  0.00  0.00     0.017 A 
ATOM      6  C5  UNL d   1      -1.070   1.583   2.133  0.00  0.00     0.034 A 
ATOM      7 Cl   UNL d   1       0.653  -0.434   2.530  0.00  0.00    -0.070 Cl
ATOM      8 Cl1  UNL d   1       0.854  -0.524  -0.718  0.00  0.00    -0.070 Cl
ENDROOT
TORSDOF 0
ENDMDL
