MODEL 1
REMARK minimizedAffinity -4.33681393
REMARK minimizedRMSD -1
REMARK  0 active torsions:
REMARK  status: ('A' for Active; 'I' for Inactive)
ROOT
ATOM      1  C   UNL d   1      -0.688   2.963   0.787  0.00  0.00     0.020 A 
ATOM      2  C1  UNL d   1       0.045   2.787  -0.386  0.00  0.00     0.020 A 
ATOM      3  C2  UNL d   1       0.489   1.513  -0.747  0.00  0.00     0.034 A 
ATOM      4  C3  UNL d   1       0.202   0.411   0.066  0.00  0.00     0.017 A 
ATOM      5  C4  UNL d   1      -0.533   0.589   1.244  0.00  0.00     0.017 A 
ATOM      6  C5  UNL d   1      -0.976   1.866   1.600  0.00  0.00     0.034 A 
ATOM      7 Cl   UNL d   1      -0.927  -0.723   2.298  0.00  0.00    -0.070 Cl
ATOM      8 Cl1  UNL d   1       0.782  -1.136  -0.442  0.00  0.00    -0.070 Cl
ENDROOT
TORSDOF 0
ENDMDL
