MODEL 1
REMARK minimizedAffinity -4.78753805
REMARK minimizedRMSD -1
REMARK  0 active torsions:
REMARK  status: ('A' for Active; 'I' for Inactive)
ROOT
ATOM      1  C   UNL d   1       0.129  -3.233  -3.238  0.00  0.00     0.020 A 
ATOM      2  C1  UNL d   1      -0.042  -1.852  -3.145  0.00  0.00     0.020 A 
ATOM      3  C2  UNL d   1       0.172  -1.202  -1.928  0.00  0.00     0.034 A 
ATOM      4  C3  UNL d   1       0.558  -1.932  -0.798  0.00  0.00     0.017 A 
ATOM      5  C4  UNL d   1       0.730  -3.318  -0.892  0.00  0.00     0.017 A 
ATOM      6  C5  UNL d   1       0.514  -3.964  -2.113  0.00  0.00     0.034 A 
ATOM      7 Cl   UNL d   1       1.205  -4.287   0.458  0.00  0.00    -0.070 Cl
ATOM      8 Cl1  UNL d   1       0.806  -1.063   0.674  0.00  0.00    -0.070 Cl
ENDROOT
TORSDOF 0
ENDMDL
