MODEL 1
REMARK minimizedAffinity -4.09617424
REMARK minimizedRMSD -1
REMARK  0 active torsions:
REMARK  status: ('A' for Active; 'I' for Inactive)
ROOT
ATOM      1  C   UNL d   1      -1.804   2.460   1.571  0.00  0.00     0.020 A 
ATOM      2  C1  UNL d   1      -1.793   1.112   1.928  0.00  0.00     0.020 A 
ATOM      3  C2  UNL d   1      -1.062   0.195   1.170  0.00  0.00     0.034 A 
ATOM      4  C3  UNL d   1      -0.340   0.624   0.050  0.00  0.00     0.017 A 
ATOM      5  C4  UNL d   1      -0.352   1.977  -0.307  0.00  0.00     0.017 A 
ATOM      6  C5  UNL d   1      -1.085   2.891   0.456  0.00  0.00     0.034 A 
ATOM      7 Cl   UNL d   1       0.515   2.582  -1.675  0.00  0.00    -0.070 Cl
ATOM      8 Cl1  UNL d   1       0.542  -0.565  -0.841  0.00  0.00    -0.070 Cl
ENDROOT
TORSDOF 0
ENDMDL
