MODEL 1
REMARK minimizedAffinity -5.15111399
REMARK minimizedRMSD -1
REMARK  0 active torsions:
REMARK  status: ('A' for Active; 'I' for Inactive)
ROOT
ATOM      1  C   UNL d   1      -1.513   3.283  -0.342  0.00  0.00     0.020 A 
ATOM      2  C1  UNL d   1      -2.098   2.948   0.879  0.00  0.00     0.020 A 
ATOM      3  C2  UNL d   1      -1.746   1.758   1.519  0.00  0.00     0.034 A 
ATOM      4  C3  UNL d   1      -0.807   0.898   0.938  0.00  0.00     0.017 A 
ATOM      5  C4  UNL d   1      -0.221   1.234  -0.287  0.00  0.00     0.017 A 
ATOM      6  C5  UNL d   1      -0.577   2.427  -0.923  0.00  0.00     0.034 A 
ATOM      7 Cl   UNL d   1       0.945   0.223  -1.065  0.00  0.00    -0.070 Cl
ATOM      8 Cl1  UNL d   1      -0.419  -0.558   1.785  0.00  0.00    -0.070 Cl
ENDROOT
TORSDOF 0
ENDMDL
