MODEL 1
REMARK minimizedAffinity -2.80800629
REMARK minimizedRMSD -1
REMARK  0 active torsions:
REMARK  status: ('A' for Active; 'I' for Inactive)
ROOT
ATOM      1  C   UNL d   1       0.140   1.086  -1.929  0.00  0.00     0.020 A 
ATOM      2  C1  UNL d   1       0.727  -0.147  -1.649  0.00  0.00     0.020 A 
ATOM      3  C2  UNL d   1       0.703  -0.652  -0.347  0.00  0.00     0.034 A 
ATOM      4  C3  UNL d   1       0.092   0.078   0.680  0.00  0.00     0.017 A 
ATOM      5  C4  UNL d   1      -0.497   1.316   0.397  0.00  0.00     0.017 A 
ATOM      6  C5  UNL d   1      -0.470   1.816  -0.908  0.00  0.00     0.034 A 
ATOM      7 Cl   UNL d   1      -1.270   2.273   1.611  0.00  0.00    -0.070 Cl
ATOM      8 Cl1  UNL d   1       0.099  -0.607   2.266  0.00  0.00    -0.070 Cl
ENDROOT
TORSDOF 0
ENDMDL
