MODEL 1
REMARK minimizedAffinity -1.91619563
REMARK minimizedRMSD -1
REMARK  0 active torsions:
REMARK  status: ('A' for Active; 'I' for Inactive)
ROOT
ATOM      1  C   UNL d   1      -1.085   0.484   2.026  0.00  0.00     0.020 A 
ATOM      2  C1  UNL d   1      -0.492  -0.370   1.097  0.00  0.00     0.020 A 
ATOM      3  C2  UNL d   1       0.165   0.159  -0.017  0.00  0.00     0.034 A 
ATOM      4  C3  UNL d   1       0.230   1.544  -0.204  0.00  0.00     0.017 A 
ATOM      5  C4  UNL d   1      -0.366   2.400   0.729  0.00  0.00     0.017 A 
ATOM      6  C5  UNL d   1      -1.022   1.866   1.842  0.00  0.00     0.034 A 
ATOM      7 Cl   UNL d   1      -0.327   4.120   0.566  0.00  0.00    -0.070 Cl
ATOM      8 Cl1  UNL d   1       1.058   2.128  -1.603  0.00  0.00    -0.070 Cl
ENDROOT
TORSDOF 0
ENDMDL
