MODEL 1
REMARK minimizedAffinity -1.81436968
REMARK minimizedRMSD -1
REMARK  0 active torsions:
REMARK  status: ('A' for Active; 'I' for Inactive)
ROOT
ATOM      1  C   UNL d   1       0.682  -3.834  -0.811  0.00  0.00     0.023 A 
ATOM      2  C1  UNL d   1       0.018  -3.094  -1.789  0.00  0.00     0.003 A 
ATOM      3  C2  UNL d   1       0.204  -1.712  -1.868  0.00  0.00     0.048 A 
ATOM      4  C3  UNL d   1       1.055  -1.077  -0.965  0.00  0.00     0.023 A 
ATOM      5  C4  UNL d   1       1.723  -1.813   0.015  0.00  0.00     0.048 A 
ATOM      6  C5  UNL d   1       1.533  -3.194   0.091  0.00  0.00     0.003 A 
ATOM      7  I   UNL d   1       1.333   0.980  -1.080  0.00  0.00    -0.146 I 
ENDROOT
TORSDOF 0
ENDMDL
