MODEL 1
REMARK minimizedAffinity -0.81469804
REMARK minimizedRMSD -1
REMARK  0 active torsions:
REMARK  status: ('A' for Active; 'I' for Inactive)
ROOT
ATOM      1  C   UNL d   1       1.749   1.535  -1.504  0.00  0.00     0.023 A 
ATOM      2  C1  UNL d   1       2.141   1.246  -0.197  0.00  0.00     0.003 A 
ATOM      3  C2  UNL d   1       1.910  -0.023   0.338  0.00  0.00     0.048 A 
ATOM      4  C3  UNL d   1       1.286  -0.998  -0.440  0.00  0.00     0.023 A 
ATOM      5  C4  UNL d   1       0.892  -0.713  -1.749  0.00  0.00     0.048 A 
ATOM      6  C5  UNL d   1       1.125   0.557  -2.279  0.00  0.00     0.003 A 
ATOM      7  I   UNL d   1       0.940  -2.887   0.354  0.00  0.00    -0.146 I 
ENDROOT
TORSDOF 0
ENDMDL
