MODEL 1
REMARK minimizedAffinity 3.24908543
REMARK minimizedRMSD -1
REMARK  0 active torsions:
REMARK  status: ('A' for Active; 'I' for Inactive)
ROOT
ATOM      1  C   UNL d   1       0.912   0.081  -2.355  0.00  0.00     0.023 A 
ATOM      2  C1  UNL d   1       1.319   1.407  -2.212  0.00  0.00     0.003 A 
ATOM      3  C2  UNL d   1       1.649   1.905  -0.950  0.00  0.00     0.048 A 
ATOM      4  C3  UNL d   1       1.570   1.071   0.165  0.00  0.00     0.023 A 
ATOM      5  C4  UNL d   1       1.163  -0.257   0.026  0.00  0.00     0.048 A 
ATOM      6  C5  UNL d   1       0.834  -0.750  -1.238  0.00  0.00     0.003 A 
ATOM      7  I   UNL d   1       2.061   1.810   2.045  0.00  0.00    -0.146 I 
ENDROOT
TORSDOF 0
ENDMDL
