MODEL 1
REMARK minimizedAffinity -1.25240755
REMARK minimizedRMSD -1
REMARK  0 active torsions:
REMARK  status: ('A' for Active; 'I' for Inactive)
ROOT
ATOM      1  C   UNL d   1       1.042   0.390  -0.604  0.00  0.00     0.023 A 
ATOM      2  C1  UNL d   1       1.179   1.192   0.530  0.00  0.00     0.003 A 
ATOM      3  C2  UNL d   1       1.633   2.507   0.406  0.00  0.00     0.048 A 
ATOM      4  C3  UNL d   1       1.947   3.014  -0.854  0.00  0.00     0.023 A 
ATOM      5  C4  UNL d   1       1.811   2.216  -1.991  0.00  0.00     0.048 A 
ATOM      6  C5  UNL d   1       1.358   0.901  -1.863  0.00  0.00     0.003 A 
ATOM      7  I   UNL d   1       2.622   4.970  -1.041  0.00  0.00    -0.146 I 
ENDROOT
TORSDOF 0
ENDMDL
