MODEL 1
REMARK minimizedAffinity 7.13547754
REMARK minimizedRMSD -1
REMARK  0 active torsions:
REMARK  status: ('A' for Active; 'I' for Inactive)
ROOT
ATOM      1  C   UNL d   1       2.423   0.709  -0.792  0.00  0.00     0.023 A 
ATOM      2  C1  UNL d   1       1.269  -0.010  -0.480  0.00  0.00     0.003 A 
ATOM      3  C2  UNL d   1       0.027   0.422  -0.951  0.00  0.00     0.048 A 
ATOM      4  C3  UNL d   1      -0.053   1.573  -1.734  0.00  0.00     0.023 A 
ATOM      5  C4  UNL d   1       1.100   2.295  -2.049  0.00  0.00     0.048 A 
ATOM      6  C5  UNL d   1       2.338   1.859  -1.575  0.00  0.00     0.003 A 
ATOM      7  I   UNL d   1      -1.899   2.218  -2.437  0.00  0.00    -0.146 I 
ENDROOT
TORSDOF 0
ENDMDL
