MODEL 1
REMARK minimizedAffinity 2.81172657
REMARK minimizedRMSD -1
REMARK  0 active torsions:
REMARK  status: ('A' for Active; 'I' for Inactive)
ROOT
ATOM      1  C   UNL d   1       0.921   0.639  -2.673  0.00  0.00     0.023 A 
ATOM      2  C1  UNL d   1       1.437   1.900  -2.372  0.00  0.00     0.003 A 
ATOM      3  C2  UNL d   1       1.754   2.229  -1.052  0.00  0.00     0.048 A 
ATOM      4  C3  UNL d   1       1.553   1.293  -0.039  0.00  0.00     0.023 A 
ATOM      5  C4  UNL d   1       1.038   0.030  -0.335  0.00  0.00     0.048 A 
ATOM      6  C5  UNL d   1       0.722  -0.294  -1.656  0.00  0.00     0.003 A 
ATOM      7  I   UNL d   1       2.024   1.781   1.926  0.00  0.00    -0.146 I 
ENDROOT
TORSDOF 0
ENDMDL
