MODEL 1
REMARK minimizedAffinity 6.46443033
REMARK minimizedRMSD -1
REMARK  0 active torsions:
REMARK  status: ('A' for Active; 'I' for Inactive)
ROOT
ATOM      1  C   UNL d   1       1.145   1.361  -1.300  0.00  0.00     0.023 A 
ATOM      2  C1  UNL d   1       1.813   1.108  -0.102  0.00  0.00     0.003 A 
ATOM      3  C2  UNL d   1       1.986  -0.206   0.338  0.00  0.00     0.048 A 
ATOM      4  C3  UNL d   1       1.489  -1.262  -0.425  0.00  0.00     0.023 A 
ATOM      5  C4  UNL d   1       0.820  -1.013  -1.625  0.00  0.00     0.048 A 
ATOM      6  C5  UNL d   1       0.649   0.302  -2.060  0.00  0.00     0.003 A 
ATOM      7  I   UNL d   1       1.746  -3.218   0.228  0.00  0.00    -0.146 I 
ENDROOT
TORSDOF 0
ENDMDL
