MODEL 1
REMARK minimizedAffinity -1.38699365
REMARK minimizedRMSD -1
REMARK  0 active torsions:
REMARK  status: ('A' for Active; 'I' for Inactive)
ROOT
ATOM      1  C   UNL d   1       0.860  -0.137   0.023  0.00  0.00     0.023 A 
ATOM      2  C1  UNL d   1       0.883   0.901   0.956  0.00  0.00     0.003 A 
ATOM      3  C2  UNL d   1       1.206   2.198   0.551  0.00  0.00     0.048 A 
ATOM      4  C3  UNL d   1       1.504   2.450  -0.788  0.00  0.00     0.023 A 
ATOM      5  C4  UNL d   1       1.482   1.415  -1.724  0.00  0.00     0.048 A 
ATOM      6  C5  UNL d   1       1.159   0.120  -1.315  0.00  0.00     0.003 A 
ATOM      7  I   UNL d   1       1.985   4.380  -1.392  0.00  0.00    -0.146 I 
ENDROOT
TORSDOF 0
ENDMDL
