MODEL 1
REMARK minimizedAffinity 8.02116871
REMARK minimizedRMSD -1
REMARK  0 active torsions:
REMARK  status: ('A' for Active; 'I' for Inactive)
ROOT
ATOM      1  C   UNL d   1      -3.376   3.235   1.272  0.00  0.00     0.023 A 
ATOM      2  C1  UNL d   1      -2.271   3.783   1.924  0.00  0.00     0.003 A 
ATOM      3  C2  UNL d   1      -1.816   3.225   3.119  0.00  0.00     0.048 A 
ATOM      4  C3  UNL d   1      -2.469   2.117   3.658  0.00  0.00     0.023 A 
ATOM      5  C4  UNL d   1      -3.575   1.564   3.009  0.00  0.00     0.048 A 
ATOM      6  C5  UNL d   1      -4.027   2.127   1.814  0.00  0.00     0.003 A 
ATOM      7  I   UNL d   1      -1.793   1.283   5.438  0.00  0.00    -0.146 I 
ENDROOT
TORSDOF 0
ENDMDL
