MODEL 1
REMARK minimizedAffinity 2.65368462
REMARK minimizedRMSD -1
REMARK  0 active torsions:
REMARK  status: ('A' for Active; 'I' for Inactive)
ROOT
ATOM      1  C   UNL d   1      -3.193   2.561   1.121  0.00  0.00     0.023 A 
ATOM      2  C1  UNL d   1      -2.126   3.142   1.806  0.00  0.00     0.003 A 
ATOM      3  C2  UNL d   1      -1.738   2.642   3.050  0.00  0.00     0.048 A 
ATOM      4  C3  UNL d   1      -2.420   1.559   3.604  0.00  0.00     0.023 A 
ATOM      5  C4  UNL d   1      -3.487   0.973   2.922  0.00  0.00     0.048 A 
ATOM      6  C5  UNL d   1      -3.873   1.477   1.678  0.00  0.00     0.003 A 
ATOM      7  I   UNL d   1      -1.843   0.812   5.455  0.00  0.00    -0.146 I 
ENDROOT
TORSDOF 0
ENDMDL
