MODEL 1
REMARK minimizedAffinity 1.64733827
REMARK minimizedRMSD -1
REMARK  0 active torsions:
REMARK  status: ('A' for Active; 'I' for Inactive)
ROOT
ATOM      1  C   UNL d   1       1.228   1.309   0.106  0.00  0.00     0.023 A 
ATOM      2  C1  UNL d   1       0.565   1.208  -1.117  0.00  0.00     0.003 A 
ATOM      3  C2  UNL d   1       0.174  -0.042  -1.599  0.00  0.00     0.048 A 
ATOM      4  C3  UNL d   1       0.449  -1.188  -0.853  0.00  0.00     0.023 A 
ATOM      5  C4  UNL d   1       1.112  -1.092   0.371  0.00  0.00     0.048 A 
ATOM      6  C5  UNL d   1       1.502   0.160   0.849  0.00  0.00     0.003 A 
ATOM      7  I   UNL d   1      -0.132  -3.051  -1.570  0.00  0.00    -0.146 I 
ENDROOT
TORSDOF 0
ENDMDL
