MODEL 1
REMARK minimizedAffinity -0.403173327
REMARK minimizedRMSD -1
REMARK  0 active torsions:
REMARK  status: ('A' for Active; 'I' for Inactive)
ROOT
ATOM      1  C   UNL d   1       1.664   2.462  -0.401  0.00  0.00     0.023 A 
ATOM      2  C1  UNL d   1       1.351   1.795  -1.585  0.00  0.00     0.003 A 
ATOM      3  C2  UNL d   1       1.242   0.403  -1.596  0.00  0.00     0.048 A 
ATOM      4  C3  UNL d   1       1.446  -0.316  -0.418  0.00  0.00     0.023 A 
ATOM      5  C4  UNL d   1       1.758   0.348   0.770  0.00  0.00     0.048 A 
ATOM      6  C5  UNL d   1       1.867   1.740   0.775  0.00  0.00     0.003 A 
ATOM      7  I   UNL d   1       1.284  -2.388  -0.431  0.00  0.00    -0.146 I 
ENDROOT
TORSDOF 0
ENDMDL
