MODEL 1
REMARK minimizedAffinity 7.82722998
REMARK minimizedRMSD -1
REMARK  0 active torsions:
REMARK  status: ('A' for Active; 'I' for Inactive)
ROOT
ATOM      1  C   UNL d   1       1.192  -0.446   0.483  0.00  0.00     0.023 A 
ATOM      2  C1  UNL d   1       1.741   0.712   1.033  0.00  0.00     0.003 A 
ATOM      3  C2  UNL d   1       1.794   1.887   0.281  0.00  0.00     0.048 A 
ATOM      4  C3  UNL d   1       1.295   1.897  -1.021  0.00  0.00     0.023 A 
ATOM      5  C4  UNL d   1       0.744   0.741  -1.576  0.00  0.00     0.048 A 
ATOM      6  C5  UNL d   1       0.695  -0.432  -0.820  0.00  0.00     0.003 A 
ATOM      7  I   UNL d   1       1.372   3.645  -2.143  0.00  0.00    -0.146 I 
ENDROOT
TORSDOF 0
ENDMDL
