MODEL 1
REMARK minimizedAffinity 3.92793536
REMARK minimizedRMSD -1
REMARK  0 active torsions:
REMARK  status: ('A' for Active; 'I' for Inactive)
ROOT
ATOM      1  C   UNL d   1       1.442   2.340  -0.551  0.00  0.00     0.023 A 
ATOM      2  C1  UNL d   1       0.971   2.052  -1.832  0.00  0.00     0.003 A 
ATOM      3  C2  UNL d   1       0.672   0.735  -2.188  0.00  0.00     0.048 A 
ATOM      4  C3  UNL d   1       0.846  -0.289  -1.257  0.00  0.00     0.023 A 
ATOM      5  C4  UNL d   1       1.316  -0.006   0.026  0.00  0.00     0.048 A 
ATOM      6  C5  UNL d   1       1.614   1.312   0.377  0.00  0.00     0.003 A 
ATOM      7  I   UNL d   1       0.402  -2.250  -1.784  0.00  0.00    -0.146 I 
ENDROOT
TORSDOF 0
ENDMDL
