MODEL 1
REMARK minimizedAffinity 1.43589163
REMARK minimizedRMSD -1
REMARK  0 active torsions:
REMARK  status: ('A' for Active; 'I' for Inactive)
ROOT
ATOM      1  C   UNL d   1       4.816   5.896   4.969  0.00  0.00     0.078 C 
ATOM      2  C1  UNL d   1       4.831   5.723   3.480  0.00  0.00    -0.077 A 
ATOM      3  C2  UNL d   1       5.988   5.300   2.815  0.00  0.00    -0.001 A 
ATOM      4  C3  UNL d   1       5.990   5.152   1.427  0.00  0.00     0.003 A 
ATOM      5  C4  UNL d   1       4.838   5.427   0.692  0.00  0.00    -0.005 A 
ATOM      6  C5  UNL d   1       3.683   5.851   1.345  0.00  0.00     0.003 A 
ATOM      7  C6  UNL d   1       3.679   5.999   2.733  0.00  0.00    -0.001 A 
ENDROOT
TORSDOF 0
ENDMDL
