MODEL 1
REMARK minimizedAffinity 7.97899151
REMARK minimizedRMSD -1
REMARK  0 active torsions:
REMARK  status: ('A' for Active; 'I' for Inactive)
ROOT
ATOM      1  C   UNL d   1      -1.449   1.290  -1.127  0.00  0.00     0.078 C 
ATOM      2  C1  UNL d   1      -1.830   1.512   0.307  0.00  0.00    -0.077 A 
ATOM      3  C2  UNL d   1      -1.562   0.545   1.283  0.00  0.00    -0.001 A 
ATOM      4  C3  UNL d   1      -1.932   0.761   2.611  0.00  0.00     0.003 A 
ATOM      5  C4  UNL d   1      -2.572   1.944   2.975  0.00  0.00    -0.005 A 
ATOM      6  C5  UNL d   1      -2.846   2.911   2.011  0.00  0.00     0.003 A 
ATOM      7  C6  UNL d   1      -2.477   2.697   0.682  0.00  0.00    -0.001 A 
ENDROOT
TORSDOF 0
ENDMDL
