MODEL 1
REMARK minimizedAffinity 4.05547428
REMARK minimizedRMSD -1
REMARK  0 active torsions:
REMARK  status: ('A' for Active; 'I' for Inactive)
ROOT
ATOM      1  C   UNL d   1       2.214   3.605  -3.086  0.00  0.00     0.078 C 
ATOM      2  C1  UNL d   1       1.641   2.271  -2.711  0.00  0.00    -0.077 A 
ATOM      3  C2  UNL d   1       0.284   2.133  -2.392  0.00  0.00    -0.001 A 
ATOM      4  C3  UNL d   1      -0.234   0.887  -2.035  0.00  0.00     0.003 A 
ATOM      5  C4  UNL d   1       0.598  -0.231  -1.994  0.00  0.00    -0.005 A 
ATOM      6  C5  UNL d   1       1.949  -0.103  -2.308  0.00  0.00     0.003 A 
ATOM      7  C6  UNL d   1       2.469   1.142  -2.665  0.00  0.00    -0.001 A 
ENDROOT
TORSDOF 0
ENDMDL
