MODEL 1
REMARK minimizedAffinity 6.30890512
REMARK minimizedRMSD -1
REMARK  0 active torsions:
REMARK  status: ('A' for Active; 'I' for Inactive)
ROOT
ATOM      1  C   UNL d   1       3.153  -1.865  -0.477  0.00  0.00     0.078 C 
ATOM      2  C1  UNL d   1       2.130  -2.059  -1.556  0.00  0.00    -0.077 A 
ATOM      3  C2  UNL d   1       1.538  -3.309  -1.773  0.00  0.00    -0.001 A 
ATOM      4  C3  UNL d   1       0.594  -3.477  -2.787  0.00  0.00     0.003 A 
ATOM      5  C4  UNL d   1       0.235  -2.399  -3.594  0.00  0.00    -0.005 A 
ATOM      6  C5  UNL d   1       0.821  -1.152  -3.388  0.00  0.00     0.003 A 
ATOM      7  C6  UNL d   1       1.764  -0.982  -2.373  0.00  0.00    -0.001 A 
ENDROOT
TORSDOF 0
ENDMDL
