MODEL 1
REMARK minimizedAffinity 6.33454943
REMARK minimizedRMSD -1
REMARK  0 active torsions:
REMARK  status: ('A' for Active; 'I' for Inactive)
ROOT
ATOM      1  C   UNL d   1      -1.327   2.288   3.949  0.00  0.00     0.078 C 
ATOM      2  C1  UNL d   1      -1.765   1.246   2.964  0.00  0.00    -0.077 A 
ATOM      3  C2  UNL d   1      -1.492   1.386   1.597  0.00  0.00    -0.001 A 
ATOM      4  C3  UNL d   1      -1.914   0.413   0.690  0.00  0.00     0.003 A 
ATOM      5  C4  UNL d   1      -2.613  -0.706   1.139  0.00  0.00    -0.005 A 
ATOM      6  C5  UNL d   1      -2.891  -0.853   2.496  0.00  0.00     0.003 A 
ATOM      7  C6  UNL d   1      -2.469   0.119   3.405  0.00  0.00    -0.001 A 
ENDROOT
TORSDOF 0
ENDMDL
