MODEL 1
REMARK minimizedAffinity 5.18612194
REMARK minimizedRMSD -1
REMARK  0 active torsions:
REMARK  status: ('A' for Active; 'I' for Inactive)
ROOT
ATOM      1  C   UNL d   1      -2.604   1.975   1.574  0.00  0.00     0.078 C 
ATOM      2  C1  UNL d   1      -3.165   3.314   1.949  0.00  0.00    -0.077 A 
ATOM      3  C2  UNL d   1      -2.464   4.177   2.800  0.00  0.00    -0.001 A 
ATOM      4  C3  UNL d   1      -3.003   5.417   3.148  0.00  0.00     0.003 A 
ATOM      5  C4  UNL d   1      -4.246   5.804   2.651  0.00  0.00    -0.005 A 
ATOM      6  C5  UNL d   1      -4.952   4.950   1.806  0.00  0.00     0.003 A 
ATOM      7  C6  UNL d   1      -4.415   3.711   1.457  0.00  0.00    -0.001 A 
ENDROOT
TORSDOF 0
ENDMDL
