MODEL 1
REMARK minimizedAffinity -1.8991574
REMARK minimizedRMSD -1
REMARK  0 active torsions:
REMARK  status: ('A' for Active; 'I' for Inactive)
ROOT
ATOM      1  C   UNL d   1       5.070   5.107   5.680  0.00  0.00     0.078 C 
ATOM      2  C1  UNL d   1       5.053   5.162   4.182  0.00  0.00    -0.077 A 
ATOM      3  C2  UNL d   1       6.000   4.462   3.424  0.00  0.00    -0.001 A 
ATOM      4  C3  UNL d   1       5.978   4.530   2.030  0.00  0.00     0.003 A 
ATOM      5  C4  UNL d   1       5.013   5.298   1.382  0.00  0.00    -0.005 A 
ATOM      6  C5  UNL d   1       4.068   6.000   2.127  0.00  0.00     0.003 A 
ATOM      7  C6  UNL d   1       4.089   5.933   3.521  0.00  0.00    -0.001 A 
ENDROOT
TORSDOF 0
ENDMDL
