MODEL 1
REMARK minimizedAffinity -0.877249777
REMARK minimizedRMSD -1
REMARK  0 active torsions:
REMARK  status: ('A' for Active; 'I' for Inactive)
ROOT
ATOM      1  C   UNL d   1       4.363   5.250  -0.478  0.00  0.00     0.078 C 
ATOM      2  C1  UNL d   1       4.648   5.249   0.995  0.00  0.00    -0.077 A 
ATOM      3  C2  UNL d   1       3.867   6.000   1.881  0.00  0.00    -0.001 A 
ATOM      4  C3  UNL d   1       4.149   5.997   3.248  0.00  0.00     0.003 A 
ATOM      5  C4  UNL d   1       5.214   5.245   3.741  0.00  0.00    -0.005 A 
ATOM      6  C5  UNL d   1       5.999   4.496   2.866  0.00  0.00     0.003 A 
ATOM      7  C6  UNL d   1       5.718   4.498   1.499  0.00  0.00    -0.001 A 
ENDROOT
TORSDOF 0
ENDMDL
