MODEL 1
REMARK minimizedAffinity 5.28977823
REMARK minimizedRMSD -1
REMARK  0 active torsions:
REMARK  status: ('A' for Active; 'I' for Inactive)
ROOT
ATOM      1  C   UNL d   1       1.830  -2.593  -1.136  0.00  0.00     0.078 C 
ATOM      2  C1  UNL d   1       1.840  -1.191  -1.668  0.00  0.00    -0.077 A 
ATOM      3  C2  UNL d   1       0.747  -0.681  -2.379  0.00  0.00    -0.001 A 
ATOM      4  C3  UNL d   1       0.774   0.622  -2.877  0.00  0.00     0.003 A 
ATOM      5  C4  UNL d   1       1.893   1.427  -2.671  0.00  0.00    -0.005 A 
ATOM      6  C5  UNL d   1       2.987   0.928  -1.967  0.00  0.00     0.003 A 
ATOM      7  C6  UNL d   1       2.962  -0.376  -1.468  0.00  0.00    -0.001 A 
ENDROOT
TORSDOF 0
ENDMDL
