MODEL 1
REMARK minimizedAffinity 7.17135334
REMARK minimizedRMSD -1
REMARK  0 active torsions:
REMARK  status: ('A' for Active; 'I' for Inactive)
ROOT
ATOM      1  C   UNL d   1      -1.115   2.985   4.115  0.00  0.00     0.078 C 
ATOM      2  C1  UNL d   1      -1.635   1.625   3.755  0.00  0.00    -0.077 A 
ATOM      3  C2  UNL d   1      -1.316   1.034   2.526  0.00  0.00    -0.001 A 
ATOM      4  C3  UNL d   1      -1.815  -0.228   2.200  0.00  0.00     0.003 A 
ATOM      5  C4  UNL d   1      -2.637  -0.909   3.096  0.00  0.00    -0.005 A 
ATOM      6  C5  UNL d   1      -2.961  -0.327   4.320  0.00  0.00     0.003 A 
ATOM      7  C6  UNL d   1      -2.463   0.934   4.648  0.00  0.00    -0.001 A 
ENDROOT
TORSDOF 0
ENDMDL
