MODEL 1
REMARK minimizedAffinity 4.85460663
REMARK minimizedRMSD -1
REMARK  0 active torsions:
REMARK  status: ('A' for Active; 'I' for Inactive)
ROOT
ATOM      1  C   UNL d   1      -1.369   1.640   3.124  0.00  0.00     0.078 C 
ATOM      2  C1  UNL d   1      -1.715   0.708   2.001  0.00  0.00    -0.077 A 
ATOM      3  C2  UNL d   1      -1.460   1.057   0.670  0.00  0.00    -0.001 A 
ATOM      4  C3  UNL d   1      -1.796   0.184  -0.366  0.00  0.00     0.003 A 
ATOM      5  C4  UNL d   1      -2.390  -1.044  -0.081  0.00  0.00    -0.005 A 
ATOM      6  C5  UNL d   1      -2.650  -1.399   1.241  0.00  0.00     0.003 A 
ATOM      7  C6  UNL d   1      -2.315  -0.527   2.278  0.00  0.00    -0.001 A 
ENDROOT
TORSDOF 0
ENDMDL
