MODEL 1
REMARK minimizedAffinity 9.63154888
REMARK minimizedRMSD -1
REMARK  0 active torsions:
REMARK  status: ('A' for Active; 'I' for Inactive)
ROOT
ATOM      1  C   UNL d   1      -1.053   0.667  -0.212  0.00  0.00     0.078 C 
ATOM      2  C1  UNL d   1      -1.519   0.652   1.213  0.00  0.00    -0.077 A 
ATOM      3  C2  UNL d   1      -1.102   1.635   2.119  0.00  0.00    -0.001 A 
ATOM      4  C3  UNL d   1      -1.536   1.603   3.445  0.00  0.00     0.003 A 
ATOM      5  C4  UNL d   1      -2.388   0.589   3.878  0.00  0.00    -0.005 A 
ATOM      6  C5  UNL d   1      -2.807  -0.395   2.985  0.00  0.00     0.003 A 
ATOM      7  C6  UNL d   1      -2.374  -0.365   1.658  0.00  0.00    -0.001 A 
ENDROOT
TORSDOF 0
ENDMDL
