MODEL 1
REMARK minimizedAffinity 9.23708725
REMARK minimizedRMSD -1
REMARK  0 active torsions:
REMARK  status: ('A' for Active; 'I' for Inactive)
ROOT
ATOM      1  C   UNL d   1       0.373  -0.369  -5.877  0.00  0.00     0.078 C 
ATOM      2  C1  UNL d   1       0.774  -1.177  -4.679  0.00  0.00    -0.077 A 
ATOM      3  C2  UNL d   1       1.476  -0.592  -3.618  0.00  0.00    -0.001 A 
ATOM      4  C3  UNL d   1       1.851  -1.358  -2.513  0.00  0.00     0.003 A 
ATOM      5  C4  UNL d   1       1.530  -2.713  -2.459  0.00  0.00    -0.005 A 
ATOM      6  C5  UNL d   1       0.833  -3.304  -3.511  0.00  0.00     0.003 A 
ATOM      7  C6  UNL d   1       0.457  -2.539  -4.617  0.00  0.00    -0.001 A 
ENDROOT
TORSDOF 0
ENDMDL
