MODEL 1
REMARK minimizedAffinity -2.82977223
REMARK minimizedRMSD -1
REMARK  1 active torsions:
REMARK  status: ('A' for Active; 'I' for Inactive)
REMARK    1  A    between atoms: C1_2  and  C2_3 
ROOT
ATOM      1  C2  UNL d   1       0.080   0.170   0.918  0.00  0.00    -0.081 A 
ATOM      2  C3  UNL d   1       0.716   0.610  -0.249  0.00  0.00     0.006 A 
ATOM      3  C4  UNL d   1       1.644   1.653  -0.200  0.00  0.00     0.002 A 
ATOM      4  C5  UNL d   1       1.956   2.269   1.017  0.00  0.00    -0.080 A 
ATOM      5  C6  UNL d   1       2.972   3.370   1.089  0.00  0.00     0.076 C 
ATOM      6  C7  UNL d   1       1.307   1.841   2.181  0.00  0.00     0.002 A 
ATOM      7  C8  UNL d   1       0.380   0.798   2.132  0.00  0.00     0.006 A 
ENDROOT
BRANCH   1   8
ATOM      8  C1  UNL d   1      -0.872  -0.998   0.879  0.00  0.00     0.054 C 
ATOM      9  C   UNL d   1      -1.465  -1.275   2.253  0.00  0.00     0.018 C 
ENDBRANCH   1   8
TORSDOF 1
ENDMDL
