MODEL 1
REMARK minimizedAffinity -2.79648757
REMARK minimizedRMSD -1
REMARK  1 active torsions:
REMARK  status: ('A' for Active; 'I' for Inactive)
REMARK    1  A    between atoms: C1_2  and  C2_3 
ROOT
ATOM      1  C2  UNL d   1      -0.737  -0.754  -0.485  0.00  0.00    -0.081 A 
ATOM      2  C3  UNL d   1      -1.353  -0.112   0.596  0.00  0.00     0.006 A 
ATOM      3  C4  UNL d   1      -0.735   0.976   1.219  0.00  0.00     0.002 A 
ATOM      4  C5  UNL d   1       0.503   1.443   0.767  0.00  0.00    -0.080 A 
ATOM      5  C6  UNL d   1       1.163   2.628   1.408  0.00  0.00     0.076 C 
ATOM      6  C7  UNL d   1       1.127   0.790  -0.301  0.00  0.00     0.002 A 
ATOM      7  C8  UNL d   1       0.511  -0.297  -0.924  0.00  0.00     0.006 A 
ENDROOT
BRANCH   1   8
ATOM      8  C1  UNL d   1      -1.429  -1.886  -1.200  0.00  0.00     0.054 C 
ATOM      9  C   UNL d   1      -1.971  -1.438  -2.550  0.00  0.00     0.018 C 
ENDBRANCH   1   8
TORSDOF 1
ENDMDL
