MODEL 1
REMARK minimizedAffinity -3.33831167
REMARK minimizedRMSD -1
REMARK  1 active torsions:
REMARK  status: ('A' for Active; 'I' for Inactive)
REMARK    1  A    between atoms: C1_2  and  C2_3 
ROOT
ATOM      1  C2  UNL d   1       1.382   0.728   0.329  0.00  0.00    -0.081 A 
ATOM      2  C3  UNL d   1       1.130   1.442   1.507  0.00  0.00     0.006 A 
ATOM      3  C4  UNL d   1      -0.058   1.243   2.216  0.00  0.00     0.002 A 
ATOM      4  C5  UNL d   1      -1.008   0.321   1.763  0.00  0.00    -0.080 A 
ATOM      5  C6  UNL d   1      -2.273   0.075   2.531  0.00  0.00     0.076 C 
ATOM      6  C7  UNL d   1      -0.763  -0.380   0.577  0.00  0.00     0.002 A 
ATOM      7  C8  UNL d   1       0.423  -0.180  -0.132  0.00  0.00     0.006 A 
ENDROOT
BRANCH   1   8
ATOM      8  C1  UNL d   1       2.690   0.894  -0.402  0.00  0.00     0.054 C 
ATOM      9  C   UNL d   1       3.444  -0.424  -0.492  0.00  0.00     0.018 C 
ENDBRANCH   1   8
TORSDOF 1
ENDMDL
