MODEL 1
REMARK minimizedAffinity -3.99843645
REMARK minimizedRMSD -1
REMARK  1 active torsions:
REMARK  status: ('A' for Active; 'I' for Inactive)
REMARK    1  A    between atoms: C1_2  and  C2_3 
ROOT
ATOM      1  C2  UNL d   1       0.539  -0.753   0.089  0.00  0.00    -0.081 A 
ATOM      2  C3  UNL d   1       1.848  -0.877  -0.392  0.00  0.00     0.006 A 
ATOM      3  C4  UNL d   1       2.816   0.076  -0.067  0.00  0.00     0.002 A 
ATOM      4  C5  UNL d   1       2.493   1.165   0.750  0.00  0.00    -0.080 A 
ATOM      5  C6  UNL d   1       3.530   2.179   1.132  0.00  0.00     0.076 C 
ATOM      6  C7  UNL d   1       1.181   1.298   1.217  0.00  0.00     0.002 A 
ATOM      7  C8  UNL d   1       0.213   0.346   0.891  0.00  0.00     0.006 A 
ENDROOT
BRANCH   1   8
ATOM      8  C1  UNL d   1      -0.490  -1.814  -0.207  0.00  0.00     0.054 C 
ATOM      9  C   UNL d   1      -1.421  -1.383  -1.332  0.00  0.00     0.018 C 
ENDBRANCH   1   8
TORSDOF 1
ENDMDL
