MODEL 1
REMARK minimizedAffinity -3.57147336
REMARK minimizedRMSD -1
REMARK  1 active torsions:
REMARK  status: ('A' for Active; 'I' for Inactive)
REMARK    1  A    between atoms: C1_2  and  C2_3 
ROOT
ATOM      1  C2  UNL d   1      -0.326  -1.039  -0.458  0.00  0.00    -0.081 A 
ATOM      2  C3  UNL d   1      -1.062  -0.425   0.563  0.00  0.00     0.006 A 
ATOM      3  C4  UNL d   1      -0.548   0.684   1.238  0.00  0.00     0.002 A 
ATOM      4  C5  UNL d   1       0.706   1.203   0.900  0.00  0.00    -0.080 A 
ATOM      5  C6  UNL d   1       1.257   2.411   1.597  0.00  0.00     0.076 C 
ATOM      6  C7  UNL d   1       1.450   0.579  -0.108  0.00  0.00     0.002 A 
ATOM      7  C8  UNL d   1       0.936  -0.530  -0.784  0.00  0.00     0.006 A 
ENDROOT
BRANCH   1   8
ATOM      8  C1  UNL d   1      -0.905  -2.195  -1.232  0.00  0.00     0.054 C 
ATOM      9  C   UNL d   1      -2.352  -1.930  -1.624  0.00  0.00     0.018 C 
ENDBRANCH   1   8
TORSDOF 1
ENDMDL
