MODEL 1
REMARK minimizedAffinity -4.32179785
REMARK minimizedRMSD -1
REMARK  1 active torsions:
REMARK  status: ('A' for Active; 'I' for Inactive)
REMARK    1  A    between atoms: C1_2  and  C2_3 
ROOT
ATOM      1  C2  UNL d   1      -4.190  -2.661  -0.832  0.00  0.00    -0.081 A 
ATOM      2  C3  UNL d   1      -4.625  -1.939  -1.951  0.00  0.00     0.006 A 
ATOM      3  C4  UNL d   1      -3.701  -1.338  -2.809  0.00  0.00     0.002 A 
ATOM      4  C5  UNL d   1      -2.328  -1.455  -2.568  0.00  0.00    -0.080 A 
ATOM      5  C6  UNL d   1      -1.325  -0.841  -3.499  0.00  0.00     0.076 C 
ATOM      6  C7  UNL d   1      -1.894  -2.161  -1.441  0.00  0.00     0.002 A 
ATOM      7  C8  UNL d   1      -2.817  -2.762  -0.582  0.00  0.00     0.006 A 
ENDROOT
BRANCH   1   8
ATOM      8  C1  UNL d   1      -5.181  -3.364   0.059  0.00  0.00     0.054 C 
ATOM      9  C   UNL d   1      -5.133  -4.872  -0.142  0.00  0.00     0.018 C 
ENDBRANCH   1   8
TORSDOF 1
ENDMDL
