MODEL 1
REMARK minimizedAffinity -2.63055253
REMARK minimizedRMSD -1
REMARK  1 active torsions:
REMARK  status: ('A' for Active; 'I' for Inactive)
REMARK    1  A    between atoms: C1_2  and  C2_3 
ROOT
ATOM      1  C2  UNL d   1      -4.333  -2.219  -1.929  0.00  0.00    -0.081 A 
ATOM      2  C3  UNL d   1      -3.099  -2.470  -1.316  0.00  0.00     0.006 A 
ATOM      3  C4  UNL d   1      -1.906  -2.232  -2.003  0.00  0.00     0.002 A 
ATOM      4  C5  UNL d   1      -1.927  -1.731  -3.309  0.00  0.00    -0.080 A 
ATOM      5  C6  UNL d   1      -0.653  -1.442  -4.047  0.00  0.00     0.076 C 
ATOM      6  C7  UNL d   1      -3.160  -1.497  -3.927  0.00  0.00     0.002 A 
ATOM      7  C8  UNL d   1      -4.353  -1.735  -3.242  0.00  0.00     0.006 A 
ENDROOT
BRANCH   1   8
ATOM      8  C1  UNL d   1      -5.620  -2.414  -1.168  0.00  0.00     0.054 C 
ATOM      9  C   UNL d   1      -5.633  -3.748  -0.436  0.00  0.00     0.018 C 
ENDBRANCH   1   8
TORSDOF 1
ENDMDL
