MODEL 1
REMARK minimizedAffinity -4.43518257
REMARK minimizedRMSD -1
REMARK  1 active torsions:
REMARK  status: ('A' for Active; 'I' for Inactive)
REMARK    1  A    between atoms: C1_2  and  C2_3 
ROOT
ATOM      1  C2  UNL d   1      -0.141  -0.368  -0.035  0.00  0.00    -0.081 A 
ATOM      2  C3  UNL d   1      -0.631   0.309   1.088  0.00  0.00     0.006 A 
ATOM      3  C4  UNL d   1       0.049   1.417   1.599  0.00  0.00     0.002 A 
ATOM      4  C5  UNL d   1       1.226   1.870   0.992  0.00  0.00    -0.080 A 
ATOM      5  C6  UNL d   1       1.949   3.076   1.513  0.00  0.00     0.076 C 
ATOM      6  C7  UNL d   1       1.725   1.183  -0.119  0.00  0.00     0.002 A 
ATOM      7  C8  UNL d   1       1.045   0.075  -0.631  0.00  0.00     0.006 A 
ENDROOT
BRANCH   1   8
ATOM      8  C1  UNL d   1      -0.907  -1.523  -0.628  0.00  0.00     0.054 C 
ATOM      9  C   UNL d   1      -1.474  -1.168  -1.995  0.00  0.00     0.018 C 
ENDBRANCH   1   8
TORSDOF 1
ENDMDL
