MODEL 1
REMARK minimizedAffinity -2.870013
REMARK minimizedRMSD -1
REMARK  1 active torsions:
REMARK  status: ('A' for Active; 'I' for Inactive)
REMARK    1  A    between atoms: C1_2  and  C2_3 
ROOT
ATOM      1  C2  UNL d   1      -1.592  -0.724  -1.067  0.00  0.00    -0.081 A 
ATOM      2  C3  UNL d   1      -0.378  -1.117  -0.490  0.00  0.00     0.006 A 
ATOM      3  C4  UNL d   1       0.193  -0.365   0.539  0.00  0.00     0.002 A 
ATOM      4  C5  UNL d   1      -0.444   0.787   1.014  0.00  0.00    -0.080 A 
ATOM      5  C6  UNL d   1       0.143   1.586   2.140  0.00  0.00     0.076 C 
ATOM      6  C7  UNL d   1      -1.648   1.189   0.426  0.00  0.00     0.002 A 
ATOM      7  C8  UNL d   1      -2.219   0.437  -0.603  0.00  0.00     0.006 A 
ENDROOT
BRANCH   1   8
ATOM      8  C1  UNL d   1      -2.243  -1.569  -2.133  0.00  0.00     0.054 C 
ATOM      9  C   UNL d   1      -2.586  -0.740  -3.362  0.00  0.00     0.018 C 
ENDBRANCH   1   8
TORSDOF 1
ENDMDL
