MODEL 1
REMARK minimizedAffinity 1.39021826
REMARK minimizedRMSD -1
REMARK  0 active torsions:
REMARK  status: ('A' for Active; 'I' for Inactive)
ROOT
ATOM      1  C1  BNZ d   1       1.685  -0.244   4.070  0.00  0.00     0.000 A 
ATOM      2  C2  BNZ d   1       1.758  -1.611   4.032  0.00  0.00     0.000 A 
ATOM      3  C3  BNZ d   1       2.175  -2.259   2.904  0.00  0.00     0.000 A 
ATOM      4  C4  BNZ d   1       2.481  -1.543   1.802  0.00  0.00     0.000 A 
ATOM      5  C5  BNZ d   1       2.403  -0.164   1.821  0.00  0.00     0.000 A 
ATOM      6  C6  BNZ d   1       2.020   0.487   2.971  0.00  0.00     0.000 A 
ENDROOT
TORSDOF 0
ENDMDL
