MODEL 1
REMARK minimizedAffinity -0.437355757
REMARK minimizedRMSD -1
REMARK  0 active torsions:
REMARK  status: ('A' for Active; 'I' for Inactive)
ROOT
ATOM      1  C1  BNZ d   1      -5.998   3.351  -2.478  0.00  0.00     0.000 A 
ATOM      2  C2  BNZ d   1      -5.997   3.351  -3.848  0.00  0.00     0.000 A 
ATOM      3  C3  BNZ d   1      -5.122   2.568  -4.547  0.00  0.00     0.000 A 
ATOM      4  C4  BNZ d   1      -4.223   1.818  -3.878  0.00  0.00     0.000 A 
ATOM      5  C5  BNZ d   1      -4.204   1.815  -2.498  0.00  0.00     0.000 A 
ATOM      6  C6  BNZ d   1      -5.113   2.574  -1.797  0.00  0.00     0.000 A 
ENDROOT
TORSDOF 0
ENDMDL
