MODEL 1
REMARK minimizedAffinity 1.57979465
REMARK minimizedRMSD -1
REMARK  0 active torsions:
REMARK  status: ('A' for Active; 'I' for Inactive)
ROOT
ATOM      1  C1  BNZ d   1       2.139   0.503   3.526  0.00  0.00     0.000 A 
ATOM      2  C2  BNZ d   1       2.012  -0.640   4.269  0.00  0.00     0.000 A 
ATOM      3  C3  BNZ d   1       1.977  -1.866   3.666  0.00  0.00     0.000 A 
ATOM      4  C4  BNZ d   1       2.028  -1.946   2.321  0.00  0.00     0.000 A 
ATOM      5  C5  BNZ d   1       2.147  -0.802   1.557  0.00  0.00     0.000 A 
ATOM      6  C6  BNZ d   1       2.222   0.428   2.169  0.00  0.00     0.000 A 
ENDROOT
TORSDOF 0
ENDMDL
