MODEL 1
REMARK minimizedAffinity 1.38335752
REMARK minimizedRMSD -1
REMARK  0 active torsions:
REMARK  status: ('A' for Active; 'I' for Inactive)
ROOT
ATOM      1  C1  BNZ d   1       4.893  -0.627  -4.735  0.00  0.00     0.000 A 
ATOM      2  C2  BNZ d   1       6.000  -0.160  -5.393  0.00  0.00     0.000 A 
ATOM      3  C3  BNZ d   1       5.990   1.066  -5.997  0.00  0.00     0.000 A 
ATOM      4  C4  BNZ d   1       4.862   1.805  -5.978  0.00  0.00     0.000 A 
ATOM      5  C5  BNZ d   1       3.735   1.345  -5.327  0.00  0.00     0.000 A 
ATOM      6  C6  BNZ d   1       3.761   0.127  -4.687  0.00  0.00     0.000 A 
ENDROOT
TORSDOF 0
ENDMDL
