MODEL 1
REMARK minimizedAffinity 3.70711923
REMARK minimizedRMSD -1
REMARK  0 active torsions:
REMARK  status: ('A' for Active; 'I' for Inactive)
ROOT
ATOM      1  C1  BNZ d   1       3.100   0.954   0.654  0.00  0.00     0.000 A 
ATOM      2  C2  BNZ d   1       2.621   2.215   0.415  0.00  0.00     0.000 A 
ATOM      3  C3  BNZ d   1       1.436   2.627   0.957  0.00  0.00     0.000 A 
ATOM      4  C4  BNZ d   1       0.713   1.767   1.703  0.00  0.00     0.000 A 
ATOM      5  C5  BNZ d   1       1.178   0.490   1.945  0.00  0.00     0.000 A 
ATOM      6  C6  BNZ d   1       2.390   0.091   1.430  0.00  0.00     0.000 A 
ENDROOT
TORSDOF 0
ENDMDL
