MODEL 1
REMARK minimizedAffinity -2.0172894
REMARK minimizedRMSD -1
REMARK  0 active torsions:
REMARK  status: ('A' for Active; 'I' for Inactive)
ROOT
ATOM      1  C   UNL d   1       5.827  -3.882   0.593  0.00  0.00    -0.002 A 
ATOM      2  C1  UNL d   1       5.960  -5.263   0.618  0.00  0.00     0.010 A 
ATOM      3  C2  UNL d   1       5.984  -5.996  -0.570  0.00  0.00     0.041 A 
ATOM      4  C3  UNL d   1       5.872  -5.311  -1.796  0.00  0.00    -0.075 A 
ATOM      5  S   UNL d   1       5.877  -6.000  -3.376  0.00  0.00     0.015 SA
ATOM      6  C4  UNL d   1       5.704  -4.477  -4.122  0.00  0.00     0.022 A 
ATOM      7  C5  UNL d   1       5.642  -3.457  -3.203  0.00  0.00     0.026 A 
ATOM      8  C6  UNL d   1       5.738  -3.920  -1.847  0.00  0.00    -0.082 A 
ATOM      9  C7  UNL d   1       5.717  -3.205  -0.625  0.00  0.00     0.045 A 
ENDROOT
TORSDOF 0
ENDMDL
