MODEL 1
REMARK minimizedAffinity 6.94209433
REMARK minimizedRMSD -1
REMARK  0 active torsions:
REMARK  status: ('A' for Active; 'I' for Inactive)
ROOT
ATOM      1  C   UNL d   1       5.988  -3.497   0.267  0.00  0.00    -0.002 A 
ATOM      2  C1  UNL d   1       5.993  -4.883   0.315  0.00  0.00     0.010 A 
ATOM      3  C2  UNL d   1       5.996  -5.635  -0.862  0.00  0.00     0.041 A 
ATOM      4  C3  UNL d   1       5.995  -4.963  -2.100  0.00  0.00    -0.075 A 
ATOM      5  S   UNL d   1       5.999  -5.676  -3.669  0.00  0.00     0.015 SA
ATOM      6  C4  UNL d   1       5.995  -4.156  -4.441  0.00  0.00     0.022 A 
ATOM      7  C5  UNL d   1       5.991  -3.120  -3.539  0.00  0.00     0.026 A 
ATOM      8  C6  UNL d   1       5.991  -3.567  -2.174  0.00  0.00    -0.082 A 
ATOM      9  C7  UNL d   1       5.988  -2.834  -0.963  0.00  0.00     0.045 A 
ENDROOT
TORSDOF 0
ENDMDL
