MODEL 1
REMARK minimizedAffinity -0.613216698
REMARK minimizedRMSD -1
REMARK  0 active torsions:
REMARK  status: ('A' for Active; 'I' for Inactive)
ROOT
ATOM      1  C   UNL d   1       5.967  -4.048   5.906  0.00  0.00    -0.002 A 
ATOM      2  C1  UNL d   1       5.966  -2.665   5.787  0.00  0.00     0.010 A 
ATOM      3  C2  UNL d   1       5.976  -2.061   4.529  0.00  0.00     0.041 A 
ATOM      4  C3  UNL d   1       5.984  -2.877   3.381  0.00  0.00    -0.075 A 
ATOM      5  S   UNL d   1       5.995  -2.358   1.737  0.00  0.00     0.015 SA
ATOM      6  C4  UNL d   1       6.000  -3.959   1.153  0.00  0.00     0.022 A 
ATOM      7  C5  UNL d   1       5.994  -4.880   2.174  0.00  0.00     0.026 A 
ATOM      8  C6  UNL d   1       5.984  -4.271   3.475  0.00  0.00    -0.082 A 
ATOM      9  C7  UNL d   1       5.975  -4.854   4.765  0.00  0.00     0.045 A 
ENDROOT
TORSDOF 0
ENDMDL
