MODEL 1
REMARK minimizedAffinity 1.05547202
REMARK minimizedRMSD -1
REMARK  0 active torsions:
REMARK  status: ('A' for Active; 'I' for Inactive)
ROOT
ATOM      1  C   UNL d   1       3.912  -3.332  -1.583  0.00  0.00    -0.002 A 
ATOM      2  C1  UNL d   1       5.269  -3.591  -1.458  0.00  0.00     0.010 A 
ATOM      3  C2  UNL d   1       5.991  -4.128  -2.526  0.00  0.00     0.041 A 
ATOM      4  C3  UNL d   1       5.320  -4.400  -3.734  0.00  0.00    -0.075 A 
ATOM      5  S   UNL d   1       6.000  -5.057  -5.176  0.00  0.00     0.015 SA
ATOM      6  C4  UNL d   1       4.505  -5.007  -5.992  0.00  0.00     0.022 A 
ATOM      7  C5  UNL d   1       3.500  -4.505  -5.199  0.00  0.00     0.026 A 
ATOM      8  C6  UNL d   1       3.954  -4.146  -3.885  0.00  0.00    -0.082 A 
ATOM      9  C7  UNL d   1       3.249  -3.603  -2.783  0.00  0.00     0.045 A 
ENDROOT
TORSDOF 0
ENDMDL
