MODEL 1
REMARK minimizedAffinity 0.204719663
REMARK minimizedRMSD -1
REMARK  0 active torsions:
REMARK  status: ('A' for Active; 'I' for Inactive)
ROOT
ATOM      1  C   UNL d   1       5.545  -5.578  -5.677  0.00  0.00    -0.002 A 
ATOM      2  C1  UNL d   1       5.419  -4.227  -5.971  0.00  0.00     0.010 A 
ATOM      3  C2  UNL d   1       5.481  -3.270  -4.956  0.00  0.00     0.041 A 
ATOM      4  C3  UNL d   1       5.675  -3.698  -3.628  0.00  0.00    -0.075 A 
ATOM      5  S   UNL d   1       5.783  -2.705  -2.222  0.00  0.00     0.015 SA
ATOM      6  C4  UNL d   1       6.000  -4.050  -1.198  0.00  0.00     0.022 A 
ATOM      7  C5  UNL d   1       5.992  -5.235  -1.895  0.00  0.00     0.026 A 
ATOM      8  C6  UNL d   1       5.805  -5.052  -3.307  0.00  0.00    -0.082 A 
ATOM      9  C7  UNL d   1       5.737  -5.997  -4.358  0.00  0.00     0.045 A 
ENDROOT
TORSDOF 0
ENDMDL
