MODEL 1
REMARK minimizedAffinity -1.84681499
REMARK minimizedRMSD -1
REMARK  0 active torsions:
REMARK  status: ('A' for Active; 'I' for Inactive)
ROOT
ATOM      1  C   UNL d   1       5.999  -5.692   1.916  0.00  0.00    -0.002 A 
ATOM      2  C1  UNL d   1       6.000  -4.433   1.333  0.00  0.00     0.010 A 
ATOM      3  C2  UNL d   1       5.986  -3.283   2.125  0.00  0.00     0.041 A 
ATOM      4  C3  UNL d   1       5.974  -3.422   3.527  0.00  0.00    -0.075 A 
ATOM      5  S   UNL d   1       5.957  -2.155   4.696  0.00  0.00     0.015 SA
ATOM      6  C4  UNL d   1       5.949  -3.256   5.998  0.00  0.00     0.022 A 
ATOM      7  C5  UNL d   1       5.959  -4.562   5.569  0.00  0.00     0.026 A 
ATOM      8  C6  UNL d   1       5.974  -4.679   4.138  0.00  0.00    -0.082 A 
ATOM      9  C7  UNL d   1       5.987  -5.825   3.307  0.00  0.00     0.045 A 
ENDROOT
TORSDOF 0
ENDMDL
