MODEL 1
REMARK minimizedAffinity 7.31962633
REMARK minimizedRMSD -1
REMARK  0 active torsions:
REMARK  status: ('A' for Active; 'I' for Inactive)
ROOT
ATOM      1  C   UNL d   1       4.240  -2.344   2.615  0.00  0.00    -0.002 A 
ATOM      2  C1  UNL d   1       5.551  -2.257   3.062  0.00  0.00     0.010 A 
ATOM      3  C2  UNL d   1       6.000  -3.064   4.109  0.00  0.00     0.041 A 
ATOM      4  C3  UNL d   1       5.101  -3.971   4.704  0.00  0.00    -0.075 A 
ATOM      5  S   UNL d   1       5.428  -5.060   6.000  0.00  0.00     0.015 SA
ATOM      6  C4  UNL d   1       3.835  -5.667   5.991  0.00  0.00     0.022 A 
ATOM      7  C5  UNL d   1       3.059  -5.064   5.029  0.00  0.00     0.026 A 
ATOM      8  C6  UNL d   1       3.776  -4.077   4.271  0.00  0.00    -0.082 A 
ATOM      9  C7  UNL d   1       3.351  -3.244   3.208  0.00  0.00     0.045 A 
ENDROOT
TORSDOF 0
ENDMDL
