MODEL 1
REMARK minimizedAffinity -3.85592532
REMARK minimizedRMSD -1
REMARK  0 active torsions:
REMARK  status: ('A' for Active; 'I' for Inactive)
ROOT
ATOM      1  C   UNL d   1       5.947  -3.699   5.036  0.00  0.00    -0.002 A 
ATOM      2  C1  UNL d   1       5.952  -2.450   4.432  0.00  0.00     0.010 A 
ATOM      3  C2  UNL d   1       5.965  -2.335   3.040  0.00  0.00     0.041 A 
ATOM      4  C3  UNL d   1       5.971  -3.507   2.259  0.00  0.00    -0.075 A 
ATOM      5  S   UNL d   1       5.986  -3.609   0.538  0.00  0.00     0.015 SA
ATOM      6  C4  UNL d   1       5.984  -5.314   0.565  0.00  0.00     0.022 A 
ATOM      7  C5  UNL d   1       5.973  -5.809   1.847  0.00  0.00     0.026 A 
ATOM      8  C6  UNL d   1       5.965  -4.776   2.845  0.00  0.00    -0.082 A 
ATOM      9  C7  UNL d   1       5.952  -4.860   4.258  0.00  0.00     0.045 A 
ENDROOT
TORSDOF 0
ENDMDL
