MODEL 1
REMARK minimizedAffinity 0.563141465
REMARK minimizedRMSD -1
REMARK  0 active torsions:
REMARK  status: ('A' for Active; 'I' for Inactive)
ROOT
ATOM      1  C   UNL d   1       5.992  -3.884   5.957  0.00  0.00    -0.002 A 
ATOM      2  C1  UNL d   1       5.994  -2.503   5.815  0.00  0.00     0.010 A 
ATOM      3  C2  UNL d   1       5.997  -1.919   4.547  0.00  0.00     0.041 A 
ATOM      4  C3  UNL d   1       5.997  -2.754   3.412  0.00  0.00    -0.075 A 
ATOM      5  S   UNL d   1       6.000  -2.262   1.760  0.00  0.00     0.015 SA
ATOM      6  C4  UNL d   1       5.998  -3.873   1.203  0.00  0.00     0.022 A 
ATOM      7  C5  UNL d   1       5.996  -4.777   2.239  0.00  0.00     0.026 A 
ATOM      8  C6  UNL d   1       5.995  -4.147   3.529  0.00  0.00    -0.082 A 
ATOM      9  C7  UNL d   1       5.992  -4.709   4.829  0.00  0.00     0.045 A 
ENDROOT
TORSDOF 0
ENDMDL
