MODEL 1
REMARK minimizedAffinity 5.06625319
REMARK minimizedRMSD -1
REMARK  0 active torsions:
REMARK  status: ('A' for Active; 'I' for Inactive)
ROOT
ATOM      1  C   UNL d   1       5.033  -3.974   1.530  0.00  0.00    -0.002 A 
ATOM      2  C1  UNL d   1       5.987  -3.151   2.112  0.00  0.00     0.010 A 
ATOM      3  C2  UNL d   1       6.000  -2.944   3.492  0.00  0.00     0.041 A 
ATOM      4  C3  UNL d   1       5.029  -3.585   4.287  0.00  0.00    -0.075 A 
ATOM      5  S   UNL d   1       4.852  -3.480   5.999  0.00  0.00     0.015 SA
ATOM      6  C4  UNL d   1       3.506  -4.525   5.998  0.00  0.00     0.022 A 
ATOM      7  C5  UNL d   1       3.186  -4.954   4.732  0.00  0.00     0.026 A 
ATOM      8  C6  UNL d   1       4.059  -4.420   3.725  0.00  0.00    -0.082 A 
ATOM      9  C7  UNL d   1       4.072  -4.609   2.322  0.00  0.00     0.045 A 
ENDROOT
TORSDOF 0
ENDMDL
