MODEL 1
REMARK minimizedAffinity -3.59905028
REMARK minimizedRMSD -1
REMARK  0 active torsions:
REMARK  status: ('A' for Active; 'I' for Inactive)
ROOT
ATOM      1  C   UNL d   1       5.107  -3.000   5.976  0.00  0.00    -0.002 A 
ATOM      2  C1  UNL d   1       5.223  -4.382   5.935  0.00  0.00     0.010 A 
ATOM      3  C2  UNL d   1       5.498  -5.036   4.732  0.00  0.00     0.041 A 
ATOM      4  C3  UNL d   1       5.658  -4.270   3.561  0.00  0.00    -0.075 A 
ATOM      5  S   UNL d   1       6.000  -4.855   1.975  0.00  0.00     0.015 SA
ATOM      6  C4  UNL d   1       6.000  -3.283   1.315  0.00  0.00     0.022 A 
ATOM      7  C5  UNL d   1       5.747  -2.324   2.267  0.00  0.00     0.026 A 
ATOM      8  C6  UNL d   1       5.546  -2.877   3.577  0.00  0.00    -0.082 A 
ATOM      9  C7  UNL d   1       5.265  -2.243   4.811  0.00  0.00     0.045 A 
ENDROOT
TORSDOF 0
ENDMDL
