MODEL 1
REMARK minimizedAffinity -2.59018493
REMARK minimizedRMSD -1
REMARK  0 active torsions:
REMARK  status: ('A' for Active; 'I' for Inactive)
ROOT
ATOM      1  C   UNL d   1       5.999  -4.489   1.406  0.00  0.00    -0.002 A 
ATOM      2  C1  UNL d   1       6.000  -5.780   1.916  0.00  0.00     0.010 A 
ATOM      3  C2  UNL d   1       5.911  -6.000   3.292  0.00  0.00     0.041 A 
ATOM      4  C3  UNL d   1       5.819  -4.890   4.155  0.00  0.00    -0.075 A 
ATOM      5  S   UNL d   1       5.700  -4.918   5.875  0.00  0.00     0.015 SA
ATOM      6  C4  UNL d   1       5.645  -3.217   5.973  0.00  0.00     0.022 A 
ATOM      7  C5  UNL d   1       5.715  -2.627   4.734  0.00  0.00     0.026 A 
ATOM      8  C6  UNL d   1       5.816  -3.581   3.666  0.00  0.00    -0.082 A 
ATOM      9  C7  UNL d   1       5.908  -3.391   2.266  0.00  0.00     0.045 A 
ENDROOT
TORSDOF 0
ENDMDL
