MODEL 1
REMARK minimizedAffinity -4.623137
REMARK minimizedRMSD -1
REMARK  0 active torsions:
REMARK  status: ('A' for Active; 'I' for Inactive)
ROOT
ATOM      1  C   UNL d   1      -0.108   0.446   2.464  0.00  0.00     0.124 A 
ATOM      2  C1  UNL d   1       1.093  -0.055   1.980  0.00  0.00     0.062 A 
ATOM      3  C2  UNL d   1       1.216  -0.404   0.638  0.00  0.00     0.162 A 
ATOM      4  C3  UNL d   1       0.136  -0.252  -0.230  0.00  0.00    -0.034 A 
ATOM      5  C4  UNL d   1      -1.069   0.251   0.264  0.00  0.00     0.162 A 
ATOM      6  C5  UNL d   1      -1.187   0.598   1.606  0.00  0.00     0.062 A 
ATOM      7  F   UNL d   1      -2.348   1.082   2.071  0.00  0.00    -0.097 F 
ATOM      8  F1  UNL d   1      -2.128   0.410  -0.544  0.00  0.00    -0.096 F 
ATOM      9  I   UNL d   1       0.316  -0.772  -2.237  0.00  0.00    -0.060 I 
ATOM     10  F2  UNL d   1       2.389  -0.885   0.199  0.00  0.00    -0.096 F 
ATOM     11  F3  UNL d   1       2.137  -0.204   2.808  0.00  0.00    -0.097 F 
ATOM     12  F4  UNL d   1      -0.224   0.779   3.756  0.00  0.00    -0.092 F 
ENDROOT
TORSDOF 0
ENDMDL
