MODEL 1
REMARK minimizedAffinity -4.26703882
REMARK minimizedRMSD -1
REMARK  0 active torsions:
REMARK  status: ('A' for Active; 'I' for Inactive)
ROOT
ATOM      1  C   UNL d   1       0.225   0.163   2.086  0.00  0.00     0.124 A 
ATOM      2  C1  UNL d   1       1.415  -0.282   1.527  0.00  0.00     0.062 A 
ATOM      3  C2  UNL d   1       1.524  -0.440   0.148  0.00  0.00     0.162 A 
ATOM      4  C3  UNL d   1       0.441  -0.152  -0.681  0.00  0.00    -0.034 A 
ATOM      5  C4  UNL d   1      -0.753   0.294  -0.112  0.00  0.00     0.162 A 
ATOM      6  C5  UNL d   1      -0.857   0.451   1.267  0.00  0.00     0.062 A 
ATOM      7  F   UNL d   1      -2.008   0.881   1.805  0.00  0.00    -0.097 F 
ATOM      8  F1  UNL d   1      -1.814   0.581  -0.880  0.00  0.00    -0.096 F 
ATOM      9  I   UNL d   1       0.600  -0.388  -2.743  0.00  0.00    -0.060 I 
ATOM     10  F2  UNL d   1       2.686  -0.872  -0.365  0.00  0.00    -0.096 F 
ATOM     11  F3  UNL d   1       2.462  -0.562   2.316  0.00  0.00    -0.097 F 
ATOM     12  F4  UNL d   1       0.122   0.314   3.413  0.00  0.00    -0.092 F 
ENDROOT
TORSDOF 0
ENDMDL
