MODEL 1
REMARK minimizedAffinity 0.520480096
REMARK minimizedRMSD -1
REMARK  0 active torsions:
REMARK  status: ('A' for Active; 'I' for Inactive)
ROOT
ATOM      1  C   UNL d   1       1.146  -0.304  -3.165  0.00  0.00     0.124 A 
ATOM      2  C1  UNL d   1       0.256   0.760  -3.218  0.00  0.00     0.062 A 
ATOM      3  C2  UNL d   1      -0.633   0.981  -2.170  0.00  0.00     0.162 A 
ATOM      4  C3  UNL d   1      -0.637   0.136  -1.060  0.00  0.00    -0.034 A 
ATOM      5  C4  UNL d   1       0.261  -0.932  -1.015  0.00  0.00     0.162 A 
ATOM      6  C5  UNL d   1       1.148  -1.148  -2.064  0.00  0.00     0.062 A 
ATOM      7  F   UNL d   1       2.007  -2.177  -2.012  0.00  0.00    -0.097 F 
ATOM      8  F1  UNL d   1       0.285  -1.763   0.038  0.00  0.00    -0.096 F 
ATOM      9  I   UNL d   1      -1.965   0.463   0.509  0.00  0.00    -0.060 I 
ATOM     10  F2  UNL d   1      -1.482   2.017  -2.247  0.00  0.00    -0.096 F 
ATOM     11  F3  UNL d   1       0.251   1.577  -4.281  0.00  0.00    -0.097 F 
ATOM     12  F4  UNL d   1       2.000  -0.514  -4.175  0.00  0.00    -0.092 F 
ENDROOT
TORSDOF 0
ENDMDL
