MODEL 1
REMARK minimizedAffinity 0.9690274
REMARK minimizedRMSD -1
REMARK  0 active torsions:
REMARK  status: ('A' for Active; 'I' for Inactive)
ROOT
ATOM      1  C   UNL d   1      -0.277  -0.003   2.256  0.00  0.00     0.124 A 
ATOM      2  C1  UNL d   1      -1.306   0.350   1.393  0.00  0.00     0.062 A 
ATOM      3  C2  UNL d   1      -1.122   0.273   0.016  0.00  0.00     0.162 A 
ATOM      4  C3  UNL d   1       0.096  -0.158  -0.509  0.00  0.00    -0.034 A 
ATOM      5  C4  UNL d   1       1.127  -0.509   0.365  0.00  0.00     0.162 A 
ATOM      6  C5  UNL d   1       0.938  -0.431   1.741  0.00  0.00     0.062 A 
ATOM      7  F   UNL d   1       1.934  -0.772   2.573  0.00  0.00    -0.097 F 
ATOM      8  F1  UNL d   1       2.311  -0.928  -0.105  0.00  0.00    -0.096 F 
ATOM      9  I   UNL d   1       0.376  -0.273  -2.568  0.00  0.00    -0.060 I 
ATOM     10  F2  UNL d   1      -2.134   0.620  -0.794  0.00  0.00    -0.096 F 
ATOM     11  F3  UNL d   1      -2.481   0.765   1.888  0.00  0.00    -0.097 F 
ATOM     12  F4  UNL d   1      -0.457   0.073   3.581  0.00  0.00    -0.092 F 
ENDROOT
TORSDOF 0
ENDMDL
