MODEL 1
REMARK minimizedAffinity -0.648254871
REMARK minimizedRMSD -1
REMARK  0 active torsions:
REMARK  status: ('A' for Active; 'I' for Inactive)
ROOT
ATOM      1  C   UNL d   1      -0.643   0.210   1.866  0.00  0.00     0.124 A 
ATOM      2  C1  UNL d   1       0.502  -0.420   1.398  0.00  0.00     0.062 A 
ATOM      3  C2  UNL d   1       0.784  -0.438   0.035  0.00  0.00     0.162 A 
ATOM      4  C3  UNL d   1      -0.080   0.178  -0.870  0.00  0.00    -0.034 A 
ATOM      5  C4  UNL d   1      -1.229   0.809  -0.393  0.00  0.00     0.162 A 
ATOM      6  C5  UNL d   1      -1.507   0.824   0.970  0.00  0.00     0.062 A 
ATOM      7  F   UNL d   1      -2.614   1.434   1.420  0.00  0.00    -0.097 F 
ATOM      8  F1  UNL d   1      -2.081   1.411  -1.236  0.00  0.00    -0.096 F 
ATOM      9  I   UNL d   1       0.339   0.154  -2.909  0.00  0.00    -0.060 I 
ATOM     10  F2  UNL d   1       1.897  -1.055  -0.388  0.00  0.00    -0.096 F 
ATOM     11  F3  UNL d   1       1.338  -1.015   2.261  0.00  0.00    -0.097 F 
ATOM     12  F4  UNL d   1      -0.912   0.225   3.177  0.00  0.00    -0.092 F 
ENDROOT
TORSDOF 0
ENDMDL
