MODEL 1
REMARK minimizedAffinity -3.34606409
REMARK minimizedRMSD -1
REMARK  0 active torsions:
REMARK  status: ('A' for Active; 'I' for Inactive)
ROOT
ATOM      1  N1  IND d   1      -0.827   1.733  -1.645  0.00  0.00    -0.196 N 
ATOM      2  C2  IND d   1      -0.323   0.675  -2.348  0.00  0.00     0.054 A 
ATOM      3  C3  IND d   1       0.194  -0.247  -1.505  0.00  0.00    -0.031 A 
ATOM      4  C4  IND d   1       0.227  -0.272   1.069  0.00  0.00     0.051 A 
ATOM      5  C5  IND d   1      -0.082   0.494   2.158  0.00  0.00    -0.031 A 
ATOM      6  C6  IND d   1      -0.671   1.736   2.033  0.00  0.00     0.015 A 
ATOM      7  C7  IND d   1      -0.983   2.256   0.808  0.00  0.00    -0.016 A 
ATOM      8  C8  IND d   1      -0.663   1.484  -0.300  0.00  0.00    -0.047 A 
ATOM      9  C9  IND d   1      -0.028   0.241  -0.181  0.00  0.00    -0.096 A 
ATOM     10  HN1 IND d   1      -1.187   2.437  -1.985  0.00  0.00     0.298 HD
ENDROOT
TORSDOF 0
ENDMDL
