MODEL 1
REMARK minimizedAffinity -2.78389049
REMARK minimizedRMSD -1
REMARK  0 active torsions:
REMARK  status: ('A' for Active; 'I' for Inactive)
ROOT
ATOM      1  N1  IND d   1      -0.905  -0.693  -0.817  0.00  0.00    -0.196 N 
ATOM      2  C2  IND d   1       0.381  -0.971  -1.188  0.00  0.00     0.054 A 
ATOM      3  C3  IND d   1       1.249  -0.202  -0.493  0.00  0.00    -0.031 A 
ATOM      4  C4  IND d   1       0.785   1.507   1.375  0.00  0.00     0.051 A 
ATOM      5  C5  IND d   1      -0.237   2.130   2.036  0.00  0.00    -0.031 A 
ATOM      6  C6  IND d   1      -1.560   1.836   1.777  0.00  0.00     0.015 A 
ATOM      7  C7  IND d   1      -1.912   0.895   0.850  0.00  0.00    -0.016 A 
ATOM      8  C8  IND d   1      -0.877   0.266   0.172  0.00  0.00    -0.047 A 
ATOM      9  C9  IND d   1       0.466   0.591   0.401  0.00  0.00    -0.096 A 
ATOM     10  HN1 IND d   1      -1.612  -1.055  -1.146  0.00  0.00     0.298 HD
ENDROOT
TORSDOF 0
ENDMDL
