MODEL 1
REMARK minimizedAffinity -1.23322403
REMARK minimizedRMSD -1
REMARK  0 active torsions:
REMARK  status: ('A' for Active; 'I' for Inactive)
ROOT
ATOM      1  N1  IND d   1      -1.476   0.023  -0.917  0.00  0.00    -0.196 N 
ATOM      2  C2  IND d   1      -0.397  -0.771  -1.187  0.00  0.00     0.054 A 
ATOM      3  C3  IND d   1       0.628  -0.470  -0.358  0.00  0.00    -0.031 A 
ATOM      4  C4  IND d   1       0.720   1.220   1.581  0.00  0.00     0.051 A 
ATOM      5  C5  IND d   1      -0.010   2.203   2.189  0.00  0.00    -0.031 A 
ATOM      6  C6  IND d   1      -1.292   2.514   1.786  0.00  0.00     0.015 A 
ATOM      7  C7  IND d   1      -1.900   1.843   0.763  0.00  0.00    -0.016 A 
ATOM      8  C8  IND d   1      -1.160   0.849   0.139  0.00  0.00    -0.047 A 
ATOM      9  C9  IND d   1       0.158   0.557   0.516  0.00  0.00    -0.096 A 
ATOM     10  HN1 IND d   1      -2.227   0.009  -1.337  0.00  0.00     0.298 HD
ENDROOT
TORSDOF 0
ENDMDL
