MODEL 1
REMARK minimizedAffinity 2.72359681
REMARK minimizedRMSD -1
REMARK  0 active torsions:
REMARK  status: ('A' for Active; 'I' for Inactive)
ROOT
ATOM      1  N1  IND d   1       0.772   2.169   0.774  0.00  0.00    -0.196 N 
ATOM      2  C2  IND d   1       0.004   2.533   1.844  0.00  0.00     0.054 A 
ATOM      3  C3  IND d   1      -0.384   1.440   2.539  0.00  0.00    -0.031 A 
ATOM      4  C4  IND d   1       0.210  -1.035   2.158  0.00  0.00     0.051 A 
ATOM      5  C5  IND d   1       0.854  -1.867   1.285  0.00  0.00    -0.031 A 
ATOM      6  C6  IND d   1       1.519  -1.385   0.176  0.00  0.00     0.015 A 
ATOM      7  C7  IND d   1       1.575  -0.047  -0.097  0.00  0.00    -0.016 A 
ATOM      8  C8  IND d   1       0.916   0.799   0.784  0.00  0.00    -0.047 A 
ATOM      9  C9  IND d   1       0.204   0.313   1.888  0.00  0.00    -0.096 A 
ATOM     10  HN1 IND d   1       1.108   2.705   0.191  0.00  0.00     0.298 HD
ENDROOT
TORSDOF 0
ENDMDL
