MODEL 1
REMARK minimizedAffinity 0.996491253
REMARK minimizedRMSD -1
REMARK  0 active torsions:
REMARK  status: ('A' for Active; 'I' for Inactive)
ROOT
ATOM      1  N1  IND d   1      -1.196   1.868   1.428  0.00  0.00    -0.196 N 
ATOM      2  C2  IND d   1      -1.896   2.242   0.315  0.00  0.00     0.054 A 
ATOM      3  C3  IND d   1      -1.534   1.484  -0.744  0.00  0.00    -0.031 A 
ATOM      4  C4  IND d   1       0.112  -0.493  -0.854  0.00  0.00     0.051 A 
ATOM      5  C5  IND d   1       1.019  -1.183  -0.100  0.00  0.00    -0.031 A 
ATOM      6  C6  IND d   1       1.237  -0.886   1.230  0.00  0.00     0.015 A 
ATOM      7  C7  IND d   1       0.544   0.108   1.861  0.00  0.00    -0.016 A 
ATOM      8  C8  IND d   1      -0.373   0.815   1.096  0.00  0.00    -0.047 A 
ATOM      9  C9  IND d   1      -0.568   0.547  -0.265  0.00  0.00    -0.096 A 
ATOM     10  HN1 IND d   1      -1.260   2.230   2.206  0.00  0.00     0.298 HD
ENDROOT
TORSDOF 0
ENDMDL
