MODEL 1
REMARK minimizedAffinity 0.683270454
REMARK minimizedRMSD -1
REMARK  0 active torsions:
REMARK  status: ('A' for Active; 'I' for Inactive)
ROOT
ATOM      1  N1  IND d   1       0.400  -1.785  -2.049  0.00  0.00    -0.196 N 
ATOM      2  C2  IND d   1       0.523  -2.654  -1.002  0.00  0.00     0.054 A 
ATOM      3  C3  IND d   1       0.209  -2.038   0.160  0.00  0.00    -0.031 A 
ATOM      4  C4  IND d   1      -0.630   0.362   0.564  0.00  0.00     0.051 A 
ATOM      5  C5  IND d   1      -0.867   1.543  -0.081  0.00  0.00    -0.031 A 
ATOM      6  C6  IND d   1      -0.693   1.677  -1.443  0.00  0.00     0.015 A 
ATOM      7  C7  IND d   1      -0.285   0.627  -2.216  0.00  0.00    -0.016 A 
ATOM      8  C8  IND d   1      -0.036  -0.572  -1.563  0.00  0.00    -0.047 A 
ATOM      9  C9  IND d   1      -0.170  -0.702  -0.175  0.00  0.00    -0.096 A 
ATOM     10  HN1 IND d   1       0.566  -1.966  -2.873  0.00  0.00     0.298 HD
ENDROOT
TORSDOF 0
ENDMDL
