MODEL 1
REMARK minimizedAffinity 7.24934006
REMARK minimizedRMSD -1
REMARK  0 active torsions:
REMARK  status: ('A' for Active; 'I' for Inactive)
ROOT
ATOM      1  C   UNL d   1       2.157  -2.258   0.467  0.00  0.00    -0.002 A 
ATOM      2  C1  UNL d   1       2.735  -1.114  -0.066  0.00  0.00     0.010 A 
ATOM      3  C2  UNL d   1       2.035   0.094  -0.080  0.00  0.00     0.041 A 
ATOM      4  C3  UNL d   1       0.733   0.135   0.456  0.00  0.00    -0.075 A 
ATOM      5  S   UNL d   1      -0.312   1.503   0.547  0.00  0.00     0.015 SA
ATOM      6  C4  UNL d   1      -1.550   0.602   1.295  0.00  0.00     0.022 A 
ATOM      7  C5  UNL d   1      -1.192  -0.713   1.479  0.00  0.00     0.026 A 
ATOM      8  C6  UNL d   1       0.130  -1.004   0.999  0.00  0.00    -0.082 A 
ATOM      9  C7  UNL d   1       0.865  -2.214   0.998  0.00  0.00     0.045 A 
ENDROOT
TORSDOF 0
ENDMDL
