MODEL 1
REMARK minimizedAffinity 3.80603075
REMARK minimizedRMSD -1
REMARK  0 active torsions:
REMARK  status: ('A' for Active; 'I' for Inactive)
ROOT
ATOM      1  C   UNL d   1       3.238  -1.623  -0.747  0.00  0.00    -0.002 A 
ATOM      2  C1  UNL d   1       2.593  -1.615   0.482  0.00  0.00     0.010 A 
ATOM      3  C2  UNL d   1       1.897  -0.483   0.911  0.00  0.00     0.041 A 
ATOM      4  C3  UNL d   1       1.858   0.651   0.075  0.00  0.00    -0.075 A 
ATOM      5  S   UNL d   1       1.066   2.149   0.392  0.00  0.00     0.015 SA
ATOM      6  C4  UNL d   1       1.564   2.813  -1.097  0.00  0.00     0.022 A 
ATOM      7  C5  UNL d   1       2.317   1.927  -1.830  0.00  0.00     0.026 A 
ATOM      8  C6  UNL d   1       2.498   0.666  -1.167  0.00  0.00    -0.082 A 
ATOM      9  C7  UNL d   1       3.196  -0.497  -1.574  0.00  0.00     0.045 A 
ENDROOT
TORSDOF 0
ENDMDL
