MODEL 1
REMARK minimizedAffinity 10.0909672
REMARK minimizedRMSD -1
REMARK  0 active torsions:
REMARK  status: ('A' for Active; 'I' for Inactive)
ROOT
ATOM      1  C   UNL d   1      -2.913  -3.652   0.410  0.00  0.00    -0.002 A 
ATOM      2  C1  UNL d   1      -2.682  -3.266   1.723  0.00  0.00     0.010 A 
ATOM      3  C2  UNL d   1      -2.803  -1.927   2.100  0.00  0.00     0.041 A 
ATOM      4  C3  UNL d   1      -3.165  -0.974   1.127  0.00  0.00    -0.075 A 
ATOM      5  S   UNL d   1      -3.374   0.721   1.360  0.00  0.00     0.015 SA
ATOM      6  C4  UNL d   1      -3.775   0.972  -0.277  0.00  0.00     0.022 A 
ATOM      7  C5  UNL d   1      -3.755  -0.198  -0.998  0.00  0.00     0.026 A 
ATOM      8  C6  UNL d   1      -3.404  -1.339  -0.200  0.00  0.00    -0.082 A 
ATOM      9  C7  UNL d   1      -3.273  -2.705  -0.552  0.00  0.00     0.045 A 
ENDROOT
TORSDOF 0
ENDMDL
