MODEL 1
REMARK minimizedAffinity 8.36662674
REMARK minimizedRMSD -1
REMARK  0 active torsions:
REMARK  status: ('A' for Active; 'I' for Inactive)
ROOT
ATOM      1  C   UNL d   1      -2.797   3.117  -4.346  0.00  0.00    -0.002 A 
ATOM      2  C1  UNL d   1      -1.543   3.030  -3.758  0.00  0.00     0.010 A 
ATOM      3  C2  UNL d   1      -1.371   2.349  -2.551  0.00  0.00     0.041 A 
ATOM      4  C3  UNL d   1      -2.490   1.751  -1.940  0.00  0.00    -0.075 A 
ATOM      5  S   UNL d   1      -2.517   0.865  -0.461  0.00  0.00     0.015 SA
ATOM      6  C4  UNL d   1      -4.194   0.581  -0.575  0.00  0.00     0.022 A 
ATOM      7  C5  UNL d   1      -4.736   1.141  -1.708  0.00  0.00     0.026 A 
ATOM      8  C6  UNL d   1      -3.762   1.824  -2.513  0.00  0.00    -0.082 A 
ATOM      9  C7  UNL d   1      -3.905   2.521  -3.737  0.00  0.00     0.045 A 
ENDROOT
TORSDOF 0
ENDMDL
