MODEL 1
REMARK minimizedAffinity 14.1181431
REMARK minimizedRMSD -1
REMARK  0 active torsions:
REMARK  status: ('A' for Active; 'I' for Inactive)
ROOT
ATOM      1  C   UNL d   1       3.840   1.294  -0.768  0.00  0.00    -0.002 A 
ATOM      2  C1  UNL d   1       3.697   0.008  -1.270  0.00  0.00     0.010 A 
ATOM      3  C2  UNL d   1       2.560  -0.748  -0.975  0.00  0.00     0.041 A 
ATOM      4  C3  UNL d   1       1.559  -0.183  -0.161  0.00  0.00    -0.075 A 
ATOM      5  S   UNL d   1       0.081  -0.921   0.332  0.00  0.00     0.015 SA
ATOM      6  C4  UNL d   1      -0.396   0.454   1.220  0.00  0.00     0.022 A 
ATOM      7  C5  UNL d   1       0.538   1.461   1.153  0.00  0.00     0.026 A 
ATOM      8  C6  UNL d   1       1.680   1.111   0.356  0.00  0.00    -0.082 A 
ATOM      9  C7  UNL d   1       2.844   1.851   0.039  0.00  0.00     0.045 A 
ENDROOT
TORSDOF 0
ENDMDL
