MODEL 1
REMARK minimizedAffinity -2.52034545
REMARK minimizedRMSD -1
REMARK  0 active torsions:
REMARK  status: ('A' for Active; 'I' for Inactive)
ROOT
ATOM      1  C   UNL d   1       1.933  -1.693   1.875  0.00  0.00    -0.002 A 
ATOM      2  C1  UNL d   1       0.637  -2.022   1.506  0.00  0.00     0.010 A 
ATOM      3  C2  UNL d   1      -0.057  -3.033   2.174  0.00  0.00     0.041 A 
ATOM      4  C3  UNL d   1       0.580  -3.713   3.231  0.00  0.00    -0.075 A 
ATOM      5  S   UNL d   1      -0.075  -4.985   4.192  0.00  0.00     0.015 SA
ATOM      6  C4  UNL d   1       1.351  -5.121   5.116  0.00  0.00     0.022 A 
ATOM      7  C5  UNL d   1       2.313  -4.226   4.714  0.00  0.00     0.026 A 
ATOM      8  C6  UNL d   1       1.885  -3.399   3.621  0.00  0.00    -0.082 A 
ATOM      9  C7  UNL d   1       2.562  -2.369   2.924  0.00  0.00     0.045 A 
ENDROOT
TORSDOF 0
ENDMDL
