MODEL 1
REMARK minimizedAffinity 1.87226284
REMARK minimizedRMSD -1
REMARK  0 active torsions:
REMARK  status: ('A' for Active; 'I' for Inactive)
ROOT
ATOM      1  C   UNL d   1      -3.503  -4.877   1.971  0.00  0.00    -0.002 A 
ATOM      2  C1  UNL d   1      -4.834  -5.190   2.207  0.00  0.00     0.010 A 
ATOM      3  C2  UNL d   1      -5.677  -5.548   1.153  0.00  0.00     0.041 A 
ATOM      4  C3  UNL d   1      -5.154  -5.588  -0.154  0.00  0.00    -0.075 A 
ATOM      5  S   UNL d   1      -5.999  -6.000  -1.599  0.00  0.00     0.015 SA
ATOM      6  C4  UNL d   1      -4.613  -5.771  -2.564  0.00  0.00     0.022 A 
ATOM      7  C5  UNL d   1      -3.523  -5.389  -1.818  0.00  0.00     0.026 A 
ATOM      8  C6  UNL d   1      -3.817  -5.278  -0.417  0.00  0.00    -0.082 A 
ATOM      9  C7  UNL d   1      -2.988  -4.918   0.673  0.00  0.00     0.045 A 
ENDROOT
TORSDOF 0
ENDMDL
