MODEL 1
REMARK minimizedAffinity 3.93105984
REMARK minimizedRMSD -1
REMARK  0 active torsions:
REMARK  status: ('A' for Active; 'I' for Inactive)
ROOT
ATOM      1  C   UNL d   1      -2.292  -4.125   1.083  0.00  0.00    -0.002 A 
ATOM      2  C1  UNL d   1      -3.306  -4.508   1.950  0.00  0.00     0.010 A 
ATOM      3  C2  UNL d   1      -4.474  -5.095   1.462  0.00  0.00     0.041 A 
ATOM      4  C3  UNL d   1      -4.607  -5.296   0.073  0.00  0.00    -0.075 A 
ATOM      5  S   UNL d   1      -5.949  -5.998  -0.751  0.00  0.00     0.015 SA
ATOM      6  C4  UNL d   1      -5.207  -5.808  -2.274  0.00  0.00     0.022 A 
ATOM      7  C5  UNL d   1      -3.966  -5.224  -2.174  0.00  0.00     0.026 A 
ATOM      8  C6  UNL d   1      -3.600  -4.920  -0.820  0.00  0.00    -0.082 A 
ATOM      9  C7  UNL d   1      -2.428  -4.326  -0.293  0.00  0.00     0.045 A 
ENDROOT
TORSDOF 0
ENDMDL
