MODEL 1
REMARK minimizedAffinity 12.0928755
REMARK minimizedRMSD -1
REMARK  0 active torsions:
REMARK  status: ('A' for Active; 'I' for Inactive)
ROOT
ATOM      1  C   UNL d   1       5.047   2.207  -0.104  0.00  0.00    -0.002 A 
ATOM      2  C1  UNL d   1       5.289   0.999   0.534  0.00  0.00     0.010 A 
ATOM      3  C2  UNL d   1       4.254   0.083   0.738  0.00  0.00     0.041 A 
ATOM      4  C3  UNL d   1       2.960   0.405   0.283  0.00  0.00    -0.075 A 
ATOM      5  S   UNL d   1       1.540  -0.562   0.421  0.00  0.00     0.015 SA
ATOM      6  C4  UNL d   1       0.578   0.606  -0.364  0.00  0.00     0.022 A 
ATOM      7  C5  UNL d   1       1.307   1.713  -0.729  0.00  0.00     0.026 A 
ATOM      8  C6  UNL d   1       2.692   1.615  -0.362  0.00  0.00    -0.082 A 
ATOM      9  C7  UNL d   1       3.762   2.523  -0.553  0.00  0.00     0.045 A 
ENDROOT
TORSDOF 0
ENDMDL
