MODEL 1
REMARK minimizedAffinity 10.9411707
REMARK minimizedRMSD -1
REMARK  0 active torsions:
REMARK  status: ('A' for Active; 'I' for Inactive)
ROOT
ATOM      1  C   UNL d   1      -1.077  -2.898   0.457  0.00  0.00    -0.002 A 
ATOM      2  C1  UNL d   1       0.017  -3.503  -0.146  0.00  0.00     0.010 A 
ATOM      3  C2  UNL d   1       1.038  -2.730  -0.702  0.00  0.00     0.041 A 
ATOM      4  C3  UNL d   1       0.941  -1.326  -0.641  0.00  0.00    -0.075 A 
ATOM      5  S   UNL d   1       2.072  -0.178  -1.255  0.00  0.00     0.015 SA
ATOM      6  C4  UNL d   1       1.130   1.142  -0.731  0.00  0.00     0.022 A 
ATOM      7  C5  UNL d   1      -0.023   0.735  -0.101  0.00  0.00     0.026 A 
ATOM      8  C6  UNL d   1      -0.150  -0.694  -0.039  0.00  0.00    -0.082 A 
ATOM      9  C7  UNL d   1      -1.169  -1.505   0.516  0.00  0.00     0.045 A 
ENDROOT
TORSDOF 0
ENDMDL
