MODEL 1
REMARK minimizedAffinity -0.881520033
REMARK minimizedRMSD -1
REMARK  0 active torsions:
REMARK  status: ('A' for Active; 'I' for Inactive)
ROOT
ATOM      1  C   UNL d   1      -1.602  -5.968  -5.732  0.00  0.00    -0.002 A 
ATOM      2  C1  UNL d   1      -2.061  -5.994  -4.423  0.00  0.00     0.010 A 
ATOM      3  C2  UNL d   1      -1.161  -6.000  -3.355  0.00  0.00     0.041 A 
ATOM      4  C3  UNL d   1       0.221  -5.977  -3.629  0.00  0.00    -0.075 A 
ATOM      5  S   UNL d   1       1.508  -5.977  -2.482  0.00  0.00     0.015 SA
ATOM      6  C4  UNL d   1       2.697  -5.942  -3.703  0.00  0.00     0.022 A 
ATOM      7  C5  UNL d   1       2.143  -5.930  -4.961  0.00  0.00     0.026 A 
ATOM      8  C6  UNL d   1       0.707  -5.949  -4.939  0.00  0.00    -0.082 A 
ATOM      9  C7  UNL d   1      -0.231  -5.945  -6.000  0.00  0.00     0.045 A 
ENDROOT
TORSDOF 0
ENDMDL
