MODEL 1
REMARK minimizedAffinity 6.4222827
REMARK minimizedRMSD -1
REMARK  0 active torsions:
REMARK  status: ('A' for Active; 'I' for Inactive)
ROOT
ATOM      1  C   UNL d   1      -2.071  -0.213   1.345  0.00  0.00    -0.002 A 
ATOM      2  C1  UNL d   1      -2.300  -1.193   0.389  0.00  0.00     0.010 A 
ATOM      3  C2  UNL d   1      -2.344  -0.865  -0.967  0.00  0.00     0.041 A 
ATOM      4  C3  UNL d   1      -2.149   0.476  -1.351  0.00  0.00    -0.075 A 
ATOM      5  S   UNL d   1      -2.159   1.111  -2.954  0.00  0.00     0.015 SA
ATOM      6  C4  UNL d   1      -1.858   2.697  -2.408  0.00  0.00     0.022 A 
ATOM      7  C5  UNL d   1      -1.750   2.759  -1.039  0.00  0.00     0.026 A 
ATOM      8  C6  UNL d   1      -1.916   1.480  -0.407  0.00  0.00    -0.082 A 
ATOM      9  C7  UNL d   1      -1.878   1.116   0.960  0.00  0.00     0.045 A 
ENDROOT
TORSDOF 0
ENDMDL
