MODEL 1
REMARK minimizedAffinity 10.4989109
REMARK minimizedRMSD -1
REMARK  0 active torsions:
REMARK  status: ('A' for Active; 'I' for Inactive)
ROOT
ATOM      1  C   UNL d   1       2.610   0.142   2.215  0.00  0.00     0.023 A 
ATOM      2  C1  UNL d   1       1.757   0.847   3.064  0.00  0.00     0.003 A 
ATOM      3  C2  UNL d   1       0.379   0.837   2.837  0.00  0.00     0.048 A 
ATOM      4  C3  UNL d   1      -0.139   0.119   1.760  0.00  0.00     0.023 A 
ATOM      5  C4  UNL d   1       0.710  -0.589   0.908  0.00  0.00     0.048 A 
ATOM      6  C5  UNL d   1       2.087  -0.575   1.138  0.00  0.00     0.003 A 
ATOM      7  I   UNL d   1      -2.190   0.102   1.420  0.00  0.00    -0.146 I 
ENDROOT
TORSDOF 0
ENDMDL
