MODEL 1
REMARK minimizedAffinity 1.51656437
REMARK minimizedRMSD -1
REMARK  0 active torsions:
REMARK  status: ('A' for Active; 'I' for Inactive)
ROOT
ATOM      1  C   UNL d   1       1.964   0.249  -0.961  0.00  0.00     0.023 A 
ATOM      2  C1  UNL d   1       1.287   0.320   0.257  0.00  0.00     0.003 A 
ATOM      3  C2  UNL d   1       0.948   1.562   0.798  0.00  0.00     0.048 A 
ATOM      4  C3  UNL d   1       1.287   2.729   0.115  0.00  0.00     0.023 A 
ATOM      5  C4  UNL d   1       1.963   2.664  -1.105  0.00  0.00     0.048 A 
ATOM      6  C5  UNL d   1       2.301   1.420  -1.641  0.00  0.00     0.003 A 
ATOM      7  I   UNL d   1       0.783   4.579   0.918  0.00  0.00    -0.146 I 
ENDROOT
TORSDOF 0
ENDMDL
