MODEL 1
REMARK minimizedAffinity 12.7901268
REMARK minimizedRMSD -1
REMARK  0 active torsions:
REMARK  status: ('A' for Active; 'I' for Inactive)
ROOT
ATOM      1  C   UNL d   1       0.347   0.740   1.782  0.00  0.00     0.023 A 
ATOM      2  C1  UNL d   1       0.655  -0.556   1.370  0.00  0.00     0.003 A 
ATOM      3  C2  UNL d   1       0.929  -1.545   2.317  0.00  0.00     0.048 A 
ATOM      4  C3  UNL d   1       0.892  -1.231   3.675  0.00  0.00     0.023 A 
ATOM      5  C4  UNL d   1       0.584   0.065   4.092  0.00  0.00     0.048 A 
ATOM      6  C5  UNL d   1       0.312   1.050   3.142  0.00  0.00     0.003 A 
ATOM      7  I   UNL d   1       1.299  -2.701   5.086  0.00  0.00    -0.146 I 
ENDROOT
TORSDOF 0
ENDMDL
