MODEL 1
REMARK minimizedAffinity 5.51456165
REMARK minimizedRMSD -1
REMARK  0 active torsions:
REMARK  status: ('A' for Active; 'I' for Inactive)
ROOT
ATOM      1  C   UNL d   1      -0.785   1.688   3.600  0.00  0.00     0.023 A 
ATOM      2  C1  UNL d   1       0.526   2.156   3.511  0.00  0.00     0.003 A 
ATOM      3  C2  UNL d   1       1.440   1.520   2.668  0.00  0.00     0.048 A 
ATOM      4  C3  UNL d   1       1.036   0.417   1.917  0.00  0.00     0.023 A 
ATOM      5  C4  UNL d   1      -0.275  -0.054   2.002  0.00  0.00     0.048 A 
ATOM      6  C5  UNL d   1      -1.185   0.585   2.846  0.00  0.00     0.003 A 
ATOM      7  I   UNL d   1       2.394  -0.531   0.662  0.00  0.00    -0.146 I 
ENDROOT
TORSDOF 0
ENDMDL
