MODEL 1
REMARK minimizedAffinity 9.08104801
REMARK minimizedRMSD -1
REMARK  0 active torsions:
REMARK  status: ('A' for Active; 'I' for Inactive)
ROOT
ATOM      1  C   UNL d   1       3.304  -0.472   0.843  0.00  0.00     0.023 A 
ATOM      2  C1  UNL d   1       3.134  -0.432   2.227  0.00  0.00     0.003 A 
ATOM      3  C2  UNL d   1       1.896  -0.083   2.771  0.00  0.00     0.048 A 
ATOM      4  C3  UNL d   1       0.832   0.225   1.924  0.00  0.00     0.023 A 
ATOM      5  C4  UNL d   1       0.996   0.186   0.539  0.00  0.00     0.048 A 
ATOM      6  C5  UNL d   1       2.236  -0.164  -0.000  0.00  0.00     0.003 A 
ATOM      7  I   UNL d   1      -1.012   0.746   2.731  0.00  0.00    -0.146 I 
ENDROOT
TORSDOF 0
ENDMDL
