MODEL 1
REMARK minimizedAffinity 13.288414
REMARK minimizedRMSD -1
REMARK  0 active torsions:
REMARK  status: ('A' for Active; 'I' for Inactive)
ROOT
ATOM      1  C   UNL d   1      -0.530  -5.833  -5.267  0.00  0.00     0.023 A 
ATOM      2  C1  UNL d   1       0.269  -5.968  -4.131  0.00  0.00     0.003 A 
ATOM      3  C2  UNL d   1      -0.104  -5.347  -2.937  0.00  0.00     0.048 A 
ATOM      4  C3  UNL d   1      -1.276  -4.595  -2.885  0.00  0.00     0.023 A 
ATOM      5  C4  UNL d   1      -2.079  -4.458  -4.018  0.00  0.00     0.048 A 
ATOM      6  C5  UNL d   1      -1.702  -5.079  -5.211  0.00  0.00     0.003 A 
ATOM      7  I   UNL d   1      -1.833  -3.670  -1.108  0.00  0.00    -0.146 I 
ENDROOT
TORSDOF 0
ENDMDL
