MODEL 1
REMARK minimizedAffinity 13.0991621
REMARK minimizedRMSD -1
REMARK  0 active torsions:
REMARK  status: ('A' for Active; 'I' for Inactive)
ROOT
ATOM      1  C   UNL d   1       5.996   3.398   4.407  0.00  0.00     0.023 A 
ATOM      2  C1  UNL d   1       5.641   2.655   5.532  0.00  0.00     0.003 A 
ATOM      3  C2  UNL d   1       4.322   2.667   5.990  0.00  0.00     0.048 A 
ATOM      4  C3  UNL d   1       3.363   3.423   5.317  0.00  0.00     0.023 A 
ATOM      5  C4  UNL d   1       3.714   4.168   4.190  0.00  0.00     0.048 A 
ATOM      6  C5  UNL d   1       5.034   4.154   3.736  0.00  0.00     0.003 A 
ATOM      7  I   UNL d   1       1.399   3.442   5.997  0.00  0.00    -0.146 I 
ENDROOT
TORSDOF 0
ENDMDL
