MODEL 1
REMARK minimizedAffinity -0.0699067935
REMARK minimizedRMSD -1
REMARK  0 active torsions:
REMARK  status: ('A' for Active; 'I' for Inactive)
ROOT
ATOM      1  N1  IND d   1      -1.425   0.344   0.380  0.00  0.00    -0.196 N 
ATOM      2  C2  IND d   1      -1.413   1.374  -0.518  0.00  0.00     0.054 A 
ATOM      3  C3  IND d   1      -0.177   1.526  -1.044  0.00  0.00    -0.031 A 
ATOM      4  C4  IND d   1       1.951   0.131  -0.649  0.00  0.00     0.051 A 
ATOM      5  C5  IND d   1       2.442  -0.891   0.113  0.00  0.00    -0.031 A 
ATOM      6  C6  IND d   1       1.653  -1.570   1.020  0.00  0.00     0.015 A 
ATOM      7  C7  IND d   1       0.334  -1.257   1.190  0.00  0.00    -0.016 A 
ATOM      8  C8  IND d   1      -0.166  -0.214   0.423  0.00  0.00    -0.047 A 
ATOM      9  C9  IND d   1       0.640   0.506  -0.467  0.00  0.00    -0.096 A 
ATOM     10  HN1 IND d   1      -2.104   0.089   0.841  0.00  0.00     0.298 HD
ENDROOT
TORSDOF 0
ENDMDL
