MODEL 1
REMARK minimizedAffinity 0.301744103
REMARK minimizedRMSD -1
REMARK  0 active torsions:
REMARK  status: ('A' for Active; 'I' for Inactive)
ROOT
ATOM      1  N1  IND d   1      -0.864  -0.236  -0.406  0.00  0.00    -0.196 N 
ATOM      2  C2  IND d   1       0.183   0.350   0.248  0.00  0.00     0.054 A 
ATOM      3  C3  IND d   1       0.430   1.577  -0.263  0.00  0.00    -0.031 A 
ATOM      4  C4  IND d   1      -0.825   2.864  -2.105  0.00  0.00     0.051 A 
ATOM      5  C5  IND d   1      -1.828   2.726  -3.023  0.00  0.00    -0.031 A 
ATOM      6  C6  IND d   1      -2.578   1.572  -3.116  0.00  0.00     0.015 A 
ATOM      7  C7  IND d   1      -2.359   0.512  -2.283  0.00  0.00    -0.016 A 
ATOM      8  C8  IND d   1      -1.337   0.645  -1.354  0.00  0.00    -0.047 A 
ATOM      9  C9  IND d   1      -0.544   1.798  -1.283  0.00  0.00    -0.096 A 
ATOM     10  HN1 IND d   1      -1.176  -1.022  -0.252  0.00  0.00     0.298 HD
ENDROOT
TORSDOF 0
ENDMDL
