MODEL 1
REMARK minimizedAffinity -1.30161822
REMARK minimizedRMSD -1
REMARK  0 active torsions:
REMARK  status: ('A' for Active; 'I' for Inactive)
ROOT
ATOM      1  N1  IND d   1      -0.968  -0.290  -0.631  0.00  0.00    -0.196 N 
ATOM      2  C2  IND d   1      -0.091   0.286   0.245  0.00  0.00     0.054 A 
ATOM      3  C3  IND d   1      -0.020   1.619   0.032  0.00  0.00    -0.031 A 
ATOM      4  C4  IND d   1      -1.331   3.081  -1.634  0.00  0.00     0.051 A 
ATOM      5  C5  IND d   1      -2.220   3.002  -2.668  0.00  0.00    -0.031 A 
ATOM      6  C6  IND d   1      -2.750   1.797  -3.084  0.00  0.00     0.015 A 
ATOM      7  C7  IND d   1      -2.418   0.623  -2.469  0.00  0.00    -0.016 A 
ATOM      8  C8  IND d   1      -1.510   0.699  -1.423  0.00  0.00    -0.047 A 
ATOM      9  C9  IND d   1      -0.936   1.913  -1.025  0.00  0.00    -0.096 A 
ATOM     10  HN1 IND d   1      -1.150  -1.129  -0.680  0.00  0.00     0.298 HD
ENDROOT
TORSDOF 0
ENDMDL
