MODEL 1
REMARK minimizedAffinity -3.97286034
REMARK minimizedRMSD -1
REMARK  0 active torsions:
REMARK  status: ('A' for Active; 'I' for Inactive)
ROOT
ATOM      1  N1  IND d   1      -1.526   0.463  -2.974  0.00  0.00    -0.196 N 
ATOM      2  C2  IND d   1      -2.273   1.595  -2.805  0.00  0.00     0.054 A 
ATOM      3  C3  IND d   1      -1.939   2.210  -1.648  0.00  0.00    -0.031 A 
ATOM      4  C4  IND d   1      -0.127   1.587   0.071  0.00  0.00     0.051 A 
ATOM      5  C5  IND d   1       0.788   0.617   0.368  0.00  0.00    -0.031 A 
ATOM      6  C6  IND d   1       0.984  -0.476  -0.451  0.00  0.00     0.015 A 
ATOM      7  C7  IND d   1       0.277  -0.633  -1.610  0.00  0.00    -0.016 A 
ATOM      8  C8  IND d   1      -0.657   0.347  -1.911  0.00  0.00    -0.047 A 
ATOM      9  C9  IND d   1      -0.891   1.436  -1.062  0.00  0.00    -0.096 A 
ATOM     10  HN1 IND d   1      -1.589  -0.085  -3.634  0.00  0.00     0.298 HD
ENDROOT
TORSDOF 0
ENDMDL
