MODEL 1
REMARK minimizedAffinity -3.51523232
REMARK minimizedRMSD -1
REMARK  0 active torsions:
REMARK  status: ('A' for Active; 'I' for Inactive)
ROOT
ATOM      1  N1  IND d   1       0.004  -0.570  -0.608  0.00  0.00    -0.196 N 
ATOM      2  C2  IND d   1       0.674   0.165   0.330  0.00  0.00     0.054 A 
ATOM      3  C3  IND d   1       0.372   1.476   0.204  0.00  0.00    -0.031 A 
ATOM      4  C4  IND d   1      -1.274   2.628  -1.406  0.00  0.00     0.051 A 
ATOM      5  C5  IND d   1      -2.093   2.377  -2.471  0.00  0.00    -0.031 A 
ATOM      6  C6  IND d   1      -2.260   1.104  -2.978  0.00  0.00     0.015 A 
ATOM      7  C7  IND d   1      -1.620   0.029  -2.429  0.00  0.00    -0.016 A 
ATOM      8  C8  IND d   1      -0.783   0.281  -1.352  0.00  0.00    -0.047 A 
ATOM      9  C9  IND d   1      -0.576   1.577  -0.860  0.00  0.00    -0.096 A 
ATOM     10  HN1 IND d   1       0.064  -1.421  -0.716  0.00  0.00     0.298 HD
ENDROOT
TORSDOF 0
ENDMDL
