MODEL 1
REMARK minimizedAffinity 4.82484341
REMARK minimizedRMSD -1
REMARK  0 active torsions:
REMARK  status: ('A' for Active; 'I' for Inactive)
ROOT
ATOM      1  N1  IND d   1      -1.076   0.111  -0.075  0.00  0.00    -0.196 N 
ATOM      2  C2  IND d   1       0.179   0.441   0.357  0.00  0.00     0.054 A 
ATOM      3  C3  IND d   1       0.751   1.323  -0.493  0.00  0.00    -0.031 A 
ATOM      4  C4  IND d   1      -0.226   2.436  -2.599  0.00  0.00     0.051 A 
ATOM      5  C5  IND d   1      -1.324   2.423  -3.413  0.00  0.00    -0.031 A 
ATOM      6  C6  IND d   1      -2.418   1.625  -3.149  0.00  0.00     0.015 A 
ATOM      7  C7  IND d   1      -2.460   0.814  -2.050  0.00  0.00    -0.016 A 
ATOM      8  C8  IND d   1      -1.345   0.820  -1.225  0.00  0.00    -0.047 A 
ATOM      9  C9  IND d   1      -0.214   1.596  -1.511  0.00  0.00    -0.096 A 
ATOM     10  HN1 IND d   1      -1.607  -0.446   0.308  0.00  0.00     0.298 HD
ENDROOT
TORSDOF 0
ENDMDL
