MODEL 1
REMARK minimizedAffinity -3.82027984
REMARK minimizedRMSD -1
REMARK  0 active torsions:
REMARK  status: ('A' for Active; 'I' for Inactive)
ROOT
ATOM      1  N1  IND d   1      -1.014  -0.995   2.299  0.00  0.00    -0.196 N 
ATOM      2  C2  IND d   1      -0.390  -1.812   3.200  0.00  0.00     0.054 A 
ATOM      3  C3  IND d   1       0.830  -2.171   2.744  0.00  0.00    -0.031 A 
ATOM      4  C4  IND d   1       2.048  -1.454   0.591  0.00  0.00     0.051 A 
ATOM      5  C5  IND d   1       1.867  -0.746  -0.564  0.00  0.00    -0.031 A 
ATOM      6  C6  IND d   1       0.694  -0.069  -0.828  0.00  0.00     0.015 A 
ATOM      7  C7  IND d   1      -0.343  -0.065   0.063  0.00  0.00    -0.016 A 
ATOM      8  C8  IND d   1      -0.165  -0.789   1.233  0.00  0.00    -0.047 A 
ATOM      9  C9  IND d   1       1.007  -1.513   1.488  0.00  0.00    -0.096 A 
ATOM     10  HN1 IND d   1      -1.804  -0.665   2.383  0.00  0.00     0.298 HD
ENDROOT
TORSDOF 0
ENDMDL
