MODEL 1
REMARK minimizedAffinity -2.85283518
REMARK minimizedRMSD -1
REMARK  0 active torsions:
REMARK  status: ('A' for Active; 'I' for Inactive)
ROOT
ATOM      1  N1  IND d   1      -0.487  -0.594  -0.479  0.00  0.00    -0.196 N 
ATOM      2  C2  IND d   1       0.673  -0.119   0.065  0.00  0.00     0.054 A 
ATOM      3  C3  IND d   1       0.866   1.171  -0.291  0.00  0.00    -0.031 A 
ATOM      4  C4  IND d   1      -0.646   2.729  -1.675  0.00  0.00     0.051 A 
ATOM      5  C5  IND d   1      -1.794   2.736  -2.416  0.00  0.00    -0.031 A 
ATOM      6  C6  IND d   1      -2.583   1.612  -2.549  0.00  0.00     0.015 A 
ATOM      7  C7  IND d   1      -2.257   0.436  -1.935  0.00  0.00    -0.016 A 
ATOM      8  C8  IND d   1      -1.088   0.423  -1.187  0.00  0.00    -0.047 A 
ATOM      9  C9  IND d   1      -0.261   1.549  -1.083  0.00  0.00    -0.096 A 
ATOM     10  HN1 IND d   1      -0.791  -1.394  -0.392  0.00  0.00     0.298 HD
ENDROOT
TORSDOF 0
ENDMDL
