MODEL 1
REMARK minimizedAffinity -3.54932451
REMARK minimizedRMSD -1
REMARK  0 active torsions:
REMARK  status: ('A' for Active; 'I' for Inactive)
ROOT
ATOM      1  N1  IND d   1      -0.716  -0.594   2.741  0.00  0.00    -0.196 N 
ATOM      2  C2  IND d   1      -0.127  -1.571   3.494  0.00  0.00     0.054 A 
ATOM      3  C3  IND d   1       0.989  -2.028   2.882  0.00  0.00    -0.031 A 
ATOM      4  C4  IND d   1       2.090  -1.243   0.691  0.00  0.00     0.051 A 
ATOM      5  C5  IND d   1       1.900  -0.401  -0.368  0.00  0.00    -0.031 A 
ATOM      6  C6  IND d   1       0.808   0.439  -0.446  0.00  0.00     0.015 A 
ATOM      7  C7  IND d   1      -0.133   0.476   0.544  0.00  0.00    -0.016 A 
ATOM      8  C8  IND d   1       0.052  -0.383   1.617  0.00  0.00    -0.047 A 
ATOM      9  C9  IND d   1       1.136  -1.268   1.681  0.00  0.00    -0.096 A 
ATOM     10  HN1 IND d   1      -1.444  -0.180   2.937  0.00  0.00     0.298 HD
ENDROOT
TORSDOF 0
ENDMDL
