MODEL 1
REMARK minimizedAffinity -2.41201448
REMARK minimizedRMSD -1
REMARK  0 active torsions:
REMARK  status: ('A' for Active; 'I' for Inactive)
ROOT
ATOM      1  N1  IND d   1      -0.919   0.608   0.386  0.00  0.00    -0.196 N 
ATOM      2  C2  IND d   1       0.009   0.920  -0.569  0.00  0.00     0.054 A 
ATOM      3  C3  IND d   1       1.148   0.222  -0.364  0.00  0.00    -0.031 A 
ATOM      4  C4  IND d   1       1.674  -1.563   1.415  0.00  0.00     0.051 A 
ATOM      5  C5  IND d   1       1.153  -2.162   2.528  0.00  0.00    -0.031 A 
ATOM      6  C6  IND d   1      -0.112  -1.863   2.991  0.00  0.00     0.015 A 
ATOM      7  C7  IND d   1      -0.911  -0.960   2.349  0.00  0.00    -0.016 A 
ATOM      8  C8  IND d   1      -0.382  -0.345   1.223  0.00  0.00    -0.047 A 
ATOM      9  C9  IND d   1       0.917  -0.612   0.773  0.00  0.00    -0.096 A 
ATOM     10  HN1 IND d   1      -1.705   0.949   0.451  0.00  0.00     0.298 HD
ENDROOT
TORSDOF 0
ENDMDL
