MODEL 1
REMARK minimizedAffinity -1.45212865
REMARK minimizedRMSD -1
REMARK  0 active torsions:
REMARK  status: ('A' for Active; 'I' for Inactive)
ROOT
ATOM      1  N1  IND d   1      -1.204  -0.857   2.319  0.00  0.00    -0.196 N 
ATOM      2  C2  IND d   1      -2.026   0.145   1.884  0.00  0.00     0.054 A 
ATOM      3  C3  IND d   1      -1.467   0.790   0.836  0.00  0.00    -0.031 A 
ATOM      4  C4  IND d   1       0.741   0.302  -0.396  0.00  0.00     0.051 A 
ATOM      5  C5  IND d   1       1.852  -0.492  -0.342  0.00  0.00    -0.031 A 
ATOM      6  C6  IND d   1       2.003  -1.470   0.620  0.00  0.00     0.015 A 
ATOM      7  C7  IND d   1       1.039  -1.699   1.561  0.00  0.00    -0.016 A 
ATOM      8  C8  IND d   1      -0.088  -0.890   1.513  0.00  0.00    -0.047 A 
ATOM      9  C9  IND d   1      -0.227   0.133   0.566  0.00  0.00    -0.096 A 
ATOM     10  HN1 IND d   1      -1.359  -1.379   2.985  0.00  0.00     0.298 HD
ENDROOT
TORSDOF 0
ENDMDL
