MODEL 1
REMARK minimizedAffinity -0.989088953
REMARK minimizedRMSD -1
REMARK  0 active torsions:
REMARK  status: ('A' for Active; 'I' for Inactive)
ROOT
ATOM      1  N1  IND d   1       0.018  -5.631  -2.570  0.00  0.00    -0.196 N 
ATOM      2  C2  IND d   1       1.104  -5.724  -3.395  0.00  0.00     0.054 A 
ATOM      3  C3  IND d   1       0.709  -5.912  -4.674  0.00  0.00    -0.031 A 
ATOM      4  C4  IND d   1      -1.669  -5.996  -5.656  0.00  0.00     0.051 A 
ATOM      5  C5  IND d   1      -2.986  -5.994  -5.290  0.00  0.00    -0.031 A 
ATOM      6  C6  IND d   1      -3.377  -5.866  -3.973  0.00  0.00     0.015 A 
ATOM      7  C7  IND d   1      -2.461  -5.723  -2.969  0.00  0.00    -0.016 A 
ATOM      8  C8  IND d   1      -1.123  -5.731  -3.336  0.00  0.00    -0.047 A 
ATOM      9  C9  IND d   1      -0.719  -5.903  -4.666  0.00  0.00    -0.096 A 
ATOM     10  HN1 IND d   1       0.043  -5.527  -1.717  0.00  0.00     0.298 HD
ENDROOT
TORSDOF 0
ENDMDL
