MODEL 1
REMARK minimizedAffinity -3.13701653
REMARK minimizedRMSD -1
REMARK  0 active torsions:
REMARK  status: ('A' for Active; 'I' for Inactive)
ROOT
ATOM      1  N1  IND d   1      -1.098  -1.093   2.242  0.00  0.00    -0.196 N 
ATOM      2  C2  IND d   1      -0.643  -1.879   3.264  0.00  0.00     0.054 A 
ATOM      3  C3  IND d   1       0.632  -2.264   3.030  0.00  0.00    -0.031 A 
ATOM      4  C4  IND d   1       2.198  -1.638   1.085  0.00  0.00     0.051 A 
ATOM      5  C5  IND d   1       2.220  -0.974  -0.109  0.00  0.00    -0.031 A 
ATOM      6  C6  IND d   1       1.116  -0.299  -0.589  0.00  0.00     0.015 A 
ATOM      7  C7  IND d   1      -0.053  -0.254   0.116  0.00  0.00    -0.016 A 
ATOM      8  C8  IND d   1      -0.081  -0.933   1.326  0.00  0.00    -0.047 A 
ATOM      9  C9  IND d   1       1.023  -1.655   1.798  0.00  0.00    -0.096 A 
ATOM     10  HN1 IND d   1      -1.886  -0.754   2.182  0.00  0.00     0.298 HD
ENDROOT
TORSDOF 0
ENDMDL
