MODEL 1
REMARK minimizedAffinity -3.83549094
REMARK minimizedRMSD -1
REMARK  0 active torsions:
REMARK  status: ('A' for Active; 'I' for Inactive)
ROOT
ATOM      1  N1  IND d   1      -0.423  -0.309  -1.078  0.00  0.00    -0.196 N 
ATOM      2  C2  IND d   1      -0.150   0.449   0.027  0.00  0.00     0.054 A 
ATOM      3  C3  IND d   1      -0.762   1.651  -0.064  0.00  0.00    -0.031 A 
ATOM      4  C4  IND d   1      -2.343   2.547  -1.888  0.00  0.00     0.051 A 
ATOM      5  C5  IND d   1      -2.864   2.233  -3.111  0.00  0.00    -0.031 A 
ATOM      6  C6  IND d   1      -2.594   1.030  -3.731  0.00  0.00     0.015 A 
ATOM      7  C7  IND d   1      -1.799   0.087  -3.142  0.00  0.00    -0.016 A 
ATOM      8  C8  IND d   1      -1.263   0.406  -1.903  0.00  0.00    -0.047 A 
ATOM      9  C9  IND d   1      -1.499   1.643  -1.288  0.00  0.00    -0.096 A 
ATOM     10  HN1 IND d   1      -0.121  -1.099  -1.231  0.00  0.00     0.298 HD
ENDROOT
TORSDOF 0
ENDMDL
