MODEL 1
REMARK minimizedAffinity -3.29597306
REMARK minimizedRMSD -1
REMARK  0 active torsions:
REMARK  status: ('A' for Active; 'I' for Inactive)
ROOT
ATOM      1  N1  IND d   1      -0.817   0.875   0.739  0.00  0.00    -0.196 N 
ATOM      2  C2  IND d   1      -1.156   1.333  -0.503  0.00  0.00     0.054 A 
ATOM      3  C3  IND d   1      -0.282   0.875  -1.428  0.00  0.00    -0.031 A 
ATOM      4  C4  IND d   1       1.718  -0.720  -1.139  0.00  0.00     0.051 A 
ATOM      5  C5  IND d   1       2.444  -1.375  -0.185  0.00  0.00    -0.031 A 
ATOM      6  C6  IND d   1       2.112  -1.315   1.153  0.00  0.00     0.015 A 
ATOM      7  C7  IND d   1       1.030  -0.603   1.587  0.00  0.00    -0.016 A 
ATOM      8  C8  IND d   1       0.294   0.069   0.622  0.00  0.00    -0.047 A 
ATOM      9  C9  IND d   1       0.651   0.046  -0.733  0.00  0.00    -0.096 A 
ATOM     10  HN1 IND d   1      -1.229   1.059   1.471  0.00  0.00     0.298 HD
ENDROOT
TORSDOF 0
ENDMDL
