MODEL 1
REMARK minimizedAffinity -3.92099428
REMARK minimizedRMSD -1
REMARK  0 active torsions:
REMARK  status: ('A' for Active; 'I' for Inactive)
ROOT
ATOM      1  N1  IND d   1      -1.181  -0.999   2.367  0.00  0.00    -0.196 N 
ATOM      2  C2  IND d   1      -0.721  -2.176   2.890  0.00  0.00     0.054 A 
ATOM      3  C3  IND d   1       0.439  -2.533   2.294  0.00  0.00    -0.031 A 
ATOM      4  C4  IND d   1       1.814  -1.285   0.512  0.00  0.00     0.051 A 
ATOM      5  C5  IND d   1       1.781  -0.187  -0.301  0.00  0.00    -0.031 A 
ATOM      6  C6  IND d   1       0.739   0.717  -0.263  0.00  0.00     0.015 A 
ATOM      7  C7  IND d   1      -0.308   0.561   0.601  0.00  0.00    -0.016 A 
ATOM      8  C8  IND d   1      -0.281  -0.557   1.423  0.00  0.00    -0.047 A 
ATOM      9  C9  IND d   1       0.753  -1.500   1.359  0.00  0.00    -0.096 A 
ATOM     10  HN1 IND d   1      -1.910  -0.602   2.591  0.00  0.00     0.298 HD
ENDROOT
TORSDOF 0
ENDMDL
