MODEL 1
REMARK minimizedAffinity -1.57332778
REMARK minimizedRMSD -1
REMARK  0 active torsions:
REMARK  status: ('A' for Active; 'I' for Inactive)
ROOT
ATOM      1  N1  IND d   1      -1.514  -0.133   1.868  0.00  0.00    -0.196 N 
ATOM      2  C2  IND d   1      -1.853   0.698   0.837  0.00  0.00     0.054 A 
ATOM      3  C3  IND d   1      -0.837   0.783  -0.051  0.00  0.00    -0.031 A 
ATOM      4  C4  IND d   1       1.432  -0.434  -0.064  0.00  0.00     0.051 A 
ATOM      5  C5  IND d   1       2.211  -1.268   0.688  0.00  0.00    -0.031 A 
ATOM      6  C6  IND d   1       1.778  -1.779   1.895  0.00  0.00     0.015 A 
ATOM      7  C7  IND d   1       0.540  -1.482   2.391  0.00  0.00    -0.016 A 
ATOM      8  C8  IND d   1      -0.251  -0.630   1.634  0.00  0.00    -0.047 A 
ATOM      9  C9  IND d   1       0.199  -0.075   0.429  0.00  0.00    -0.096 A 
ATOM     10  HN1 IND d   1      -2.007  -0.315   2.548  0.00  0.00     0.298 HD
ENDROOT
TORSDOF 0
ENDMDL
