MODEL 1
REMARK minimizedAffinity -2.22018981
REMARK minimizedRMSD -1
REMARK  0 active torsions:
REMARK  status: ('A' for Active; 'I' for Inactive)
ROOT
ATOM      1  N1  IND d   1      -2.270  -0.529   0.043  0.00  0.00    -0.196 N 
ATOM      2  C2  IND d   1      -1.072  -0.596   0.698  0.00  0.00     0.054 A 
ATOM      3  C3  IND d   1      -0.213   0.321   0.201  0.00  0.00    -0.031 A 
ATOM      4  C4  IND d   1      -0.595   2.104  -1.616  0.00  0.00     0.051 A 
ATOM      5  C5  IND d   1      -1.518   2.531  -2.529  0.00  0.00    -0.031 A 
ATOM      6  C6  IND d   1      -2.765   1.950  -2.631  0.00  0.00     0.015 A 
ATOM      7  C7  IND d   1      -3.142   0.923  -1.813  0.00  0.00    -0.016 A 
ATOM      8  C8  IND d   1      -2.204   0.482  -0.890  0.00  0.00    -0.047 A 
ATOM      9  C9  IND d   1      -0.922   1.040  -0.810  0.00  0.00    -0.096 A 
ATOM     10  HN1 IND d   1      -2.951  -1.034   0.190  0.00  0.00     0.298 HD
ENDROOT
TORSDOF 0
ENDMDL
