MODEL 1
REMARK minimizedAffinity -1.24386406
REMARK minimizedRMSD -1
REMARK  0 active torsions:
REMARK  status: ('A' for Active; 'I' for Inactive)
ROOT
ATOM      1  C   UNL d   1      -2.136  -0.953   0.011  0.00  0.00     0.124 A 
ATOM      2  C1  UNL d   1      -1.586  -0.411  -1.142  0.00  0.00     0.062 A 
ATOM      3  C2  UNL d   1      -0.359   0.244  -1.091  0.00  0.00     0.162 A 
ATOM      4  C3  UNL d   1       0.327   0.361   0.118  0.00  0.00    -0.034 A 
ATOM      5  C4  UNL d   1      -0.234  -0.186   1.274  0.00  0.00     0.162 A 
ATOM      6  C5  UNL d   1      -1.460  -0.840   1.217  0.00  0.00     0.062 A 
ATOM      7  F   UNL d   1      -1.990  -1.363   2.333  0.00  0.00    -0.097 F 
ATOM      8  F1  UNL d   1       0.399  -0.092   2.453  0.00  0.00    -0.096 F 
ATOM      9  I   UNL d   1       2.161   1.340   0.199  0.00  0.00    -0.060 I 
ATOM     10  F2  UNL d   1       0.149   0.758  -2.221  0.00  0.00    -0.096 F 
ATOM     11  F3  UNL d   1      -2.237  -0.518  -2.309  0.00  0.00    -0.097 F 
ATOM     12  F4  UNL d   1      -3.317  -1.583  -0.041  0.00  0.00    -0.092 F 
ENDROOT
TORSDOF 0
ENDMDL
