MODEL 1
REMARK minimizedAffinity 8.00619602
REMARK minimizedRMSD -1
REMARK  0 active torsions:
REMARK  status: ('A' for Active; 'I' for Inactive)
ROOT
ATOM      1  C   UNL d   1       0.903   1.105   2.776  0.00  0.00     0.124 A 
ATOM      2  C1  UNL d   1       1.476   1.886   1.782  0.00  0.00     0.062 A 
ATOM      3  C2  UNL d   1       1.255   1.586   0.441  0.00  0.00     0.162 A 
ATOM      4  C3  UNL d   1       0.456   0.500   0.085  0.00  0.00    -0.034 A 
ATOM      5  C4  UNL d   1      -0.117  -0.282   1.090  0.00  0.00     0.162 A 
ATOM      6  C5  UNL d   1       0.107   0.022   2.429  0.00  0.00     0.062 A 
ATOM      7  F   UNL d   1      -0.448  -0.734   3.387  0.00  0.00    -0.097 F 
ATOM      8  F1  UNL d   1      -0.891  -1.333   0.783  0.00  0.00    -0.096 F 
ATOM      9  I   UNL d   1       0.123   0.049  -1.919  0.00  0.00    -0.060 I 
ATOM     10  F2  UNL d   1       1.822   2.359  -0.498  0.00  0.00    -0.096 F 
ATOM     11  F3  UNL d   1       2.246   2.932   2.115  0.00  0.00    -0.097 F 
ATOM     12  F4  UNL d   1       1.118   1.395   4.065  0.00  0.00    -0.092 F 
ENDROOT
TORSDOF 0
ENDMDL
