MODEL 1
REMARK minimizedAffinity 1.51694524
REMARK minimizedRMSD -1
REMARK  0 active torsions:
REMARK  status: ('A' for Active; 'I' for Inactive)
ROOT
ATOM      1  C   UNL d   1      -1.075  -1.338  -0.337  0.00  0.00     0.124 A 
ATOM      2  C1  UNL d   1      -1.087  -0.110  -0.984  0.00  0.00     0.062 A 
ATOM      3  C2  UNL d   1      -0.209   0.896  -0.592  0.00  0.00     0.162 A 
ATOM      4  C3  UNL d   1       0.690   0.678   0.452  0.00  0.00    -0.034 A 
ATOM      5  C4  UNL d   1       0.696  -0.559   1.099  0.00  0.00     0.162 A 
ATOM      6  C5  UNL d   1      -0.184  -1.562   0.703  0.00  0.00     0.062 A 
ATOM      7  F   UNL d   1      -0.171  -2.748   1.329  0.00  0.00    -0.097 F 
ATOM      8  F1  UNL d   1       1.547  -0.803   2.106  0.00  0.00    -0.096 F 
ATOM      9  I   UNL d   1       2.005   2.180   1.042  0.00  0.00    -0.060 I 
ATOM     10  F2  UNL d   1      -0.242   2.073  -1.235  0.00  0.00    -0.096 F 
ATOM     11  F3  UNL d   1      -1.947   0.108  -1.989  0.00  0.00    -0.097 F 
ATOM     12  F4  UNL d   1      -1.922  -2.304  -0.716  0.00  0.00    -0.092 F 
ENDROOT
TORSDOF 0
ENDMDL
