MODEL 1
REMARK minimizedAffinity 6.15517855
REMARK minimizedRMSD -1
REMARK  0 active torsions:
REMARK  status: ('A' for Active; 'I' for Inactive)
ROOT
ATOM      1  C   UNL d   1      -1.244  -1.283  -0.406  0.00  0.00     0.124 A 
ATOM      2  C1  UNL d   1      -0.320  -1.322   0.629  0.00  0.00     0.062 A 
ATOM      3  C2  UNL d   1       0.700  -0.377   0.692  0.00  0.00     0.162 A 
ATOM      4  C3  UNL d   1       0.801   0.616  -0.282  0.00  0.00    -0.034 A 
ATOM      5  C4  UNL d   1      -0.132   0.648  -1.321  0.00  0.00     0.162 A 
ATOM      6  C5  UNL d   1      -1.149  -0.299  -1.379  0.00  0.00     0.062 A 
ATOM      7  F   UNL d   1      -2.042  -0.260  -2.380  0.00  0.00    -0.097 F 
ATOM      8  F1  UNL d   1      -0.064   1.589  -2.274  0.00  0.00    -0.096 F 
ATOM      9  I   UNL d   1       2.325   2.031  -0.192  0.00  0.00    -0.060 I 
ATOM     10  F2  UNL d   1       1.580  -0.439   1.703  0.00  0.00    -0.096 F 
ATOM     11  F3  UNL d   1      -0.408  -2.273   1.570  0.00  0.00    -0.097 F 
ATOM     12  F4  UNL d   1      -2.224  -2.194  -0.465  0.00  0.00    -0.092 F 
ENDROOT
TORSDOF 0
ENDMDL
