MODEL 1
REMARK minimizedAffinity 4.2996254
REMARK minimizedRMSD -1
REMARK  0 active torsions:
REMARK  status: ('A' for Active; 'I' for Inactive)
ROOT
ATOM      1  C   UNL d   1      -1.524  -1.343  -0.521  0.00  0.00     0.124 A 
ATOM      2  C1  UNL d   1      -1.466  -0.161  -1.246  0.00  0.00     0.062 A 
ATOM      3  C2  UNL d   1      -0.443   0.753  -1.013  0.00  0.00     0.162 A 
ATOM      4  C3  UNL d   1       0.532   0.489  -0.051  0.00  0.00    -0.034 A 
ATOM      5  C4  UNL d   1       0.466  -0.702   0.675  0.00  0.00     0.162 A 
ATOM      6  C5  UNL d   1      -0.559  -1.612   0.439  0.00  0.00     0.062 A 
ATOM      7  F   UNL d   1      -0.614  -2.754   1.140  0.00  0.00    -0.097 F 
ATOM      8  F1  UNL d   1       1.387  -0.988   1.607  0.00  0.00    -0.096 F 
ATOM      9  I   UNL d   1       2.064   1.853   0.300  0.00  0.00    -0.060 I 
ATOM     10  F2  UNL d   1      -0.411   1.887  -1.729  0.00  0.00    -0.096 F 
ATOM     11  F3  UNL d   1      -2.399   0.102  -2.173  0.00  0.00    -0.097 F 
ATOM     12  F4  UNL d   1      -2.511  -2.220  -0.746  0.00  0.00    -0.092 F 
ENDROOT
TORSDOF 0
ENDMDL
