MODEL 1
REMARK minimizedAffinity -1.2454052
REMARK minimizedRMSD -1
REMARK  0 active torsions:
REMARK  status: ('A' for Active; 'I' for Inactive)
ROOT
ATOM      1  C   UNL d   1       0.173  -0.109  -0.316  0.00  0.00     0.124 A 
ATOM      2  C1  UNL d   1       0.987  -0.758   0.602  0.00  0.00     0.062 A 
ATOM      3  C2  UNL d   1       0.439  -1.308   1.757  0.00  0.00     0.162 A 
ATOM      4  C3  UNL d   1      -0.931  -1.214   2.000  0.00  0.00    -0.034 A 
ATOM      5  C4  UNL d   1      -1.744  -0.559   1.073  0.00  0.00     0.162 A 
ATOM      6  C5  UNL d   1      -1.191  -0.011  -0.080  0.00  0.00     0.062 A 
ATOM      7  F   UNL d   1      -1.980   0.616  -0.966  0.00  0.00    -0.097 F 
ATOM      8  F1  UNL d   1      -3.065  -0.450   1.276  0.00  0.00    -0.096 F 
ATOM      9  I   UNL d   1      -1.754  -2.036   3.726  0.00  0.00    -0.060 I 
ATOM     10  F2  UNL d   1       1.250  -1.930   2.627  0.00  0.00    -0.096 F 
ATOM     11  F3  UNL d   1       2.305  -0.853   0.376  0.00  0.00    -0.097 F 
ATOM     12  F4  UNL d   1       0.702   0.421  -1.426  0.00  0.00    -0.092 F 
ENDROOT
TORSDOF 0
ENDMDL
