MODEL 1
REMARK minimizedAffinity 6.83948851
REMARK minimizedRMSD -1
REMARK  0 active torsions:
REMARK  status: ('A' for Active; 'I' for Inactive)
ROOT
ATOM      1  C   UNL d   1       2.708   2.570   0.244  0.00  0.00     0.124 A 
ATOM      2  C1  UNL d   1       2.196   2.594   1.534  0.00  0.00     0.062 A 
ATOM      3  C2  UNL d   1       1.459   1.515   2.014  0.00  0.00     0.162 A 
ATOM      4  C3  UNL d   1       1.231   0.402   1.205  0.00  0.00    -0.034 A 
ATOM      5  C4  UNL d   1       1.749   0.386  -0.092  0.00  0.00     0.162 A 
ATOM      6  C5  UNL d   1       2.484   1.467  -0.567  0.00  0.00     0.062 A 
ATOM      7  F   UNL d   1       2.978   1.442  -1.814  0.00  0.00    -0.097 F 
ATOM      8  F1  UNL d   1       1.548  -0.668  -0.896  0.00  0.00    -0.096 F 
ATOM      9  I   UNL d   1       0.130  -1.213   1.920  0.00  0.00    -0.060 I 
ATOM     10  F2  UNL d   1       0.976   1.566   3.265  0.00  0.00    -0.096 F 
ATOM     11  F3  UNL d   1       2.410   3.659   2.319  0.00  0.00    -0.097 F 
ATOM     12  F4  UNL d   1       3.416   3.610  -0.216  0.00  0.00    -0.092 F 
ENDROOT
TORSDOF 0
ENDMDL
