MODEL 1
REMARK minimizedAffinity 11.1153288
REMARK minimizedRMSD -1
REMARK  0 active torsions:
REMARK  status: ('A' for Active; 'I' for Inactive)
ROOT
ATOM      1  C   UNL d   1       0.814  -1.431   0.196  0.00  0.00     0.124 A 
ATOM      2  C1  UNL d   1       0.275  -1.595   1.465  0.00  0.00     0.062 A 
ATOM      3  C2  UNL d   1      -1.104  -1.576   1.648  0.00  0.00     0.162 A 
ATOM      4  C3  UNL d   1      -1.956  -1.393   0.559  0.00  0.00    -0.034 A 
ATOM      5  C4  UNL d   1      -1.407  -1.228  -0.714  0.00  0.00     0.162 A 
ATOM      6  C5  UNL d   1      -0.028  -1.248  -0.892  0.00  0.00     0.062 A 
ATOM      7  F   UNL d   1       0.490  -1.089  -2.119  0.00  0.00    -0.097 F 
ATOM      8  F1  UNL d   1      -2.197  -1.050  -1.784  0.00  0.00    -0.096 F 
ATOM      9  I   UNL d   1      -4.020  -1.364   0.828  0.00  0.00    -0.060 I 
ATOM     10  F2  UNL d   1      -1.597  -1.736   2.885  0.00  0.00    -0.096 F 
ATOM     11  F3  UNL d   1       1.086  -1.771   2.518  0.00  0.00    -0.097 F 
ATOM     12  F4  UNL d   1       2.142  -1.448   0.023  0.00  0.00    -0.092 F 
ENDROOT
TORSDOF 0
ENDMDL
