MODEL 1
REMARK minimizedAffinity 10.9032269
REMARK minimizedRMSD -1
REMARK  0 active torsions:
REMARK  status: ('A' for Active; 'I' for Inactive)
ROOT
ATOM      1  C   UNL d   1      -0.334  -0.385   2.385  0.00  0.00     0.124 A 
ATOM      2  C1  UNL d   1       0.977  -0.830   2.492  0.00  0.00     0.062 A 
ATOM      3  C2  UNL d   1       2.025   0.085   2.535  0.00  0.00     0.162 A 
ATOM      4  C3  UNL d   1       1.768   1.454   2.473  0.00  0.00    -0.034 A 
ATOM      5  C4  UNL d   1       0.447   1.894   2.365  0.00  0.00     0.162 A 
ATOM      6  C5  UNL d   1      -0.597   0.976   2.322  0.00  0.00     0.062 A 
ATOM      7  F   UNL d   1      -1.862   1.408   2.218  0.00  0.00    -0.097 F 
ATOM      8  F1  UNL d   1       0.164   3.204   2.303  0.00  0.00    -0.096 F 
ATOM      9  I   UNL d   1       3.333   2.825   2.538  0.00  0.00    -0.060 I 
ATOM     10  F2  UNL d   1       3.282  -0.374   2.639  0.00  0.00    -0.096 F 
ATOM     11  F3  UNL d   1       1.234  -2.144   2.552  0.00  0.00    -0.097 F 
ATOM     12  F4  UNL d   1      -1.340  -1.267   2.342  0.00  0.00    -0.092 F 
ENDROOT
TORSDOF 0
ENDMDL
