MODEL 1
REMARK minimizedAffinity 7.21881866
REMARK minimizedRMSD -1
REMARK  0 active torsions:
REMARK  status: ('A' for Active; 'I' for Inactive)
ROOT
ATOM      1  C   UNL d   1      -1.820  -0.919  -1.050  0.00  0.00     0.124 A 
ATOM      2  C1  UNL d   1      -0.503  -0.614  -1.362  0.00  0.00     0.062 A 
ATOM      3  C2  UNL d   1       0.498  -0.780  -0.409  0.00  0.00     0.162 A 
ATOM      4  C3  UNL d   1       0.186  -1.253   0.865  0.00  0.00    -0.034 A 
ATOM      5  C4  UNL d   1      -1.142  -1.557   1.172  0.00  0.00     0.162 A 
ATOM      6  C5  UNL d   1      -2.139  -1.390   0.216  0.00  0.00     0.062 A 
ATOM      7  F   UNL d   1      -3.412  -1.685   0.519  0.00  0.00    -0.097 F 
ATOM      8  F1  UNL d   1      -1.478  -2.014   2.387  0.00  0.00    -0.096 F 
ATOM      9  I   UNL d   1       1.679  -1.502   2.293  0.00  0.00    -0.060 I 
ATOM     10  F2  UNL d   1       1.763  -0.477  -0.738  0.00  0.00    -0.096 F 
ATOM     11  F3  UNL d   1      -0.192  -0.158  -2.584  0.00  0.00    -0.097 F 
ATOM     12  F4  UNL d   1      -2.782  -0.758  -1.969  0.00  0.00    -0.092 F 
ENDROOT
TORSDOF 0
ENDMDL
