MODEL 1
REMARK minimizedAffinity 8.07971954
REMARK minimizedRMSD -1
REMARK  0 active torsions:
REMARK  status: ('A' for Active; 'I' for Inactive)
ROOT
ATOM      1  C   UNL d   1      -1.879   0.016  -1.528  0.00  0.00     0.124 A 
ATOM      2  C1  UNL d   1      -1.819  -1.357  -1.334  0.00  0.00     0.062 A 
ATOM      3  C2  UNL d   1      -2.815  -2.005  -0.609  0.00  0.00     0.162 A 
ATOM      4  C3  UNL d   1      -3.880  -1.281  -0.073  0.00  0.00    -0.034 A 
ATOM      5  C4  UNL d   1      -3.932   0.100  -0.271  0.00  0.00     0.162 A 
ATOM      6  C5  UNL d   1      -2.935   0.743  -0.997  0.00  0.00     0.062 A 
ATOM      7  F   UNL d   1      -2.994   2.069  -1.184  0.00  0.00    -0.097 F 
ATOM      8  F1  UNL d   1      -4.942   0.827   0.230  0.00  0.00    -0.096 F 
ATOM      9  I   UNL d   1      -5.371  -2.246   1.012  0.00  0.00    -0.060 I 
ATOM     10  F2  UNL d   1      -2.732  -3.333  -0.437  0.00  0.00    -0.096 F 
ATOM     11  F3  UNL d   1      -0.800  -2.062  -1.845  0.00  0.00    -0.097 F 
ATOM     12  F4  UNL d   1      -0.919   0.637  -2.226  0.00  0.00    -0.092 F 
ENDROOT
TORSDOF 0
ENDMDL
