MODEL 1
REMARK minimizedAffinity 10.56073
REMARK minimizedRMSD -1
REMARK  0 active torsions:
REMARK  status: ('A' for Active; 'I' for Inactive)
ROOT
ATOM      1  C   UNL d   1       3.140   3.089   0.186  0.00  0.00     0.124 A 
ATOM      2  C1  UNL d   1       2.558   3.129   1.446  0.00  0.00     0.062 A 
ATOM      3  C2  UNL d   1       1.663   2.137   1.836  0.00  0.00     0.162 A 
ATOM      4  C3  UNL d   1       1.346   1.094   0.966  0.00  0.00    -0.034 A 
ATOM      5  C4  UNL d   1       1.934   1.060  -0.300  0.00  0.00     0.162 A 
ATOM      6  C5  UNL d   1       2.828   2.055  -0.685  0.00  0.00     0.062 A 
ATOM      7  F   UNL d   1       3.389   2.014  -1.902  0.00  0.00    -0.097 F 
ATOM      8  F1  UNL d   1       1.651   0.072  -1.162  0.00  0.00    -0.096 F 
ATOM      9  I   UNL d   1       0.009  -0.392   1.545  0.00  0.00    -0.060 I 
ATOM     10  F2  UNL d   1       1.116   2.201   3.059  0.00  0.00    -0.096 F 
ATOM     11  F3  UNL d   1       2.857   4.128   2.289  0.00  0.00    -0.097 F 
ATOM     12  F4  UNL d   1       3.999   4.046  -0.187  0.00  0.00    -0.092 F 
ENDROOT
TORSDOF 0
ENDMDL
