MODEL 1
REMARK minimizedAffinity 8.41456604
REMARK minimizedRMSD -1
REMARK  0 active torsions:
REMARK  status: ('A' for Active; 'I' for Inactive)
ROOT
ATOM      1  C   UNL d   1      -1.063   2.325  -4.032  0.00  0.00     0.124 A 
ATOM      2  C1  UNL d   1      -0.097   1.377  -3.721  0.00  0.00     0.062 A 
ATOM      3  C2  UNL d   1      -0.376   0.369  -2.802  0.00  0.00     0.162 A 
ATOM      4  C3  UNL d   1      -1.627   0.303  -2.188  0.00  0.00    -0.034 A 
ATOM      5  C4  UNL d   1      -2.592   1.260  -2.505  0.00  0.00     0.162 A 
ATOM      6  C5  UNL d   1      -2.309   2.265  -3.424  0.00  0.00     0.062 A 
ATOM      7  F   UNL d   1      -3.243   3.180  -3.722  0.00  0.00    -0.097 F 
ATOM      8  F1  UNL d   1      -3.805   1.226  -1.933  0.00  0.00    -0.096 F 
ATOM      9  I   UNL d   1      -2.048  -1.203  -0.814  0.00  0.00    -0.060 I 
ATOM     10  F2  UNL d   1       0.575  -0.534  -2.521  0.00  0.00    -0.096 F 
ATOM     11  F3  UNL d   1       1.108   1.432  -4.306  0.00  0.00    -0.097 F 
ATOM     12  F4  UNL d   1      -0.792   3.294  -4.915  0.00  0.00    -0.092 F 
ENDROOT
TORSDOF 0
ENDMDL
