MODEL 1
REMARK minimizedAffinity 14.012538
REMARK minimizedRMSD -1
REMARK  0 active torsions:
REMARK  status: ('A' for Active; 'I' for Inactive)
ROOT
ATOM      1  C   UNL d   1      -3.064  -2.065  -1.343  0.00  0.00     0.124 A 
ATOM      2  C1  UNL d   1      -3.095  -0.857  -0.660  0.00  0.00     0.062 A 
ATOM      3  C2  UNL d   1      -2.205   0.159  -0.995  0.00  0.00     0.162 A 
ATOM      4  C3  UNL d   1      -1.277  -0.027  -2.019  0.00  0.00    -0.034 A 
ATOM      5  C4  UNL d   1      -1.251  -1.245  -2.701  0.00  0.00     0.162 A 
ATOM      6  C5  UNL d   1      -2.143  -2.258  -2.362  0.00  0.00     0.062 A 
ATOM      7  F   UNL d   1      -2.111  -3.424  -3.023  0.00  0.00    -0.097 F 
ATOM      8  F1  UNL d   1      -0.372  -1.458  -3.691  0.00  0.00    -0.096 F 
ATOM      9  I   UNL d   1       0.055   1.490  -2.523  0.00  0.00    -0.060 I 
ATOM     10  F2  UNL d   1      -2.257   1.316  -0.318  0.00  0.00    -0.096 F 
ATOM     11  F3  UNL d   1      -3.984  -0.669   0.327  0.00  0.00    -0.097 F 
ATOM     12  F4  UNL d   1      -3.921  -3.042  -1.017  0.00  0.00    -0.092 F 
ENDROOT
TORSDOF 0
ENDMDL
