MODEL 1
REMARK minimizedAffinity 7.58811378
REMARK minimizedRMSD -1
REMARK  0 active torsions:
REMARK  status: ('A' for Active; 'I' for Inactive)
ROOT
ATOM      1  C   UNL d   1       3.162   3.895  -0.779  0.00  0.00     0.124 A 
ATOM      2  C1  UNL d   1       4.174   4.843  -0.715  0.00  0.00     0.062 A 
ATOM      3  C2  UNL d   1       4.985   5.077  -1.821  0.00  0.00     0.162 A 
ATOM      4  C3  UNL d   1       4.788   4.361  -3.002  0.00  0.00    -0.034 A 
ATOM      5  C4  UNL d   1       3.769   3.409  -3.059  0.00  0.00     0.162 A 
ATOM      6  C5  UNL d   1       2.961   3.179  -1.951  0.00  0.00     0.062 A 
ATOM      7  F   UNL d   1       1.984   2.262  -2.015  0.00  0.00    -0.097 F 
ATOM      8  F1  UNL d   1       3.552   2.703  -4.179  0.00  0.00    -0.096 F 
ATOM      9  I   UNL d   1       6.000   4.708  -4.659  0.00  0.00    -0.060 I 
ATOM     10  F2  UNL d   1       5.955   5.999  -1.730  0.00  0.00    -0.096 F 
ATOM     11  F3  UNL d   1       4.371   5.535   0.416  0.00  0.00    -0.097 F 
ATOM     12  F4  UNL d   1       2.383   3.671   0.287  0.00  0.00    -0.092 F 
ENDROOT
TORSDOF 0
ENDMDL
