MODEL 1
REMARK minimizedAffinity 10.84126
REMARK minimizedRMSD -1
REMARK  0 active torsions:
REMARK  status: ('A' for Active; 'I' for Inactive)
ROOT
ATOM      1  C   UNL d   1      -2.119  -0.792  -0.374  0.00  0.00     0.124 A 
ATOM      2  C1  UNL d   1      -0.752  -1.015  -0.453  0.00  0.00     0.062 A 
ATOM      3  C2  UNL d   1       0.010  -0.365  -1.419  0.00  0.00     0.162 A 
ATOM      4  C3  UNL d   1      -0.595   0.517  -2.315  0.00  0.00    -0.034 A 
ATOM      5  C4  UNL d   1      -1.971   0.736  -2.231  0.00  0.00     0.162 A 
ATOM      6  C5  UNL d   1      -2.728   0.083  -1.263  0.00  0.00     0.062 A 
ATOM      7  F   UNL d   1      -4.049   0.301  -1.189  0.00  0.00    -0.097 F 
ATOM      8  F1  UNL d   1      -2.584   1.578  -3.076  0.00  0.00    -0.096 F 
ATOM      9  I   UNL d   1       0.540   1.493  -3.761  0.00  0.00    -0.060 I 
ATOM     10  F2  UNL d   1       1.329  -0.599  -1.472  0.00  0.00    -0.096 F 
ATOM     11  F3  UNL d   1      -0.162  -1.861   0.404  0.00  0.00    -0.097 F 
ATOM     12  F4  UNL d   1      -2.850  -1.420   0.556  0.00  0.00    -0.092 F 
ENDROOT
TORSDOF 0
ENDMDL
