MODEL 1
REMARK minimizedAffinity 14.8528013
REMARK minimizedRMSD -1
REMARK  0 active torsions:
REMARK  status: ('A' for Active; 'I' for Inactive)
ROOT
ATOM      1  C   UNL d   1      -1.293  -1.155  -1.259  0.00  0.00     0.124 A 
ATOM      2  C1  UNL d   1      -2.003  -1.092  -0.068  0.00  0.00     0.062 A 
ATOM      3  C2  UNL d   1      -1.332  -0.923   1.139  0.00  0.00     0.162 A 
ATOM      4  C3  UNL d   1       0.059  -0.815   1.161  0.00  0.00    -0.034 A 
ATOM      5  C4  UNL d   1       0.766  -0.880  -0.040  0.00  0.00     0.162 A 
ATOM      6  C5  UNL d   1       0.090  -1.049  -1.244  0.00  0.00     0.062 A 
ATOM      7  F   UNL d   1       0.778  -1.110  -2.394  0.00  0.00    -0.097 F 
ATOM      8  F1  UNL d   1       2.103  -0.779  -0.055  0.00  0.00    -0.096 F 
ATOM      9  I   UNL d   1       1.067  -0.561   2.964  0.00  0.00    -0.060 I 
ATOM     10  F2  UNL d   1      -2.043  -0.866   2.274  0.00  0.00    -0.096 F 
ATOM     11  F3  UNL d   1      -3.340  -1.196  -0.080  0.00  0.00    -0.097 F 
ATOM     12  F4  UNL d   1      -1.942  -1.319  -2.419  0.00  0.00    -0.092 F 
ENDROOT
TORSDOF 0
ENDMDL
