MODEL 1
REMARK minimizedAffinity 1.17134631
REMARK minimizedRMSD -1
REMARK  1 active torsions:
REMARK  status: ('A' for Active; 'I' for Inactive)
REMARK    1  A    between atoms: C1_2  and  C2_3 
ROOT
ATOM      1  C2  UNL d   1       4.547   5.912   3.193  0.00  0.00    -0.076 A 
ATOM      2  C3  UNL d   1       5.828   5.828   3.766  0.00  0.00     0.004 A 
ATOM      3  C4  UNL d   1       5.992   5.771   5.149  0.00  0.00    -0.003 A 
ATOM      4  C5  UNL d   1       4.878   5.797   5.981  0.00  0.00     0.000 A 
ATOM      5  C6  UNL d   1       3.600   5.863   5.429  0.00  0.00     0.000 A 
ATOM      6  C7  UNL d   1       3.416   5.904   4.036  0.00  0.00    -0.073 A 
ATOM      7  C8  UNL d   1       2.015   5.981   3.495  0.00  0.00     0.078 C 
ENDROOT
BRANCH   1   8
ATOM      8  C1  UNL d   1       4.433   5.998   1.687  0.00  0.00     0.053 C 
ATOM      9  C   UNL d   1       5.788   5.979   0.997  0.00  0.00     0.018 C 
ENDBRANCH   1   8
TORSDOF 1
ENDMDL
