MODEL 1
REMARK minimizedAffinity 10.3482943
REMARK minimizedRMSD -1
REMARK  1 active torsions:
REMARK  status: ('A' for Active; 'I' for Inactive)
REMARK    1  A    between atoms: C1_2  and  C2_3 
ROOT
ATOM      1  C2  UNL d   1       3.820  -4.203  -0.140  0.00  0.00    -0.076 A 
ATOM      2  C3  UNL d   1       3.816  -5.517  -0.640  0.00  0.00     0.004 A 
ATOM      3  C4  UNL d   1       4.882  -6.000  -1.397  0.00  0.00    -0.003 A 
ATOM      4  C5  UNL d   1       5.970  -5.177  -1.666  0.00  0.00     0.000 A 
ATOM      5  C6  UNL d   1       5.999  -3.877  -1.163  0.00  0.00     0.000 A 
ATOM      6  C7  UNL d   1       4.940  -3.379  -0.385  0.00  0.00    -0.073 A 
ATOM      7  C8  UNL d   1       5.021  -1.967   0.127  0.00  0.00     0.078 C 
ENDROOT
BRANCH   1   8
ATOM      8  C1  UNL d   1       2.624  -3.725   0.651  0.00  0.00     0.053 C 
ATOM      9  C   UNL d   1       1.375  -4.547   0.373  0.00  0.00     0.018 C 
ENDBRANCH   1   8
TORSDOF 1
ENDMDL
