MODEL 1
REMARK minimizedAffinity 11.4967899
REMARK minimizedRMSD -1
REMARK  1 active torsions:
REMARK  status: ('A' for Active; 'I' for Inactive)
REMARK    1  A    between atoms: C1_2  and  C2_3 
ROOT
ATOM      1  C2  UNL d   1       1.391  -2.665   1.818  0.00  0.00    -0.076 A 
ATOM      2  C3  UNL d   1       0.320  -2.228   2.617  0.00  0.00     0.004 A 
ATOM      3  C4  UNL d   1      -0.945  -2.800   2.498  0.00  0.00    -0.003 A 
ATOM      4  C5  UNL d   1      -1.160  -3.820   1.578  0.00  0.00     0.000 A 
ATOM      5  C6  UNL d   1      -0.106  -4.279   0.789  0.00  0.00     0.000 A 
ATOM      6  C7  UNL d   1       1.180  -3.724   0.908  0.00  0.00    -0.073 A 
ATOM      7  C8  UNL d   1       2.279  -4.253   0.028  0.00  0.00     0.078 C 
ENDROOT
BRANCH   1   8
ATOM      8  C1  UNL d   1       2.734  -1.988   1.972  0.00  0.00     0.053 C 
ATOM      9  C   UNL d   1       3.643  -2.714   2.951  0.00  0.00     0.018 C 
ENDBRANCH   1   8
TORSDOF 1
ENDMDL
