MODEL 1
REMARK minimizedAffinity 14.6883097
REMARK minimizedRMSD -1
REMARK  1 active torsions:
REMARK  status: ('A' for Active; 'I' for Inactive)
REMARK    1  A    between atoms: C1_2  and  C2_3 
ROOT
ATOM      1  C2  UNL d   1       1.212  -2.571   0.340  0.00  0.00    -0.076 A 
ATOM      2  C3  UNL d   1       2.281  -3.142  -0.371  0.00  0.00     0.004 A 
ATOM      3  C4  UNL d   1       2.282  -4.496  -0.701  0.00  0.00    -0.003 A 
ATOM      4  C5  UNL d   1       1.213  -5.302  -0.325  0.00  0.00     0.000 A 
ATOM      5  C6  UNL d   1       0.136  -4.749   0.366  0.00  0.00     0.000 A 
ATOM      6  C7  UNL d   1       0.111  -3.382   0.692  0.00  0.00    -0.073 A 
ATOM      7  C8  UNL d   1      -1.073  -2.840   1.444  0.00  0.00     0.078 C 
ENDROOT
BRANCH   1   8
ATOM      8  C1  UNL d   1       1.279  -1.102   0.694  0.00  0.00     0.053 C 
ATOM      9  C   UNL d   1       2.090  -0.842   1.953  0.00  0.00     0.018 C 
ENDBRANCH   1   8
TORSDOF 1
ENDMDL
