MODEL 1
REMARK minimizedAffinity 4.97675514
REMARK minimizedRMSD -1
REMARK  1 active torsions:
REMARK  status: ('A' for Active; 'I' for Inactive)
REMARK    1  A    between atoms: C1_2  and  C2_3 
ROOT
ATOM      1  C2  UNL d   1       3.396   4.593   4.055  0.00  0.00    -0.076 A 
ATOM      2  C3  UNL d   1       4.477   4.165   3.265  0.00  0.00     0.004 A 
ATOM      3  C4  UNL d   1       5.764   4.653   3.485  0.00  0.00    -0.003 A 
ATOM      4  C5  UNL d   1       5.991   5.577   4.499  0.00  0.00     0.000 A 
ATOM      5  C6  UNL d   1       4.934   5.999   5.304  0.00  0.00     0.000 A 
ATOM      6  C7  UNL d   1       3.633   5.505   5.106  0.00  0.00    -0.073 A 
ATOM      7  C8  UNL d   1       2.529   6.000   6.000  0.00  0.00     0.078 C 
ENDROOT
BRANCH   1   8
ATOM      8  C1  UNL d   1       2.018   4.050   3.752  0.00  0.00     0.053 C 
ATOM      9  C   UNL d   1       1.921   3.452   2.358  0.00  0.00     0.018 C 
ENDBRANCH   1   8
TORSDOF 1
ENDMDL
