MODEL 1
REMARK minimizedAffinity 4.57221031
REMARK minimizedRMSD -1
REMARK  1 active torsions:
REMARK  status: ('A' for Active; 'I' for Inactive)
REMARK    1  A    between atoms: C1_2  and  C2_3 
ROOT
ATOM      1  C2  UNL d   1       2.172   4.770   4.080  0.00  0.00    -0.076 A 
ATOM      2  C3  UNL d   1       3.467   4.778   3.533  0.00  0.00     0.004 A 
ATOM      3  C4  UNL d   1       4.526   5.388   4.203  0.00  0.00    -0.003 A 
ATOM      4  C5  UNL d   1       4.307   6.000   5.433  0.00  0.00     0.000 A 
ATOM      5  C6  UNL d   1       3.033   5.986   5.999  0.00  0.00     0.000 A 
ATOM      6  C7  UNL d   1       1.958   5.361   5.344  0.00  0.00    -0.073 A 
ATOM      7  C8  UNL d   1       0.603   5.382   5.997  0.00  0.00     0.078 C 
ENDROOT
BRANCH   1   8
ATOM      8  C1  UNL d   1       1.058   4.117   3.294  0.00  0.00     0.053 C 
ATOM      9  C   UNL d   1       1.433   2.732   2.792  0.00  0.00     0.018 C 
ENDBRANCH   1   8
TORSDOF 1
ENDMDL
