MODEL 1
REMARK minimizedAffinity 3.28245735
REMARK minimizedRMSD -1
REMARK  1 active torsions:
REMARK  status: ('A' for Active; 'I' for Inactive)
REMARK    1  A    between atoms: C1_2  and  C2_3 
ROOT
ATOM      1  C2  UNL d   1       3.209   4.901   4.139  0.00  0.00    -0.076 A 
ATOM      2  C3  UNL d   1       4.462   4.549   3.610  0.00  0.00     0.004 A 
ATOM      3  C4  UNL d   1       5.642   4.907   4.260  0.00  0.00    -0.003 A 
ATOM      4  C5  UNL d   1       5.588   5.623   5.450  0.00  0.00     0.000 A 
ATOM      5  C6  UNL d   1       4.353   5.965   6.000  0.00  0.00     0.000 A 
ATOM      6  C7  UNL d   1       3.153   5.598   5.365  0.00  0.00    -0.073 A 
ATOM      7  C8  UNL d   1       1.850   5.999   5.999  0.00  0.00     0.078 C 
ENDROOT
BRANCH   1   8
ATOM      8  C1  UNL d   1       1.964   4.509   3.376  0.00  0.00     0.053 C 
ATOM      9  C   UNL d   1       1.481   3.111   3.728  0.00  0.00     0.018 C 
ENDBRANCH   1   8
TORSDOF 1
ENDMDL
