MODEL 1
REMARK minimizedAffinity 15.899684
REMARK minimizedRMSD -1
REMARK  1 active torsions:
REMARK  status: ('A' for Active; 'I' for Inactive)
REMARK    1  A    between atoms: C1_2  and  C2_3 
ROOT
ATOM      1  C2  UNL d   1       1.536  -1.430   3.147  0.00  0.00    -0.076 A 
ATOM      2  C3  UNL d   1       0.333  -2.155   3.216  0.00  0.00     0.004 A 
ATOM      3  C4  UNL d   1      -0.223  -2.732   2.076  0.00  0.00    -0.003 A 
ATOM      4  C5  UNL d   1       0.414  -2.594   0.848  0.00  0.00     0.000 A 
ATOM      5  C6  UNL d   1       1.617  -1.893   0.764  0.00  0.00     0.000 A 
ATOM      6  C7  UNL d   1       2.200  -1.319   1.906  0.00  0.00    -0.073 A 
ATOM      7  C8  UNL d   1       3.495  -0.569   1.757  0.00  0.00     0.078 C 
ENDROOT
BRANCH   1   8
ATOM      8  C1  UNL d   1       2.078  -0.803   4.412  0.00  0.00     0.053 C 
ATOM      9  C   UNL d   1       3.185  -1.631   5.044  0.00  0.00     0.018 C 
ENDBRANCH   1   8
TORSDOF 1
ENDMDL
