MODEL 1
REMARK minimizedAffinity 12.4921474
REMARK minimizedRMSD -1
REMARK  2 active torsions:
REMARK  status: ('A' for Active; 'I' for Inactive)
REMARK    1  A    between atoms: C2'_3  and  C1'_4 
REMARK    2  A    between atoms: C1'_4  and  C1_5 
ROOT
ATOM      1  C1  I4B d   1       3.289   0.208  -0.363  0.00  0.00    -0.075 A 
ATOM      2  C2  I4B d   1       4.188  -0.830  -0.362  0.00  0.00     0.003 A 
ATOM      3  C3  I4B d   1       5.569  -0.577  -0.543  0.00  0.00     0.002 A 
ATOM      4  C4  I4B d   1       6.000   0.714  -0.770  0.00  0.00    -0.004 A 
ATOM      5  C5  I4B d   1       5.091   1.767  -0.748  0.00  0.00     0.002 A 
ATOM      6  C6  I4B d   1       3.728   1.515  -0.531  0.00  0.00     0.003 A 
ENDROOT
BRANCH   1   7
ATOM      7  C1' I4B d   1       1.834  -0.098  -0.202  0.00  0.00     0.060 C 
BRANCH   7   8
ATOM      8  C2' I4B d   1       1.294   0.774   0.913  0.00  0.00    -0.013 C 
ATOM      9  C4' I4B d   1      -0.044   1.361   0.547  0.00  0.00     0.013 C 
ATOM     10  C3' I4B d   1       1.197  -0.065   2.152  0.00  0.00     0.013 C 
ENDBRANCH   7   8
ENDBRANCH   1   7
TORSDOF 2
ENDMDL
