MODEL 1
REMARK minimizedAffinity 5.21189022
REMARK minimizedRMSD -1
REMARK  2 active torsions:
REMARK  status: ('A' for Active; 'I' for Inactive)
REMARK    1  A    between atoms: C2'_3  and  C1'_4 
REMARK    2  A    between atoms: C1'_4  and  C1_5 
ROOT
ATOM      1  C1  I4B d   1       3.836   0.137  -0.621  0.00  0.00    -0.075 A 
ATOM      2  C2  I4B d   1       3.228  -1.017  -0.194  0.00  0.00     0.003 A 
ATOM      3  C3  I4B d   1       3.334  -2.203  -0.960  0.00  0.00     0.002 A 
ATOM      4  C4  I4B d   1       4.011  -2.178  -2.162  0.00  0.00    -0.004 A 
ATOM      5  C5  I4B d   1       4.646  -1.013  -2.582  0.00  0.00     0.002 A 
ATOM      6  C6  I4B d   1       4.568   0.149  -1.801  0.00  0.00     0.003 A 
ENDROOT
BRANCH   1   7
ATOM      7  C1' I4B d   1       3.675   1.380   0.195  0.00  0.00     0.060 C 
BRANCH   7   8
ATOM      8  C2' I4B d   1       4.942   2.200   0.052  0.00  0.00    -0.013 C 
ATOM      9  C4' I4B d   1       4.635   3.603  -0.400  0.00  0.00     0.013 C 
ATOM     10  C3' I4B d   1       5.646   2.199   1.376  0.00  0.00     0.013 C 
ENDBRANCH   7   8
ENDBRANCH   1   7
TORSDOF 2
ENDMDL
