MODEL 1
REMARK minimizedAffinity 12.7517662
REMARK minimizedRMSD -1
REMARK  2 active torsions:
REMARK  status: ('A' for Active; 'I' for Inactive)
REMARK    1  A    between atoms: C2'_3  and  C1'_4 
REMARK    2  A    between atoms: C1'_4  and  C1_5 
ROOT
ATOM      1  C1  I4B d   1       2.275   0.092  -0.409  0.00  0.00    -0.075 A 
ATOM      2  C2  I4B d   1       2.145   0.041   0.956  0.00  0.00     0.003 A 
ATOM      3  C3  I4B d   1       0.913   0.378   1.568  0.00  0.00     0.002 A 
ATOM      4  C4  I4B d   1      -0.140   0.806   0.786  0.00  0.00    -0.004 A 
ATOM      5  C5  I4B d   1      -0.014   0.836  -0.600  0.00  0.00     0.002 A 
ATOM      6  C6  I4B d   1       1.197   0.465  -1.202  0.00  0.00     0.003 A 
ENDROOT
BRANCH   1   7
ATOM      7  C1' I4B d   1       3.599  -0.238  -1.020  0.00  0.00     0.060 C 
BRANCH   7   8
ATOM      8  C2' I4B d   1       4.658   0.581  -0.311  0.00  0.00    -0.013 C 
ATOM      9  C4' I4B d   1       5.999  -0.102  -0.359  0.00  0.00     0.013 C 
ATOM     10  C3' I4B d   1       4.714   1.930  -0.963  0.00  0.00     0.013 C 
ENDBRANCH   7   8
ENDBRANCH   1   7
TORSDOF 2
ENDMDL
