MODEL 1
REMARK minimizedAffinity 11.6409369
REMARK minimizedRMSD -1
REMARK  2 active torsions:
REMARK  status: ('A' for Active; 'I' for Inactive)
REMARK    1  A    between atoms: C2'_3  and  C1'_4 
REMARK    2  A    between atoms: C1'_4  and  C1_5 
ROOT
ATOM      1  C1  I4B d   1       3.099  -0.985  -1.042  0.00  0.00    -0.075 A 
ATOM      2  C2  I4B d   1       2.597  -1.890  -0.141  0.00  0.00     0.003 A 
ATOM      3  C3  I4B d   1       2.268  -3.203  -0.557  0.00  0.00     0.002 A 
ATOM      4  C4  I4B d   1       2.408  -3.550  -1.885  0.00  0.00    -0.004 A 
ATOM      5  C5  I4B d   1       2.939  -2.638  -2.793  0.00  0.00     0.002 A 
ATOM      6  C6  I4B d   1       3.298  -1.351  -2.367  0.00  0.00     0.003 A 
ENDROOT
BRANCH   1   7
ATOM      7  C1' I4B d   1       3.404   0.403  -0.575  0.00  0.00     0.060 C 
BRANCH   7   8
ATOM      8  C2' I4B d   1       4.725   0.821  -1.187  0.00  0.00    -0.013 C 
ATOM      9  C4' I4B d   1       4.858   2.321  -1.226  0.00  0.00     0.013 C 
ATOM     10  C3' I4B d   1       5.827   0.201  -0.381  0.00  0.00     0.013 C 
ENDBRANCH   7   8
ENDBRANCH   1   7
TORSDOF 2
ENDMDL
