MODEL 1
REMARK minimizedAffinity 1.03079176
REMARK minimizedRMSD -1
REMARK  2 active torsions:
REMARK  status: ('A' for Active; 'I' for Inactive)
REMARK    1  A    between atoms: C2'_3  and  C1'_4 
REMARK    2  A    between atoms: C1'_4  and  C1_5 
ROOT
ATOM      1  C1  I4B d   1       4.814  -1.208  -1.837  0.00  0.00    -0.075 A 
ATOM      2  C2  I4B d   1       3.880  -1.656  -0.935  0.00  0.00     0.003 A 
ATOM      3  C3  I4B d   1       3.091  -2.793  -1.232  0.00  0.00     0.002 A 
ATOM      4  C4  I4B d   1       3.232  -3.418  -2.454  0.00  0.00    -0.004 A 
ATOM      5  C5  I4B d   1       4.195  -2.977  -3.357  0.00  0.00     0.002 A 
ATOM      6  C6  I4B d   1       4.999  -1.872  -3.042  0.00  0.00     0.003 A 
ENDROOT
BRANCH   1   7
ATOM      7  C1' I4B d   1       5.607   0.016  -1.505  0.00  0.00     0.060 C 
BRANCH   7   8
ATOM      8  C2' I4B d   1       4.659   1.199  -1.497  0.00  0.00    -0.013 C 
ATOM      9  C4' I4B d   1       3.408   0.890  -0.718  0.00  0.00     0.013 C 
ATOM     10  C3' I4B d   1       5.387   2.372  -0.912  0.00  0.00     0.013 C 
ENDBRANCH   7   8
ENDBRANCH   1   7
TORSDOF 2
ENDMDL
