MODEL 1
REMARK minimizedAffinity 4.28379011
REMARK minimizedRMSD -1
REMARK  2 active torsions:
REMARK  status: ('A' for Active; 'I' for Inactive)
REMARK    1  A    between atoms: C2'_3  and  C1'_4 
REMARK    2  A    between atoms: C1'_4  and  C1_5 
ROOT
ATOM      1  C1  I4B d   1       5.469   3.604   2.779  0.00  0.00    -0.075 A 
ATOM      2  C2  I4B d   1       5.634   3.570   1.417  0.00  0.00     0.003 A 
ATOM      3  C3  I4B d   1       5.920   4.759   0.704  0.00  0.00     0.002 A 
ATOM      4  C4  I4B d   1       5.981   5.960   1.382  0.00  0.00    -0.004 A 
ATOM      5  C5  I4B d   1       5.836   5.989   2.766  0.00  0.00     0.002 A 
ATOM      6  C6  I4B d   1       5.591   4.802   3.471  0.00  0.00     0.003 A 
ENDROOT
BRANCH   1   7
ATOM      7  C1' I4B d   1       5.135   2.334   3.497  0.00  0.00     0.060 C 
BRANCH   7   8
ATOM      8  C2' I4B d   1       3.673   2.390   3.889  0.00  0.00    -0.013 C 
ATOM      9  C4' I4B d   1       3.161   1.029   4.279  0.00  0.00     0.013 C 
ATOM     10  C3' I4B d   1       3.535   3.365   5.021  0.00  0.00     0.013 C 
ENDBRANCH   7   8
ENDBRANCH   1   7
TORSDOF 2
ENDMDL
