MODEL 1
REMARK minimizedAffinity 20.1122704
REMARK minimizedRMSD -1
REMARK  2 active torsions:
REMARK  status: ('A' for Active; 'I' for Inactive)
REMARK    1  A    between atoms: C2'_3  and  C1'_4 
REMARK    2  A    between atoms: C1'_4  and  C1_5 
ROOT
ATOM      1  C1  I4B d   1       3.020  -1.285  -1.317  0.00  0.00    -0.075 A 
ATOM      2  C2  I4B d   1       3.125  -1.012   0.024  0.00  0.00     0.003 A 
ATOM      3  C3  I4B d   1       3.805   0.149   0.464  0.00  0.00     0.002 A 
ATOM      4  C4  I4B d   1       4.405   0.977  -0.462  0.00  0.00    -0.004 A 
ATOM      5  C5  I4B d   1       4.278   0.711  -1.823  0.00  0.00     0.002 A 
ATOM      6  C6  I4B d   1       3.571  -0.420  -2.254  0.00  0.00     0.003 A 
ENDROOT
BRANCH   1   7
ATOM      7  C1' I4B d   1       2.323  -2.538  -1.745  0.00  0.00     0.060 C 
BRANCH   7   8
ATOM      8  C2' I4B d   1       2.186  -2.503  -3.253  0.00  0.00    -0.013 C 
ATOM      9  C4' I4B d   1       3.277  -3.301  -3.918  0.00  0.00     0.013 C 
ATOM     10  C3' I4B d   1       0.831  -3.039  -3.608  0.00  0.00     0.013 C 
ENDBRANCH   7   8
ENDBRANCH   1   7
TORSDOF 2
ENDMDL
