MODEL 1
REMARK minimizedAffinity 1.83946013
REMARK minimizedRMSD -1
REMARK  0 active torsions:
REMARK  status: ('A' for Active; 'I' for Inactive)
ROOT
ATOM      1  N1  IND d   1       2.437  -3.867  -0.129  0.00  0.00    -0.196 N 
ATOM      2  C2  IND d   1       2.265  -4.851   0.804  0.00  0.00     0.054 A 
ATOM      3  C3  IND d   1       1.402  -4.445   1.762  0.00  0.00    -0.031 A 
ATOM      4  C4  IND d   1       0.075  -2.246   1.943  0.00  0.00     0.051 A 
ATOM      5  C5  IND d   1      -0.073  -1.025   1.347  0.00  0.00    -0.031 A 
ATOM      6  C6  IND d   1       0.620  -0.683   0.203  0.00  0.00     0.015 A 
ATOM      7  C7  IND d   1       1.482  -1.557  -0.395  0.00  0.00    -0.016 A 
ATOM      8  C8  IND d   1       1.641  -2.795   0.211  0.00  0.00    -0.047 A 
ATOM      9  C9  IND d   1       0.972  -3.132   1.396  0.00  0.00    -0.096 A 
ATOM     10  HN1 IND d   1       2.956  -3.909  -0.814  0.00  0.00     0.298 HD
ENDROOT
TORSDOF 0
ENDMDL
