MODEL 1
REMARK minimizedAffinity 9.86869812
REMARK minimizedRMSD -1
REMARK  0 active torsions:
REMARK  status: ('A' for Active; 'I' for Inactive)
ROOT
ATOM      1  N1  IND d   1       1.013  -3.191   0.045  0.00  0.00    -0.196 N 
ATOM      2  C2  IND d   1       2.280  -2.951  -0.409  0.00  0.00     0.054 A 
ATOM      3  C3  IND d   1       2.691  -1.721  -0.029  0.00  0.00    -0.031 A 
ATOM      4  C4  IND d   1       1.488   0.028   1.429  0.00  0.00     0.051 A 
ATOM      5  C5  IND d   1       0.295   0.277   2.047  0.00  0.00    -0.031 A 
ATOM      6  C6  IND d   1      -0.739  -0.636   2.032  0.00  0.00     0.015 A 
ATOM      7  C7  IND d   1      -0.615  -1.843   1.405  0.00  0.00    -0.016 A 
ATOM      8  C8  IND d   1       0.593  -2.097   0.770  0.00  0.00    -0.047 A 
ATOM      9  C9  IND d   1       1.630  -1.157   0.745  0.00  0.00    -0.096 A 
ATOM     10  HN1 IND d   1       0.556  -3.905  -0.097  0.00  0.00     0.298 HD
ENDROOT
TORSDOF 0
ENDMDL
