MODEL 1
REMARK minimizedAffinity 6.16970062
REMARK minimizedRMSD -1
REMARK  0 active torsions:
REMARK  status: ('A' for Active; 'I' for Inactive)
ROOT
ATOM      1  N1  IND d   1       2.811  -3.126  -0.520  0.00  0.00    -0.196 N 
ATOM      2  C2  IND d   1       2.693  -4.422  -0.101  0.00  0.00     0.054 A 
ATOM      3  C3  IND d   1       1.722  -4.528   0.834  0.00  0.00    -0.031 A 
ATOM      4  C4  IND d   1       0.133  -2.723   1.753  0.00  0.00     0.051 A 
ATOM      5  C5  IND d   1      -0.118  -1.381   1.700  0.00  0.00    -0.031 A 
ATOM      6  C6  IND d   1       0.607  -0.535   0.886  0.00  0.00     0.015 A 
ATOM      7  C7  IND d   1       1.608  -1.004   0.083  0.00  0.00    -0.016 A 
ATOM      8  C8  IND d   1       1.870  -2.365   0.139  0.00  0.00    -0.047 A 
ATOM      9  C9  IND d   1       1.165  -3.222   0.995  0.00  0.00    -0.096 A 
ATOM     10  HN1 IND d   1       3.378  -2.835  -1.097  0.00  0.00     0.298 HD
ENDROOT
TORSDOF 0
ENDMDL
