MODEL 1
REMARK minimizedAffinity 2.49140787
REMARK minimizedRMSD -1
REMARK  0 active torsions:
REMARK  status: ('A' for Active; 'I' for Inactive)
ROOT
ATOM      1  N1  IND d   1      -0.085  -0.420   0.255  0.00  0.00    -0.196 N 
ATOM      2  C2  IND d   1      -0.205   0.056   1.531  0.00  0.00     0.054 A 
ATOM      3  C3  IND d   1       0.623  -0.614   2.363  0.00  0.00    -0.031 A 
ATOM      4  C4  IND d   1       2.335  -2.460   1.830  0.00  0.00     0.051 A 
ATOM      5  C5  IND d   1       2.781  -3.254   0.810  0.00  0.00    -0.031 A 
ATOM      6  C6  IND d   1       2.287  -3.139  -0.473  0.00  0.00     0.015 A 
ATOM      7  C7  IND d   1       1.331  -2.215  -0.788  0.00  0.00    -0.016 A 
ATOM      8  C8  IND d   1       0.871  -1.412   0.246  0.00  0.00    -0.047 A 
ATOM      9  C9  IND d   1       1.339  -1.553   1.559  0.00  0.00    -0.096 A 
ATOM     10  HN1 IND d   1      -0.532  -0.147  -0.427  0.00  0.00     0.298 HD
ENDROOT
TORSDOF 0
ENDMDL
