MODEL 1
REMARK minimizedAffinity -4.86698771
REMARK minimizedRMSD -1
REMARK  0 active torsions:
REMARK  status: ('A' for Active; 'I' for Inactive)
ROOT
ATOM      1  N1  IND d   1       2.452  -4.208   0.299  0.00  0.00    -0.196 N 
ATOM      2  C2  IND d   1       1.921  -5.100   1.189  0.00  0.00     0.054 A 
ATOM      3  C3  IND d   1       0.967  -4.504   1.940  0.00  0.00    -0.031 A 
ATOM      4  C4  IND d   1       0.047  -2.104   1.811  0.00  0.00     0.051 A 
ATOM      5  C5  IND d   1       0.243  -0.907   1.181  0.00  0.00    -0.031 A 
ATOM      6  C6  IND d   1       1.204  -0.747   0.203  0.00  0.00     0.015 A 
ATOM      7  C7  IND d   1       1.999  -1.785  -0.191  0.00  0.00    -0.016 A 
ATOM      8  C8  IND d   1       1.807  -3.000   0.452  0.00  0.00    -0.047 A 
ATOM      9  C9  IND d   1       0.863  -3.158   1.474  0.00  0.00    -0.096 A 
ATOM     10  HN1 IND d   1       3.083  -4.374  -0.261  0.00  0.00     0.298 HD
ENDROOT
TORSDOF 0
ENDMDL
