MODEL 1
REMARK minimizedAffinity 4.24618578
REMARK minimizedRMSD -1
REMARK  0 active torsions:
REMARK  status: ('A' for Active; 'I' for Inactive)
ROOT
ATOM      1  N1  IND d   1       0.351  -3.864   1.159  0.00  0.00    -0.196 N 
ATOM      2  C2  IND d   1       1.585  -3.981   0.583  0.00  0.00     0.054 A 
ATOM      3  C3  IND d   1       2.129  -2.760   0.382  0.00  0.00    -0.031 A 
ATOM      4  C4  IND d   1       1.214  -0.438   1.016  0.00  0.00     0.051 A 
ATOM      5  C5  IND d   1       0.109   0.181   1.529  0.00  0.00    -0.031 A 
ATOM      6  C6  IND d   1      -0.993  -0.532   1.956  0.00  0.00     0.015 A 
ATOM      7  C7  IND d   1      -1.027  -1.896   1.896  0.00  0.00    -0.016 A 
ATOM      8  C8  IND d   1       0.091  -2.527   1.369  0.00  0.00    -0.047 A 
ATOM      9  C9  IND d   1       1.195  -1.808   0.895  0.00  0.00    -0.096 A 
ATOM     10  HN1 IND d   1      -0.175  -4.515   1.356  0.00  0.00     0.298 HD
ENDROOT
TORSDOF 0
ENDMDL
