MODEL 1
REMARK minimizedAffinity 1.31834126
REMARK minimizedRMSD -1
REMARK  0 active torsions:
REMARK  status: ('A' for Active; 'I' for Inactive)
ROOT
ATOM      1  N1  IND d   1      -0.237  -2.090   2.447  0.00  0.00    -0.196 N 
ATOM      2  C2  IND d   1      -0.713  -0.874   2.043  0.00  0.00     0.054 A 
ATOM      3  C3  IND d   1      -0.027  -0.436   0.963  0.00  0.00    -0.031 A 
ATOM      4  C4  IND d   1       1.847  -1.597  -0.366  0.00  0.00     0.051 A 
ATOM      5  C5  IND d   1       2.645  -2.706  -0.357  0.00  0.00    -0.031 A 
ATOM      6  C6  IND d   1       2.520  -3.687   0.604  0.00  0.00     0.015 A 
ATOM      7  C7  IND d   1       1.579  -3.602   1.591  0.00  0.00    -0.016 A 
ATOM      8  C8  IND d   1       0.771  -2.473   1.590  0.00  0.00    -0.047 A 
ATOM      9  C9  IND d   1       0.922  -1.454   0.641  0.00  0.00    -0.096 A 
ATOM     10  HN1 IND d   1      -0.519  -2.540   3.123  0.00  0.00     0.298 HD
ENDROOT
TORSDOF 0
ENDMDL
