MODEL 1
REMARK minimizedAffinity 4.63459682
REMARK minimizedRMSD -1
REMARK  0 active torsions:
REMARK  status: ('A' for Active; 'I' for Inactive)
ROOT
ATOM      1  N1  IND d   1       1.648  -4.080   0.218  0.00  0.00    -0.196 N 
ATOM      2  C2  IND d   1       2.549  -3.208  -0.328  0.00  0.00     0.054 A 
ATOM      3  C3  IND d   1       2.194  -1.933  -0.055  0.00  0.00    -0.031 A 
ATOM      4  C4  IND d   1       0.232  -1.048   1.358  0.00  0.00     0.051 A 
ATOM      5  C5  IND d   1      -0.882  -1.462   2.032  0.00  0.00    -0.031 A 
ATOM      6  C6  IND d   1      -1.216  -2.797   2.140  0.00  0.00     0.015 A 
ATOM      7  C7  IND d   1      -0.437  -3.772   1.586  0.00  0.00    -0.016 A 
ATOM      8  C8  IND d   1       0.692  -3.356   0.894  0.00  0.00    -0.047 A 
ATOM      9  C9  IND d   1       1.012  -2.000   0.745  0.00  0.00    -0.096 A 
ATOM     10  HN1 IND d   1       1.675  -4.937   0.150  0.00  0.00     0.298 HD
ENDROOT
TORSDOF 0
ENDMDL
