MODEL 1
REMARK minimizedAffinity 3.67736244
REMARK minimizedRMSD -1
REMARK  0 active torsions:
REMARK  status: ('A' for Active; 'I' for Inactive)
ROOT
ATOM      1  N1  IND d   1       0.880  -5.165   1.376  0.00  0.00    -0.196 N 
ATOM      2  C2  IND d   1       2.039  -4.917   0.695  0.00  0.00     0.054 A 
ATOM      3  C3  IND d   1       2.205  -3.587   0.518  0.00  0.00    -0.031 A 
ATOM      4  C4  IND d   1       0.754  -1.632   1.353  0.00  0.00     0.051 A 
ATOM      5  C5  IND d   1      -0.425  -1.361   1.990  0.00  0.00    -0.031 A 
ATOM      6  C6  IND d   1      -1.244  -2.364   2.466  0.00  0.00     0.015 A 
ATOM      7  C7  IND d   1      -0.908  -3.681   2.333  0.00  0.00    -0.016 A 
ATOM      8  C8  IND d   1       0.285  -3.961   1.681  0.00  0.00    -0.047 A 
ATOM      9  C9  IND d   1       1.099  -2.948   1.158  0.00  0.00    -0.096 A 
ATOM     10  HN1 IND d   1       0.574  -5.942   1.580  0.00  0.00     0.298 HD
ENDROOT
TORSDOF 0
ENDMDL
