MODEL 1
REMARK minimizedAffinity -2.23234558
REMARK minimizedRMSD -1
REMARK  0 active torsions:
REMARK  status: ('A' for Active; 'I' for Inactive)
ROOT
ATOM      1  N1  IND d   1      -0.045  -2.234   2.300  0.00  0.00    -0.196 N 
ATOM      2  C2  IND d   1      -0.508  -0.993   1.962  0.00  0.00     0.054 A 
ATOM      3  C3  IND d   1       0.110  -0.548   0.846  0.00  0.00    -0.031 A 
ATOM      4  C4  IND d   1       1.840  -1.731  -0.648  0.00  0.00     0.051 A 
ATOM      5  C5  IND d   1       2.600  -2.865  -0.727  0.00  0.00    -0.031 A 
ATOM      6  C6  IND d   1       2.512  -3.868   0.217  0.00  0.00     0.015 A 
ATOM      7  C7  IND d   1       1.650  -3.779   1.273  0.00  0.00    -0.016 A 
ATOM      8  C8  IND d   1       0.883  -2.626   1.360  0.00  0.00    -0.047 A 
ATOM      9  C9  IND d   1       0.998  -1.586   0.429  0.00  0.00    -0.096 A 
ATOM     10  HN1 IND d   1      -0.292  -2.693   2.984  0.00  0.00     0.298 HD
ENDROOT
TORSDOF 0
ENDMDL
