MODEL 1
REMARK minimizedAffinity 3.28197336
REMARK minimizedRMSD -1
REMARK  0 active torsions:
REMARK  status: ('A' for Active; 'I' for Inactive)
ROOT
ATOM      1  N1  IND d   1      -2.342  -2.591  -5.645  0.00  0.00    -0.196 N 
ATOM      2  C2  IND d   1      -1.533  -1.500  -5.801  0.00  0.00     0.054 A 
ATOM      3  C3  IND d   1      -2.277  -0.387  -5.995  0.00  0.00    -0.031 A 
ATOM      4  C4  IND d   1      -4.836  -0.109  -5.993  0.00  0.00     0.051 A 
ATOM      5  C5  IND d   1      -5.997  -0.827  -5.926  0.00  0.00    -0.031 A 
ATOM      6  C6  IND d   1      -6.000  -2.196  -5.756  0.00  0.00     0.015 A 
ATOM      7  C7  IND d   1      -4.835  -2.901  -5.635  0.00  0.00    -0.016 A 
ATOM      8  C8  IND d   1      -3.654  -2.177  -5.709  0.00  0.00    -0.047 A 
ATOM      9  C9  IND d   1      -3.645  -0.792  -5.924  0.00  0.00    -0.096 A 
ATOM     10  HN1 IND d   1      -2.075  -3.400  -5.527  0.00  0.00     0.298 HD
ENDROOT
TORSDOF 0
ENDMDL
