MODEL 1
REMARK minimizedAffinity 7.17521524
REMARK minimizedRMSD -1
REMARK  0 active torsions:
REMARK  status: ('A' for Active; 'I' for Inactive)
ROOT
ATOM      1  C   UNL d   1      -3.533   0.932   1.026  0.00  0.00     0.023 A 
ATOM      2  C1  UNL d   1      -4.429   0.323   0.148  0.00  0.00     0.003 A 
ATOM      3  C2  UNL d   1      -4.003  -0.079  -1.119  0.00  0.00     0.048 A 
ATOM      4  C3  UNL d   1      -2.678   0.129  -1.501  0.00  0.00     0.023 A 
ATOM      5  C4  UNL d   1      -1.777   0.737  -0.625  0.00  0.00     0.048 A 
ATOM      6  C5  UNL d   1      -2.209   1.138   0.640  0.00  0.00     0.003 A 
ATOM      7  I   UNL d   1      -2.040  -0.469  -3.387  0.00  0.00    -0.146 I 
ENDROOT
TORSDOF 0
ENDMDL
