MODEL 1
REMARK minimizedAffinity 6.78404236
REMARK minimizedRMSD -1
REMARK  0 active torsions:
REMARK  status: ('A' for Active; 'I' for Inactive)
ROOT
ATOM      1  C   UNL d   1      -3.370  -0.600  -1.363  0.00  0.00     0.023 A 
ATOM      2  C1  UNL d   1      -4.595  -0.293  -0.772  0.00  0.00     0.003 A 
ATOM      3  C2  UNL d   1      -4.681   0.743   0.161  0.00  0.00     0.048 A 
ATOM      4  C3  UNL d   1      -3.538   1.467   0.497  0.00  0.00     0.023 A 
ATOM      5  C4  UNL d   1      -2.310   1.163  -0.093  0.00  0.00     0.048 A 
ATOM      6  C5  UNL d   1      -2.229   0.127  -1.025  0.00  0.00     0.003 A 
ATOM      7  I   UNL d   1      -3.663   3.009   1.885  0.00  0.00    -0.146 I 
ENDROOT
TORSDOF 0
ENDMDL
