MODEL 1
REMARK minimizedAffinity 2.70377135
REMARK minimizedRMSD -1
REMARK  0 active torsions:
REMARK  status: ('A' for Active; 'I' for Inactive)
ROOT
ATOM      1  C   UNL d   1       2.680  -3.703  -1.615  0.00  0.00     0.023 A 
ATOM      2  C1  UNL d   1       2.659  -3.307  -0.278  0.00  0.00     0.003 A 
ATOM      3  C2  UNL d   1       3.009  -2.000   0.070  0.00  0.00     0.048 A 
ATOM      4  C3  UNL d   1       3.379  -1.096  -0.925  0.00  0.00     0.023 A 
ATOM      5  C4  UNL d   1       3.400  -1.488  -2.264  0.00  0.00     0.048 A 
ATOM      6  C5  UNL d   1       3.050  -2.795  -2.607  0.00  0.00     0.003 A 
ATOM      7  I   UNL d   1       3.900   0.849  -0.410  0.00  0.00    -0.146 I 
ENDROOT
TORSDOF 0
ENDMDL
