MODEL 1
REMARK minimizedAffinity 4.23618317
REMARK minimizedRMSD -1
REMARK  0 active torsions:
REMARK  status: ('A' for Active; 'I' for Inactive)
ROOT
ATOM      1  C   UNL d   1       3.374  -0.080  -0.827  0.00  0.00     0.023 A 
ATOM      2  C1  UNL d   1       4.529   0.052  -1.598  0.00  0.00     0.003 A 
ATOM      3  C2  UNL d   1       5.282   1.226  -1.534  0.00  0.00     0.048 A 
ATOM      4  C3  UNL d   1       4.874   2.264  -0.697  0.00  0.00     0.023 A 
ATOM      5  C4  UNL d   1       3.720   2.136   0.076  0.00  0.00     0.048 A 
ATOM      6  C5  UNL d   1       2.970   0.961   0.009  0.00  0.00     0.003 A 
ATOM      7  I   UNL d   1       5.993   4.013  -0.601  0.00  0.00    -0.146 I 
ENDROOT
TORSDOF 0
ENDMDL
