MODEL 1
REMARK minimizedAffinity 3.43934107
REMARK minimizedRMSD -1
REMARK  0 active torsions:
REMARK  status: ('A' for Active; 'I' for Inactive)
ROOT
ATOM      1  C   UNL d   1       0.859   5.702   4.553  0.00  0.00     0.023 A 
ATOM      2  C1  UNL d   1       2.104   5.580   3.936  0.00  0.00     0.003 A 
ATOM      3  C2  UNL d   1       2.996   4.588   4.349  0.00  0.00     0.048 A 
ATOM      4  C3  UNL d   1       2.635   3.721   5.380  0.00  0.00     0.023 A 
ATOM      5  C4  UNL d   1       1.390   3.838   6.000  0.00  0.00     0.048 A 
ATOM      6  C5  UNL d   1       0.502   4.832   5.583  0.00  0.00     0.003 A 
ATOM      7  I   UNL d   1       3.960   2.243   5.997  0.00  0.00    -0.146 I 
ENDROOT
TORSDOF 0
ENDMDL
