MODEL 1
REMARK minimizedAffinity 8.98556995
REMARK minimizedRMSD -1
REMARK  0 active torsions:
REMARK  status: ('A' for Active; 'I' for Inactive)
ROOT
ATOM      1  C   UNL d   1       1.912   0.368   0.161  0.00  0.00     0.023 A 
ATOM      2  C1  UNL d   1       2.043   1.489   0.981  0.00  0.00     0.003 A 
ATOM      3  C2  UNL d   1       3.216   2.247   0.948  0.00  0.00     0.048 A 
ATOM      4  C3  UNL d   1       4.253   1.878   0.092  0.00  0.00     0.023 A 
ATOM      5  C4  UNL d   1       4.126   0.757  -0.730  0.00  0.00     0.048 A 
ATOM      6  C5  UNL d   1       2.952   0.003  -0.693  0.00  0.00     0.003 A 
ATOM      7  I   UNL d   1       6.000   3.003   0.041  0.00  0.00    -0.146 I 
ENDROOT
TORSDOF 0
ENDMDL
