MODEL 1
REMARK minimizedAffinity 0.372361243
REMARK minimizedRMSD -1
REMARK  0 active torsions:
REMARK  status: ('A' for Active; 'I' for Inactive)
ROOT
ATOM      1  C   UNL d   1       5.265   2.922   1.124  0.00  0.00     0.023 A 
ATOM      2  C1  UNL d   1       3.882   2.959   0.951  0.00  0.00     0.003 A 
ATOM      3  C2  UNL d   1       3.230   1.909   0.301  0.00  0.00     0.048 A 
ATOM      4  C3  UNL d   1       3.967   0.824  -0.172  0.00  0.00     0.023 A 
ATOM      5  C4  UNL d   1       5.352   0.783  -0.001  0.00  0.00     0.048 A 
ATOM      6  C5  UNL d   1       6.000   1.835   0.649  0.00  0.00     0.003 A 
ATOM      7  I   UNL d   1       2.999  -0.740  -1.140  0.00  0.00    -0.146 I 
ENDROOT
TORSDOF 0
ENDMDL
