MODEL 1
REMARK minimizedAffinity 8.00270271
REMARK minimizedRMSD -1
REMARK  0 active torsions:
REMARK  status: ('A' for Active; 'I' for Inactive)
ROOT
ATOM      1  C   UNL d   1      -3.318   0.404  -5.358  0.00  0.00     0.023 A 
ATOM      2  C1  UNL d   1      -2.426  -0.023  -4.374  0.00  0.00     0.003 A 
ATOM      3  C2  UNL d   1      -2.867  -0.208  -3.062  0.00  0.00     0.048 A 
ATOM      4  C3  UNL d   1      -4.202   0.036  -2.741  0.00  0.00     0.023 A 
ATOM      5  C4  UNL d   1      -5.099   0.463  -3.722  0.00  0.00     0.048 A 
ATOM      6  C5  UNL d   1      -4.653   0.647  -5.032  0.00  0.00     0.003 A 
ATOM      7  I   UNL d   1      -4.861  -0.238  -0.789  0.00  0.00    -0.146 I 
ENDROOT
TORSDOF 0
ENDMDL
