MODEL 1
REMARK minimizedAffinity -0.368972629
REMARK minimizedRMSD -1
REMARK  0 active torsions:
REMARK  status: ('A' for Active; 'I' for Inactive)
ROOT
ATOM      1  C   UNL d   1       3.041  -0.733  -1.404  0.00  0.00     0.023 A 
ATOM      2  C1  UNL d   1       3.343  -0.863  -0.048  0.00  0.00     0.003 A 
ATOM      3  C2  UNL d   1       4.069   0.135   0.606  0.00  0.00     0.048 A 
ATOM      4  C3  UNL d   1       4.489   1.260  -0.102  0.00  0.00     0.023 A 
ATOM      5  C4  UNL d   1       4.189   1.395  -1.459  0.00  0.00     0.048 A 
ATOM      6  C5  UNL d   1       3.463   0.394  -2.108  0.00  0.00     0.003 A 
ATOM      7  I   UNL d   1       5.570   2.747   0.869  0.00  0.00    -0.146 I 
ENDROOT
TORSDOF 0
ENDMDL
