MODEL 1
REMARK minimizedAffinity 2.18616581
REMARK minimizedRMSD -1
REMARK  0 active torsions:
REMARK  status: ('A' for Active; 'I' for Inactive)
ROOT
ATOM      1  C   UNL d   1       4.559   1.828   1.222  0.00  0.00     0.023 A 
ATOM      2  C1  UNL d   1       3.300   1.899   0.626  0.00  0.00     0.003 A 
ATOM      3  C2  UNL d   1       2.908   0.929  -0.298  0.00  0.00     0.048 A 
ATOM      4  C3  UNL d   1       3.780  -0.110  -0.622  0.00  0.00     0.023 A 
ATOM      5  C4  UNL d   1       5.041  -0.186  -0.028  0.00  0.00     0.048 A 
ATOM      6  C5  UNL d   1       5.429   0.787   0.895  0.00  0.00     0.003 A 
ATOM      7  I   UNL d   1       3.198  -1.556  -1.998  0.00  0.00    -0.146 I 
ENDROOT
TORSDOF 0
ENDMDL
