MODEL 1
REMARK minimizedAffinity 13.3590355
REMARK minimizedRMSD -1
REMARK  0 active torsions:
REMARK  status: ('A' for Active; 'I' for Inactive)
ROOT
ATOM      1  C   UNL d   1      -4.719   1.122   0.753  0.00  0.00     0.023 A 
ATOM      2  C1  UNL d   1      -4.177   2.401   0.626  0.00  0.00     0.003 A 
ATOM      3  C2  UNL d   1      -4.542   3.212  -0.451  0.00  0.00     0.048 A 
ATOM      4  C3  UNL d   1      -5.451   2.738  -1.396  0.00  0.00     0.023 A 
ATOM      5  C4  UNL d   1      -5.998   1.460  -1.272  0.00  0.00     0.048 A 
ATOM      6  C5  UNL d   1      -5.629   0.652  -0.195  0.00  0.00     0.003 A 
ATOM      7  I   UNL d   1      -5.997   3.943  -2.999  0.00  0.00    -0.146 I 
ENDROOT
TORSDOF 0
ENDMDL
