MODEL 1
REMARK minimizedAffinity 3.8956008
REMARK minimizedRMSD -1
REMARK  0 active torsions:
REMARK  status: ('A' for Active; 'I' for Inactive)
ROOT
ATOM      1  C   UNL d   1       1.000   5.836   5.903  0.00  0.00     0.023 A 
ATOM      2  C1  UNL d   1       2.384   6.000   5.850  0.00  0.00     0.003 A 
ATOM      3  C2  UNL d   1       3.222   4.883   5.873  0.00  0.00     0.048 A 
ATOM      4  C3  UNL d   1       2.669   3.605   5.948  0.00  0.00     0.023 A 
ATOM      5  C4  UNL d   1       1.285   3.436   6.000  0.00  0.00     0.048 A 
ATOM      6  C5  UNL d   1       0.451   4.556   5.978  0.00  0.00     0.003 A 
ATOM      7  I   UNL d   1       3.915   1.942   5.982  0.00  0.00    -0.146 I 
ENDROOT
TORSDOF 0
ENDMDL
