MODEL 1
REMARK minimizedAffinity 19.2452507
REMARK minimizedRMSD -1
REMARK  2 active torsions:
REMARK  status: ('A' for Active; 'I' for Inactive)
REMARK    1  A    between atoms: C2'_3  and  C1'_4 
REMARK    2  A    between atoms: C1'_4  and  C1_5 
ROOT
ATOM      1  C1  I4B d   1       3.161   4.523   2.015  0.00  0.00    -0.075 A 
ATOM      2  C2  I4B d   1       3.067   4.130   0.703  0.00  0.00     0.003 A 
ATOM      3  C3  I4B d   1       3.950   4.665  -0.266  0.00  0.00     0.002 A 
ATOM      4  C4  I4B d   1       4.873   5.620   0.109  0.00  0.00    -0.004 A 
ATOM      5  C5  I4B d   1       4.982   6.000   1.444  0.00  0.00     0.002 A 
ATOM      6  C6  I4B d   1       4.129   5.438   2.406  0.00  0.00     0.003 A 
ENDROOT
BRANCH   1   7
ATOM      7  C1' I4B d   1       2.190   3.962   3.006  0.00  0.00     0.060 C 
BRANCH   7   8
ATOM      8  C2' I4B d   1       2.486   2.485   3.166  0.00  0.00    -0.013 C 
ATOM      9  C4' I4B d   1       3.760   2.265   3.939  0.00  0.00     0.013 C 
ATOM     10  C3' I4B d   1       1.317   1.850   3.856  0.00  0.00     0.013 C 
ENDBRANCH   7   8
ENDBRANCH   1   7
TORSDOF 2
ENDMDL
