MODEL 1
REMARK minimizedAffinity 0.466953278
REMARK minimizedRMSD -1
REMARK  2 active torsions:
REMARK  status: ('A' for Active; 'I' for Inactive)
REMARK    1  A    between atoms: C2'_3  and  C1'_4 
REMARK    2  A    between atoms: C1'_4  and  C1_5 
ROOT
ATOM      1  C1  I4B d   1       3.018  -0.073  -0.496  0.00  0.00    -0.075 A 
ATOM      2  C2  I4B d   1       2.623  -0.674  -1.665  0.00  0.00     0.003 A 
ATOM      3  C3  I4B d   1       1.829  -1.846  -1.632  0.00  0.00     0.002 A 
ATOM      4  C4  I4B d   1       1.497  -2.408  -0.416  0.00  0.00    -0.004 A 
ATOM      5  C5  I4B d   1       1.879  -1.785   0.769  0.00  0.00     0.002 A 
ATOM      6  C6  I4B d   1       2.634  -0.603   0.729  0.00  0.00     0.003 A 
ENDROOT
BRANCH   1   7
ATOM      7  C1' I4B d   1       3.883   1.145  -0.568  0.00  0.00     0.060 C 
BRANCH   7   8
ATOM      8  C2' I4B d   1       4.785   1.149   0.650  0.00  0.00    -0.013 C 
ATOM      9  C4' I4B d   1       5.656  -0.079   0.688  0.00  0.00     0.013 C 
ATOM     10  C3' I4B d   1       5.613   2.399   0.608  0.00  0.00     0.013 C 
ENDBRANCH   7   8
ENDBRANCH   1   7
TORSDOF 2
ENDMDL
