MODEL 1
REMARK minimizedAffinity 2.93003464
REMARK minimizedRMSD -1
REMARK  2 active torsions:
REMARK  status: ('A' for Active; 'I' for Inactive)
REMARK    1  A    between atoms: C2'_3  and  C1'_4 
REMARK    2  A    between atoms: C1'_4  and  C1_5 
ROOT
ATOM      1  C1  I4B d   1       1.557  -1.092   0.560  0.00  0.00    -0.075 A 
ATOM      2  C2  I4B d   1       2.182  -2.202   0.048  0.00  0.00     0.003 A 
ATOM      3  C3  I4B d   1       3.285  -2.059  -0.827  0.00  0.00     0.002 A 
ATOM      4  C4  I4B d   1       3.696  -0.796  -1.202  0.00  0.00    -0.004 A 
ATOM      5  C5  I4B d   1       3.076   0.328  -0.664  0.00  0.00     0.002 A 
ATOM      6  C6  I4B d   1       2.007   0.180   0.232  0.00  0.00     0.003 A 
ENDROOT
BRANCH   1   7
ATOM      7  C1' I4B d   1       0.374  -1.280   1.456  0.00  0.00     0.060 C 
BRANCH   7   8
ATOM      8  C2' I4B d   1       0.879  -1.390   2.880  0.00  0.00    -0.013 C 
ATOM      9  C4' I4B d   1       1.331  -0.052   3.402  0.00  0.00     0.013 C 
ATOM     10  C3' I4B d   1      -0.226  -1.954   3.721  0.00  0.00     0.013 C 
ENDBRANCH   7   8
ENDBRANCH   1   7
TORSDOF 2
ENDMDL
