MODEL 1
REMARK minimizedAffinity 8.21210003
REMARK minimizedRMSD -1
REMARK  2 active torsions:
REMARK  status: ('A' for Active; 'I' for Inactive)
REMARK    1  A    between atoms: C2'_3  and  C1'_4 
REMARK    2  A    between atoms: C1'_4  and  C1_5 
ROOT
ATOM      1  C1  I4B d   1       3.147   1.192  -0.433  0.00  0.00    -0.075 A 
ATOM      2  C2  I4B d   1       3.377   2.098   0.573  0.00  0.00     0.003 A 
ATOM      3  C3  I4B d   1       4.457   3.008   0.480  0.00  0.00     0.002 A 
ATOM      4  C4  I4B d   1       5.307   2.945  -0.606  0.00  0.00    -0.004 A 
ATOM      5  C5  I4B d   1       5.059   2.042  -1.635  0.00  0.00     0.002 A 
ATOM      6  C6  I4B d   1       3.965   1.168  -1.555  0.00  0.00     0.003 A 
ENDROOT
BRANCH   1   7
ATOM      7  C1' I4B d   1       2.017   0.223  -0.287  0.00  0.00     0.060 C 
BRANCH   7   8
ATOM      8  C2' I4B d   1       2.606  -1.138   0.020  0.00  0.00    -0.013 C 
ATOM      9  C4' I4B d   1       2.110  -1.662   1.342  0.00  0.00     0.013 C 
ATOM     10  C3' I4B d   1       2.240  -2.064  -1.101  0.00  0.00     0.013 C 
ENDBRANCH   7   8
ENDBRANCH   1   7
TORSDOF 2
ENDMDL
