MODEL 1
REMARK minimizedAffinity 6.44981289
REMARK minimizedRMSD -1
REMARK  2 active torsions:
REMARK  status: ('A' for Active; 'I' for Inactive)
REMARK    1  A    between atoms: C2'_3  and  C1'_4 
REMARK    2  A    between atoms: C1'_4  and  C1_5 
ROOT
ATOM      1  C1  I4B d   1       3.432   1.369  -0.349  0.00  0.00    -0.075 A 
ATOM      2  C2  I4B d   1       3.824   2.138   0.718  0.00  0.00     0.003 A 
ATOM      3  C3  I4B d   1       4.916   3.031   0.591  0.00  0.00     0.002 A 
ATOM      4  C4  I4B d   1       5.613   3.086  -0.598  0.00  0.00    -0.004 A 
ATOM      5  C5  I4B d   1       5.200   2.323  -1.687  0.00  0.00     0.002 A 
ATOM      6  C6  I4B d   1       4.095   1.468  -1.566  0.00  0.00     0.003 A 
ENDROOT
BRANCH   1   7
ATOM      7  C1' I4B d   1       2.297   0.412  -0.170  0.00  0.00     0.060 C 
BRANCH   7   8
ATOM      8  C2' I4B d   1       2.848  -0.994  -0.288  0.00  0.00    -0.013 C 
ATOM      9  C4' I4B d   1       2.608  -1.781   0.974  0.00  0.00     0.013 C 
ATOM     10  C3' I4B d   1       2.195  -1.650  -1.468  0.00  0.00     0.013 C 
ENDBRANCH   7   8
ENDBRANCH   1   7
TORSDOF 2
ENDMDL
