MODEL 1
REMARK minimizedAffinity -6.39685059
REMARK minimizedRMSD -1
REMARK  0 active torsions:
REMARK  status: ('A' for Active; 'I' for Inactive)
ROOT
ATOM      1  O1  BZF d   1       1.438  -0.941  -0.058  0.00  0.00    -0.204 OA
ATOM      2  C2  BZF d   1       1.235  -1.511   1.184  0.00  0.00     0.174 A 
ATOM      3  C3  BZF d   1      -0.082  -1.675   1.426  0.00  0.00    -0.012 A 
ATOM      4  C3A BZF d   1      -0.739  -1.263   0.224  0.00  0.00    -0.107 A 
ATOM      5  C4  BZF d   1      -2.049  -1.209  -0.159  0.00  0.00     0.055 A 
ATOM      6  C5  BZF d   1      -2.361  -0.687  -1.374  0.00  0.00    -0.016 A 
ATOM      7  C6  BZF d   1      -1.391  -0.205  -2.229  0.00  0.00     0.022 A 
ATOM      8  C7  BZF d   1      -0.078  -0.242  -1.895  0.00  0.00     0.029 A 
ATOM      9  C7A BZF d   1       0.243  -0.799  -0.681  0.00  0.00     0.058 A 
ENDROOT
TORSDOF 0
ENDMDL
