MODEL 1
REMARK minimizedAffinity -3.07031918
REMARK minimizedRMSD -1
REMARK  0 active torsions:
REMARK  status: ('A' for Active; 'I' for Inactive)
ROOT
ATOM      1  O1  BZF d   1      -2.465  -1.143  -1.417  0.00  0.00    -0.204 OA
ATOM      2  C2  BZF d   1      -3.365  -1.364  -0.393  0.00  0.00     0.174 A 
ATOM      3  C3  BZF d   1      -2.831  -1.019   0.796  0.00  0.00    -0.012 A 
ATOM      4  C3A BZF d   1      -1.547  -0.467   0.486  0.00  0.00    -0.107 A 
ATOM      5  C4  BZF d   1      -0.547   0.067   1.247  0.00  0.00     0.055 A 
ATOM      6  C5  BZF d   1       0.610   0.449   0.643  0.00  0.00    -0.016 A 
ATOM      7  C6  BZF d   1       0.801   0.306  -0.716  0.00  0.00     0.022 A 
ATOM      8  C7  BZF d   1      -0.165  -0.214  -1.512  0.00  0.00     0.029 A 
ATOM      9  C7A BZF d   1      -1.347  -0.570  -0.910  0.00  0.00     0.058 A 
ENDROOT
TORSDOF 0
ENDMDL
