MODEL 1
REMARK minimizedAffinity -1.98745525
REMARK minimizedRMSD -1
REMARK  0 active torsions:
REMARK  status: ('A' for Active; 'I' for Inactive)
ROOT
ATOM      1  O1  BZF d   1      -0.125  -0.625   1.113  0.00  0.00    -0.204 OA
ATOM      2  C2  BZF d   1       1.080  -0.070   0.725  0.00  0.00     0.174 A 
ATOM      3  C3  BZF d   1       1.017   0.367  -0.549  0.00  0.00    -0.012 A 
ATOM      4  C3A BZF d   1      -0.338   0.152  -0.954  0.00  0.00    -0.107 A 
ATOM      5  C4  BZF d   1      -1.022   0.398  -2.110  0.00  0.00     0.055 A 
ATOM      6  C5  BZF d   1      -2.318   0.001  -2.208  0.00  0.00    -0.016 A 
ATOM      7  C6  BZF d   1      -2.958  -0.649  -1.173  0.00  0.00     0.022 A 
ATOM      8  C7  BZF d   1      -2.322  -0.911  -0.005  0.00  0.00     0.029 A 
ATOM      9  C7A BZF d   1      -1.023  -0.481   0.109  0.00  0.00     0.058 A 
ENDROOT
TORSDOF 0
ENDMDL
