MODEL 1
REMARK minimizedAffinity -2.69438982
REMARK minimizedRMSD -1
REMARK  0 active torsions:
REMARK  status: ('A' for Active; 'I' for Inactive)
ROOT
ATOM      1  O1  BZF d   1       0.940  -0.667   0.367  0.00  0.00    -0.204 OA
ATOM      2  C2  BZF d   1       0.520  -1.455   1.421  0.00  0.00     0.174 A 
ATOM      3  C3  BZF d   1      -0.712  -1.951   1.187  0.00  0.00    -0.012 A 
ATOM      4  C3A BZF d   1      -1.048  -1.515  -0.134  0.00  0.00    -0.107 A 
ATOM      5  C4  BZF d   1      -2.138  -1.702  -0.935  0.00  0.00     0.055 A 
ATOM      6  C5  BZF d   1      -2.184  -1.081  -2.143  0.00  0.00    -0.016 A 
ATOM      7  C6  BZF d   1      -1.161  -0.263  -2.578  0.00  0.00     0.022 A 
ATOM      8  C7  BZF d   1      -0.058  -0.052  -1.821  0.00  0.00     0.029 A 
ATOM      9  C7A BZF d   1       0.006  -0.704  -0.614  0.00  0.00     0.058 A 
ENDROOT
TORSDOF 0
ENDMDL
