MODEL 1
REMARK minimizedAffinity -2.38322139
REMARK minimizedRMSD -1
REMARK  0 active torsions:
REMARK  status: ('A' for Active; 'I' for Inactive)
ROOT
ATOM      1  O1  BZF d   1      -0.639   0.495  -1.390  0.00  0.00    -0.204 OA
ATOM      2  C2  BZF d   1      -0.359   0.865  -0.089  0.00  0.00     0.174 A 
ATOM      3  C3  BZF d   1      -0.922   0.006   0.785  0.00  0.00    -0.012 A 
ATOM      4  C3A BZF d   1      -1.518  -1.014  -0.023  0.00  0.00    -0.107 A 
ATOM      5  C4  BZF d   1      -2.214  -2.153   0.266  0.00  0.00     0.055 A 
ATOM      6  C5  BZF d   1      -2.723  -2.893  -0.754  0.00  0.00    -0.016 A 
ATOM      7  C6  BZF d   1      -2.561  -2.520  -2.072  0.00  0.00     0.022 A 
ATOM      8  C7  BZF d   1      -1.874  -1.401  -2.408  0.00  0.00     0.029 A 
ATOM      9  C7A BZF d   1      -1.330  -0.669  -1.381  0.00  0.00     0.058 A 
ENDROOT
TORSDOF 0
ENDMDL
