MODEL 1
REMARK minimizedAffinity -3.92627192
REMARK minimizedRMSD -1
REMARK  0 active torsions:
REMARK  status: ('A' for Active; 'I' for Inactive)
ROOT
ATOM      1  O1  BZF d   1       0.615  -0.057  -1.109  0.00  0.00    -0.204 OA
ATOM      2  C2  BZF d   1       0.149   0.231  -2.377  0.00  0.00     0.174 A 
ATOM      3  C3  BZF d   1      -1.191   0.096  -2.436  0.00  0.00    -0.012 A 
ATOM      4  C3A BZF d   1      -1.598  -0.211  -1.099  0.00  0.00    -0.107 A 
ATOM      5  C4  BZF d   1      -2.811  -0.443  -0.517  0.00  0.00     0.055 A 
ATOM      6  C5  BZF d   1      -2.858  -0.788   0.797  0.00  0.00    -0.016 A 
ATOM      7  C6  BZF d   1      -1.713  -0.915   1.556  0.00  0.00     0.022 A 
ATOM      8  C7  BZF d   1      -0.487  -0.690   1.023  0.00  0.00     0.029 A 
ATOM      9  C7A BZF d   1      -0.439  -0.309  -0.296  0.00  0.00     0.058 A 
ENDROOT
TORSDOF 0
ENDMDL
