MODEL 1
REMARK minimizedAffinity -3.57193708
REMARK minimizedRMSD -1
REMARK  0 active torsions:
REMARK  status: ('A' for Active; 'I' for Inactive)
ROOT
ATOM      1  O1  BZF d   1       1.364  -1.118   0.848  0.00  0.00    -0.204 OA
ATOM      2  C2  BZF d   1       0.793  -2.047   1.695  0.00  0.00     0.174 A 
ATOM      3  C3  BZF d   1      -0.499  -2.259   1.372  0.00  0.00    -0.012 A 
ATOM      4  C3A BZF d   1      -0.725  -1.478   0.195  0.00  0.00    -0.107 A 
ATOM      5  C4  BZF d   1      -1.812  -1.285  -0.610  0.00  0.00     0.055 A 
ATOM      6  C5  BZF d   1      -1.724  -0.402  -1.638  0.00  0.00    -0.016 A 
ATOM      7  C6  BZF d   1      -0.568   0.310  -1.887  0.00  0.00     0.022 A 
ATOM      8  C7  BZF d   1       0.537   0.149  -1.119  0.00  0.00     0.029 A 
ATOM      9  C7A BZF d   1       0.462  -0.768  -0.099  0.00  0.00     0.058 A 
ENDROOT
TORSDOF 0
ENDMDL
