MODEL 1
REMARK minimizedAffinity -3.5448153
REMARK minimizedRMSD -1
REMARK  0 active torsions:
REMARK  status: ('A' for Active; 'I' for Inactive)
ROOT
ATOM      1  O1  BZF d   1       0.106  -0.447  -0.811  0.00  0.00    -0.204 OA
ATOM      2  C2  BZF d   1      -0.632   0.226  -1.765  0.00  0.00     0.174 A 
ATOM      3  C3  BZF d   1      -1.943  -0.067  -1.651  0.00  0.00    -0.012 A 
ATOM      4  C3A BZF d   1      -2.042  -0.909  -0.499  0.00  0.00    -0.107 A 
ATOM      5  C4  BZF d   1      -3.089  -1.515   0.135  0.00  0.00     0.055 A 
ATOM      6  C5  BZF d   1      -2.839  -2.331   1.192  0.00  0.00    -0.016 A 
ATOM      7  C6  BZF d   1      -1.555  -2.569   1.638  0.00  0.00     0.022 A 
ATOM      8  C7  BZF d   1      -0.484  -1.987   1.044  0.00  0.00     0.029 A 
ATOM      9  C7A BZF d   1      -0.737  -1.135  -0.003  0.00  0.00     0.058 A 
ENDROOT
TORSDOF 0
ENDMDL
