MODEL 1
REMARK minimizedAffinity -5.27810049
REMARK minimizedRMSD -1
REMARK  0 active torsions:
REMARK  status: ('A' for Active; 'I' for Inactive)
ROOT
ATOM      1  O1  BZF d   1      -2.695  -0.448  -1.929  0.00  0.00    -0.204 OA
ATOM      2  C2  BZF d   1      -3.373  -1.216  -1.002  0.00  0.00     0.174 A 
ATOM      3  C3  BZF d   1      -2.616  -1.420   0.095  0.00  0.00    -0.012 A 
ATOM      4  C3A BZF d   1      -1.423  -0.660  -0.123  0.00  0.00    -0.107 A 
ATOM      5  C4  BZF d   1      -0.295  -0.449   0.617  0.00  0.00     0.055 A 
ATOM      6  C5  BZF d   1       0.716   0.287   0.085  0.00  0.00    -0.016 A 
ATOM      7  C6  BZF d   1       0.635   0.822  -1.184  0.00  0.00     0.022 A 
ATOM      8  C7  BZF d   1      -0.466   0.644  -1.954  0.00  0.00     0.029 A 
ATOM      9  C7A BZF d   1      -1.503  -0.072  -1.407  0.00  0.00     0.058 A 
ENDROOT
TORSDOF 0
ENDMDL
