MODEL 1
REMARK minimizedAffinity -4.8514185
REMARK minimizedRMSD -1
REMARK  0 active torsions:
REMARK  status: ('A' for Active; 'I' for Inactive)
ROOT
ATOM      1  O1  BZF d   1      -1.035  -2.045   1.237  0.00  0.00    -0.204 OA
ATOM      2  C2  BZF d   1      -2.183  -2.813   1.203  0.00  0.00     0.174 A 
ATOM      3  C3  BZF d   1      -3.013  -2.390   0.228  0.00  0.00    -0.012 A 
ATOM      4  C3A BZF d   1      -2.302  -1.348  -0.447  0.00  0.00    -0.107 A 
ATOM      5  C4  BZF d   1      -2.596  -0.549  -1.514  0.00  0.00     0.055 A 
ATOM      6  C5  BZF d   1      -1.715   0.420  -1.877  0.00  0.00    -0.016 A 
ATOM      7  C6  BZF d   1      -0.534   0.621  -1.191  0.00  0.00     0.022 A 
ATOM      8  C7  BZF d   1      -0.197  -0.150  -0.129  0.00  0.00     0.029 A 
ATOM      9  C7A BZF d   1      -1.070  -1.151   0.219  0.00  0.00     0.058 A 
ENDROOT
TORSDOF 0
ENDMDL
