MODEL 1
REMARK minimizedAffinity -0.796358109
REMARK minimizedRMSD -1
REMARK  0 active torsions:
REMARK  status: ('A' for Active; 'I' for Inactive)
ROOT
ATOM      1  O1  BZF d   1       0.591  -1.517   0.963  0.00  0.00    -0.204 OA
ATOM      2  C2  BZF d   1      -0.181  -2.347   1.752  0.00  0.00     0.174 A 
ATOM      3  C3  BZF d   1      -1.286  -1.705   2.183  0.00  0.00    -0.012 A 
ATOM      4  C3A BZF d   1      -1.245  -0.420   1.554  0.00  0.00    -0.107 A 
ATOM      5  C4  BZF d   1      -2.075   0.664   1.577  0.00  0.00     0.055 A 
ATOM      6  C5  BZF d   1      -1.709   1.790   0.910  0.00  0.00    -0.016 A 
ATOM      7  C6  BZF d   1      -0.521   1.868   0.214  0.00  0.00     0.022 A 
ATOM      8  C7  BZF d   1       0.333   0.817   0.158  0.00  0.00     0.029 A 
ATOM      9  C7A BZF d   1      -0.049  -0.333   0.804  0.00  0.00     0.058 A 
ENDROOT
TORSDOF 0
ENDMDL
