MODEL 1
REMARK minimizedAffinity -1.92378879
REMARK minimizedRMSD -1
REMARK  0 active torsions:
REMARK  status: ('A' for Active; 'I' for Inactive)
ROOT
ATOM      1  O1  BZF d   1      -2.598  -1.168  -1.487  0.00  0.00    -0.204 OA
ATOM      2  C2  BZF d   1      -3.362  -1.209  -0.337  0.00  0.00     0.174 A 
ATOM      3  C3  BZF d   1      -2.658  -0.762   0.722  0.00  0.00    -0.012 A 
ATOM      4  C3A BZF d   1      -1.403  -0.333   0.186  0.00  0.00    -0.107 A 
ATOM      5  C4  BZF d   1      -0.285   0.222   0.740  0.00  0.00     0.055 A 
ATOM      6  C5  BZF d   1       0.797   0.455  -0.048  0.00  0.00    -0.016 A 
ATOM      7  C6  BZF d   1       0.798   0.142  -1.392  0.00  0.00     0.022 A 
ATOM      8  C7  BZF d   1      -0.290  -0.405  -1.988  0.00  0.00     0.029 A 
ATOM      9  C7A BZF d   1      -1.396  -0.612  -1.201  0.00  0.00     0.058 A 
ENDROOT
TORSDOF 0
ENDMDL
