MODEL 1
REMARK minimizedAffinity -4.24570227
REMARK minimizedRMSD -1
REMARK  0 active torsions:
REMARK  status: ('A' for Active; 'I' for Inactive)
ROOT
ATOM      1  O1  BZF d   1       4.759   4.137  -0.358  0.00  0.00    -0.204 OA
ATOM      2  C2  BZF d   1       4.851   3.933  -1.721  0.00  0.00     0.174 A 
ATOM      3  C3  BZF d   1       4.169   2.828  -2.086  0.00  0.00    -0.012 A 
ATOM      4  C3A BZF d   1       3.540   2.361  -0.889  0.00  0.00    -0.107 A 
ATOM      5  C4  BZF d   1       2.715   1.309  -0.610  0.00  0.00     0.055 A 
ATOM      6  C5  BZF d   1       2.336   1.090   0.676  0.00  0.00    -0.016 A 
ATOM      7  C6  BZF d   1       2.767   1.898   1.708  0.00  0.00     0.022 A 
ATOM      8  C7  BZF d   1       3.582   2.956   1.480  0.00  0.00     0.029 A 
ATOM      9  C7A BZF d   1       3.940   3.200   0.177  0.00  0.00     0.058 A 
ENDROOT
TORSDOF 0
ENDMDL
