MODEL 1
REMARK minimizedAffinity -1.49165475
REMARK minimizedRMSD -1
REMARK  0 active torsions:
REMARK  status: ('A' for Active; 'I' for Inactive)
ROOT
ATOM      1  O1  BZF d   1       1.448   0.287   2.087  0.00  0.00    -0.204 OA
ATOM      2  C2  BZF d   1       1.475  -0.573   1.006  0.00  0.00     0.174 A 
ATOM      3  C3  BZF d   1       2.038   0.022  -0.065  0.00  0.00    -0.012 A 
ATOM      4  C3A BZF d   1       2.469   1.305   0.400  0.00  0.00    -0.107 A 
ATOM      5  C4  BZF d   1       3.112   2.352  -0.195  0.00  0.00     0.055 A 
ATOM      6  C5  BZF d   1       3.320   3.491   0.518  0.00  0.00    -0.016 A 
ATOM      7  C6  BZF d   1       2.893   3.618   1.824  0.00  0.00     0.022 A 
ATOM      8  C7  BZF d   1       2.255   2.604   2.458  0.00  0.00     0.029 A 
ATOM      9  C7A BZF d   1       2.073   1.441   1.751  0.00  0.00     0.058 A 
ENDROOT
TORSDOF 0
ENDMDL
