MODEL 1
REMARK minimizedAffinity -5.22244883
REMARK minimizedRMSD -1
REMARK  0 active torsions:
REMARK  status: ('A' for Active; 'I' for Inactive)
ROOT
ATOM      1  O1  BZF d   1      -0.035   0.207   1.590  0.00  0.00    -0.204 OA
ATOM      2  C2  BZF d   1       1.234   0.221   1.045  0.00  0.00     0.174 A 
ATOM      3  C3  BZF d   1       1.192  -0.062  -0.273  0.00  0.00    -0.012 A 
ATOM      4  C3A BZF d   1      -0.199  -0.176  -0.589  0.00  0.00    -0.107 A 
ATOM      5  C4  BZF d   1      -0.882  -0.430  -1.744  0.00  0.00     0.055 A 
ATOM      6  C5  BZF d   1      -2.235  -0.547  -1.699  0.00  0.00    -0.016 A 
ATOM      7  C6  BZF d   1      -2.936  -0.420  -0.518  0.00  0.00     0.022 A 
ATOM      8  C7  BZF d   1      -2.303  -0.163   0.652  0.00  0.00     0.029 A 
ATOM      9  C7A BZF d   1      -0.939  -0.011   0.605  0.00  0.00     0.058 A 
ENDROOT
TORSDOF 0
ENDMDL
