MODEL 1
REMARK minimizedAffinity 15.2057581
REMARK minimizedRMSD -1
REMARK  0 active torsions:
REMARK  status: ('A' for Active; 'I' for Inactive)
ROOT
ATOM      1  C1  DEN d   1       3.906   0.649  -0.228  0.00  0.00     0.130 A 
ATOM      2  C2  DEN d   1       3.424   1.817  -0.960  0.00  0.00    -0.031 A 
ATOM      3  C3  DEN d   1       2.372   1.369  -1.894  0.00  0.00     0.027 A 
ATOM      4  C4  DEN d   1       1.442  -1.007  -2.271  0.00  0.00     0.027 A 
ATOM      5  C5  DEN d   1       1.546  -2.327  -1.891  0.00  0.00    -0.003 A 
ATOM      6  C6  DEN d   1       2.459  -2.749  -0.962  0.00  0.00     0.001 A 
ATOM      7  C7  DEN d   1       3.275  -1.836  -0.348  0.00  0.00     0.017 A 
ATOM      8  C8  DEN d   1       3.181  -0.504  -0.732  0.00  0.00    -0.094 A 
ATOM      9  C9  DEN d   1       2.243  -0.095  -1.664  0.00  0.00    -0.072 A 
ENDROOT
TORSDOF 0
ENDMDL
