MODEL 1
REMARK minimizedAffinity 21.2457142
REMARK minimizedRMSD -1
REMARK  0 active torsions:
REMARK  status: ('A' for Active; 'I' for Inactive)
ROOT
ATOM      1  C1  DEN d   1      -3.742   0.269   1.949  0.00  0.00     0.130 A 
ATOM      2  C2  DEN d   1      -3.899  -1.181   1.869  0.00  0.00    -0.031 A 
ATOM      3  C3  DEN d   1      -3.722  -1.735   3.226  0.00  0.00     0.027 A 
ATOM      4  C4  DEN d   1      -3.228  -0.495   5.433  0.00  0.00     0.027 A 
ATOM      5  C5  DEN d   1      -2.998   0.740   6.000  0.00  0.00    -0.003 A 
ATOM      6  C6  DEN d   1      -2.967   1.890   5.257  0.00  0.00     0.001 A 
ATOM      7  C7  DEN d   1      -3.214   1.835   3.911  0.00  0.00     0.017 A 
ATOM      8  C8  DEN d   1      -3.439   0.594   3.331  0.00  0.00    -0.094 A 
ATOM      9  C9  DEN d   1      -3.478  -0.556   4.101  0.00  0.00    -0.072 A 
ENDROOT
TORSDOF 0
ENDMDL
