MODEL 1
REMARK minimizedAffinity 14.8136816
REMARK minimizedRMSD -1
REMARK  0 active torsions:
REMARK  status: ('A' for Active; 'I' for Inactive)
ROOT
ATOM      1  C1  DEN d   1       4.588  -3.550   0.152  0.00  0.00     0.130 A 
ATOM      2  C2  DEN d   1       4.816  -4.944  -0.221  0.00  0.00    -0.031 A 
ATOM      3  C3  DEN d   1       3.834  -5.303  -1.264  0.00  0.00     0.027 A 
ATOM      4  C4  DEN d   1       1.996  -3.844  -2.334  0.00  0.00     0.027 A 
ATOM      5  C5  DEN d   1       1.409  -2.598  -2.333  0.00  0.00    -0.003 A 
ATOM      6  C6  DEN d   1       1.815  -1.600  -1.486  0.00  0.00     0.001 A 
ATOM      7  C7  DEN d   1       2.868  -1.818  -0.636  0.00  0.00     0.017 A 
ATOM      8  C8  DEN d   1       3.459  -3.074  -0.627  0.00  0.00    -0.094 A 
ATOM      9  C9  DEN d   1       3.042  -4.066  -1.499  0.00  0.00    -0.072 A 
ENDROOT
TORSDOF 0
ENDMDL
