MODEL 1
REMARK minimizedAffinity -1.03824055
REMARK minimizedRMSD -1
REMARK  0 active torsions:
REMARK  status: ('A' for Active; 'I' for Inactive)
ROOT
ATOM      1  C1  DEN d   1      -4.325  -6.000   2.150  0.00  0.00     0.130 A 
ATOM      2  C2  DEN d   1      -4.665  -5.905   0.733  0.00  0.00    -0.031 A 
ATOM      3  C3  DEN d   1      -5.386  -4.633   0.521  0.00  0.00     0.027 A 
ATOM      4  C4  DEN d   1      -6.000  -2.810   2.238  0.00  0.00     0.027 A 
ATOM      5  C5  DEN d   1      -5.932  -2.451   3.566  0.00  0.00    -0.003 A 
ATOM      6  C6  DEN d   1      -5.359  -3.258   4.513  0.00  0.00     0.001 A 
ATOM      7  C7  DEN d   1      -4.790  -4.446   4.138  0.00  0.00     0.017 A 
ATOM      8  C8  DEN d   1      -4.861  -4.819   2.802  0.00  0.00    -0.094 A 
ATOM      9  C9  DEN d   1      -5.434  -3.983   1.858  0.00  0.00    -0.072 A 
ENDROOT
TORSDOF 0
ENDMDL
