MODEL 1
REMARK minimizedAffinity 15.7888498
REMARK minimizedRMSD -1
REMARK  0 active torsions:
REMARK  status: ('A' for Active; 'I' for Inactive)
ROOT
ATOM      1  C1  DEN d   1      -3.250  -1.751   5.386  0.00  0.00     0.130 A 
ATOM      2  C2  DEN d   1      -3.517  -2.635   4.255  0.00  0.00    -0.031 A 
ATOM      3  C3  DEN d   1      -3.664  -1.799   3.047  0.00  0.00     0.027 A 
ATOM      4  C4  DEN d   1      -3.501   0.765   2.819  0.00  0.00     0.027 A 
ATOM      5  C5  DEN d   1      -3.301   1.943   3.505  0.00  0.00    -0.003 A 
ATOM      6  C6  DEN d   1      -3.105   1.974   4.860  0.00  0.00     0.001 A 
ATOM      7  C7  DEN d   1      -3.060   0.801   5.567  0.00  0.00     0.017 A 
ATOM      8  C8  DEN d   1      -3.269  -0.389   4.883  0.00  0.00    -0.094 A 
ATOM      9  C9  DEN d   1      -3.453  -0.401   3.511  0.00  0.00    -0.072 A 
ENDROOT
TORSDOF 0
ENDMDL
