MODEL 1
REMARK minimizedAffinity 14.4848051
REMARK minimizedRMSD -1
REMARK  0 active torsions:
REMARK  status: ('A' for Active; 'I' for Inactive)
ROOT
ATOM      1  C1  DEN d   1       4.761  -4.103  -0.313  0.00  0.00     0.130 A 
ATOM      2  C2  DEN d   1       6.000  -4.875  -0.354  0.00  0.00    -0.031 A 
ATOM      3  C3  DEN d   1       5.948  -5.757  -1.537  0.00  0.00     0.027 A 
ATOM      4  C4  DEN d   1       4.081  -5.999  -3.301  0.00  0.00     0.027 A 
ATOM      5  C5  DEN d   1       2.832  -5.561  -3.680  0.00  0.00    -0.003 A 
ATOM      6  C6  DEN d   1       2.129  -4.639  -2.951  0.00  0.00     0.001 A 
ATOM      7  C7  DEN d   1       2.690  -4.091  -1.828  0.00  0.00     0.017 A 
ATOM      8  C8  DEN d   1       3.947  -4.533  -1.435  0.00  0.00    -0.094 A 
ATOM      9  C9  DEN d   1       4.647  -5.457  -2.193  0.00  0.00    -0.072 A 
ENDROOT
TORSDOF 0
ENDMDL
