MODEL 1
REMARK minimizedAffinity 1.37188935
REMARK minimizedRMSD -1
REMARK  0 active torsions:
REMARK  status: ('A' for Active; 'I' for Inactive)
ROOT
ATOM      1  C1  DEN d   1       3.052  -4.038   0.102  0.00  0.00     0.130 A 
ATOM      2  C2  DEN d   1       4.367  -4.579   0.435  0.00  0.00    -0.031 A 
ATOM      3  C3  DEN d   1       5.059  -4.905  -0.828  0.00  0.00     0.027 A 
ATOM      4  C4  DEN d   1       4.229  -4.621  -3.254  0.00  0.00     0.027 A 
ATOM      5  C5  DEN d   1       3.173  -4.212  -4.038  0.00  0.00    -0.003 A 
ATOM      6  C6  DEN d   1       2.000  -3.753  -3.501  0.00  0.00     0.001 A 
ATOM      7  C7  DEN d   1       1.871  -3.648  -2.141  0.00  0.00     0.017 A 
ATOM      8  C8  DEN d   1       2.928  -4.065  -1.344  0.00  0.00    -0.094 A 
ATOM      9  C9  DEN d   1       4.111  -4.515  -1.906  0.00  0.00    -0.072 A 
ENDROOT
TORSDOF 0
ENDMDL
