MODEL 1
REMARK minimizedAffinity 18.0420513
REMARK minimizedRMSD -1
REMARK  0 active torsions:
REMARK  status: ('A' for Active; 'I' for Inactive)
ROOT
ATOM      1  C1  DEN d   1       1.470   1.278  -3.064  0.00  0.00     0.130 A 
ATOM      2  C2  DEN d   1       1.750   2.477  -2.279  0.00  0.00    -0.031 A 
ATOM      3  C3  DEN d   1       2.165   2.050  -0.928  0.00  0.00     0.027 A 
ATOM      4  C4  DEN d   1       2.405  -0.337   0.018  0.00  0.00     0.027 A 
ATOM      5  C5  DEN d   1       2.267  -1.677  -0.269  0.00  0.00    -0.003 A 
ATOM      6  C6  DEN d   1       1.824  -2.122  -1.487  0.00  0.00     0.001 A 
ATOM      7  C7  DEN d   1       1.547  -1.219  -2.479  0.00  0.00     0.017 A 
ATOM      8  C8  DEN d   1       1.677   0.135  -2.195  0.00  0.00    -0.094 A 
ATOM      9  C9  DEN d   1       2.137   0.563  -0.961  0.00  0.00    -0.072 A 
ENDROOT
TORSDOF 0
ENDMDL
