MODEL 1
REMARK minimizedAffinity 1.44427335
REMARK minimizedRMSD -1
REMARK  0 active torsions:
REMARK  status: ('A' for Active; 'I' for Inactive)
ROOT
ATOM      1  C1  DEN d   1       3.817  -2.222   0.152  0.00  0.00     0.130 A 
ATOM      2  C2  DEN d   1       3.051  -1.060  -0.288  0.00  0.00    -0.031 A 
ATOM      3  C3  DEN d   1       2.407  -1.397  -1.573  0.00  0.00     0.027 A 
ATOM      4  C4  DEN d   1       2.517  -3.598  -2.915  0.00  0.00     0.027 A 
ATOM      5  C5  DEN d   1       3.052  -4.866  -2.948  0.00  0.00    -0.003 A 
ATOM      6  C6  DEN d   1       3.899  -5.327  -1.976  0.00  0.00     0.001 A 
ATOM      7  C7  DEN d   1       4.202  -4.528  -0.904  0.00  0.00     0.017 A 
ATOM      8  C8  DEN d   1       3.672  -3.245  -0.868  0.00  0.00    -0.094 A 
ATOM      9  C9  DEN d   1       2.807  -2.802  -1.854  0.00  0.00    -0.072 A 
ENDROOT
TORSDOF 0
ENDMDL
