MODEL 1
REMARK minimizedAffinity 8.8730402
REMARK minimizedRMSD -1
REMARK  0 active torsions:
REMARK  status: ('A' for Active; 'I' for Inactive)
ROOT
ATOM      1  C1  DEN d   1       2.364  -3.556  -4.504  0.00  0.00     0.130 A 
ATOM      2  C2  DEN d   1       1.489  -3.751  -3.352  0.00  0.00    -0.031 A 
ATOM      3  C3  DEN d   1       2.300  -4.309  -2.251  0.00  0.00     0.027 A 
ATOM      4  C4  DEN d   1       4.815  -4.883  -2.219  0.00  0.00     0.027 A 
ATOM      5  C5  DEN d   1       5.972  -4.901  -2.967  0.00  0.00    -0.003 A 
ATOM      6  C6  DEN d   1       6.000  -4.508  -4.278  0.00  0.00     0.001 A 
ATOM      7  C7  DEN d   1       4.858  -4.036  -4.870  0.00  0.00     0.017 A 
ATOM      8  C8  DEN d   1       3.686  -4.022  -4.125  0.00  0.00    -0.094 A 
ATOM      9  C9  DEN d   1       3.681  -4.412  -2.797  0.00  0.00    -0.072 A 
ENDROOT
TORSDOF 0
ENDMDL
