MODEL 1
REMARK minimizedAffinity 12.1124678
REMARK minimizedRMSD -1
REMARK  0 active torsions:
REMARK  status: ('A' for Active; 'I' for Inactive)
ROOT
ATOM      1  C1  DEN d   1       1.392   0.975   4.674  0.00  0.00     0.130 A 
ATOM      2  C2  DEN d   1       1.080   1.507   5.998  0.00  0.00    -0.031 A 
ATOM      3  C3  DEN d   1      -0.337   1.924   6.000  0.00  0.00     0.027 A 
ATOM      4  C4  DEN d   1      -2.069   1.794   4.093  0.00  0.00     0.027 A 
ATOM      5  C5  DEN d   1      -2.268   1.428   2.780  0.00  0.00    -0.003 A 
ATOM      6  C6  DEN d   1      -1.260   0.922   2.003  0.00  0.00     0.001 A 
ATOM      7  C7  DEN d   1      -0.018   0.725   2.545  0.00  0.00     0.017 A 
ATOM      8  C8  DEN d   1       0.192   1.098   3.866  0.00  0.00    -0.094 A 
ATOM      9  C9  DEN d   1      -0.842   1.597   4.640  0.00  0.00    -0.072 A 
ENDROOT
TORSDOF 0
ENDMDL
