MODEL 1
REMARK minimizedAffinity 9.89957523
REMARK minimizedRMSD -1
REMARK  0 active torsions:
REMARK  status: ('A' for Active; 'I' for Inactive)
ROOT
ATOM      1  C1  DEN d   1       2.123  -2.779  -2.909  0.00  0.00     0.130 A 
ATOM      2  C2  DEN d   1       2.676  -3.290  -1.657  0.00  0.00    -0.031 A 
ATOM      3  C3  DEN d   1       2.868  -2.146  -0.743  0.00  0.00     0.027 A 
ATOM      4  C4  DEN d   1       2.363   0.352  -1.140  0.00  0.00     0.027 A 
ATOM      5  C5  DEN d   1       1.896   1.271  -2.053  0.00  0.00    -0.003 A 
ATOM      6  C6  DEN d   1       1.507   0.913  -3.317  0.00  0.00     0.001 A 
ATOM      7  C7  DEN d   1       1.536  -0.406  -3.687  0.00  0.00     0.017 A 
ATOM      8  C8  DEN d   1       2.012  -1.338  -2.775  0.00  0.00    -0.094 A 
ATOM      9  C9  DEN d   1       2.389  -0.957  -1.498  0.00  0.00    -0.072 A 
ENDROOT
TORSDOF 0
ENDMDL
