MODEL 1
REMARK minimizedAffinity 8.94964314
REMARK minimizedRMSD -1
REMARK  0 active torsions:
REMARK  status: ('A' for Active; 'I' for Inactive)
ROOT
ATOM      1  C1  DEN d   1      -3.283   0.550   5.982  0.00  0.00     0.130 A 
ATOM      2  C2  DEN d   1      -3.057   1.891   5.452  0.00  0.00    -0.031 A 
ATOM      3  C3  DEN d   1      -3.247   1.841   3.988  0.00  0.00     0.027 A 
ATOM      4  C4  DEN d   1      -3.871  -0.171   2.501  0.00  0.00     0.027 A 
ATOM      5  C5  DEN d   1      -4.153  -1.519   2.497  0.00  0.00    -0.003 A 
ATOM      6  C6  DEN d   1      -4.132  -2.273   3.640  0.00  0.00     0.001 A 
ATOM      7  C7  DEN d   1      -3.866  -1.674   4.843  0.00  0.00     0.017 A 
ATOM      8  C8  DEN d   1      -3.574  -0.317   4.854  0.00  0.00    -0.094 A 
ATOM      9  C9  DEN d   1      -3.612   0.431   3.689  0.00  0.00    -0.072 A 
ENDROOT
TORSDOF 0
ENDMDL
