MODEL 1
REMARK minimizedAffinity 1.97933996
REMARK minimizedRMSD -1
REMARK  0 active torsions:
REMARK  status: ('A' for Active; 'I' for Inactive)
ROOT
ATOM      1  C1  DEN d   1       4.810  -4.496  -0.456  0.00  0.00     0.130 A 
ATOM      2  C2  DEN d   1       4.157  -3.620   0.514  0.00  0.00    -0.031 A 
ATOM      3  C3  DEN d   1       3.111  -2.855  -0.194  0.00  0.00     0.027 A 
ATOM      4  C4  DEN d   1       2.438  -2.944  -2.682  0.00  0.00     0.027 A 
ATOM      5  C5  DEN d   1       2.714  -3.527  -3.899  0.00  0.00    -0.003 A 
ATOM      6  C6  DEN d   1       3.721  -4.441  -4.060  0.00  0.00     0.001 A 
ATOM      7  C7  DEN d   1       4.461  -4.833  -2.975  0.00  0.00     0.017 A 
ATOM      8  C8  DEN d   1       4.194  -4.244  -1.746  0.00  0.00    -0.094 A 
ATOM      9  C9  DEN d   1       3.163  -3.331  -1.602  0.00  0.00    -0.072 A 
ENDROOT
TORSDOF 0
ENDMDL
