MODEL 1
REMARK minimizedAffinity -6.73605013
REMARK minimizedRMSD -1
REMARK  1 active torsions:
REMARK  status: ('A' for Active; 'I' for Inactive)
REMARK    1  A    between atoms: C1_2  and  C2_3 
ROOT
ATOM      1  C2  UNL d   1      -0.551   0.401   1.041  0.00  0.00    -0.073 A 
ATOM      2  C3  UNL d   1      -1.329   0.968   2.056  0.00  0.00    -0.002 A 
ATOM      3  C4  UNL d   1      -0.833   1.058   3.357  0.00  0.00     0.004 A 
ATOM      4  C5  UNL d   1       0.447   0.590   3.655  0.00  0.00    -0.004 A 
ATOM      5  C6  UNL d   1       1.244   0.031   2.651  0.00  0.00    -0.075 A 
ATOM      6  C7  UNL d   1       2.622  -0.479   2.955  0.00  0.00     0.076 C 
ATOM      7  C8  UNL d   1       0.738  -0.059   1.348  0.00  0.00     0.001 A 
ENDROOT
BRANCH   1   8
ATOM      8  C1  UNL d   1      -1.079   0.307  -0.367  0.00  0.00     0.053 C 
ATOM      9  C   UNL d   1      -0.038  -0.237  -1.332  0.00  0.00     0.018 C 
ENDBRANCH   1   8
TORSDOF 1
ENDMDL
