MODEL 1
REMARK minimizedAffinity -5.20987558
REMARK minimizedRMSD -1
REMARK  1 active torsions:
REMARK  status: ('A' for Active; 'I' for Inactive)
REMARK    1  A    between atoms: C1_2  and  C2_3 
ROOT
ATOM      1  C2  UNL d   1       0.225   0.433   2.255  0.00  0.00    -0.073 A 
ATOM      2  C3  UNL d   1      -1.057   0.953   2.468  0.00  0.00    -0.002 A 
ATOM      3  C4  UNL d   1      -1.941   1.106   1.400  0.00  0.00     0.004 A 
ATOM      4  C5  UNL d   1      -1.558   0.736   0.111  0.00  0.00    -0.004 A 
ATOM      5  C6  UNL d   1      -0.285   0.203  -0.120  0.00  0.00    -0.075 A 
ATOM      6  C7  UNL d   1       0.144  -0.198  -1.501  0.00  0.00     0.076 C 
ATOM      7  C8  UNL d   1       0.599   0.054   0.957  0.00  0.00     0.001 A 
ENDROOT
BRANCH   1   8
ATOM      8  C1  UNL d   1       1.182   0.259   3.406  0.00  0.00     0.053 C 
ATOM      9  C   UNL d   1       2.451  -0.467   2.988  0.00  0.00     0.018 C 
ENDBRANCH   1   8
TORSDOF 1
ENDMDL
