MODEL 1
REMARK minimizedAffinity -5.93801594
REMARK minimizedRMSD -1
REMARK  1 active torsions:
REMARK  status: ('A' for Active; 'I' for Inactive)
REMARK    1  A    between atoms: C1_2  and  C2_3 
ROOT
ATOM      1  C2  UNL d   1       0.044  -0.073   0.375  0.00  0.00    -0.073 A 
ATOM      2  C3  UNL d   1      -1.206   0.556   0.337  0.00  0.00    -0.002 A 
ATOM      3  C4  UNL d   1      -1.750   1.113   1.495  0.00  0.00     0.004 A 
ATOM      4  C5  UNL d   1      -1.048   1.055   2.699  0.00  0.00    -0.004 A 
ATOM      5  C6  UNL d   1       0.208   0.441   2.754  0.00  0.00    -0.075 A 
ATOM      6  C7  UNL d   1       0.975   0.368   4.042  0.00  0.00     0.076 C 
ATOM      7  C8  UNL d   1       0.746  -0.119   1.588  0.00  0.00     0.001 A 
ENDROOT
BRANCH   1   8
ATOM      8  C1  UNL d   1       0.638  -0.671  -0.874  0.00  0.00     0.053 C 
ATOM      9  C   UNL d   1       0.623   0.308  -2.038  0.00  0.00     0.018 C 
ENDBRANCH   1   8
TORSDOF 1
ENDMDL
