MODEL 1
REMARK minimizedAffinity -3.94048262
REMARK minimizedRMSD -1
REMARK  1 active torsions:
REMARK  status: ('A' for Active; 'I' for Inactive)
REMARK    1  A    between atoms: C1_2  and  C2_3 
ROOT
ATOM      1  C2  UNL d   1      -0.642   0.983   2.582  0.00  0.00    -0.073 A 
ATOM      2  C3  UNL d   1      -1.685   1.747   2.045  0.00  0.00    -0.002 A 
ATOM      3  C4  UNL d   1      -2.047   1.603   0.705  0.00  0.00     0.004 A 
ATOM      4  C5  UNL d   1      -1.374   0.692  -0.110  0.00  0.00    -0.004 A 
ATOM      5  C6  UNL d   1      -0.337  -0.089   0.411  0.00  0.00    -0.075 A 
ATOM      6  C7  UNL d   1       0.397  -1.072  -0.452  0.00  0.00     0.076 C 
ATOM      7  C8  UNL d   1       0.021   0.063   1.758  0.00  0.00     0.001 A 
ENDROOT
BRANCH   1   8
ATOM      8  C1  UNL d   1      -0.253   1.130   4.030  0.00  0.00     0.053 C 
ATOM      9  C   UNL d   1       0.221   2.538   4.353  0.00  0.00     0.018 C 
ENDBRANCH   1   8
TORSDOF 1
ENDMDL
