MODEL 1
REMARK minimizedAffinity -1.62813175
REMARK minimizedRMSD -1
REMARK  1 active torsions:
REMARK  status: ('A' for Active; 'I' for Inactive)
REMARK    1  A    between atoms: C1_2  and  C2_3 
ROOT
ATOM      1  C2  UNL d   1      -0.141   0.746  -0.009  0.00  0.00    -0.073 A 
ATOM      2  C3  UNL d   1      -1.200   1.618  -0.286  0.00  0.00    -0.002 A 
ATOM      3  C4  UNL d   1      -2.215   1.814   0.651  0.00  0.00     0.004 A 
ATOM      4  C5  UNL d   1      -2.178   1.148   1.875  0.00  0.00    -0.004 A 
ATOM      5  C6  UNL d   1      -1.122   0.281   2.176  0.00  0.00    -0.075 A 
ATOM      6  C7  UNL d   1      -1.069  -0.445   3.488  0.00  0.00     0.076 C 
ATOM      7  C8  UNL d   1      -0.108   0.087   1.228  0.00  0.00     0.001 A 
ENDROOT
BRANCH   1   8
ATOM      8  C1  UNL d   1       0.961   0.535  -1.016  0.00  0.00     0.053 C 
ATOM      9  C   UNL d   1       1.304   1.815  -1.761  0.00  0.00     0.018 C 
ENDBRANCH   1   8
TORSDOF 1
ENDMDL
