MODEL 1
REMARK minimizedAffinity -4.40891933
REMARK minimizedRMSD -1
REMARK  1 active torsions:
REMARK  status: ('A' for Active; 'I' for Inactive)
REMARK    1  A    between atoms: C1_2  and  C2_3 
ROOT
ATOM      1  C2  UNL d   1       0.300   0.010  -0.189  0.00  0.00    -0.073 A 
ATOM      2  C3  UNL d   1       0.706  -0.718   0.935  0.00  0.00    -0.002 A 
ATOM      3  C4  UNL d   1       0.206  -0.400   2.199  0.00  0.00     0.004 A 
ATOM      4  C5  UNL d   1      -0.709   0.641   2.351  0.00  0.00    -0.004 A 
ATOM      5  C6  UNL d   1      -1.136   1.373   1.238  0.00  0.00    -0.075 A 
ATOM      6  C7  UNL d   1      -2.118   2.498   1.384  0.00  0.00     0.076 C 
ATOM      7  C8  UNL d   1      -0.627   1.049  -0.028  0.00  0.00     0.001 A 
ENDROOT
BRANCH   1   8
ATOM      8  C1  UNL d   1       0.832  -0.334  -1.556  0.00  0.00     0.053 C 
ATOM      9  C   UNL d   1       0.890  -1.836  -1.785  0.00  0.00     0.018 C 
ENDBRANCH   1   8
TORSDOF 1
ENDMDL
