MODEL 1
REMARK minimizedAffinity -3.85266018
REMARK minimizedRMSD -1
REMARK  1 active torsions:
REMARK  status: ('A' for Active; 'I' for Inactive)
REMARK    1  A    between atoms: C1_2  and  C2_3 
ROOT
ATOM      1  C2  UNL d   1      -0.120  -0.102   0.140  0.00  0.00    -0.073 A 
ATOM      2  C3  UNL d   1       0.785   0.480  -0.755  0.00  0.00    -0.002 A 
ATOM      3  C4  UNL d   1       1.438  -0.305  -1.706  0.00  0.00     0.004 A 
ATOM      4  C5  UNL d   1       1.188  -1.675  -1.778  0.00  0.00    -0.004 A 
ATOM      5  C6  UNL d   1       0.278  -2.273  -0.901  0.00  0.00    -0.075 A 
ATOM      6  C7  UNL d   1      -0.001  -3.746  -0.963  0.00  0.00     0.076 C 
ATOM      7  C8  UNL d   1      -0.372  -1.479   0.054  0.00  0.00     0.001 A 
ENDROOT
BRANCH   1   8
ATOM      8  C1  UNL d   1      -0.833   0.742   1.165  0.00  0.00     0.053 C 
ATOM      9  C   UNL d   1      -0.802   0.107   2.547  0.00  0.00     0.018 C 
ENDBRANCH   1   8
TORSDOF 1
ENDMDL
