MODEL 1
REMARK minimizedAffinity -3.9700048
REMARK minimizedRMSD -1
REMARK  1 active torsions:
REMARK  status: ('A' for Active; 'I' for Inactive)
REMARK    1  A    between atoms: C1_2  and  C2_3 
ROOT
ATOM      1  C2  UNL d   1       0.470  -0.139   0.461  0.00  0.00    -0.073 A 
ATOM      2  C3  UNL d   1       0.928  -0.575   1.710  0.00  0.00    -0.002 A 
ATOM      3  C4  UNL d   1       0.177  -0.333   2.860  0.00  0.00     0.004 A 
ATOM      4  C5  UNL d   1      -1.041   0.341   2.774  0.00  0.00    -0.004 A 
ATOM      5  C6  UNL d   1      -1.522   0.774   1.534  0.00  0.00    -0.075 A 
ATOM      6  C7  UNL d   1      -2.829   1.502   1.425  0.00  0.00     0.076 C 
ATOM      7  C8  UNL d   1      -0.760   0.530   0.384  0.00  0.00     0.001 A 
ENDROOT
BRANCH   1   8
ATOM      8  C1  UNL d   1       1.275  -0.404  -0.785  0.00  0.00     0.053 C 
ATOM      9  C   UNL d   1       1.211  -1.864  -1.205  0.00  0.00     0.018 C 
ENDBRANCH   1   8
TORSDOF 1
ENDMDL
