MODEL 1
REMARK minimizedAffinity -3.90185523
REMARK minimizedRMSD -1
REMARK  1 active torsions:
REMARK  status: ('A' for Active; 'I' for Inactive)
REMARK    1  A    between atoms: C1_2  and  C2_3 
ROOT
ATOM      1  C2  UNL d   1      -0.453   0.796   0.046  0.00  0.00    -0.073 A 
ATOM      2  C3  UNL d   1      -1.524   1.628  -0.299  0.00  0.00    -0.002 A 
ATOM      3  C4  UNL d   1      -2.535   1.896   0.625  0.00  0.00     0.004 A 
ATOM      4  C5  UNL d   1      -2.482   1.341   1.904  0.00  0.00    -0.004 A 
ATOM      5  C6  UNL d   1      -1.414   0.517   2.272  0.00  0.00    -0.075 A 
ATOM      6  C7  UNL d   1      -1.343  -0.088   3.643  0.00  0.00     0.076 C 
ATOM      7  C8  UNL d   1      -0.404   0.251   1.337  0.00  0.00     0.001 A 
ENDROOT
BRANCH   1   8
ATOM      8  C1  UNL d   1       0.644   0.509  -0.946  0.00  0.00     0.053 C 
ATOM      9  C   UNL d   1       1.219  -0.887  -0.772  0.00  0.00     0.018 C 
ENDBRANCH   1   8
TORSDOF 1
ENDMDL
