MODEL 1
REMARK minimizedAffinity -3.53361726
REMARK minimizedRMSD -1
REMARK  1 active torsions:
REMARK  status: ('A' for Active; 'I' for Inactive)
REMARK    1  A    between atoms: C1_2  and  C2_3 
ROOT
ATOM      1  C2  UNL d   1       0.071  -0.216   0.080  0.00  0.00    -0.073 A 
ATOM      2  C3  UNL d   1       0.430  -0.874   1.262  0.00  0.00    -0.002 A 
ATOM      3  C4  UNL d   1      -0.173  -0.530   2.472  0.00  0.00     0.004 A 
ATOM      4  C5  UNL d   1      -1.146   0.469   2.512  0.00  0.00    -0.004 A 
ATOM      5  C6  UNL d   1      -1.527   1.130   1.340  0.00  0.00    -0.075 A 
ATOM      6  C7  UNL d   1      -2.571   2.208   1.367  0.00  0.00     0.076 C 
ATOM      7  C8  UNL d   1      -0.915   0.781   0.129  0.00  0.00     0.001 A 
ENDROOT
BRANCH   1   8
ATOM      8  C1  UNL d   1       0.715  -0.588  -1.230  0.00  0.00     0.053 C 
ATOM      9  C   UNL d   1       0.452  -2.039  -1.603  0.00  0.00     0.018 C 
ENDBRANCH   1   8
TORSDOF 1
ENDMDL
