MODEL 1
REMARK minimizedAffinity 9.31734657
REMARK minimizedRMSD -1
REMARK  0 active torsions:
REMARK  status: ('A' for Active; 'I' for Inactive)
ROOT
ATOM      1  C   UNL d   1      -1.359   3.218  -3.021  0.00  0.00     0.078 C 
ATOM      2  C1  UNL d   1      -0.438   2.442  -2.127  0.00  0.00    -0.077 A 
ATOM      3  C2  UNL d   1       0.777   1.937  -2.606  0.00  0.00    -0.001 A 
ATOM      4  C3  UNL d   1       1.619   1.209  -1.765  0.00  0.00     0.003 A 
ATOM      5  C4  UNL d   1       1.256   0.978  -0.440  0.00  0.00    -0.005 A 
ATOM      6  C5  UNL d   1       0.048   1.475   0.046  0.00  0.00     0.003 A 
ATOM      7  C6  UNL d   1      -0.796   2.203  -0.794  0.00  0.00    -0.001 A 
ENDROOT
TORSDOF 0
ENDMDL
