MODEL 1
REMARK minimizedAffinity 11.040658
REMARK minimizedRMSD -1
REMARK  0 active torsions:
REMARK  status: ('A' for Active; 'I' for Inactive)
ROOT
ATOM      1  C   UNL d   1       1.511  -2.941   0.357  0.00  0.00     0.078 C 
ATOM      2  C1  UNL d   1       2.151  -4.002  -0.488  0.00  0.00    -0.077 A 
ATOM      3  C2  UNL d   1       1.446  -4.618  -1.529  0.00  0.00    -0.001 A 
ATOM      4  C3  UNL d   1       2.052  -5.611  -2.302  0.00  0.00     0.003 A 
ATOM      5  C4  UNL d   1       3.365  -5.997  -2.040  0.00  0.00    -0.005 A 
ATOM      6  C5  UNL d   1       4.073  -5.392  -1.004  0.00  0.00     0.003 A 
ATOM      7  C6  UNL d   1       3.469  -4.399  -0.231  0.00  0.00    -0.001 A 
ENDROOT
TORSDOF 0
ENDMDL
