MODEL 1
REMARK minimizedAffinity -1.24600685
REMARK minimizedRMSD -1
REMARK  0 active torsions:
REMARK  status: ('A' for Active; 'I' for Inactive)
ROOT
ATOM      1  C   UNL d   1      -4.682   2.600  -5.999  0.00  0.00     0.078 C 
ATOM      2  C1  UNL d   1      -3.653   3.660  -5.745  0.00  0.00    -0.077 A 
ATOM      3  C2  UNL d   1      -2.388   3.330  -5.242  0.00  0.00    -0.001 A 
ATOM      4  C3  UNL d   1      -1.442   4.328  -5.000  0.00  0.00     0.003 A 
ATOM      5  C4  UNL d   1      -1.752   5.662  -5.258  0.00  0.00    -0.005 A 
ATOM      6  C5  UNL d   1      -3.009   6.000  -5.756  0.00  0.00     0.003 A 
ATOM      7  C6  UNL d   1      -3.955   5.003  -5.998  0.00  0.00    -0.001 A 
ENDROOT
TORSDOF 0
ENDMDL
