MODEL 1
REMARK minimizedAffinity 7.5049305
REMARK minimizedRMSD -1
REMARK  0 active torsions:
REMARK  status: ('A' for Active; 'I' for Inactive)
ROOT
ATOM      1  C   UNL d   1      -5.401  -4.268   5.270  0.00  0.00     0.078 C 
ATOM      2  C1  UNL d   1      -4.063  -3.591   5.254  0.00  0.00    -0.077 A 
ATOM      3  C2  UNL d   1      -2.998  -4.117   4.513  0.00  0.00    -0.001 A 
ATOM      4  C3  UNL d   1      -1.755  -3.482   4.514  0.00  0.00     0.003 A 
ATOM      5  C4  UNL d   1      -1.566  -2.318   5.257  0.00  0.00    -0.005 A 
ATOM      6  C5  UNL d   1      -2.619  -1.789   6.000  0.00  0.00     0.003 A 
ATOM      7  C6  UNL d   1      -3.863  -2.423   5.999  0.00  0.00    -0.001 A 
ENDROOT
TORSDOF 0
ENDMDL
