MODEL 1
REMARK minimizedAffinity -0.171839893
REMARK minimizedRMSD -1
REMARK  0 active torsions:
REMARK  status: ('A' for Active; 'I' for Inactive)
ROOT
ATOM      1  C   UNL d   1      -4.235   2.512  -4.839  0.00  0.00     0.078 C 
ATOM      2  C1  UNL d   1      -3.255   3.646  -4.872  0.00  0.00    -0.077 A 
ATOM      3  C2  UNL d   1      -3.675   4.953  -5.151  0.00  0.00    -0.001 A 
ATOM      4  C3  UNL d   1      -2.750   5.998  -5.188  0.00  0.00     0.003 A 
ATOM      5  C4  UNL d   1      -1.401   5.748  -4.948  0.00  0.00    -0.005 A 
ATOM      6  C5  UNL d   1      -0.974   4.450  -4.672  0.00  0.00     0.003 A 
ATOM      7  C6  UNL d   1      -1.897   3.404  -4.635  0.00  0.00    -0.001 A 
ENDROOT
TORSDOF 0
ENDMDL
