MODEL 1
REMARK minimizedAffinity 4.93745995
REMARK minimizedRMSD -1
REMARK  0 active torsions:
REMARK  status: ('A' for Active; 'I' for Inactive)
ROOT
ATOM      1  C   UNL d   1      -5.378  -3.367   5.991  0.00  0.00     0.078 C 
ATOM      2  C1  UNL d   1      -3.983  -2.923   5.666  0.00  0.00    -0.077 A 
ATOM      3  C2  UNL d   1      -3.077  -3.789   5.043  0.00  0.00    -0.001 A 
ATOM      4  C3  UNL d   1      -1.778  -3.365   4.755  0.00  0.00     0.003 A 
ATOM      5  C4  UNL d   1      -1.374  -2.074   5.089  0.00  0.00    -0.005 A 
ATOM      6  C5  UNL d   1      -2.268  -1.206   5.711  0.00  0.00     0.003 A 
ATOM      7  C6  UNL d   1      -3.566  -1.628   6.000  0.00  0.00    -0.001 A 
ENDROOT
TORSDOF 0
ENDMDL
