MODEL 1
REMARK minimizedAffinity 15.2713423
REMARK minimizedRMSD -1
REMARK  0 active torsions:
REMARK  status: ('A' for Active; 'I' for Inactive)
ROOT
ATOM      1  C   UNL d   1      -5.842  -1.368  -2.040  0.00  0.00     0.078 C 
ATOM      2  C1  UNL d   1      -5.888  -1.772  -0.597  0.00  0.00    -0.077 A 
ATOM      3  C2  UNL d   1      -5.897  -3.122  -0.226  0.00  0.00    -0.001 A 
ATOM      4  C3  UNL d   1      -5.949  -3.484   1.121  0.00  0.00     0.003 A 
ATOM      5  C4  UNL d   1      -5.994  -2.502   2.108  0.00  0.00    -0.005 A 
ATOM      6  C5  UNL d   1      -5.987  -1.156   1.749  0.00  0.00     0.003 A 
ATOM      7  C6  UNL d   1      -5.935  -0.792   0.402  0.00  0.00    -0.001 A 
ENDROOT
TORSDOF 0
ENDMDL
