MODEL 1
REMARK minimizedAffinity 5.40580225
REMARK minimizedRMSD -1
REMARK  0 active torsions:
REMARK  status: ('A' for Active; 'I' for Inactive)
ROOT
ATOM      1  C   UNL d   1      -3.643   2.284  -4.875  0.00  0.00     0.078 C 
ATOM      2  C1  UNL d   1      -2.884   3.574  -4.779  0.00  0.00    -0.077 A 
ATOM      3  C2  UNL d   1      -1.512   3.584  -4.500  0.00  0.00    -0.001 A 
ATOM      4  C3  UNL d   1      -0.820   4.793  -4.404  0.00  0.00     0.003 A 
ATOM      5  C4  UNL d   1      -1.493   6.000  -4.585  0.00  0.00    -0.005 A 
ATOM      6  C5  UNL d   1      -2.858   6.000  -4.861  0.00  0.00     0.003 A 
ATOM      7  C6  UNL d   1      -3.552   4.792  -4.957  0.00  0.00    -0.001 A 
ENDROOT
TORSDOF 0
ENDMDL
