MODEL 1
REMARK minimizedAffinity 0.357017994
REMARK minimizedRMSD -1
REMARK  0 active torsions:
REMARK  status: ('A' for Active; 'I' for Inactive)
ROOT
ATOM      1  C   UNL d   1      -3.244   1.863  -4.934  0.00  0.00     0.078 C 
ATOM      2  C1  UNL d   1      -2.819   3.301  -4.910  0.00  0.00    -0.077 A 
ATOM      3  C2  UNL d   1      -2.086   3.819  -3.834  0.00  0.00    -0.001 A 
ATOM      4  C3  UNL d   1      -1.706   5.161  -3.820  0.00  0.00     0.003 A 
ATOM      5  C4  UNL d   1      -2.054   5.998  -4.878  0.00  0.00    -0.005 A 
ATOM      6  C5  UNL d   1      -2.785   5.493  -5.952  0.00  0.00     0.003 A 
ATOM      7  C6  UNL d   1      -3.166   4.151  -5.968  0.00  0.00    -0.001 A 
ENDROOT
TORSDOF 0
ENDMDL
