MODEL 1
REMARK minimizedAffinity 2.902843
REMARK minimizedRMSD -1
REMARK  0 active torsions:
REMARK  status: ('A' for Active; 'I' for Inactive)
ROOT
ATOM      1  C   UNL d   1      -4.621   1.860  -5.640  0.00  0.00     0.078 C 
ATOM      2  C1  UNL d   1      -3.652   2.986  -5.433  0.00  0.00    -0.077 A 
ATOM      3  C2  UNL d   1      -2.359   2.744  -4.952  0.00  0.00    -0.001 A 
ATOM      4  C3  UNL d   1      -1.470   3.802  -4.755  0.00  0.00     0.003 A 
ATOM      5  C4  UNL d   1      -1.865   5.109  -5.034  0.00  0.00    -0.005 A 
ATOM      6  C5  UNL d   1      -3.150   5.359  -5.510  0.00  0.00     0.003 A 
ATOM      7  C6  UNL d   1      -4.040   4.303  -5.708  0.00  0.00    -0.001 A 
ENDROOT
TORSDOF 0
ENDMDL
