MODEL 1
REMARK minimizedAffinity 10.7741833
REMARK minimizedRMSD -1
REMARK  0 active torsions:
REMARK  status: ('A' for Active; 'I' for Inactive)
ROOT
ATOM      1  C   UNL d   1       0.711   0.525   2.532  0.00  0.00     0.078 C 
ATOM      2  C1  UNL d   1      -0.315   1.133   1.623  0.00  0.00    -0.077 A 
ATOM      3  C2  UNL d   1      -1.682   1.027   1.906  0.00  0.00    -0.001 A 
ATOM      4  C3  UNL d   1      -2.627   1.591   1.047  0.00  0.00     0.003 A 
ATOM      5  C4  UNL d   1      -2.214   2.263  -0.102  0.00  0.00    -0.005 A 
ATOM      6  C5  UNL d   1      -0.856   2.372  -0.393  0.00  0.00     0.003 A 
ATOM      7  C6  UNL d   1       0.090   1.809   0.465  0.00  0.00    -0.001 A 
ENDROOT
TORSDOF 0
ENDMDL
