MODEL 1
REMARK minimizedAffinity 7.69103765
REMARK minimizedRMSD -1
REMARK  0 active torsions:
REMARK  status: ('A' for Active; 'I' for Inactive)
ROOT
ATOM      1  C   UNL d   1      -4.148  -3.354   3.761  0.00  0.00     0.078 C 
ATOM      2  C1  UNL d   1      -2.892  -3.133   4.550  0.00  0.00    -0.077 A 
ATOM      3  C2  UNL d   1      -2.696  -1.953   5.278  0.00  0.00    -0.001 A 
ATOM      4  C3  UNL d   1      -1.517  -1.757   5.999  0.00  0.00     0.003 A 
ATOM      5  C4  UNL d   1      -0.525  -2.736   5.999  0.00  0.00    -0.005 A 
ATOM      6  C5  UNL d   1      -0.711  -3.913   5.276  0.00  0.00     0.003 A 
ATOM      7  C6  UNL d   1      -1.889  -4.110   4.554  0.00  0.00    -0.001 A 
ENDROOT
TORSDOF 0
ENDMDL
