MODEL 1
REMARK minimizedAffinity 4.53571892
REMARK minimizedRMSD -1
REMARK  0 active torsions:
REMARK  status: ('A' for Active; 'I' for Inactive)
ROOT
ATOM      1  C   UNL d   1      -3.854   2.420  -4.886  0.00  0.00     0.078 C 
ATOM      2  C1  UNL d   1      -3.042   3.674  -4.750  0.00  0.00    -0.077 A 
ATOM      3  C2  UNL d   1      -3.401   4.843  -5.434  0.00  0.00    -0.001 A 
ATOM      4  C3  UNL d   1      -2.630   6.000  -5.306  0.00  0.00     0.003 A 
ATOM      5  C4  UNL d   1      -1.496   5.999  -4.496  0.00  0.00    -0.005 A 
ATOM      6  C5  UNL d   1      -1.131   4.841  -3.814  0.00  0.00     0.003 A 
ATOM      7  C6  UNL d   1      -1.900   3.683  -3.940  0.00  0.00    -0.001 A 
ENDROOT
TORSDOF 0
ENDMDL
