MODEL 1
REMARK minimizedAffinity 8.68887138
REMARK minimizedRMSD -1
REMARK  0 active torsions:
REMARK  status: ('A' for Active; 'I' for Inactive)
ROOT
ATOM      1  C   UNL d   1      -2.563  -0.475   6.000  0.00  0.00     0.078 C 
ATOM      2  C1  UNL d   1      -1.951  -1.791   5.624  0.00  0.00    -0.077 A 
ATOM      3  C2  UNL d   1      -0.641  -2.111   5.999  0.00  0.00    -0.001 A 
ATOM      4  C3  UNL d   1      -0.081  -3.336   5.633  0.00  0.00     0.003 A 
ATOM      5  C4  UNL d   1      -0.824  -4.251   4.890  0.00  0.00    -0.005 A 
ATOM      6  C5  UNL d   1      -2.128  -3.940   4.510  0.00  0.00     0.003 A 
ATOM      7  C6  UNL d   1      -2.690  -2.716   4.874  0.00  0.00    -0.001 A 
ENDROOT
TORSDOF 0
ENDMDL
