MODEL 1
REMARK minimizedAffinity 0.0741020069
REMARK minimizedRMSD -1
REMARK  0 active torsions:
REMARK  status: ('A' for Active; 'I' for Inactive)
ROOT
ATOM      1  C   UNL d   1      -1.937   5.687  -4.115  0.00  0.00     0.078 C 
ATOM      2  C1  UNL d   1      -3.188   5.141  -4.735  0.00  0.00    -0.077 A 
ATOM      3  C2  UNL d   1      -3.493   3.776  -4.663  0.00  0.00    -0.001 A 
ATOM      4  C3  UNL d   1      -4.656   3.280  -5.253  0.00  0.00     0.003 A 
ATOM      5  C4  UNL d   1      -5.524   4.142  -5.920  0.00  0.00    -0.005 A 
ATOM      6  C5  UNL d   1      -5.229   5.501  -6.000  0.00  0.00     0.003 A 
ATOM      7  C6  UNL d   1      -4.065   5.999  -5.410  0.00  0.00    -0.001 A 
ENDROOT
TORSDOF 0
ENDMDL
