MODEL 1
REMARK minimizedAffinity 19.5449524
REMARK minimizedRMSD -1
REMARK  1 active torsions:
REMARK  status: ('A' for Active; 'I' for Inactive)
REMARK    1  A    between atoms: C1_2  and  C2_3 
ROOT
ATOM      1  C2  UNL d   1      -1.701  -2.712  -0.848  0.00  0.00    -0.073 A 
ATOM      2  C3  UNL d   1      -2.995  -3.124  -0.506  0.00  0.00    -0.002 A 
ATOM      3  C4  UNL d   1      -3.948  -3.349  -1.499  0.00  0.00     0.004 A 
ATOM      4  C5  UNL d   1      -3.618  -3.173  -2.843  0.00  0.00    -0.004 A 
ATOM      5  C6  UNL d   1      -2.328  -2.773  -3.206  0.00  0.00    -0.075 A 
ATOM      6  C7  UNL d   1      -1.957  -2.577  -4.646  0.00  0.00     0.076 C 
ATOM      7  C8  UNL d   1      -1.376  -2.546  -2.202  0.00  0.00     0.001 A 
ENDROOT
BRANCH   1   8
ATOM      8  C1  UNL d   1      -0.666  -2.474   0.220  0.00  0.00     0.053 C 
ATOM      9  C   UNL d   1      -0.752  -3.502   1.337  0.00  0.00     0.018 C 
ENDBRANCH   1   8
TORSDOF 1
ENDMDL
