MODEL 1
REMARK minimizedAffinity 6.27168465
REMARK minimizedRMSD -1
REMARK  1 active torsions:
REMARK  status: ('A' for Active; 'I' for Inactive)
REMARK    1  A    between atoms: C1_2  and  C2_3 
ROOT
ATOM      1  C2  UNL d   1       2.622   0.685   0.629  0.00  0.00    -0.073 A 
ATOM      2  C3  UNL d   1       2.071  -0.583   0.847  0.00  0.00    -0.002 A 
ATOM      3  C4  UNL d   1       1.011  -1.036   0.060  0.00  0.00     0.004 A 
ATOM      4  C5  UNL d   1       0.496  -0.230  -0.955  0.00  0.00    -0.004 A 
ATOM      5  C6  UNL d   1       1.041   1.035  -1.197  0.00  0.00    -0.075 A 
ATOM      6  C7  UNL d   1       0.498   1.915  -2.284  0.00  0.00     0.076 C 
ATOM      7  C8  UNL d   1       2.104   1.484  -0.400  0.00  0.00     0.001 A 
ENDROOT
BRANCH   1   8
ATOM      8  C1  UNL d   1       3.771   1.175   1.472  0.00  0.00     0.053 C 
ATOM      9  C   UNL d   1       4.086   0.224   2.615  0.00  0.00     0.018 C 
ENDBRANCH   1   8
TORSDOF 1
ENDMDL
