MODEL 1
REMARK minimizedAffinity 11.1756582
REMARK minimizedRMSD -1
REMARK  1 active torsions:
REMARK  status: ('A' for Active; 'I' for Inactive)
REMARK    1  A    between atoms: C1_2  and  C2_3 
ROOT
ATOM      1  C2  UNL d   1      -3.576  -4.974  -2.190  0.00  0.00    -0.073 A 
ATOM      2  C3  UNL d   1      -3.847  -3.607  -2.062  0.00  0.00    -0.002 A 
ATOM      3  C4  UNL d   1      -2.936  -2.661  -2.534  0.00  0.00     0.004 A 
ATOM      4  C5  UNL d   1      -1.751  -3.071  -3.144  0.00  0.00    -0.004 A 
ATOM      5  C6  UNL d   1      -1.467  -4.433  -3.291  0.00  0.00    -0.075 A 
ATOM      6  C7  UNL d   1      -0.195  -4.890  -3.943  0.00  0.00     0.076 C 
ATOM      7  C8  UNL d   1      -2.386  -5.377  -2.812  0.00  0.00     0.001 A 
ENDROOT
BRANCH   1   8
ATOM      8  C1  UNL d   1      -4.559  -6.000  -1.688  0.00  0.00     0.053 C 
ATOM      9  C   UNL d   1      -5.982  -5.685  -2.121  0.00  0.00     0.018 C 
ENDBRANCH   1   8
TORSDOF 1
ENDMDL
