MODEL 1
REMARK minimizedAffinity 14.9803734
REMARK minimizedRMSD -1
REMARK  1 active torsions:
REMARK  status: ('A' for Active; 'I' for Inactive)
REMARK    1  A    between atoms: C1_2  and  C2_3 
ROOT
ATOM      1  C2  UNL d   1      -3.544  -4.676  -0.907  0.00  0.00    -0.073 A 
ATOM      2  C3  UNL d   1      -3.853  -4.231  -2.198  0.00  0.00    -0.002 A 
ATOM      3  C4  UNL d   1      -3.336  -3.024  -2.669  0.00  0.00     0.004 A 
ATOM      4  C5  UNL d   1      -2.501  -2.254  -1.860  0.00  0.00    -0.004 A 
ATOM      5  C6  UNL d   1      -2.172  -2.687  -0.572  0.00  0.00    -0.075 A 
ATOM      6  C7  UNL d   1      -1.277  -1.869   0.313  0.00  0.00     0.076 C 
ATOM      7  C8  UNL d   1      -2.697  -3.899  -0.104  0.00  0.00     0.001 A 
ENDROOT
BRANCH   1   8
ATOM      8  C1  UNL d   1      -4.095  -5.982  -0.396  0.00  0.00     0.053 C 
ATOM      9  C   UNL d   1      -5.616  -5.996  -0.390  0.00  0.00     0.018 C 
ENDBRANCH   1   8
TORSDOF 1
ENDMDL
