MODEL 1
REMARK minimizedAffinity 11.8748817
REMARK minimizedRMSD -1
REMARK  1 active torsions:
REMARK  status: ('A' for Active; 'I' for Inactive)
REMARK    1  A    between atoms: C1_2  and  C2_3 
ROOT
ATOM      1  C2  UNL d   1      -4.965   0.907   3.818  0.00  0.00    -0.073 A 
ATOM      2  C3  UNL d   1      -5.566   0.346   4.951  0.00  0.00    -0.002 A 
ATOM      3  C4  UNL d   1      -5.998   1.162   5.997  0.00  0.00     0.004 A 
ATOM      4  C5  UNL d   1      -5.840   2.545   5.920  0.00  0.00    -0.004 A 
ATOM      5  C6  UNL d   1      -5.253   3.126   4.791  0.00  0.00    -0.075 A 
ATOM      6  C7  UNL d   1      -5.074   4.613   4.693  0.00  0.00     0.076 C 
ATOM      7  C8  UNL d   1      -4.819   2.300   3.746  0.00  0.00     0.001 A 
ENDROOT
BRANCH   1   8
ATOM      8  C1  UNL d   1      -4.503   0.031   2.683  0.00  0.00     0.053 C 
ATOM      9  C   UNL d   1      -3.189  -0.666   3.000  0.00  0.00     0.018 C 
ENDBRANCH   1   8
TORSDOF 1
ENDMDL
