MODEL 1
REMARK minimizedAffinity 7.51328325
REMARK minimizedRMSD -1
REMARK  1 active torsions:
REMARK  status: ('A' for Active; 'I' for Inactive)
REMARK    1  A    between atoms: C1_2  and  C2_3 
ROOT
ATOM      1  C2  UNL d   1      -5.231   1.719   4.950  0.00  0.00    -0.073 A 
ATOM      2  C3  UNL d   1      -4.347   2.232   5.906  0.00  0.00    -0.002 A 
ATOM      3  C4  UNL d   1      -3.986   3.580   5.882  0.00  0.00     0.004 A 
ATOM      4  C5  UNL d   1      -4.510   4.429   4.907  0.00  0.00    -0.004 A 
ATOM      5  C6  UNL d   1      -5.404   3.938   3.950  0.00  0.00    -0.075 A 
ATOM      6  C7  UNL d   1      -5.974   4.838   2.893  0.00  0.00     0.076 C 
ATOM      7  C8  UNL d   1      -5.760   2.583   3.980  0.00  0.00     0.001 A 
ENDROOT
BRANCH   1   8
ATOM      8  C1  UNL d   1      -5.629   0.266   4.977  0.00  0.00     0.053 C 
ATOM      9  C   UNL d   1      -4.425  -0.657   4.874  0.00  0.00     0.018 C 
ENDBRANCH   1   8
TORSDOF 1
ENDMDL
