MODEL 1
REMARK minimizedAffinity 8.45350266
REMARK minimizedRMSD -1
REMARK  1 active torsions:
REMARK  status: ('A' for Active; 'I' for Inactive)
REMARK    1  A    between atoms: C1_2  and  C2_3 
ROOT
ATOM      1  C2  UNL d   1      -5.739   2.347   5.155  0.00  0.00    -0.073 A 
ATOM      2  C3  UNL d   1      -5.997   1.259   5.996  0.00  0.00    -0.002 A 
ATOM      3  C4  UNL d   1      -5.748  -0.043   5.559  0.00  0.00     0.004 A 
ATOM      4  C5  UNL d   1      -5.234  -0.270   4.283  0.00  0.00    -0.004 A 
ATOM      5  C6  UNL d   1      -4.958   0.806   3.432  0.00  0.00    -0.075 A 
ATOM      6  C7  UNL d   1      -4.407   0.579   2.055  0.00  0.00     0.076 C 
ATOM      7  C8  UNL d   1      -5.213   2.110   3.877  0.00  0.00     0.001 A 
ENDROOT
BRANCH   1   8
ATOM      8  C1  UNL d   1      -5.999   3.755   5.625  0.00  0.00     0.053 C 
ATOM      9  C   UNL d   1      -5.640   4.785   4.565  0.00  0.00     0.018 C 
ENDBRANCH   1   8
TORSDOF 1
ENDMDL
