MODEL 1
REMARK minimizedAffinity 9.98478127
REMARK minimizedRMSD -1
REMARK  1 active torsions:
REMARK  status: ('A' for Active; 'I' for Inactive)
REMARK    1  A    between atoms: C1_2  and  C2_3 
ROOT
ATOM      1  C2  UNL d   1      -0.297  -3.940  -4.300  0.00  0.00    -0.073 A 
ATOM      2  C3  UNL d   1      -0.828  -3.626  -5.557  0.00  0.00    -0.002 A 
ATOM      3  C4  UNL d   1      -2.115  -3.099  -5.666  0.00  0.00     0.004 A 
ATOM      4  C5  UNL d   1      -2.881  -2.873  -4.522  0.00  0.00    -0.004 A 
ATOM      5  C6  UNL d   1      -2.364  -3.170  -3.257  0.00  0.00    -0.075 A 
ATOM      6  C7  UNL d   1      -3.176  -2.935  -2.017  0.00  0.00     0.076 C 
ATOM      7  C8  UNL d   1      -1.071  -3.702  -3.156  0.00  0.00     0.001 A 
ENDROOT
BRANCH   1   8
ATOM      8  C1  UNL d   1       1.095  -4.504  -4.177  0.00  0.00     0.053 C 
ATOM      9  C   UNL d   1       2.158  -3.484  -4.549  0.00  0.00     0.018 C 
ENDBRANCH   1   8
TORSDOF 1
ENDMDL
