MODEL 1
REMARK minimizedAffinity 4.70784807
REMARK minimizedRMSD -1
REMARK  1 active torsions:
REMARK  status: ('A' for Active; 'I' for Inactive)
REMARK    1  A    between atoms: C1_2  and  C2_3 
ROOT
ATOM      1  C2  UNL d   1      -3.996   1.818   3.796  0.00  0.00    -0.073 A 
ATOM      2  C3  UNL d   1      -4.259   0.446   3.711  0.00  0.00    -0.002 A 
ATOM      3  C4  UNL d   1      -3.386  -0.398   3.023  0.00  0.00     0.004 A 
ATOM      4  C5  UNL d   1      -2.239   0.119   2.421  0.00  0.00    -0.004 A 
ATOM      5  C6  UNL d   1      -1.952   1.485   2.505  0.00  0.00    -0.075 A 
ATOM      6  C7  UNL d   1      -0.724   2.057   1.860  0.00  0.00     0.076 C 
ATOM      7  C8  UNL d   1      -2.836   2.326   3.195  0.00  0.00     0.001 A 
ENDROOT
BRANCH   1   8
ATOM      8  C1  UNL d   1      -4.933   2.732   4.543  0.00  0.00     0.053 C 
ATOM      9  C   UNL d   1      -5.099   2.314   5.995  0.00  0.00     0.018 C 
ENDBRANCH   1   8
TORSDOF 1
ENDMDL
