MODEL 1
REMARK minimizedAffinity 4.20750618
REMARK minimizedRMSD -1
REMARK  0 active torsions:
REMARK  status: ('A' for Active; 'I' for Inactive)
ROOT
ATOM      1  C1  BNZ d   1      -3.857   1.740  -1.921  0.00  0.00     0.000 A 
ATOM      2  C2  BNZ d   1      -4.876   2.047  -1.059  0.00  0.00     0.000 A 
ATOM      3  C3  BNZ d   1      -5.957   2.769  -1.480  0.00  0.00     0.000 A 
ATOM      4  C4  BNZ d   1      -6.000   3.217  -2.751  0.00  0.00     0.000 A 
ATOM      5  C5  BNZ d   1      -4.976   2.925  -3.631  0.00  0.00     0.000 A 
ATOM      6  C6  BNZ d   1      -3.908   2.164  -3.213  0.00  0.00     0.000 A 
ENDROOT
TORSDOF 0
ENDMDL
