MODEL 1
REMARK minimizedAffinity 0.839874208
REMARK minimizedRMSD -1
REMARK  0 active torsions:
REMARK  status: ('A' for Active; 'I' for Inactive)
ROOT
ATOM      1  C1  BNZ d   1       0.810   1.964   1.235  0.00  0.00     0.000 A 
ATOM      2  C2  BNZ d   1       0.027   2.979   0.755  0.00  0.00     0.000 A 
ATOM      3  C3  BNZ d   1       0.546   3.927  -0.083  0.00  0.00     0.000 A 
ATOM      4  C4  BNZ d   1       1.854   3.881  -0.407  0.00  0.00     0.000 A 
ATOM      5  C5  BNZ d   1       2.659   2.868   0.076  0.00  0.00     0.000 A 
ATOM      6  C6  BNZ d   1       2.124   1.894   0.887  0.00  0.00     0.000 A 
ENDROOT
TORSDOF 0
ENDMDL
