MODEL 1
REMARK minimizedAffinity 2.23207641
REMARK minimizedRMSD -1
REMARK  0 active torsions:
REMARK  status: ('A' for Active; 'I' for Inactive)
ROOT
ATOM      1  C1  BNZ d   1       2.929  -1.729   3.130  0.00  0.00     0.000 A 
ATOM      2  C2  BNZ d   1       3.688  -0.816   2.447  0.00  0.00     0.000 A 
ATOM      3  C3  BNZ d   1       3.099   0.133   1.659  0.00  0.00     0.000 A 
ATOM      4  C4  BNZ d   1       1.757   0.142   1.522  0.00  0.00     0.000 A 
ATOM      5  C5  BNZ d   1       0.980  -0.778   2.197  0.00  0.00     0.000 A 
ATOM      6  C6  BNZ d   1       1.573  -1.707   3.020  0.00  0.00     0.000 A 
ENDROOT
TORSDOF 0
ENDMDL
