MODEL 1
REMARK minimizedAffinity 2.83241463
REMARK minimizedRMSD -1
REMARK  0 active torsions:
REMARK  status: ('A' for Active; 'I' for Inactive)
ROOT
ATOM      1  C1  BNZ d   1      -4.485   1.558  -2.798  0.00  0.00     0.000 A 
ATOM      2  C2  BNZ d   1      -4.503   1.924  -4.118  0.00  0.00     0.000 A 
ATOM      3  C3  BNZ d   1      -5.245   2.993  -4.538  0.00  0.00     0.000 A 
ATOM      4  C4  BNZ d   1      -5.999   3.667  -3.647  0.00  0.00     0.000 A 
ATOM      5  C5  BNZ d   1      -6.000   3.305  -2.315  0.00  0.00     0.000 A 
ATOM      6  C6  BNZ d   1      -5.221   2.253  -1.889  0.00  0.00     0.000 A 
ENDROOT
TORSDOF 0
ENDMDL
