MODEL 1
REMARK minimizedAffinity -0.494006276
REMARK minimizedRMSD -1
REMARK  0 active torsions:
REMARK  status: ('A' for Active; 'I' for Inactive)
ROOT
ATOM      1  C1  BNZ d   1       2.963   1.114   1.788  0.00  0.00     0.000 A 
ATOM      2  C2  BNZ d   1       2.721  -0.226   1.934  0.00  0.00     0.000 A 
ATOM      3  C3  BNZ d   1       2.336  -0.741   3.140  0.00  0.00     0.000 A 
ATOM      4  C4  BNZ d   1       2.233   0.078   4.207  0.00  0.00     0.000 A 
ATOM      5  C5  BNZ d   1       2.482   1.429   4.079  0.00  0.00     0.000 A 
ATOM      6  C6  BNZ d   1       2.832   1.950   2.854  0.00  0.00     0.000 A 
ENDROOT
TORSDOF 0
ENDMDL
