MODEL 1
REMARK minimizedAffinity 0.778316796
REMARK minimizedRMSD -1
REMARK  0 active torsions:
REMARK  status: ('A' for Active; 'I' for Inactive)
ROOT
ATOM      1  C1  BNZ d   1      -3.759   2.251  -2.006  0.00  0.00     0.000 A 
ATOM      2  C2  BNZ d   1      -3.781   2.250  -3.375  0.00  0.00     0.000 A 
ATOM      3  C3  BNZ d   1      -4.897   2.650  -4.057  0.00  0.00     0.000 A 
ATOM      4  C4  BNZ d   1      -6.000   3.011  -3.370  0.00  0.00     0.000 A 
ATOM      5  C5  BNZ d   1      -5.996   3.008  -1.990  0.00  0.00     0.000 A 
ATOM      6  C6  BNZ d   1      -4.859   2.642  -1.307  0.00  0.00     0.000 A 
ENDROOT
TORSDOF 0
ENDMDL
