MODEL 1
REMARK minimizedAffinity 5.76471424
REMARK minimizedRMSD -1
REMARK  0 active torsions:
REMARK  status: ('A' for Active; 'I' for Inactive)
ROOT
ATOM      1  C1  BNZ d   1       4.281  -1.506   3.005  0.00  0.00     0.000 A 
ATOM      2  C2  BNZ d   1       4.027  -0.633   1.981  0.00  0.00     0.000 A 
ATOM      3  C3  BNZ d   1       2.775  -0.117   1.795  0.00  0.00     0.000 A 
ATOM      4  C4  BNZ d   1       1.771  -0.505   2.607  0.00  0.00     0.000 A 
ATOM      5  C5  BNZ d   1       2.009  -1.392   3.639  0.00  0.00     0.000 A 
ATOM      6  C6  BNZ d   1       3.279  -1.879   3.847  0.00  0.00     0.000 A 
ENDROOT
TORSDOF 0
ENDMDL
