MODEL 1
REMARK minimizedAffinity 1.13529158
REMARK minimizedRMSD -1
REMARK  0 active torsions:
REMARK  status: ('A' for Active; 'I' for Inactive)
ROOT
ATOM      1  C1  BNZ d   1      -4.112   1.891  -2.126  0.00  0.00     0.000 A 
ATOM      2  C2  BNZ d   1      -4.130   1.985  -3.492  0.00  0.00     0.000 A 
ATOM      3  C3  BNZ d   1      -5.063   2.755  -4.128  0.00  0.00     0.000 A 
ATOM      4  C4  BNZ d   1      -6.000   3.398  -3.401  0.00  0.00     0.000 A 
ATOM      5  C5  BNZ d   1      -6.000   3.306  -2.023  0.00  0.00     0.000 A 
ATOM      6  C6  BNZ d   1      -5.035   2.561  -1.384  0.00  0.00     0.000 A 
ENDROOT
TORSDOF 0
ENDMDL
