MODEL 1
REMARK minimizedAffinity 4.59274721
REMARK minimizedRMSD -1
REMARK  0 active torsions:
REMARK  status: ('A' for Active; 'I' for Inactive)
ROOT
ATOM      1  C1  BNZ d   1       2.070   0.026   1.518  0.00  0.00     0.000 A 
ATOM      2  C2  BNZ d   1       1.352  -0.806   2.336  0.00  0.00     0.000 A 
ATOM      3  C3  BNZ d   1       1.980  -1.754   3.094  0.00  0.00     0.000 A 
ATOM      4  C4  BNZ d   1       3.318  -1.896   3.004  0.00  0.00     0.000 A 
ATOM      5  C5  BNZ d   1       4.055  -1.071   2.177  0.00  0.00     0.000 A 
ATOM      6  C6  BNZ d   1       3.424  -0.092   1.445  0.00  0.00     0.000 A 
ENDROOT
TORSDOF 0
ENDMDL
