MODEL 1
REMARK minimizedAffinity 4.56036329
REMARK minimizedRMSD -1
REMARK  0 active torsions:
REMARK  status: ('A' for Active; 'I' for Inactive)
ROOT
ATOM      1  C1  BNZ d   1      -2.855  -3.521  -1.469  0.00  0.00     0.000 A 
ATOM      2  C2  BNZ d   1      -2.156  -2.907  -2.474  0.00  0.00     0.000 A 
ATOM      3  C3  BNZ d   1      -0.964  -2.290  -2.222  0.00  0.00     0.000 A 
ATOM      4  C4  BNZ d   1      -0.491  -2.252  -0.959  0.00  0.00     0.000 A 
ATOM      5  C5  BNZ d   1      -1.189  -2.858   0.067  0.00  0.00     0.000 A 
ATOM      6  C6  BNZ d   1      -2.370  -3.512  -0.198  0.00  0.00     0.000 A 
ENDROOT
TORSDOF 0
ENDMDL
