MODEL 1
REMARK minimizedAffinity 0.108674757
REMARK minimizedRMSD -1
REMARK  0 active torsions:
REMARK  status: ('A' for Active; 'I' for Inactive)
ROOT
ATOM      1  C1  BNZ d   1       0.703   0.112   1.283  0.00  0.00     0.000 A 
ATOM      2  C2  BNZ d   1       0.799  -1.067   1.971  0.00  0.00     0.000 A 
ATOM      3  C3  BNZ d   1       1.813  -1.277   2.864  0.00  0.00     0.000 A 
ATOM      4  C4  BNZ d   1       2.751  -0.324   3.036  0.00  0.00     0.000 A 
ATOM      5  C5  BNZ d   1       2.674   0.867   2.342  0.00  0.00     0.000 A 
ATOM      6  C6  BNZ d   1       1.630   1.090   1.474  0.00  0.00     0.000 A 
ENDROOT
TORSDOF 0
ENDMDL
