MODEL 1
REMARK minimizedAffinity -5.27714491
REMARK minimizedRMSD -1
REMARK  0 active torsions:
REMARK  status: ('A' for Active; 'I' for Inactive)
ROOT
ATOM      1  C1  BNZ d   1      -1.746   3.079   0.929  0.00  0.00     0.000 A 
ATOM      2  C2  BNZ d   1      -0.926   3.180  -0.164  0.00  0.00     0.000 A 
ATOM      3  C3  BNZ d   1      -0.302   2.077  -0.675  0.00  0.00     0.000 A 
ATOM      4  C4  BNZ d   1      -0.465   0.883  -0.070  0.00  0.00     0.000 A 
ATOM      5  C5  BNZ d   1      -1.281   0.766   1.038  0.00  0.00     0.000 A 
ATOM      6  C6  BNZ d   1      -1.939   1.872   1.527  0.00  0.00     0.000 A 
ENDROOT
TORSDOF 0
ENDMDL
