MODEL 1
REMARK minimizedAffinity -4.46026325
REMARK minimizedRMSD -1
REMARK  0 active torsions:
REMARK  status: ('A' for Active; 'I' for Inactive)
ROOT
ATOM      1  C1  BNZ d   1      -1.316   0.063   2.261  0.00  0.00     0.000 A 
ATOM      2  C2  BNZ d   1      -0.198  -0.647   1.913  0.00  0.00     0.000 A 
ATOM      3  C3  BNZ d   1       0.332  -0.545   0.657  0.00  0.00     0.000 A 
ATOM      4  C4  BNZ d   1      -0.279   0.233  -0.260  0.00  0.00     0.000 A 
ATOM      5  C5  BNZ d   1      -1.413   0.947   0.074  0.00  0.00     0.000 A 
ATOM      6  C6  BNZ d   1      -1.921   0.873   1.350  0.00  0.00     0.000 A 
ENDROOT
TORSDOF 0
ENDMDL
