MODEL 1
REMARK minimizedAffinity -5.00374889
REMARK minimizedRMSD -1
REMARK  0 active torsions:
REMARK  status: ('A' for Active; 'I' for Inactive)
ROOT
ATOM      1  C1  BNZ d   1      -0.069   0.563  -0.398  0.00  0.00     0.000 A 
ATOM      2  C2  BNZ d   1      -0.959   1.535  -0.025  0.00  0.00     0.000 A 
ATOM      3  C3  BNZ d   1      -1.483   1.557   1.237  0.00  0.00     0.000 A 
ATOM      4  C4  BNZ d   1      -1.148   0.586   2.111  0.00  0.00     0.000 A 
ATOM      5  C5  BNZ d   1      -0.260  -0.406   1.747  0.00  0.00     0.000 A 
ATOM      6  C6  BNZ d   1       0.296  -0.403   0.488  0.00  0.00     0.000 A 
ENDROOT
TORSDOF 0
ENDMDL
