MODEL 1
REMARK minimizedAffinity -4.08169937
REMARK minimizedRMSD -1
REMARK  0 active torsions:
REMARK  status: ('A' for Active; 'I' for Inactive)
ROOT
ATOM      1  C1  BNZ d   1       0.031   0.402  -0.032  0.00  0.00     0.000 A 
ATOM      2  C2  BNZ d   1      -0.919   1.354   0.224  0.00  0.00     0.000 A 
ATOM      3  C3  BNZ d   1      -1.722   1.263   1.327  0.00  0.00     0.000 A 
ATOM      4  C4  BNZ d   1      -1.602   0.200   2.148  0.00  0.00     0.000 A 
ATOM      5  C5  BNZ d   1      -0.655  -0.774   1.898  0.00  0.00     0.000 A 
ATOM      6  C6  BNZ d   1       0.178  -0.658   0.808  0.00  0.00     0.000 A 
ENDROOT
TORSDOF 0
ENDMDL
