MODEL 1
REMARK minimizedAffinity -3.64236903
REMARK minimizedRMSD -1
REMARK  0 active torsions:
REMARK  status: ('A' for Active; 'I' for Inactive)
ROOT
ATOM      1  C1  BNZ d   1       0.065  -1.621  -2.315  0.00  0.00     0.000 A 
ATOM      2  C2  BNZ d   1      -0.184  -2.653  -3.179  0.00  0.00     0.000 A 
ATOM      3  C3  BNZ d   1       0.243  -3.921  -2.897  0.00  0.00     0.000 A 
ATOM      4  C4  BNZ d   1       0.953  -4.146  -1.772  0.00  0.00     0.000 A 
ATOM      5  C5  BNZ d   1       1.220  -3.114  -0.896  0.00  0.00     0.000 A 
ATOM      6  C6  BNZ d   1       0.755  -1.847  -1.164  0.00  0.00     0.000 A 
ENDROOT
TORSDOF 0
ENDMDL
