MODEL 1
REMARK minimizedAffinity -3.79637861
REMARK minimizedRMSD -1
REMARK  0 active torsions:
REMARK  status: ('A' for Active; 'I' for Inactive)
ROOT
ATOM      1  C1  BNZ d   1      -1.255   1.751   0.206  0.00  0.00     0.000 A 
ATOM      2  C2  BNZ d   1      -0.344   1.490  -0.783  0.00  0.00     0.000 A 
ATOM      3  C3  BNZ d   1       0.322   0.297  -0.824  0.00  0.00     0.000 A 
ATOM      4  C4  BNZ d   1       0.105  -0.617   0.144  0.00  0.00     0.000 A 
ATOM      5  C5  BNZ d   1      -0.803  -0.364   1.153  0.00  0.00     0.000 A 
ATOM      6  C6  BNZ d   1      -1.499   0.822   1.169  0.00  0.00     0.000 A 
ENDROOT
TORSDOF 0
ENDMDL
