MODEL 1
REMARK minimizedAffinity -2.25294566
REMARK minimizedRMSD -1
REMARK  0 active torsions:
REMARK  status: ('A' for Active; 'I' for Inactive)
ROOT
ATOM      1  C1  BNZ d   1       0.856  -0.483  -0.271  0.00  0.00     0.000 A 
ATOM      2  C2  BNZ d   1       0.006  -0.271   0.781  0.00  0.00     0.000 A 
ATOM      3  C3  BNZ d   1      -0.795   0.836   0.822  0.00  0.00     0.000 A 
ATOM      4  C4  BNZ d   1      -0.715   1.748  -0.168  0.00  0.00     0.000 A 
ATOM      5  C5  BNZ d   1       0.144   1.553  -1.231  0.00  0.00     0.000 A 
ATOM      6  C6  BNZ d   1       0.920   0.418  -1.288  0.00  0.00     0.000 A 
ENDROOT
TORSDOF 0
ENDMDL
