MODEL 1
REMARK minimizedAffinity -1.88416135
REMARK minimizedRMSD -1
REMARK  0 active torsions:
REMARK  status: ('A' for Active; 'I' for Inactive)
ROOT
ATOM      1  C1  BNZ d   1      -0.343   1.250  -0.189  0.00  0.00     0.000 A 
ATOM      2  C2  BNZ d   1       0.437   1.065  -1.300  0.00  0.00     0.000 A 
ATOM      3  C3  BNZ d   1       1.198  -0.062  -1.441  0.00  0.00     0.000 A 
ATOM      4  C4  BNZ d   1       1.210  -0.982  -0.455  0.00  0.00     0.000 A 
ATOM      5  C5  BNZ d   1       0.437  -0.805   0.675  0.00  0.00     0.000 A 
ATOM      6  C6  BNZ d   1      -0.358   0.311   0.796  0.00  0.00     0.000 A 
ENDROOT
TORSDOF 0
ENDMDL
