MODEL 1
REMARK minimizedAffinity -3.77775192
REMARK minimizedRMSD -1
REMARK  0 active torsions:
REMARK  status: ('A' for Active; 'I' for Inactive)
ROOT
ATOM      1  C1  BNZ d   1      -1.475   1.480   0.009  0.00  0.00     0.000 A 
ATOM      2  C2  BNZ d   1      -0.629   0.545  -0.524  0.00  0.00     0.000 A 
ATOM      3  C3  BNZ d   1       0.052  -0.323   0.283  0.00  0.00     0.000 A 
ATOM      4  C4  BNZ d   1      -0.082  -0.228   1.622  0.00  0.00     0.000 A 
ATOM      5  C5  BNZ d   1      -0.925   0.715   2.175  0.00  0.00     0.000 A 
ATOM      6  C6  BNZ d   1      -1.639   1.562   1.358  0.00  0.00     0.000 A 
ENDROOT
TORSDOF 0
ENDMDL
