MODEL 1
REMARK minimizedAffinity -5.25040579
REMARK minimizedRMSD -1
REMARK  0 active torsions:
REMARK  status: ('A' for Active; 'I' for Inactive)
ROOT
ATOM      1  C1  BNZ d   1      -0.168   0.869   0.015  0.00  0.00     0.000 A 
ATOM      2  C2  BNZ d   1      -0.035   2.179  -0.364  0.00  0.00     0.000 A 
ATOM      3  C3  BNZ d   1      -0.891   3.134   0.109  0.00  0.00     0.000 A 
ATOM      4  C4  BNZ d   1      -1.901   2.774   0.926  0.00  0.00     0.000 A 
ATOM      5  C5  BNZ d   1      -2.054   1.456   1.310  0.00  0.00     0.000 A 
ATOM      6  C6  BNZ d   1      -1.167   0.503   0.863  0.00  0.00     0.000 A 
ENDROOT
TORSDOF 0
ENDMDL
