MODEL 1
REMARK minimizedAffinity -4.34537792
REMARK minimizedRMSD -1
REMARK  0 active torsions:
REMARK  status: ('A' for Active; 'I' for Inactive)
ROOT
ATOM      1  C1  BNZ d   1      -0.844   0.255   2.121  0.00  0.00     0.000 A 
ATOM      2  C2  BNZ d   1      -0.028  -0.683   1.546  0.00  0.00     0.000 A 
ATOM      3  C3  BNZ d   1       0.425  -0.525   0.266  0.00  0.00     0.000 A 
ATOM      4  C4  BNZ d   1       0.029   0.547  -0.450  0.00  0.00     0.000 A 
ATOM      5  C5  BNZ d   1      -0.801   1.496   0.112  0.00  0.00     0.000 A 
ATOM      6  C6  BNZ d   1      -1.223   1.354   1.414  0.00  0.00     0.000 A 
ENDROOT
TORSDOF 0
ENDMDL
