MODEL 1
REMARK minimizedAffinity -5.08990288
REMARK minimizedRMSD -1
REMARK  0 active torsions:
REMARK  status: ('A' for Active; 'I' for Inactive)
ROOT
ATOM      1  C1  BNZ d   1      -1.242   3.696   0.608  0.00  0.00     0.000 A 
ATOM      2  C2  BNZ d   1      -1.550   2.460   1.111  0.00  0.00     0.000 A 
ATOM      3  C3  BNZ d   1      -0.865   1.349   0.705  0.00  0.00     0.000 A 
ATOM      4  C4  BNZ d   1       0.099   1.469  -0.230  0.00  0.00     0.000 A 
ATOM      5  C5  BNZ d   1       0.415   2.707  -0.754  0.00  0.00     0.000 A 
ATOM      6  C6  BNZ d   1      -0.251   3.828  -0.315  0.00  0.00     0.000 A 
ENDROOT
TORSDOF 0
ENDMDL
