MODEL 1
REMARK minimizedAffinity -4.3794446
REMARK minimizedRMSD -1
REMARK  0 active torsions:
REMARK  status: ('A' for Active; 'I' for Inactive)
ROOT
ATOM      1  C1  BNZ d   1      -1.309   1.510   0.595  0.00  0.00     0.000 A 
ATOM      2  C2  BNZ d   1      -0.559   1.318  -0.533  0.00  0.00     0.000 A 
ATOM      3  C3  BNZ d   1       0.259   0.229  -0.653  0.00  0.00     0.000 A 
ATOM      4  C4  BNZ d   1       0.355  -0.644   0.371  0.00  0.00     0.000 A 
ATOM      5  C5  BNZ d   1      -0.388  -0.458   1.520  0.00  0.00     0.000 A 
ATOM      6  C6  BNZ d   1      -1.240   0.618   1.621  0.00  0.00     0.000 A 
ENDROOT
TORSDOF 0
ENDMDL
