MODEL 1
REMARK minimizedAffinity -4.60307503
REMARK minimizedRMSD -1
REMARK  0 active torsions:
REMARK  status: ('A' for Active; 'I' for Inactive)
ROOT
ATOM      1  C1  BNZ d   1      -2.081   2.617  -1.574  0.00  0.00     0.000 A 
ATOM      2  C2  BNZ d   1      -1.741   3.934  -1.731  0.00  0.00     0.000 A 
ATOM      3  C3  BNZ d   1      -0.431   4.310  -1.836  0.00  0.00     0.000 A 
ATOM      4  C4  BNZ d   1       0.537   3.376  -1.745  0.00  0.00     0.000 A 
ATOM      5  C5  BNZ d   1       0.210   2.045  -1.577  0.00  0.00     0.000 A 
ATOM      6  C6  BNZ d   1      -1.111   1.665  -1.510  0.00  0.00     0.000 A 
ENDROOT
TORSDOF 0
ENDMDL
