MODEL 1
REMARK minimizedAffinity 7.49025583
REMARK minimizedRMSD -1
REMARK  2 active torsions:
REMARK  status: ('A' for Active; 'I' for Inactive)
REMARK    1  A    between atoms: C1_2  and  C2_3 
REMARK    2  A    between atoms: C2_3  and  C3_4 
ROOT
ATOM      1  C3  UNL d   1      -0.357  -2.366   1.924  0.00  0.00    -0.075 A 
ATOM      2  C4  UNL d   1      -1.489  -3.061   1.475  0.00  0.00     0.002 A 
ATOM      3  C5  UNL d   1      -2.726  -2.421   1.390  0.00  0.00     0.002 A 
ATOM      4  C6  UNL d   1      -2.849  -1.085   1.763  0.00  0.00    -0.004 A 
ATOM      5  C7  UNL d   1      -1.734  -0.389   2.226  0.00  0.00     0.002 A 
ATOM      6  C8  UNL d   1      -0.494  -1.026   2.308  0.00  0.00     0.002 A 
ENDROOT
BRANCH   1   7
ATOM      7  C2  UNL d   1       0.991  -3.045   1.989  0.00  0.00     0.056 C 
BRANCH   7   8
ATOM      8  C1  UNL d   1       2.172  -2.115   1.695  0.00  0.00     0.007 C 
ATOM      9  C   UNL d   1       3.134  -2.676   0.656  0.00  0.00     0.009 C 
ENDBRANCH   7   8
ENDBRANCH   1   7
TORSDOF 2
ENDMDL
