MODEL 1
REMARK minimizedAffinity 3.14069533
REMARK minimizedRMSD -1
REMARK  2 active torsions:
REMARK  status: ('A' for Active; 'I' for Inactive)
REMARK    1  A    between atoms: C1_2  and  C2_3 
REMARK    2  A    between atoms: C2_3  and  C3_4 
ROOT
ATOM      1  C3  UNL d   1      -3.636   1.488   4.551  0.00  0.00    -0.075 A 
ATOM      2  C4  UNL d   1      -3.680   2.343   5.662  0.00  0.00     0.002 A 
ATOM      3  C5  UNL d   1      -4.857   3.016   5.991  0.00  0.00     0.002 A 
ATOM      4  C6  UNL d   1      -5.999   2.852   5.211  0.00  0.00    -0.004 A 
ATOM      5  C7  UNL d   1      -5.962   2.018   4.095  0.00  0.00     0.002 A 
ATOM      6  C8  UNL d   1      -4.787   1.340   3.766  0.00  0.00     0.002 A 
ENDROOT
BRANCH   1   7
ATOM      7  C2  UNL d   1      -2.374   0.733   4.207  0.00  0.00     0.056 C 
BRANCH   7   8
ATOM      8  C1  UNL d   1      -2.234   0.400   2.718  0.00  0.00     0.007 C 
ATOM      9  C   UNL d   1      -1.874  -1.057   2.460  0.00  0.00     0.009 C 
ENDBRANCH   7   8
ENDBRANCH   1   7
TORSDOF 2
ENDMDL
