MODEL 1
REMARK minimizedAffinity 4.55320072
REMARK minimizedRMSD -1
REMARK  2 active torsions:
REMARK  status: ('A' for Active; 'I' for Inactive)
REMARK    1  A    between atoms: C1_2  and  C2_3 
REMARK    2  A    between atoms: C2_3  and  C3_4 
ROOT
ATOM      1  C3  UNL d   1      -2.371   0.683   3.348  0.00  0.00    -0.075 A 
ATOM      2  C4  UNL d   1      -2.432   0.183   2.039  0.00  0.00     0.002 A 
ATOM      3  C5  UNL d   1      -1.663  -0.919   1.665  0.00  0.00     0.002 A 
ATOM      4  C6  UNL d   1      -0.816  -1.527   2.589  0.00  0.00    -0.004 A 
ATOM      5  C7  UNL d   1      -0.734  -1.028   3.887  0.00  0.00     0.002 A 
ATOM      6  C8  UNL d   1      -1.506   0.072   4.266  0.00  0.00     0.002 A 
ENDROOT
BRANCH   1   7
ATOM      7  C2  UNL d   1      -3.223   1.857   3.767  0.00  0.00     0.056 C 
BRANCH   7   8
ATOM      8  C1  UNL d   1      -3.527   1.903   5.268  0.00  0.00     0.007 C 
ATOM      9  C   UNL d   1      -4.489   3.019   5.653  0.00  0.00     0.009 C 
ENDBRANCH   7   8
ENDBRANCH   1   7
TORSDOF 2
ENDMDL
