MODEL 1
REMARK minimizedAffinity 6.4383564
REMARK minimizedRMSD -1
REMARK  2 active torsions:
REMARK  status: ('A' for Active; 'I' for Inactive)
REMARK    1  A    between atoms: C1_2  and  C2_3 
REMARK    2  A    between atoms: C2_3  and  C3_4 
ROOT
ATOM      1  C3  UNL d   1      -4.037   1.830   5.091  0.00  0.00    -0.075 A 
ATOM      2  C4  UNL d   1      -3.193   1.149   5.980  0.00  0.00     0.002 A 
ATOM      3  C5  UNL d   1      -2.086   0.444   5.507  0.00  0.00     0.002 A 
ATOM      4  C6  UNL d   1      -1.815   0.402   4.141  0.00  0.00    -0.004 A 
ATOM      5  C7  UNL d   1      -2.656   1.061   3.247  0.00  0.00     0.002 A 
ATOM      6  C8  UNL d   1      -3.762   1.771   3.718  0.00  0.00     0.002 A 
ENDROOT
BRANCH   1   7
ATOM      7  C2  UNL d   1      -5.220   2.619   5.599  0.00  0.00     0.056 C 
BRANCH   7   8
ATOM      8  C1  UNL d   1      -4.883   4.059   5.999  0.00  0.00     0.007 C 
ATOM      9  C   UNL d   1      -5.999   5.046   5.683  0.00  0.00     0.009 C 
ENDBRANCH   7   8
ENDBRANCH   1   7
TORSDOF 2
ENDMDL
