MODEL 1
REMARK minimizedAffinity 11.2373199
REMARK minimizedRMSD -1
REMARK  2 active torsions:
REMARK  status: ('A' for Active; 'I' for Inactive)
REMARK    1  A    between atoms: C1_2  and  C2_3 
REMARK    2  A    between atoms: C2_3  and  C3_4 
ROOT
ATOM      1  C3  UNL d   1      -3.496   1.480   4.449  0.00  0.00    -0.075 A 
ATOM      2  C4  UNL d   1      -3.061   1.118   3.166  0.00  0.00     0.002 A 
ATOM      3  C5  UNL d   1      -1.884   0.389   2.996  0.00  0.00     0.002 A 
ATOM      4  C6  UNL d   1      -1.122   0.022   4.104  0.00  0.00    -0.004 A 
ATOM      5  C7  UNL d   1      -1.536   0.391   5.382  0.00  0.00     0.002 A 
ATOM      6  C8  UNL d   1      -2.716   1.117   5.555  0.00  0.00     0.002 A 
ENDROOT
BRANCH   1   7
ATOM      7  C2  UNL d   1      -4.784   2.244   4.642  0.00  0.00     0.056 C 
BRANCH   7   8
ATOM      8  C1  UNL d   1      -4.897   2.944   6.000  0.00  0.00     0.007 C 
ATOM      9  C   UNL d   1      -4.414   4.388   5.973  0.00  0.00     0.009 C 
ENDBRANCH   7   8
ENDBRANCH   1   7
TORSDOF 2
ENDMDL
