MODEL 1
REMARK minimizedAffinity 7.24814129
REMARK minimizedRMSD -1
REMARK  2 active torsions:
REMARK  status: ('A' for Active; 'I' for Inactive)
REMARK    1  A    between atoms: C1_2  and  C2_3 
REMARK    2  A    between atoms: C2_3  and  C3_4 
ROOT
ATOM      1  C3  UNL d   1       3.317  -4.633  -0.045  0.00  0.00    -0.075 A 
ATOM      2  C4  UNL d   1       3.946  -5.886  -0.077  0.00  0.00     0.002 A 
ATOM      3  C5  UNL d   1       5.281  -5.999  -0.467  0.00  0.00     0.002 A 
ATOM      4  C6  UNL d   1       6.000  -4.866  -0.839  0.00  0.00    -0.004 A 
ATOM      5  C7  UNL d   1       5.380  -3.618  -0.827  0.00  0.00     0.002 A 
ATOM      6  C8  UNL d   1       4.046  -3.501  -0.433  0.00  0.00     0.002 A 
ENDROOT
BRANCH   1   7
ATOM      7  C2  UNL d   1       1.882  -4.500   0.404  0.00  0.00     0.056 C 
BRANCH   7   8
ATOM      8  C1  UNL d   1       1.722  -3.960   1.829  0.00  0.00     0.007 C 
ATOM      9  C   UNL d   1       0.945  -2.651   1.891  0.00  0.00     0.009 C 
ENDBRANCH   7   8
ENDBRANCH   1   7
TORSDOF 2
ENDMDL
