MODEL 1
REMARK minimizedAffinity 9.90982914
REMARK minimizedRMSD -1
REMARK  2 active torsions:
REMARK  status: ('A' for Active; 'I' for Inactive)
REMARK    1  A    between atoms: C1_2  and  C2_3 
REMARK    2  A    between atoms: C2_3  and  C3_4 
ROOT
ATOM      1  C3  UNL d   1      -1.823   0.779   3.540  0.00  0.00    -0.075 A 
ATOM      2  C4  UNL d   1      -2.957   1.551   3.246  0.00  0.00     0.002 A 
ATOM      3  C5  UNL d   1      -3.733   2.088   4.273  0.00  0.00     0.002 A 
ATOM      4  C6  UNL d   1      -3.394   1.852   5.604  0.00  0.00    -0.004 A 
ATOM      5  C7  UNL d   1      -2.279   1.072   5.907  0.00  0.00     0.002 A 
ATOM      6  C8  UNL d   1      -1.498   0.538   4.881  0.00  0.00     0.002 A 
ENDROOT
BRANCH   1   7
ATOM      7  C2  UNL d   1      -0.962   0.219   2.433  0.00  0.00     0.056 C 
BRANCH   7   8
ATOM      8  C1  UNL d   1      -1.325  -1.212   2.023  0.00  0.00     0.007 C 
ATOM      9  C   UNL d   1      -2.790  -1.374   1.640  0.00  0.00     0.009 C 
ENDBRANCH   7   8
ENDBRANCH   1   7
TORSDOF 2
ENDMDL
