MODEL 1
REMARK minimizedAffinity 10.6765537
REMARK minimizedRMSD -1
REMARK  2 active torsions:
REMARK  status: ('A' for Active; 'I' for Inactive)
REMARK    1  A    between atoms: C1_2  and  C2_3 
REMARK    2  A    between atoms: C2_3  and  C3_4 
ROOT
ATOM      1  C3  UNL d   1      -4.784   1.869   4.382  0.00  0.00    -0.075 A 
ATOM      2  C4  UNL d   1      -5.676   1.373   3.420  0.00  0.00     0.002 A 
ATOM      3  C5  UNL d   1      -5.223   0.538   2.398  0.00  0.00     0.002 A 
ATOM      4  C6  UNL d   1      -3.875   0.198   2.318  0.00  0.00    -0.004 A 
ATOM      5  C7  UNL d   1      -2.977   0.698   3.259  0.00  0.00     0.002 A 
ATOM      6  C8  UNL d   1      -3.428   1.530   4.285  0.00  0.00     0.002 A 
ENDROOT
BRANCH   1   7
ATOM      7  C2  UNL d   1      -5.273   2.749   5.508  0.00  0.00     0.056 C 
BRANCH   7   8
ATOM      8  C1  UNL d   1      -5.951   4.041   5.040  0.00  0.00     0.007 C 
ATOM      9  C   UNL d   1      -5.749   5.206   6.000  0.00  0.00     0.009 C 
ENDBRANCH   7   8
ENDBRANCH   1   7
TORSDOF 2
ENDMDL
