MODEL 1
REMARK minimizedAffinity 8.07059765
REMARK minimizedRMSD -1
REMARK  2 active torsions:
REMARK  status: ('A' for Active; 'I' for Inactive)
REMARK    1  A    between atoms: C1_2  and  C2_3 
REMARK    2  A    between atoms: C2_3  and  C3_4 
ROOT
ATOM      1  C3  UNL d   1      -3.661   1.395   4.732  0.00  0.00    -0.075 A 
ATOM      2  C4  UNL d   1      -2.750   1.587   3.683  0.00  0.00     0.002 A 
ATOM      3  C5  UNL d   1      -1.440   1.118   3.788  0.00  0.00     0.002 A 
ATOM      4  C6  UNL d   1      -1.022   0.462   4.944  0.00  0.00    -0.004 A 
ATOM      5  C7  UNL d   1      -1.914   0.280   5.998  0.00  0.00     0.002 A 
ATOM      6  C8  UNL d   1      -3.226   0.744   5.895  0.00  0.00     0.002 A 
ENDROOT
BRANCH   1   7
ATOM      7  C2  UNL d   1      -5.088   1.874   4.613  0.00  0.00     0.056 C 
BRANCH   7   8
ATOM      8  C1  UNL d   1      -5.626   2.550   5.879  0.00  0.00     0.007 C 
ATOM      9  C   UNL d   1      -5.217   4.012   5.999  0.00  0.00     0.009 C 
ENDBRANCH   7   8
ENDBRANCH   1   7
TORSDOF 2
ENDMDL
