MODEL 1
REMARK minimizedAffinity 6.30200291
REMARK minimizedRMSD -1
REMARK  2 active torsions:
REMARK  status: ('A' for Active; 'I' for Inactive)
REMARK    1  A    between atoms: C1_2  and  C2_3 
REMARK    2  A    between atoms: C2_3  and  C3_4 
ROOT
ATOM      1  C3  UNL d   1      -1.386   0.717   3.786  0.00  0.00    -0.075 A 
ATOM      2  C4  UNL d   1      -0.755   0.233   4.942  0.00  0.00     0.002 A 
ATOM      3  C5  UNL d   1       0.207  -0.773   4.855  0.00  0.00     0.002 A 
ATOM      4  C6  UNL d   1       0.543  -1.316   3.616  0.00  0.00    -0.004 A 
ATOM      5  C7  UNL d   1      -0.090  -0.855   2.464  0.00  0.00     0.002 A 
ATOM      6  C8  UNL d   1      -1.050   0.156   2.547  0.00  0.00     0.002 A 
ENDROOT
BRANCH   1   7
ATOM      7  C2  UNL d   1      -2.406   1.826   3.870  0.00  0.00     0.056 C 
BRANCH   7   8
ATOM      8  C1  UNL d   1      -2.876   2.135   5.296  0.00  0.00     0.007 C 
ATOM      9  C   UNL d   1      -4.231   2.830   5.345  0.00  0.00     0.009 C 
ENDBRANCH   7   8
ENDBRANCH   1   7
TORSDOF 2
ENDMDL
