MODEL 1
REMARK minimizedAffinity 12.1900959
REMARK minimizedRMSD -1
REMARK  2 active torsions:
REMARK  status: ('A' for Active; 'I' for Inactive)
REMARK    1  A    between atoms: C1_2  and  C2_3 
REMARK    2  A    between atoms: C2_3  and  C3_4 
ROOT
ATOM      1  C3  UNL d   1       3.886   4.821  -2.288  0.00  0.00    -0.075 A 
ATOM      2  C4  UNL d   1       3.160   5.996  -2.047  0.00  0.00     0.002 A 
ATOM      3  C5  UNL d   1       1.765   5.981  -2.051  0.00  0.00     0.002 A 
ATOM      4  C6  UNL d   1       1.079   4.795  -2.305  0.00  0.00    -0.004 A 
ATOM      5  C7  UNL d   1       1.790   3.625  -2.562  0.00  0.00     0.002 A 
ATOM      6  C8  UNL d   1       3.186   3.636  -2.554  0.00  0.00     0.002 A 
ENDROOT
BRANCH   1   7
ATOM      7  C2  UNL d   1       5.395   4.825  -2.256  0.00  0.00     0.056 C 
BRANCH   7   8
ATOM      8  C1  UNL d   1       6.000   5.995  -1.473  0.00  0.00     0.007 C 
ATOM      9  C   UNL d   1       5.870   5.840   0.036  0.00  0.00     0.009 C 
ENDBRANCH   7   8
ENDBRANCH   1   7
TORSDOF 2
ENDMDL
