MODEL 1
REMARK minimizedAffinity 16.9788113
REMARK minimizedRMSD -1
REMARK  2 active torsions:
REMARK  status: ('A' for Active; 'I' for Inactive)
REMARK    1  A    between atoms: C1_2  and  C2_3 
REMARK    2  A    between atoms: C2_3  and  C3_4 
ROOT
ATOM      1  C3  UNL d   1      -3.817   1.993   5.004  0.00  0.00    -0.075 A 
ATOM      2  C4  UNL d   1      -3.638   1.985   3.613  0.00  0.00     0.002 A 
ATOM      3  C5  UNL d   1      -2.641   1.201   3.032  0.00  0.00     0.002 A 
ATOM      4  C6  UNL d   1      -1.805   0.426   3.832  0.00  0.00    -0.004 A 
ATOM      5  C7  UNL d   1      -1.963   0.439   5.216  0.00  0.00     0.002 A 
ATOM      6  C8  UNL d   1      -2.962   1.219   5.801  0.00  0.00     0.002 A 
ENDROOT
BRANCH   1   7
ATOM      7  C2  UNL d   1      -4.913   2.816   5.638  0.00  0.00     0.056 C 
BRANCH   7   8
ATOM      8  C1  UNL d   1      -4.491   4.244   5.999  0.00  0.00     0.007 C 
ATOM      9  C   UNL d   1      -5.628   5.251   5.892  0.00  0.00     0.009 C 
ENDBRANCH   7   8
ENDBRANCH   1   7
TORSDOF 2
ENDMDL
