MODEL 1
REMARK minimizedAffinity 10.0176363
REMARK minimizedRMSD -1
REMARK  2 active torsions:
REMARK  status: ('A' for Active; 'I' for Inactive)
REMARK    1  A    between atoms: C1_2  and  C2_3 
REMARK    2  A    between atoms: C2_3  and  C3_4 
ROOT
ATOM      1  C3  UNL d   1       2.038   0.002   0.378  0.00  0.00    -0.075 A 
ATOM      2  C4  UNL d   1       0.750  -0.431   0.033  0.00  0.00     0.002 A 
ATOM      3  C5  UNL d   1       0.076  -1.356   0.832  0.00  0.00     0.002 A 
ATOM      4  C6  UNL d   1       0.685  -1.866   1.976  0.00  0.00    -0.004 A 
ATOM      5  C7  UNL d   1       1.971  -1.455   2.319  0.00  0.00     0.002 A 
ATOM      6  C8  UNL d   1       2.645  -0.527   1.524  0.00  0.00     0.002 A 
ENDROOT
BRANCH   1   7
ATOM      7  C2  UNL d   1       2.760   1.025  -0.466  0.00  0.00     0.056 C 
BRANCH   7   8
ATOM      8  C1  UNL d   1       2.241   1.126  -1.904  0.00  0.00     0.007 C 
ATOM      9  C   UNL d   1       2.208   2.555  -2.432  0.00  0.00     0.009 C 
ENDBRANCH   7   8
ENDBRANCH   1   7
TORSDOF 2
ENDMDL
