MODEL 1
REMARK minimizedAffinity 6.99360371
REMARK minimizedRMSD -1
REMARK  2 active torsions:
REMARK  status: ('A' for Active; 'I' for Inactive)
REMARK    1  A    between atoms: C1_2  and  C2_3 
REMARK    2  A    between atoms: C2_3  and  C3_4 
ROOT
ATOM      1  C3  UNL d   1       0.184  -1.640   3.182  0.00  0.00    -0.075 A 
ATOM      2  C4  UNL d   1       0.173  -1.339   4.551  0.00  0.00     0.002 A 
ATOM      3  C5  UNL d   1      -0.380  -0.142   5.009  0.00  0.00     0.002 A 
ATOM      4  C6  UNL d   1      -0.918   0.771   4.105  0.00  0.00    -0.004 A 
ATOM      5  C7  UNL d   1      -0.898   0.489   2.741  0.00  0.00     0.002 A 
ATOM      6  C8  UNL d   1      -0.350  -0.710   2.280  0.00  0.00     0.002 A 
ENDROOT
BRANCH   1   7
ATOM      7  C2  UNL d   1       0.754  -2.947   2.683  0.00  0.00     0.056 C 
BRANCH   7   8
ATOM      8  C1  UNL d   1      -0.069  -3.600   1.567  0.00  0.00     0.007 C 
ATOM      9  C   UNL d   1      -1.558  -3.300   1.664  0.00  0.00     0.009 C 
ENDBRANCH   7   8
ENDBRANCH   1   7
TORSDOF 2
ENDMDL
