MODEL 1
REMARK minimizedAffinity 3.51977324
REMARK minimizedRMSD -1
REMARK  2 active torsions:
REMARK  status: ('A' for Active; 'I' for Inactive)
REMARK    1  A    between atoms: C1_2  and  C2_3 
REMARK    2  A    between atoms: C2_3  and  C3_4 
ROOT
ATOM      1  C3  UNL d   1      -1.343  -5.533  -1.728  0.00  0.00    -0.075 A 
ATOM      2  C4  UNL d   1      -2.374  -5.998  -2.557  0.00  0.00     0.002 A 
ATOM      3  C5  UNL d   1      -2.223  -5.996  -3.944  0.00  0.00     0.002 A 
ATOM      4  C6  UNL d   1      -1.047  -5.520  -4.519  0.00  0.00    -0.004 A 
ATOM      5  C7  UNL d   1      -0.023  -5.040  -3.706  0.00  0.00     0.002 A 
ATOM      6  C8  UNL d   1      -0.169  -5.045  -2.318  0.00  0.00     0.002 A 
ENDROOT
BRANCH   1   7
ATOM      7  C2  UNL d   1      -1.488  -5.560  -0.225  0.00  0.00     0.056 C 
BRANCH   7   8
ATOM      8  C1  UNL d   1      -0.959  -4.304   0.475  0.00  0.00     0.007 C 
ATOM      9  C   UNL d   1       0.402  -4.508   1.127  0.00  0.00     0.009 C 
ENDBRANCH   7   8
ENDBRANCH   1   7
TORSDOF 2
ENDMDL
