MODEL 1
REMARK minimizedAffinity 10.8199987
REMARK minimizedRMSD -1
REMARK  2 active torsions:
REMARK  status: ('A' for Active; 'I' for Inactive)
REMARK    1  A    between atoms: C1_2  and  C2_3 
REMARK    2  A    between atoms: C2_3  and  C3_4 
ROOT
ATOM      1  C3  UNL d   1      -3.341   0.207   2.308  0.00  0.00    -0.075 A 
ATOM      2  C4  UNL d   1      -2.984   0.836   3.511  0.00  0.00     0.002 A 
ATOM      3  C5  UNL d   1      -1.669   0.787   3.972  0.00  0.00     0.002 A 
ATOM      4  C6  UNL d   1      -0.697   0.103   3.245  0.00  0.00    -0.004 A 
ATOM      5  C7  UNL d   1      -1.043  -0.538   2.058  0.00  0.00     0.002 A 
ATOM      6  C8  UNL d   1      -2.358  -0.488   1.591  0.00  0.00     0.002 A 
ENDROOT
BRANCH   1   7
ATOM      7  C2  UNL d   1      -4.757   0.281   1.788  0.00  0.00     0.056 C 
BRANCH   7   8
ATOM      8  C1  UNL d   1      -4.857   0.633   0.300  0.00  0.00     0.007 C 
ATOM      9  C   UNL d   1      -5.027   2.125   0.046  0.00  0.00     0.009 C 
ENDBRANCH   7   8
ENDBRANCH   1   7
TORSDOF 2
ENDMDL
