MODEL 1
REMARK minimizedAffinity 4.04201269
REMARK minimizedRMSD -1
REMARK  0 active torsions:
REMARK  status: ('A' for Active; 'I' for Inactive)
ROOT
ATOM      1  C   UNL d   1       4.569  -1.672   5.947  0.00  0.00     0.078 C 
ATOM      2  C1  UNL d   1       4.672  -3.168   5.927  0.00  0.00    -0.077 A 
ATOM      3  C2  UNL d   1       5.917  -3.805   5.865  0.00  0.00    -0.001 A 
ATOM      4  C3  UNL d   1       5.998  -5.198   5.838  0.00  0.00     0.003 A 
ATOM      5  C4  UNL d   1       4.836  -5.966   5.871  0.00  0.00    -0.005 A 
ATOM      6  C5  UNL d   1       3.592  -5.342   5.930  0.00  0.00     0.003 A 
ATOM      7  C6  UNL d   1       3.510  -3.949   5.958  0.00  0.00    -0.001 A 
ENDROOT
TORSDOF 0
ENDMDL
