MODEL 1
REMARK minimizedAffinity 5.39036894
REMARK minimizedRMSD -1
REMARK  0 active torsions:
REMARK  status: ('A' for Active; 'I' for Inactive)
ROOT
ATOM      1  C   UNL d   1      -3.749  -0.625  -2.262  0.00  0.00     0.078 C 
ATOM      2  C1  UNL d   1      -3.749   0.785  -2.772  0.00  0.00    -0.077 A 
ATOM      3  C2  UNL d   1      -4.278   1.097  -4.030  0.00  0.00    -0.001 A 
ATOM      4  C3  UNL d   1      -4.262   2.413  -4.496  0.00  0.00     0.003 A 
ATOM      5  C4  UNL d   1      -3.718   3.427  -3.711  0.00  0.00    -0.005 A 
ATOM      6  C5  UNL d   1      -3.188   3.126  -2.458  0.00  0.00     0.003 A 
ATOM      7  C6  UNL d   1      -3.203   1.811  -1.990  0.00  0.00    -0.001 A 
ENDROOT
TORSDOF 0
ENDMDL
