MODEL 1
REMARK minimizedAffinity 7.3049202
REMARK minimizedRMSD -1
REMARK  0 active torsions:
REMARK  status: ('A' for Active; 'I' for Inactive)
ROOT
ATOM      1  C   UNL d   1      -2.999   2.821  -2.716  0.00  0.00     0.078 C 
ATOM      2  C1  UNL d   1      -1.964   2.626  -3.783  0.00  0.00    -0.077 A 
ATOM      3  C2  UNL d   1      -2.300   2.061  -5.019  0.00  0.00    -0.001 A 
ATOM      4  C3  UNL d   1      -1.324   1.877  -6.000  0.00  0.00     0.003 A 
ATOM      5  C4  UNL d   1      -0.006   2.255  -5.755  0.00  0.00    -0.005 A 
ATOM      6  C5  UNL d   1       0.339   2.817  -4.527  0.00  0.00     0.003 A 
ATOM      7  C6  UNL d   1      -0.636   3.002  -3.545  0.00  0.00    -0.001 A 
ENDROOT
TORSDOF 0
ENDMDL
