MODEL 1
REMARK minimizedAffinity 1.11094129
REMARK minimizedRMSD -1
REMARK  0 active torsions:
REMARK  status: ('A' for Active; 'I' for Inactive)
ROOT
ATOM      1  C   UNL d   1       4.893  -2.817   4.473  0.00  0.00     0.078 C 
ATOM      2  C1  UNL d   1       4.374  -3.299   3.151  0.00  0.00    -0.077 A 
ATOM      3  C2  UNL d   1       4.426  -4.656   2.808  0.00  0.00    -0.001 A 
ATOM      4  C3  UNL d   1       3.948  -5.089   1.570  0.00  0.00     0.003 A 
ATOM      5  C4  UNL d   1       3.415  -4.173   0.666  0.00  0.00    -0.005 A 
ATOM      6  C5  UNL d   1       3.361  -2.821   0.998  0.00  0.00     0.003 A 
ATOM      7  C6  UNL d   1       3.839  -2.385   2.235  0.00  0.00    -0.001 A 
ENDROOT
TORSDOF 0
ENDMDL
