MODEL 1
REMARK minimizedAffinity 2.39035726
REMARK minimizedRMSD -1
REMARK  0 active torsions:
REMARK  status: ('A' for Active; 'I' for Inactive)
ROOT
ATOM      1  C   UNL d   1      -2.000   3.012  -4.265  0.00  0.00     0.078 C 
ATOM      2  C1  UNL d   1      -3.362   3.184  -4.869  0.00  0.00    -0.077 A 
ATOM      3  C2  UNL d   1      -4.004   4.428  -4.857  0.00  0.00    -0.001 A 
ATOM      4  C3  UNL d   1      -5.276   4.572  -5.414  0.00  0.00     0.003 A 
ATOM      5  C4  UNL d   1      -5.917   3.474  -5.985  0.00  0.00    -0.005 A 
ATOM      6  C5  UNL d   1      -5.288   2.232  -5.999  0.00  0.00     0.003 A 
ATOM      7  C6  UNL d   1      -4.016   2.086  -5.443  0.00  0.00    -0.001 A 
ENDROOT
TORSDOF 0
ENDMDL
