MODEL 1
REMARK minimizedAffinity 2.81773019
REMARK minimizedRMSD -1
REMARK  0 active torsions:
REMARK  status: ('A' for Active; 'I' for Inactive)
ROOT
ATOM      1  C   UNL d   1       1.848  -2.419   1.261  0.00  0.00     0.078 C 
ATOM      2  C1  UNL d   1       3.060  -3.189   0.829  0.00  0.00    -0.077 A 
ATOM      3  C2  UNL d   1       2.950  -4.506   0.365  0.00  0.00    -0.001 A 
ATOM      4  C3  UNL d   1       4.088  -5.214  -0.025  0.00  0.00     0.003 A 
ATOM      5  C4  UNL d   1       5.344  -4.614   0.045  0.00  0.00    -0.005 A 
ATOM      6  C5  UNL d   1       5.463  -3.305   0.507  0.00  0.00     0.003 A 
ATOM      7  C6  UNL d   1       4.326  -2.595   0.898  0.00  0.00    -0.001 A 
ENDROOT
TORSDOF 0
ENDMDL
