MODEL 1
REMARK minimizedAffinity -1.76642013
REMARK minimizedRMSD -1
REMARK  0 active torsions:
REMARK  status: ('A' for Active; 'I' for Inactive)
ROOT
ATOM      1  C2' OXE d   1       1.528  -5.585  -1.598  0.00  0.00     0.078 C 
ATOM      2  C1' OXE d   1       3.295  -5.999  -3.740  0.00  0.00     0.078 C 
ATOM      3  C1  OXE d   1       1.978  -5.327  -4.035  0.00  0.00    -0.078 A 
ATOM      4  C2  OXE d   1       1.100  -5.171  -2.989  0.00  0.00    -0.078 A 
ATOM      5  C3  OXE d   1      -0.107  -4.508  -3.196  0.00  0.00     0.003 A 
ATOM      6  C4  OXE d   1      -0.500  -4.137  -4.487  0.00  0.00    -0.002 A 
ATOM      7  C5  OXE d   1       0.363  -4.323  -5.573  0.00  0.00    -0.002 A 
ATOM      8  C6  OXE d   1       1.620  -4.877  -5.357  0.00  0.00     0.003 A 
ENDROOT
TORSDOF 0
ENDMDL
