MODEL 1
REMARK minimizedAffinity 21.5359859
REMARK minimizedRMSD -1
REMARK  0 active torsions:
REMARK  status: ('A' for Active; 'I' for Inactive)
ROOT
ATOM      1  C2' OXE d   1      -2.800   5.995   1.983  0.00  0.00     0.078 C 
ATOM      2  C1' OXE d   1      -0.881   5.993  -0.065  0.00  0.00     0.078 C 
ATOM      3  C1  OXE d   1      -2.334   5.938  -0.464  0.00  0.00    -0.078 A 
ATOM      4  C2  OXE d   1      -3.265   5.892   0.546  0.00  0.00    -0.078 A 
ATOM      5  C3  OXE d   1      -4.622   5.896   0.234  0.00  0.00     0.003 A 
ATOM      6  C4  OXE d   1      -5.043   5.790  -1.097  0.00  0.00    -0.002 A 
ATOM      7  C5  OXE d   1      -4.110   5.795  -2.139  0.00  0.00    -0.002 A 
ATOM      8  C6  OXE d   1      -2.757   5.911  -1.842  0.00  0.00     0.003 A 
ENDROOT
TORSDOF 0
ENDMDL
