MODEL 1
REMARK minimizedAffinity 17.9354343
REMARK minimizedRMSD -1
REMARK  0 active torsions:
REMARK  status: ('A' for Active; 'I' for Inactive)
ROOT
ATOM      1  C2' OXE d   1       0.662   1.515   1.938  0.00  0.00     0.078 C 
ATOM      2  C1' OXE d   1      -2.087   1.256   1.433  0.00  0.00     0.078 C 
ATOM      3  C1  OXE d   1      -1.240   1.934   0.385  0.00  0.00    -0.078 A 
ATOM      4  C2  OXE d   1       0.096   2.098   0.661  0.00  0.00    -0.078 A 
ATOM      5  C3  OXE d   1       0.932   2.668  -0.295  0.00  0.00     0.003 A 
ATOM      6  C4  OXE d   1       0.399   3.214  -1.468  0.00  0.00    -0.002 A 
ATOM      7  C5  OXE d   1      -0.966   3.093  -1.751  0.00  0.00    -0.002 A 
ATOM      8  C6  OXE d   1      -1.790   2.420  -0.857  0.00  0.00     0.003 A 
ENDROOT
TORSDOF 0
ENDMDL
