MODEL 1
REMARK minimizedAffinity 8.76882172
REMARK minimizedRMSD -1
REMARK  0 active torsions:
REMARK  status: ('A' for Active; 'I' for Inactive)
ROOT
ATOM      1  C2' OXE d   1      -3.178  -5.473  -5.948  0.00  0.00     0.078 C 
ATOM      2  C1' OXE d   1      -4.299  -2.900  -5.997  0.00  0.00     0.078 C 
ATOM      3  C1  OXE d   1      -2.795  -3.012  -5.971  0.00  0.00    -0.078 A 
ATOM      4  C2  OXE d   1      -2.256  -4.274  -5.900  0.00  0.00    -0.078 A 
ATOM      5  C3  OXE d   1      -0.874  -4.435  -5.930  0.00  0.00     0.003 A 
ATOM      6  C4  OXE d   1      -0.028  -3.321  -5.875  0.00  0.00    -0.002 A 
ATOM      7  C5  OXE d   1      -0.557  -2.026  -5.906  0.00  0.00    -0.002 A 
ATOM      8  C6  OXE d   1      -1.934  -1.855  -5.997  0.00  0.00     0.003 A 
ENDROOT
TORSDOF 0
ENDMDL
