MODEL 1
REMARK minimizedAffinity 3.21430063
REMARK minimizedRMSD -1
REMARK  0 active torsions:
REMARK  status: ('A' for Active; 'I' for Inactive)
ROOT
ATOM      1  C2' OXE d   1      -2.082  -1.958   4.922  0.00  0.00     0.078 C 
ATOM      2  C1' OXE d   1      -3.950  -1.315   2.928  0.00  0.00     0.078 C 
ATOM      3  C1  OXE d   1      -4.374  -2.286   4.001  0.00  0.00    -0.078 A 
ATOM      4  C2  OXE d   1      -3.438  -2.631   4.947  0.00  0.00    -0.078 A 
ATOM      5  C3  OXE d   1      -3.793  -3.481   5.990  0.00  0.00     0.003 A 
ATOM      6  C4  OXE d   1      -5.045  -4.107   6.000  0.00  0.00    -0.002 A 
ATOM      7  C5  OXE d   1      -6.000  -3.800   5.024  0.00  0.00    -0.002 A 
ATOM      8  C6  OXE d   1      -5.695  -2.861   4.045  0.00  0.00     0.003 A 
ENDROOT
TORSDOF 0
ENDMDL
