MODEL 1
REMARK minimizedAffinity 10.3090763
REMARK minimizedRMSD -1
REMARK  0 active torsions:
REMARK  status: ('A' for Active; 'I' for Inactive)
ROOT
ATOM      1  C2' OXE d   1       0.013   2.712   1.071  0.00  0.00     0.078 C 
ATOM      2  C1' OXE d   1       0.422   1.917  -1.590  0.00  0.00     0.078 C 
ATOM      3  C1  OXE d   1       0.073   3.362  -1.333  0.00  0.00    -0.078 A 
ATOM      4  C2  OXE d   1      -0.171   3.732  -0.032  0.00  0.00    -0.078 A 
ATOM      5  C3  OXE d   1      -0.443   5.064   0.266  0.00  0.00     0.003 A 
ATOM      6  C4  OXE d   1      -0.622   5.998  -0.761  0.00  0.00    -0.002 A 
ATOM      7  C5  OXE d   1      -0.417   5.633  -2.096  0.00  0.00    -0.002 A 
ATOM      8  C6  OXE d   1      -0.028   4.332  -2.395  0.00  0.00     0.003 A 
ENDROOT
TORSDOF 0
ENDMDL
