MODEL 1
REMARK minimizedAffinity 11.2509356
REMARK minimizedRMSD -1
REMARK  0 active torsions:
REMARK  status: ('A' for Active; 'I' for Inactive)
ROOT
ATOM      1  C2' OXE d   1       0.445   1.402   2.803  0.00  0.00     0.078 C 
ATOM      2  C1' OXE d   1       2.231   3.348   1.853  0.00  0.00     0.078 C 
ATOM      3  C1  OXE d   1       1.101   2.927   0.946  0.00  0.00    -0.078 A 
ATOM      4  C2  OXE d   1       0.260   1.941   1.401  0.00  0.00    -0.078 A 
ATOM      5  C3  OXE d   1      -0.831   1.555   0.627  0.00  0.00     0.003 A 
ATOM      6  C4  OXE d   1      -0.989   2.051  -0.672  0.00  0.00    -0.002 A 
ATOM      7  C5  OXE d   1      -0.120   3.027  -1.170  0.00  0.00    -0.002 A 
ATOM      8  C6  OXE d   1       0.903   3.506  -0.360  0.00  0.00     0.003 A 
ENDROOT
TORSDOF 0
ENDMDL
