MODEL 1
REMARK minimizedAffinity 1.86602914
REMARK minimizedRMSD -1
REMARK  0 active torsions:
REMARK  status: ('A' for Active; 'I' for Inactive)
ROOT
ATOM      1  C2' OXE d   1      -3.191  -3.825   5.975  0.00  0.00     0.078 C 
ATOM      2  C1' OXE d   1      -5.998  -3.770   5.999  0.00  0.00     0.078 C 
ATOM      3  C1  OXE d   1      -5.288  -2.993   4.918  0.00  0.00    -0.078 A 
ATOM      4  C2  OXE d   1      -3.914  -2.988   4.942  0.00  0.00    -0.078 A 
ATOM      5  C3  OXE d   1      -3.210  -2.332   3.936  0.00  0.00     0.003 A 
ATOM      6  C4  OXE d   1      -3.886  -1.552   2.991  0.00  0.00    -0.002 A 
ATOM      7  C5  OXE d   1      -5.284  -1.511   2.973  0.00  0.00    -0.002 A 
ATOM      8  C6  OXE d   1      -6.000  -2.259   3.901  0.00  0.00     0.003 A 
ENDROOT
TORSDOF 0
ENDMDL
