MODEL 1
REMARK minimizedAffinity 10.7973013
REMARK minimizedRMSD -1
REMARK  0 active torsions:
REMARK  status: ('A' for Active; 'I' for Inactive)
ROOT
ATOM      1  C2' OXE d   1       1.509  -5.999  -0.752  0.00  0.00     0.078 C 
ATOM      2  C1' OXE d   1       0.021  -3.947  -1.958  0.00  0.00     0.078 C 
ATOM      3  C1  OXE d   1       1.259  -3.559  -1.189  0.00  0.00    -0.078 A 
ATOM      4  C2  OXE d   1       1.955  -4.565  -0.563  0.00  0.00    -0.078 A 
ATOM      5  C3  OXE d   1       3.135  -4.270   0.115  0.00  0.00     0.003 A 
ATOM      6  C4  OXE d   1       3.535  -2.940   0.294  0.00  0.00    -0.002 A 
ATOM      7  C5  OXE d   1       2.819  -1.897  -0.302  0.00  0.00    -0.002 A 
ATOM      8  C6  OXE d   1       1.705  -2.192  -1.080  0.00  0.00     0.003 A 
ENDROOT
TORSDOF 0
ENDMDL
