MODEL 1
REMARK minimizedAffinity 7.82287169
REMARK minimizedRMSD -1
REMARK  0 active torsions:
REMARK  status: ('A' for Active; 'I' for Inactive)
ROOT
ATOM      1  C2' OXE d   1       2.232   4.919  -0.658  0.00  0.00     0.078 C 
ATOM      2  C1' OXE d   1       0.726   2.627  -0.064  0.00  0.00     0.078 C 
ATOM      3  C1  OXE d   1       0.015   3.786  -0.715  0.00  0.00    -0.078 A 
ATOM      4  C2  OXE d   1       0.749   4.921  -0.960  0.00  0.00    -0.078 A 
ATOM      5  C3  OXE d   1       0.156   6.000  -1.610  0.00  0.00     0.003 A 
ATOM      6  C4  OXE d   1      -1.219   5.998  -1.877  0.00  0.00    -0.002 A 
ATOM      7  C5  OXE d   1      -1.994   4.867  -1.599  0.00  0.00    -0.002 A 
ATOM      8  C6  OXE d   1      -1.385   3.739  -1.059  0.00  0.00     0.003 A 
ENDROOT
TORSDOF 0
ENDMDL
