MODEL 1
REMARK minimizedAffinity 8.93376827
REMARK minimizedRMSD -1
REMARK  0 active torsions:
REMARK  status: ('A' for Active; 'I' for Inactive)
ROOT
ATOM      1  C2' OXE d   1      -6.000  -1.009   4.925  0.00  0.00     0.078 C 
ATOM      2  C1' OXE d   1      -3.973  -2.603   3.816  0.00  0.00     0.078 C 
ATOM      3  C1  OXE d   1      -4.495  -1.453   2.991  0.00  0.00    -0.078 A 
ATOM      4  C2  OXE d   1      -5.519  -0.707   3.522  0.00  0.00    -0.078 A 
ATOM      5  C3  OXE d   1      -6.000   0.398   2.826  0.00  0.00     0.003 A 
ATOM      6  C4  OXE d   1      -5.556   0.665   1.525  0.00  0.00    -0.002 A 
ATOM      7  C5  OXE d   1      -4.542  -0.107   0.949  0.00  0.00    -0.002 A 
ATOM      8  C6  OXE d   1      -3.972  -1.141   1.683  0.00  0.00     0.003 A 
ENDROOT
TORSDOF 0
ENDMDL
