MODEL 1
REMARK minimizedAffinity -3.13982177
REMARK minimizedRMSD -1
REMARK  0 active torsions:
REMARK  status: ('A' for Active; 'I' for Inactive)
ROOT
ATOM      1  C1  DEN d   1       1.978   2.440   1.360  0.00  0.00     0.130 A 
ATOM      2  C2  DEN d   1       1.785   3.793   0.845  0.00  0.00    -0.031 A 
ATOM      3  C3  DEN d   1       0.799   3.727  -0.252  0.00  0.00     0.027 A 
ATOM      4  C4  DEN d   1      -0.444   1.673  -1.196  0.00  0.00     0.027 A 
ATOM      5  C5  DEN d   1      -0.600   0.309  -1.089  0.00  0.00    -0.003 A 
ATOM      6  C6  DEN d   1       0.112  -0.439  -0.190  0.00  0.00     0.001 A 
ATOM      7  C7  DEN d   1       0.980   0.179   0.671  0.00  0.00     0.017 A 
ATOM      8  C8  DEN d   1       1.148   1.553   0.565  0.00  0.00    -0.094 A 
ATOM      9  C9  DEN d   1       0.410   2.294  -0.343  0.00  0.00    -0.072 A 
ENDROOT
TORSDOF 0
ENDMDL
