MODEL 1
REMARK minimizedAffinity -4.50343227
REMARK minimizedRMSD -1
REMARK  0 active torsions:
REMARK  status: ('A' for Active; 'I' for Inactive)
ROOT
ATOM      1  C1  DEN d   1       0.306   0.264  -0.959  0.00  0.00     0.130 A 
ATOM      2  C2  DEN d   1      -0.114   0.720   0.364  0.00  0.00    -0.031 A 
ATOM      3  C3  DEN d   1      -0.512  -0.466   1.150  0.00  0.00     0.027 A 
ATOM      4  C4  DEN d   1      -0.514  -2.949   0.452  0.00  0.00     0.027 A 
ATOM      5  C5  DEN d   1      -0.252  -3.826  -0.577  0.00  0.00    -0.003 A 
ATOM      6  C6  DEN d   1       0.178  -3.402  -1.806  0.00  0.00     0.001 A 
ATOM      7  C7  DEN d   1       0.403  -2.068  -2.024  0.00  0.00     0.017 A 
ATOM      8  C8  DEN d   1       0.134  -1.177  -0.993  0.00  0.00    -0.094 A 
ATOM      9  C9  DEN d   1      -0.289  -1.626   0.246  0.00  0.00    -0.072 A 
ENDROOT
TORSDOF 0
ENDMDL
