MODEL 1
REMARK minimizedAffinity -2.63823247
REMARK minimizedRMSD -1
REMARK  0 active torsions:
REMARK  status: ('A' for Active; 'I' for Inactive)
ROOT
ATOM      1  C1  DEN d   1       0.210  -2.283  -0.913  0.00  0.00     0.130 A 
ATOM      2  C2  DEN d   1      -0.320  -3.208   0.085  0.00  0.00    -0.031 A 
ATOM      3  C3  DEN d   1      -1.012  -2.415   1.121  0.00  0.00     0.027 A 
ATOM      4  C4  DEN d   1      -1.316   0.142   1.274  0.00  0.00     0.027 A 
ATOM      5  C5  DEN d   1      -1.031   1.344   0.666  0.00  0.00    -0.003 A 
ATOM      6  C6  DEN d   1      -0.290   1.424  -0.483  0.00  0.00     0.001 A 
ATOM      7  C7  DEN d   1       0.154   0.277  -1.086  0.00  0.00     0.017 A 
ATOM      8  C8  DEN d   1      -0.123  -0.939  -0.475  0.00  0.00    -0.094 A 
ATOM      9  C9  DEN d   1      -0.884  -1.000   0.680  0.00  0.00    -0.072 A 
ENDROOT
TORSDOF 0
ENDMDL
