MODEL 1
REMARK minimizedAffinity -1.23096609
REMARK minimizedRMSD -1
REMARK  0 active torsions:
REMARK  status: ('A' for Active; 'I' for Inactive)
ROOT
ATOM      1  C1  DEN d   1       0.836  -2.397  -0.105  0.00  0.00     0.130 A 
ATOM      2  C2  DEN d   1      -0.119  -3.368   0.421  0.00  0.00    -0.031 A 
ATOM      3  C3  DEN d   1      -1.236  -2.622   1.035  0.00  0.00     0.027 A 
ATOM      4  C4  DEN d   1      -1.580  -0.073   1.215  0.00  0.00     0.027 A 
ATOM      5  C5  DEN d   1      -1.032   1.157   0.924  0.00  0.00    -0.003 A 
ATOM      6  C6  DEN d   1       0.183   1.288   0.306  0.00  0.00     0.001 A 
ATOM      7  C7  DEN d   1       0.870   0.168  -0.083  0.00  0.00     0.017 A 
ATOM      8  C8  DEN d   1       0.327  -1.075   0.213  0.00  0.00    -0.094 A 
ATOM      9  C9  DEN d   1      -0.908  -1.186   0.828  0.00  0.00    -0.072 A 
ENDROOT
TORSDOF 0
ENDMDL
