MODEL 1
REMARK minimizedAffinity -3.40220618
REMARK minimizedRMSD -1
REMARK  0 active torsions:
REMARK  status: ('A' for Active; 'I' for Inactive)
ROOT
ATOM      1  C1  DEN d   1       1.128  -1.958  -0.710  0.00  0.00     0.130 A 
ATOM      2  C2  DEN d   1       0.546  -3.091   0.004  0.00  0.00    -0.031 A 
ATOM      3  C3  DEN d   1      -0.426  -2.564   0.983  0.00  0.00     0.027 A 
ATOM      4  C4  DEN d   1      -1.084  -0.116   1.458  0.00  0.00     0.027 A 
ATOM      5  C5  DEN d   1      -0.850   1.197   1.113  0.00  0.00    -0.003 A 
ATOM      6  C6  DEN d   1       0.076   1.549   0.168  0.00  0.00     0.001 A 
ATOM      7  C7  DEN d   1       0.772   0.575  -0.498  0.00  0.00     0.017 A 
ATOM      8  C8  DEN d   1       0.547  -0.751  -0.150  0.00  0.00    -0.094 A 
ATOM      9  C9  DEN d   1      -0.403  -1.087   0.800  0.00  0.00    -0.072 A 
ENDROOT
TORSDOF 0
ENDMDL
