MODEL 1
REMARK minimizedAffinity -2.2905724
REMARK minimizedRMSD -1
REMARK  0 active torsions:
REMARK  status: ('A' for Active; 'I' for Inactive)
ROOT
ATOM      1  C1  DEN d   1      -0.060  -2.769  -0.501  0.00  0.00     0.130 A 
ATOM      2  C2  DEN d   1      -0.768  -3.401   0.608  0.00  0.00    -0.031 A 
ATOM      3  C3  DEN d   1      -1.390  -2.335   1.420  0.00  0.00     0.027 A 
ATOM      4  C4  DEN d   1      -1.329   0.219   1.064  0.00  0.00     0.027 A 
ATOM      5  C5  DEN d   1      -0.843   1.229   0.264  0.00  0.00    -0.003 A 
ATOM      6  C6  DEN d   1      -0.041   0.982  -0.819  0.00  0.00     0.001 A 
ATOM      7  C7  DEN d   1       0.263  -0.310  -1.157  0.00  0.00     0.017 A 
ATOM      8  C8  DEN d   1      -0.217  -1.334  -0.351  0.00  0.00    -0.094 A 
ATOM      9  C9  DEN d   1      -1.037  -1.064   0.731  0.00  0.00    -0.072 A 
ENDROOT
TORSDOF 0
ENDMDL
