MODEL 1
REMARK minimizedAffinity -4.74163389
REMARK minimizedRMSD -1
REMARK  0 active torsions:
REMARK  status: ('A' for Active; 'I' for Inactive)
ROOT
ATOM      1  C1  DEN d   1      -1.246  -0.396   1.395  0.00  0.00     0.130 A 
ATOM      2  C2  DEN d   1      -1.199  -1.850   1.519  0.00  0.00    -0.031 A 
ATOM      3  C3  DEN d   1      -0.540  -2.390   0.314  0.00  0.00     0.027 A 
ATOM      4  C4  DEN d   1       0.412  -1.123  -1.721  0.00  0.00     0.027 A 
ATOM      5  C5  DEN d   1       0.594   0.121  -2.284  0.00  0.00    -0.003 A 
ATOM      6  C6  DEN d   1       0.149   1.267  -1.682  0.00  0.00     0.001 A 
ATOM      7  C7  DEN d   1      -0.461   1.198  -0.457  0.00  0.00     0.017 A 
ATOM      8  C8  DEN d   1      -0.655  -0.054   0.114  0.00  0.00    -0.094 A 
ATOM      9  C9  DEN d   1      -0.186  -1.200  -0.505  0.00  0.00    -0.072 A 
ENDROOT
TORSDOF 0
ENDMDL
