MODEL 1
REMARK minimizedAffinity -4.97777271
REMARK minimizedRMSD -1
REMARK  0 active torsions:
REMARK  status: ('A' for Active; 'I' for Inactive)
ROOT
ATOM      1  C1  DEN d   1      -0.494   0.501   0.386  0.00  0.00     0.130 A 
ATOM      2  C2  DEN d   1       0.270  -0.733   0.550  0.00  0.00    -0.031 A 
ATOM      3  C3  DEN d   1       1.685  -0.369   0.764  0.00  0.00     0.027 A 
ATOM      4  C4  DEN d   1       2.760   1.974   0.862  0.00  0.00     0.027 A 
ATOM      5  C5  DEN d   1       2.516   3.326   0.767  0.00  0.00    -0.003 A 
ATOM      6  C6  DEN d   1       1.268   3.826   0.506  0.00  0.00     0.001 A 
ATOM      7  C7  DEN d   1       0.207   2.969   0.376  0.00  0.00     0.017 A 
ATOM      8  C8  DEN d   1       0.447   1.604   0.464  0.00  0.00    -0.094 A 
ATOM      9  C9  DEN d   1       1.714   1.119   0.740  0.00  0.00    -0.072 A 
ENDROOT
TORSDOF 0
ENDMDL
