MODEL 1
REMARK minimizedAffinity -1.28149366
REMARK minimizedRMSD -1
REMARK  0 active torsions:
REMARK  status: ('A' for Active; 'I' for Inactive)
ROOT
ATOM      1  C1  DEN d   1       1.275  -1.861  -1.528  0.00  0.00     0.130 A 
ATOM      2  C2  DEN d   1       0.850  -3.024  -0.753  0.00  0.00    -0.031 A 
ATOM      3  C3  DEN d   1      -0.075  -2.558   0.299  0.00  0.00     0.027 A 
ATOM      4  C4  DEN d   1      -0.889  -0.162   0.799  0.00  0.00     0.027 A 
ATOM      5  C5  DEN d   1      -0.794   1.158   0.418  0.00  0.00    -0.003 A 
ATOM      6  C6  DEN d   1       0.017   1.566  -0.608  0.00  0.00     0.001 A 
ATOM      7  C7  DEN d   1       0.731   0.638  -1.318  0.00  0.00     0.017 A 
ATOM      8  C8  DEN d   1       0.646  -0.695  -0.936  0.00  0.00    -0.094 A 
ATOM      9  C9  DEN d   1      -0.189  -1.088   0.096  0.00  0.00    -0.072 A 
ENDROOT
TORSDOF 0
ENDMDL
