MODEL 1
REMARK minimizedAffinity -5.89745665
REMARK minimizedRMSD -1
REMARK  0 active torsions:
REMARK  status: ('A' for Active; 'I' for Inactive)
ROOT
ATOM      1  C1  DEN d   1      -0.384   0.242  -0.692  0.00  0.00     0.130 A 
ATOM      2  C2  DEN d   1      -0.938   0.754   0.558  0.00  0.00    -0.031 A 
ATOM      3  C3  DEN d   1      -0.961  -0.353   1.535  0.00  0.00     0.027 A 
ATOM      4  C4  DEN d   1      -0.192  -2.797   1.235  0.00  0.00     0.027 A 
ATOM      5  C5  DEN d   1       0.338  -3.706   0.347  0.00  0.00    -0.003 A 
ATOM      6  C6  DEN d   1       0.631  -3.374  -0.950  0.00  0.00     0.001 A 
ATOM      7  C7  DEN d   1       0.437  -2.089  -1.382  0.00  0.00     0.017 A 
ATOM      8  C8  DEN d   1      -0.104  -1.169  -0.494  0.00  0.00    -0.094 A 
ATOM      9  C9  DEN d   1      -0.382  -1.520   0.816  0.00  0.00    -0.072 A 
ENDROOT
TORSDOF 0
ENDMDL
