MODEL 1
REMARK minimizedAffinity -3.43296337
REMARK minimizedRMSD -1
REMARK  0 active torsions:
REMARK  status: ('A' for Active; 'I' for Inactive)
ROOT
ATOM      1  C1  DEN d   1       0.723  -2.257  -0.840  0.00  0.00     0.130 A 
ATOM      2  C2  DEN d   1      -0.002  -3.250  -0.053  0.00  0.00    -0.031 A 
ATOM      3  C3  DEN d   1      -0.939  -2.533   0.835  0.00  0.00     0.027 A 
ATOM      4  C4  DEN d   1      -1.340   0.005   1.061  0.00  0.00     0.027 A 
ATOM      5  C5  DEN d   1      -0.953   1.247   0.609  0.00  0.00    -0.003 A 
ATOM      6  C6  DEN d   1       0.036   1.409  -0.326  0.00  0.00     0.001 A 
ATOM      7  C7  DEN d   1       0.640   0.308  -0.872  0.00  0.00     0.017 A 
ATOM      8  C8  DEN d   1       0.260  -0.948  -0.416  0.00  0.00    -0.094 A 
ATOM      9  C9  DEN d   1      -0.750  -1.091   0.521  0.00  0.00    -0.072 A 
ENDROOT
TORSDOF 0
ENDMDL
