MODEL 1
REMARK minimizedAffinity -2.77423072
REMARK minimizedRMSD -1
REMARK  0 active torsions:
REMARK  status: ('A' for Active; 'I' for Inactive)
ROOT
ATOM      1  C1  DEN d   1      -0.362   1.188   0.164  0.00  0.00     0.130 A 
ATOM      2  C2  DEN d   1      -0.318   1.996  -1.052  0.00  0.00    -0.031 A 
ATOM      3  C3  DEN d   1       0.004   1.103  -2.182  0.00  0.00     0.027 A 
ATOM      4  C4  DEN d   1       0.431  -1.441  -2.169  0.00  0.00     0.027 A 
ATOM      5  C5  DEN d   1       0.514  -2.561  -1.372  0.00  0.00    -0.003 A 
ATOM      6  C6  DEN d   1       0.346  -2.505  -0.014  0.00  0.00     0.001 A 
ATOM      7  C7  DEN d   1       0.041  -1.311   0.583  0.00  0.00     0.017 A 
ATOM      8  C8  DEN d   1      -0.037  -0.175  -0.213  0.00  0.00    -0.094 A 
ATOM      9  C9  DEN d   1       0.124  -0.255  -1.586  0.00  0.00    -0.072 A 
ENDROOT
TORSDOF 0
ENDMDL
