MODEL 1
REMARK minimizedAffinity -2.68646836
REMARK minimizedRMSD -1
REMARK  0 active torsions:
REMARK  status: ('A' for Active; 'I' for Inactive)
ROOT
ATOM      1  C1  DEN d   1       0.932   0.923  -0.831  0.00  0.00     0.130 A 
ATOM      2  C2  DEN d   1       1.211   1.615   0.425  0.00  0.00    -0.031 A 
ATOM      3  C3  DEN d   1       0.598   0.837   1.521  0.00  0.00     0.027 A 
ATOM      4  C4  DEN d   1      -0.743  -1.363   1.396  0.00  0.00     0.027 A 
ATOM      5  C5  DEN d   1      -1.248  -2.323   0.548  0.00  0.00    -0.003 A 
ATOM      6  C6  DEN d   1      -1.093  -2.251  -0.811  0.00  0.00     0.001 A 
ATOM      7  C7  DEN d   1      -0.377  -1.220  -1.359  0.00  0.00     0.017 A 
ATOM      8  C8  DEN d   1       0.130  -0.244  -0.511  0.00  0.00    -0.094 A 
ATOM      9  C9  DEN d   1      -0.027  -0.341   0.862  0.00  0.00    -0.072 A 
ENDROOT
TORSDOF 0
ENDMDL
