MODEL 1
REMARK minimizedAffinity -4.1305275
REMARK minimizedRMSD -1
REMARK  0 active torsions:
REMARK  status: ('A' for Active; 'I' for Inactive)
ROOT
ATOM      1  C1  DEN d   1      -0.174  -3.075   0.761  0.00  0.00     0.130 A 
ATOM      2  C2  DEN d   1       0.632  -3.573  -0.350  0.00  0.00    -0.031 A 
ATOM      3  C3  DEN d   1       0.943  -2.432  -1.235  0.00  0.00     0.027 A 
ATOM      4  C4  DEN d   1       0.261   0.043  -0.992  0.00  0.00     0.027 A 
ATOM      5  C5  DEN d   1      -0.435   0.945  -0.218  0.00  0.00    -0.003 A 
ATOM      6  C6  DEN d   1      -1.115   0.567   0.910  0.00  0.00     0.001 A 
ATOM      7  C7  DEN d   1      -1.077  -0.739   1.320  0.00  0.00     0.017 A 
ATOM      8  C8  DEN d   1      -0.384  -1.656   0.540  0.00  0.00    -0.094 A 
ATOM      9  C9  DEN d   1       0.308  -1.252  -0.590  0.00  0.00    -0.072 A 
ENDROOT
TORSDOF 0
ENDMDL
