MODEL 1
REMARK minimizedAffinity -4.61110306
REMARK minimizedRMSD -1
REMARK  0 active torsions:
REMARK  status: ('A' for Active; 'I' for Inactive)
ROOT
ATOM      1  C1  DEN d   1      -1.511   0.522   0.940  0.00  0.00     0.130 A 
ATOM      2  C2  DEN d   1      -0.821   1.660   0.337  0.00  0.00    -0.031 A 
ATOM      3  C3  DEN d   1       0.291   1.138  -0.481  0.00  0.00     0.027 A 
ATOM      4  C4  DEN d   1       1.006  -1.309  -0.876  0.00  0.00     0.027 A 
ATOM      5  C5  DEN d   1       0.731  -2.623  -0.567  0.00  0.00    -0.003 A 
ATOM      6  C6  DEN d   1      -0.281  -2.975   0.287  0.00  0.00     0.001 A 
ATOM      7  C7  DEN d   1      -1.084  -2.005   0.825  0.00  0.00     0.017 A 
ATOM      8  C8  DEN d   1      -0.809  -0.678   0.523  0.00  0.00    -0.094 A 
ATOM      9  C9  DEN d   1       0.211  -0.342  -0.351  0.00  0.00    -0.072 A 
ENDROOT
TORSDOF 0
ENDMDL
