MODEL 1
REMARK minimizedAffinity -0.121231861
REMARK minimizedRMSD -1
REMARK  1 active torsions:
REMARK  status: ('A' for Active; 'I' for Inactive)
REMARK    1  A    between atoms: C3_4  and  O_7 
ROOT
ATOM      1  C   UNL d   1       3.089   6.000   4.658  0.00  0.00    -0.033 A 
ATOM      2  C1  UNL d   1       2.421   5.933   5.882  0.00  0.00     0.039 A 
ATOM      3  C2  UNL d   1       1.113   5.447   5.940  0.00  0.00    -0.080 A 
ATOM      4  C3  UNL d   1       0.486   5.032   4.768  0.00  0.00     0.150 A 
ATOM      5  C4  UNL d   1       1.147   5.092   3.546  0.00  0.00    -0.007 A 
ATOM      6  C5  UNL d   1       2.453   5.578   3.490  0.00  0.00     0.039 A 
ENDROOT
BRANCH   4   7
ATOM      7  O   UNL d   1      -0.791   4.555   4.774  0.00  0.00    -0.526 OA
ATOM      8  H5  UNL d   1      -1.131   4.598   5.684  0.00  0.00     0.418 HD
ENDBRANCH   4   7
TORSDOF 1
ENDMDL
