MODEL 1
REMARK minimizedAffinity -2.83258367
REMARK minimizedRMSD -1
REMARK  1 active torsions:
REMARK  status: ('A' for Active; 'I' for Inactive)
REMARK    1  A    between atoms: C3_4  and  O_7 
ROOT
ATOM      1  C   UNL d   1      -1.423  -0.696   1.828  0.00  0.00    -0.033 A 
ATOM      2  C1  UNL d   1      -0.416  -0.757   0.863  0.00  0.00     0.039 A 
ATOM      3  C2  UNL d   1       0.564  -1.748   0.937  0.00  0.00    -0.080 A 
ATOM      4  C3  UNL d   1       0.527  -2.671   1.979  0.00  0.00     0.150 A 
ATOM      5  C4  UNL d   1      -0.475  -2.618   2.942  0.00  0.00    -0.007 A 
ATOM      6  C5  UNL d   1      -1.453  -1.627   2.867  0.00  0.00     0.039 A 
ENDROOT
BRANCH   4   7
ATOM      7  O   UNL d   1       1.465  -3.653   2.095  0.00  0.00    -0.526 OA
ATOM      8  H5  UNL d   1       2.111  -3.548   1.376  0.00  0.00     0.418 HD
ENDBRANCH   4   7
TORSDOF 1
ENDMDL
