MODEL 1
REMARK minimizedAffinity -0.668426037
REMARK minimizedRMSD -1
REMARK  1 active torsions:
REMARK  status: ('A' for Active; 'I' for Inactive)
REMARK    1  A    between atoms: C3_4  and  O_7 
ROOT
ATOM      1  C   UNL d   1       0.183   4.171   4.906  0.00  0.00    -0.033 A 
ATOM      2  C1  UNL d   1       1.084   3.382   5.626  0.00  0.00     0.039 A 
ATOM      3  C2  UNL d   1       2.325   3.901   5.999  0.00  0.00    -0.080 A 
ATOM      4  C3  UNL d   1       2.653   5.207   5.648  0.00  0.00     0.150 A 
ATOM      5  C4  UNL d   1       1.759   6.000   4.935  0.00  0.00    -0.007 A 
ATOM      6  C5  UNL d   1       0.521   5.480   4.563  0.00  0.00     0.039 A 
ENDROOT
BRANCH   4   7
ATOM      7  O   UNL d   1       3.855   5.756   5.986  0.00  0.00    -0.526 OA
ATOM      8  H5  UNL d   1       4.380   5.083   6.451  0.00  0.00     0.418 HD
ENDBRANCH   4   7
TORSDOF 1
ENDMDL
