MODEL 1
REMARK minimizedAffinity 1.32582557
REMARK minimizedRMSD -1
REMARK  1 active torsions:
REMARK  status: ('A' for Active; 'I' for Inactive)
REMARK    1  A    between atoms: C3_4  and  O_7 
ROOT
ATOM      1  C   UNL d   1       1.248  -4.473   2.291  0.00  0.00    -0.033 A 
ATOM      2  C1  UNL d   1       1.944  -3.952   1.198  0.00  0.00     0.039 A 
ATOM      3  C2  UNL d   1       3.250  -4.369   0.936  0.00  0.00    -0.080 A 
ATOM      4  C3  UNL d   1       3.848  -5.307   1.773  0.00  0.00     0.150 A 
ATOM      5  C4  UNL d   1       3.160  -5.834   2.861  0.00  0.00    -0.007 A 
ATOM      6  C5  UNL d   1       1.856  -5.415   3.122  0.00  0.00     0.039 A 
ENDROOT
BRANCH   4   7
ATOM      7  O   UNL d   1       5.123  -5.742   1.560  0.00  0.00    -0.526 OA
ATOM      8  H5  UNL d   1       5.484  -5.271   0.791  0.00  0.00     0.418 HD
ENDBRANCH   4   7
TORSDOF 1
ENDMDL
