MODEL 1
REMARK minimizedAffinity -1.93471205
REMARK minimizedRMSD -1
REMARK  1 active torsions:
REMARK  status: ('A' for Active; 'I' for Inactive)
REMARK    1  A    between atoms: C3_4  and  O_7 
ROOT
ATOM      1  C   UNL d   1      -0.364  -0.635   1.443  0.00  0.00    -0.033 A 
ATOM      2  C1  UNL d   1       0.399  -0.911   0.307  0.00  0.00     0.039 A 
ATOM      3  C2  UNL d   1       1.379  -1.904   0.346  0.00  0.00    -0.080 A 
ATOM      4  C3  UNL d   1       1.586  -2.614   1.525  0.00  0.00     0.150 A 
ATOM      5  C4  UNL d   1       0.827  -2.348   2.660  0.00  0.00    -0.007 A 
ATOM      6  C5  UNL d   1      -0.151  -1.355   2.619  0.00  0.00     0.039 A 
ENDROOT
BRANCH   4   7
ATOM      7  O   UNL d   1       2.534  -3.590   1.613  0.00  0.00    -0.526 OA
ATOM      8  H5  UNL d   1       3.000  -3.644   0.761  0.00  0.00     0.418 HD
ENDBRANCH   4   7
TORSDOF 1
ENDMDL
