MODEL 1
REMARK minimizedAffinity 3.67096353
REMARK minimizedRMSD -1
REMARK  0 active torsions:
REMARK  status: ('A' for Active; 'I' for Inactive)
ROOT
ATOM      1  C1  BNZ d   1       3.366   3.892  -6.000  0.00  0.00     0.000 A 
ATOM      2  C2  BNZ d   1       2.463   2.863  -5.999  0.00  0.00     0.000 A 
ATOM      3  C3  BNZ d   1       2.883   1.563  -5.973  0.00  0.00     0.000 A 
ATOM      4  C4  BNZ d   1       4.205   1.293  -5.988  0.00  0.00     0.000 A 
ATOM      5  C5  BNZ d   1       5.128   2.319  -5.999  0.00  0.00     0.000 A 
ATOM      6  C6  BNZ d   1       4.701   3.627  -5.986  0.00  0.00     0.000 A 
ENDROOT
TORSDOF 0
ENDMDL
