MODEL 1
REMARK minimizedAffinity -3.01978183
REMARK minimizedRMSD -1
REMARK  0 active torsions:
REMARK  status: ('A' for Active; 'I' for Inactive)
ROOT
ATOM      1  C1  BNZ d   1       4.522  -3.719   6.000  0.00  0.00     0.000 A 
ATOM      2  C2  BNZ d   1       4.524  -3.027   4.818  0.00  0.00     0.000 A 
ATOM      3  C3  BNZ d   1       4.489  -3.687   3.621  0.00  0.00     0.000 A 
ATOM      4  C4  BNZ d   1       4.492  -5.035   3.606  0.00  0.00     0.000 A 
ATOM      5  C5  BNZ d   1       4.499  -5.747   4.789  0.00  0.00     0.000 A 
ATOM      6  C6  BNZ d   1       4.496  -5.080   5.993  0.00  0.00     0.000 A 
ENDROOT
TORSDOF 0
ENDMDL
