MODEL 1
REMARK minimizedAffinity -3.16822624
REMARK minimizedRMSD -1
REMARK  0 active torsions:
REMARK  status: ('A' for Active; 'I' for Inactive)
ROOT
ATOM      1  C1  BNZ d   1      -0.726   5.962   5.101  0.00  0.00     0.000 A 
ATOM      2  C2  BNZ d   1       0.307   5.922   5.999  0.00  0.00     0.000 A 
ATOM      3  C3  BNZ d   1       1.576   5.616   5.594  0.00  0.00     0.000 A 
ATOM      4  C4  BNZ d   1       1.803   5.311   4.300  0.00  0.00     0.000 A 
ATOM      5  C5  BNZ d   1       0.771   5.337   3.384  0.00  0.00     0.000 A 
ATOM      6  C6  BNZ d   1      -0.498   5.684   3.788  0.00  0.00     0.000 A 
ENDROOT
TORSDOF 0
ENDMDL
