MODEL 1
REMARK minimizedAffinity -2.21574736
REMARK minimizedRMSD -1
REMARK  0 active torsions:
REMARK  status: ('A' for Active; 'I' for Inactive)
ROOT
ATOM      1  C1  BNZ d   1       3.723   2.925  -5.994  0.00  0.00     0.000 A 
ATOM      2  C2  BNZ d   1       5.089   2.827  -5.998  0.00  0.00     0.000 A 
ATOM      3  C3  BNZ d   1       5.872   3.948  -5.977  0.00  0.00     0.000 A 
ATOM      4  C4  BNZ d   1       5.288   5.164  -5.994  0.00  0.00     0.000 A 
ATOM      5  C5  BNZ d   1       3.912   5.279  -5.999  0.00  0.00     0.000 A 
ATOM      6  C6  BNZ d   1       3.128   4.149  -5.980  0.00  0.00     0.000 A 
ENDROOT
TORSDOF 0
ENDMDL
