MODEL 1
REMARK minimizedAffinity -3.1398499
REMARK minimizedRMSD -1
REMARK  0 active torsions:
REMARK  status: ('A' for Active; 'I' for Inactive)
ROOT
ATOM      1  C1  BNZ d   1       2.971   3.393  -5.984  0.00  0.00     0.000 A 
ATOM      2  C2  BNZ d   1       2.176   4.509  -5.982  0.00  0.00     0.000 A 
ATOM      3  C3  BNZ d   1       2.727   5.760  -6.000  0.00  0.00     0.000 A 
ATOM      4  C4  BNZ d   1       4.068   5.894  -5.978  0.00  0.00     0.000 A 
ATOM      5  C5  BNZ d   1       4.883   4.779  -5.970  0.00  0.00     0.000 A 
ATOM      6  C6  BNZ d   1       4.325   3.521  -5.992  0.00  0.00     0.000 A 
ENDROOT
TORSDOF 0
ENDMDL
