MODEL 1
REMARK minimizedAffinity -1.20212567
REMARK minimizedRMSD -1
REMARK  0 active torsions:
REMARK  status: ('A' for Active; 'I' for Inactive)
ROOT
ATOM      1  C1  BNZ d   1       4.855  -5.598   4.891  0.00  0.00     0.000 A 
ATOM      2  C2  BNZ d   1       5.344  -4.961   6.000  0.00  0.00     0.000 A 
ATOM      3  C3  BNZ d   1       5.545  -3.609   5.999  0.00  0.00     0.000 A 
ATOM      4  C4  BNZ d   1       5.296  -2.902   4.877  0.00  0.00     0.000 A 
ATOM      5  C5  BNZ d   1       4.811  -3.531   3.748  0.00  0.00     0.000 A 
ATOM      6  C6  BNZ d   1       4.573  -4.886   3.765  0.00  0.00     0.000 A 
ENDROOT
TORSDOF 0
ENDMDL
