MODEL 1
REMARK minimizedAffinity -3.11424112
REMARK minimizedRMSD -1
REMARK  0 active torsions:
REMARK  status: ('A' for Active; 'I' for Inactive)
ROOT
ATOM      1  C1  BNZ d   1       4.485   3.428  -5.918  0.00  0.00     0.000 A 
ATOM      2  C2  BNZ d   1       5.288   4.514  -5.696  0.00  0.00     0.000 A 
ATOM      3  C3  BNZ d   1       4.752   5.762  -5.543  0.00  0.00     0.000 A 
ATOM      4  C4  BNZ d   1       3.418   5.928  -5.652  0.00  0.00     0.000 A 
ATOM      5  C5  BNZ d   1       2.595   4.844  -5.885  0.00  0.00     0.000 A 
ATOM      6  C6  BNZ d   1       3.135   3.583  -6.000  0.00  0.00     0.000 A 
ENDROOT
TORSDOF 0
ENDMDL
