MODEL 1
REMARK minimizedAffinity -2.13825774
REMARK minimizedRMSD -1
REMARK  0 active torsions:
REMARK  status: ('A' for Active; 'I' for Inactive)
ROOT
ATOM      1  C1  BNZ d   1      -2.912   0.492  -3.907  0.00  0.00     0.000 A 
ATOM      2  C2  BNZ d   1      -3.752  -0.571  -4.108  0.00  0.00     0.000 A 
ATOM      3  C3  BNZ d   1      -4.433  -1.132  -3.064  0.00  0.00     0.000 A 
ATOM      4  C4  BNZ d   1      -4.243  -0.656  -1.817  0.00  0.00     0.000 A 
ATOM      5  C5  BNZ d   1      -3.392   0.409  -1.597  0.00  0.00     0.000 A 
ATOM      6  C6  BNZ d   1      -2.738   0.996  -2.655  0.00  0.00     0.000 A 
ENDROOT
TORSDOF 0
ENDMDL
