MODEL 1
REMARK minimizedAffinity -2.47411799
REMARK minimizedRMSD -1
REMARK  0 active torsions:
REMARK  status: ('A' for Active; 'I' for Inactive)
ROOT
ATOM      1  C1  BNZ d   1       2.332   3.153  -5.995  0.00  0.00     0.000 A 
ATOM      2  C2  BNZ d   1       3.558   2.542  -5.999  0.00  0.00     0.000 A 
ATOM      3  C3  BNZ d   1       4.708   3.281  -5.978  0.00  0.00     0.000 A 
ATOM      4  C4  BNZ d   1       4.632   4.627  -5.994  0.00  0.00     0.000 A 
ATOM      5  C5  BNZ d   1       3.404   5.258  -6.000  0.00  0.00     0.000 A 
ATOM      6  C6  BNZ d   1       2.248   4.511  -5.982  0.00  0.00     0.000 A 
ENDROOT
TORSDOF 0
ENDMDL
