MODEL 1
REMARK minimizedAffinity -0.770328999
REMARK minimizedRMSD -1
REMARK  1 active torsions:
REMARK  status: ('A' for Active; 'I' for Inactive)
REMARK    1  A    between atoms: C3_4  and  O_7 
ROOT
ATOM      1  C   UNL d   1       2.735   3.339  -0.215  0.00  0.00    -0.033 A 
ATOM      2  C1  UNL d   1       3.145   2.007  -0.125  0.00  0.00     0.039 A 
ATOM      3  C2  UNL d   1       3.159   1.361   1.113  0.00  0.00    -0.080 A 
ATOM      4  C3  UNL d   1       2.762   2.057   2.252  0.00  0.00     0.150 A 
ATOM      5  C4  UNL d   1       2.350   3.383   2.169  0.00  0.00    -0.007 A 
ATOM      6  C5  UNL d   1       2.336   4.026   0.932  0.00  0.00     0.039 A 
ENDROOT
BRANCH   4   7
ATOM      7  O   UNL d   1       2.765   1.471   3.482  0.00  0.00    -0.526 OA
ATOM      8  H5  UNL d   1       3.100   0.564   3.390  0.00  0.00     0.418 HD
ENDBRANCH   4   7
TORSDOF 1
ENDMDL
