MODEL 1
REMARK minimizedAffinity -3.1077106
REMARK minimizedRMSD -1
REMARK  1 active torsions:
REMARK  status: ('A' for Active; 'I' for Inactive)
REMARK    1  A    between atoms: C3_4  and  O_7 
ROOT
ATOM      1  C   UNL d   1       1.870   1.795   1.322  0.00  0.00    -0.033 A 
ATOM      2  C1  UNL d   1       2.496   3.006   1.623  0.00  0.00     0.039 A 
ATOM      3  C2  UNL d   1       2.890   3.864   0.594  0.00  0.00    -0.080 A 
ATOM      4  C3  UNL d   1       2.652   3.500  -0.729  0.00  0.00     0.150 A 
ATOM      5  C4  UNL d   1       2.025   2.297  -1.035  0.00  0.00    -0.007 A 
ATOM      6  C5  UNL d   1       1.633   1.441  -0.006  0.00  0.00     0.039 A 
ENDROOT
BRANCH   4   7
ATOM      7  O   UNL d   1       3.023   4.303  -1.766  0.00  0.00    -0.526 OA
ATOM      8  H5  UNL d   1       3.470   5.086  -1.405  0.00  0.00     0.418 HD
ENDBRANCH   4   7
TORSDOF 1
ENDMDL
