MODEL 1
REMARK minimizedAffinity -3.28549361
REMARK minimizedRMSD -1
REMARK  1 active torsions:
REMARK  status: ('A' for Active; 'I' for Inactive)
REMARK    1  A    between atoms: C3_4  and  O_7 
ROOT
ATOM      1  C   UNL d   1       1.524   0.061   0.551  0.00  0.00    -0.033 A 
ATOM      2  C1  UNL d   1       1.253   0.547  -0.730  0.00  0.00     0.039 A 
ATOM      3  C2  UNL d   1       0.022   0.282  -1.333  0.00  0.00    -0.080 A 
ATOM      4  C3  UNL d   1      -0.929  -0.467  -0.646  0.00  0.00     0.150 A 
ATOM      5  C4  UNL d   1      -0.667  -0.951   0.632  0.00  0.00    -0.007 A 
ATOM      6  C5  UNL d   1       0.563  -0.686   1.233  0.00  0.00     0.039 A 
ENDROOT
BRANCH   4   7
ATOM      7  O   UNL d   1      -2.142  -0.756  -1.195  0.00  0.00    -0.526 OA
ATOM      8  H5  UNL d   1      -2.171  -0.382  -2.092  0.00  0.00     0.418 HD
ENDBRANCH   4   7
TORSDOF 1
ENDMDL
