MODEL 1
REMARK minimizedAffinity 0.332898766
REMARK minimizedRMSD -1
REMARK  1 active torsions:
REMARK  status: ('A' for Active; 'I' for Inactive)
REMARK    1  A    between atoms: C3_4  and  O_7 
ROOT
ATOM      1  C   UNL d   1       3.226   2.694   0.434  0.00  0.00    -0.033 A 
ATOM      2  C1  UNL d   1       2.546   2.520   1.641  0.00  0.00     0.039 A 
ATOM      3  C2  UNL d   1       1.569   1.529   1.758  0.00  0.00    -0.080 A 
ATOM      4  C3  UNL d   1       1.283   0.719   0.662  0.00  0.00     0.150 A 
ATOM      5  C4  UNL d   1       1.960   0.884  -0.542  0.00  0.00    -0.007 A 
ATOM      6  C5  UNL d   1       2.934   1.874  -0.657  0.00  0.00     0.039 A 
ENDROOT
BRANCH   4   7
ATOM      7  O   UNL d   1       0.335  -0.258   0.727  0.00  0.00    -0.526 OA
ATOM      8  H5  UNL d   1      -0.069  -0.237   1.610  0.00  0.00     0.418 HD
ENDBRANCH   4   7
TORSDOF 1
ENDMDL
