MODEL 1
REMARK minimizedAffinity -4.18351173
REMARK minimizedRMSD -1
REMARK  1 active torsions:
REMARK  status: ('A' for Active; 'I' for Inactive)
REMARK    1  A    between atoms: C3_4  and  O_7 
ROOT
ATOM      1  C   UNL d   1       0.705  -0.407  -0.444  0.00  0.00    -0.033 A 
ATOM      2  C1  UNL d   1       0.204  -1.120   0.647  0.00  0.00     0.039 A 
ATOM      3  C2  UNL d   1      -1.152  -1.449   0.705  0.00  0.00    -0.080 A 
ATOM      4  C3  UNL d   1      -1.994  -1.059  -0.332  0.00  0.00     0.150 A 
ATOM      5  C4  UNL d   1      -1.501  -0.351  -1.423  0.00  0.00    -0.007 A 
ATOM      6  C5  UNL d   1      -0.147  -0.023  -1.479  0.00  0.00     0.039 A 
ENDROOT
BRANCH   4   7
ATOM      7  O   UNL d   1      -3.326  -1.353  -0.317  0.00  0.00    -0.526 OA
ATOM      8  H5  UNL d   1      -3.529  -1.819   0.511  0.00  0.00     0.418 HD
ENDBRANCH   4   7
TORSDOF 1
ENDMDL
