MODEL 1
REMARK minimizedAffinity -3.37123775
REMARK minimizedRMSD -1
REMARK  1 active torsions:
REMARK  status: ('A' for Active; 'I' for Inactive)
REMARK    1  A    between atoms: C3_4  and  O_7 
ROOT
ATOM      1  C   UNL d   1      -2.242  -0.835  -2.661  0.00  0.00    -0.033 A 
ATOM      2  C1  UNL d   1      -2.406  -1.343  -1.371  0.00  0.00     0.039 A 
ATOM      3  C2  UNL d   1      -1.505  -0.997  -0.362  0.00  0.00    -0.080 A 
ATOM      4  C3  UNL d   1      -0.446  -0.141  -0.656  0.00  0.00     0.150 A 
ATOM      5  C4  UNL d   1      -0.279   0.372  -1.938  0.00  0.00    -0.007 A 
ATOM      6  C5  UNL d   1      -1.179   0.024  -2.944  0.00  0.00     0.039 A 
ENDROOT
BRANCH   4   7
ATOM      7  O   UNL d   1       0.461   0.221   0.294  0.00  0.00    -0.526 OA
ATOM      8  H5  UNL d   1       0.236  -0.232   1.124  0.00  0.00     0.418 HD
ENDBRANCH   4   7
TORSDOF 1
ENDMDL
