MODEL 1
REMARK minimizedAffinity -4.24876928
REMARK minimizedRMSD -1
REMARK  1 active torsions:
REMARK  status: ('A' for Active; 'I' for Inactive)
REMARK    1  A    between atoms: C3_4  and  O_7 
ROOT
ATOM      1  C   UNL d   1      -2.236  -0.829  -0.957  0.00  0.00    -0.033 A 
ATOM      2  C1  UNL d   1      -1.557  -1.036   0.246  0.00  0.00     0.039 A 
ATOM      3  C2  UNL d   1      -0.323  -0.422   0.468  0.00  0.00    -0.080 A 
ATOM      4  C3  UNL d   1       0.220   0.396  -0.519  0.00  0.00     0.150 A 
ATOM      5  C4  UNL d   1      -0.452   0.610  -1.718  0.00  0.00    -0.007 A 
ATOM      6  C5  UNL d   1      -1.684  -0.005  -1.938  0.00  0.00     0.039 A 
ENDROOT
BRANCH   4   7
ATOM      7  O   UNL d   1       1.424   1.013  -0.350  0.00  0.00    -0.526 OA
ATOM      8  H5  UNL d   1       1.786   0.751   0.513  0.00  0.00     0.418 HD
ENDBRANCH   4   7
TORSDOF 1
ENDMDL
