MODEL 1
REMARK minimizedAffinity -1.62733841
REMARK minimizedRMSD -1
REMARK  1 active torsions:
REMARK  status: ('A' for Active; 'I' for Inactive)
REMARK    1  A    between atoms: C3_4  and  O_7 
ROOT
ATOM      1  C   UNL d   1      -1.166  -0.346  -2.595  0.00  0.00    -0.033 A 
ATOM      2  C1  UNL d   1       0.193  -0.036  -2.519  0.00  0.00     0.039 A 
ATOM      3  C2  UNL d   1       0.710   0.570  -1.372  0.00  0.00    -0.080 A 
ATOM      4  C3  UNL d   1      -0.141   0.859  -0.309  0.00  0.00     0.150 A 
ATOM      5  C4  UNL d   1      -1.495   0.549  -0.376  0.00  0.00    -0.007 A 
ATOM      6  C5  UNL d   1      -2.010  -0.055  -1.523  0.00  0.00     0.039 A 
ENDROOT
BRANCH   4   7
ATOM      7  O   UNL d   1       0.317   1.454   0.828  0.00  0.00    -0.526 OA
ATOM      8  H5  UNL d   1       1.265   1.635   0.721  0.00  0.00     0.418 HD
ENDBRANCH   4   7
TORSDOF 1
ENDMDL
