MODEL 1
REMARK minimizedAffinity -3.13616419
REMARK minimizedRMSD -1
REMARK  1 active torsions:
REMARK  status: ('A' for Active; 'I' for Inactive)
REMARK    1  A    between atoms: C3_4  and  O_7 
ROOT
ATOM      1  C   UNL d   1       1.626  -0.971   1.033  0.00  0.00    -0.033 A 
ATOM      2  C1  UNL d   1       1.631   0.042   0.072  0.00  0.00     0.039 A 
ATOM      3  C2  UNL d   1       0.433   0.463  -0.508  0.00  0.00    -0.080 A 
ATOM      4  C3  UNL d   1      -0.762  -0.135  -0.117  0.00  0.00     0.150 A 
ATOM      5  C4  UNL d   1      -0.775  -1.142   0.843  0.00  0.00    -0.007 A 
ATOM      6  C5  UNL d   1       0.422  -1.562   1.420  0.00  0.00     0.039 A 
ENDROOT
BRANCH   4   7
ATOM      7  O   UNL d   1      -1.956   0.239  -0.658  0.00  0.00    -0.526 OA
ATOM      8  H5  UNL d   1      -1.790   0.923  -1.328  0.00  0.00     0.418 HD
ENDBRANCH   4   7
TORSDOF 1
ENDMDL
