MODEL 1
REMARK minimizedAffinity -3.94856262
REMARK minimizedRMSD -1
REMARK  1 active torsions:
REMARK  status: ('A' for Active; 'I' for Inactive)
REMARK    1  A    between atoms: C3_4  and  O_7 
ROOT
ATOM      1  C   UNL d   1      -0.197   0.439  -1.043  0.00  0.00    -0.033 A 
ATOM      2  C1  UNL d   1      -0.417  -0.519  -0.051  0.00  0.00     0.039 A 
ATOM      3  C2  UNL d   1      -1.669  -1.126   0.071  0.00  0.00    -0.080 A 
ATOM      4  C3  UNL d   1      -2.689  -0.768  -0.806  0.00  0.00     0.150 A 
ATOM      5  C4  UNL d   1      -2.476   0.182  -1.799  0.00  0.00    -0.007 A 
ATOM      6  C5  UNL d   1      -1.226   0.788  -1.918  0.00  0.00     0.039 A 
ENDROOT
BRANCH   4   7
ATOM      7  O   UNL d   1      -3.929  -1.330  -0.723  0.00  0.00    -0.526 OA
ATOM      8  H5  UNL d   1      -3.938  -1.947   0.027  0.00  0.00     0.418 HD
ENDBRANCH   4   7
TORSDOF 1
ENDMDL
