MODEL 1
REMARK minimizedAffinity -2.26937532
REMARK minimizedRMSD -1
REMARK  1 active torsions:
REMARK  status: ('A' for Active; 'I' for Inactive)
REMARK    1  A    between atoms: C3_4  and  O_7 
ROOT
ATOM      1  C   UNL d   1       3.009   2.223   1.042  0.00  0.00    -0.033 A 
ATOM      2  C1  UNL d   1       1.745   2.691   1.407  0.00  0.00     0.039 A 
ATOM      3  C2  UNL d   1       0.598   2.025   0.970  0.00  0.00    -0.080 A 
ATOM      4  C3  UNL d   1       0.729   0.893   0.170  0.00  0.00     0.150 A 
ATOM      5  C4  UNL d   1       1.985   0.418  -0.193  0.00  0.00    -0.007 A 
ATOM      6  C5  UNL d   1       3.129   1.086   0.244  0.00  0.00     0.039 A 
ENDROOT
BRANCH   4   7
ATOM      7  O   UNL d   1      -0.360   0.211  -0.284  0.00  0.00    -0.526 OA
ATOM      8  H5  UNL d   1      -1.160   0.670   0.022  0.00  0.00     0.418 HD
ENDBRANCH   4   7
TORSDOF 1
ENDMDL
