MODEL 1
REMARK minimizedAffinity -3.16862869
REMARK minimizedRMSD -1
REMARK  1 active torsions:
REMARK  status: ('A' for Active; 'I' for Inactive)
REMARK    1  A    between atoms: C3_4  and  O_7 
ROOT
ATOM      1  C   UNL d   1       1.964   3.389   1.217  0.00  0.00    -0.033 A 
ATOM      2  C1  UNL d   1       1.805   2.455   2.243  0.00  0.00     0.039 A 
ATOM      3  C2  UNL d   1       1.620   1.105   1.937  0.00  0.00    -0.080 A 
ATOM      4  C3  UNL d   1       1.597   0.703   0.605  0.00  0.00     0.150 A 
ATOM      5  C4  UNL d   1       1.759   1.628  -0.422  0.00  0.00    -0.007 A 
ATOM      6  C5  UNL d   1       1.943   2.976  -0.115  0.00  0.00     0.039 A 
ENDROOT
BRANCH   4   7
ATOM      7  O   UNL d   1       1.415  -0.602   0.257  0.00  0.00    -0.526 OA
ATOM      8  H5  UNL d   1       1.288  -1.122   1.069  0.00  0.00     0.418 HD
ENDBRANCH   4   7
TORSDOF 1
ENDMDL
