MODEL 1
REMARK minimizedAffinity -3.03759575
REMARK minimizedRMSD -1
REMARK  1 active torsions:
REMARK  status: ('A' for Active; 'I' for Inactive)
REMARK    1  A    between atoms: C3_4  and  O_7 
ROOT
ATOM      1  C   UNL d   1      -5.544   4.777   1.563  0.00  0.00    -0.033 A 
ATOM      2  C1  UNL d   1      -4.864   3.749   2.221  0.00  0.00     0.039 A 
ATOM      3  C2  UNL d   1      -4.605   3.846   3.589  0.00  0.00    -0.080 A 
ATOM      4  C3  UNL d   1      -5.030   4.972   4.288  0.00  0.00     0.150 A 
ATOM      5  C4  UNL d   1      -5.711   5.998   3.640  0.00  0.00    -0.007 A 
ATOM      6  C5  UNL d   1      -5.969   5.900   2.273  0.00  0.00     0.039 A 
ENDROOT
BRANCH   4   7
ATOM      7  O   UNL d   1      -4.796   5.113   5.623  0.00  0.00    -0.526 OA
ATOM      8  H5  UNL d   1      -4.291   4.342   5.930  0.00  0.00     0.418 HD
ENDBRANCH   4   7
TORSDOF 1
ENDMDL
