MODEL 1
REMARK minimizedAffinity -2.22884226
REMARK minimizedRMSD -1
REMARK  1 active torsions:
REMARK  status: ('A' for Active; 'I' for Inactive)
REMARK    1  A    between atoms: C3_4  and  O_7 
ROOT
ATOM      1  C   UNL d   1      -0.515   0.655  -1.316  0.00  0.00    -0.033 A 
ATOM      2  C1  UNL d   1      -0.174  -0.057  -0.165  0.00  0.00     0.039 A 
ATOM      3  C2  UNL d   1      -0.942  -1.154   0.232  0.00  0.00    -0.080 A 
ATOM      4  C3  UNL d   1      -2.046  -1.527  -0.530  0.00  0.00     0.150 A 
ATOM      5  C4  UNL d   1      -2.389  -0.824  -1.680  0.00  0.00    -0.007 A 
ATOM      6  C5  UNL d   1      -1.621   0.271  -2.075  0.00  0.00     0.039 A 
ENDROOT
BRANCH   4   7
ATOM      7  O   UNL d   1      -2.828  -2.587  -0.179  0.00  0.00    -0.526 OA
ATOM      8  H5  UNL d   1      -2.488  -2.959   0.652  0.00  0.00     0.418 HD
ENDBRANCH   4   7
TORSDOF 1
ENDMDL
