MODEL 1
REMARK minimizedAffinity -3.65368462
REMARK minimizedRMSD -1
REMARK  1 active torsions:
REMARK  status: ('A' for Active; 'I' for Inactive)
REMARK    1  A    between atoms: C3_4  and  O_7 
ROOT
ATOM      1  C   UNL d   1       1.013  -0.367  -0.123  0.00  0.00    -0.033 A 
ATOM      2  C1  UNL d   1       0.537  -0.922   1.066  0.00  0.00     0.039 A 
ATOM      3  C2  UNL d   1       0.582  -0.184   2.251  0.00  0.00    -0.080 A 
ATOM      4  C3  UNL d   1       1.104   1.106   2.232  0.00  0.00     0.150 A 
ATOM      5  C4  UNL d   1       1.576   1.667   1.050  0.00  0.00    -0.007 A 
ATOM      6  C5  UNL d   1       1.532   0.928  -0.131  0.00  0.00     0.039 A 
ENDROOT
BRANCH   4   7
ATOM      7  O   UNL d   1       1.173   1.863   3.363  0.00  0.00    -0.526 OA
ATOM      8  H5  UNL d   1       0.837   1.336   4.108  0.00  0.00     0.418 HD
ENDBRANCH   4   7
TORSDOF 1
ENDMDL
