MODEL 1
REMARK minimizedAffinity -4.16543913
REMARK minimizedRMSD -1
REMARK  0 active torsions:
REMARK  status: ('A' for Active; 'I' for Inactive)
ROOT
ATOM      1  C2' OXE d   1       2.718   1.604  -0.820  0.00  0.00     0.078 C 
ATOM      2  C1' OXE d   1       0.513   3.330  -0.625  0.00  0.00     0.078 C 
ATOM      3  C1  OXE d   1       0.304   1.879  -0.270  0.00  0.00    -0.078 A 
ATOM      4  C2  OXE d   1       1.377   1.032  -0.414  0.00  0.00    -0.078 A 
ATOM      5  C3  OXE d   1       1.254  -0.305  -0.048  0.00  0.00     0.003 A 
ATOM      6  C4  OXE d   1       0.008  -0.828   0.318  0.00  0.00    -0.002 A 
ATOM      7  C5  OXE d   1      -1.108   0.009   0.431  0.00  0.00    -0.002 A 
ATOM      8  C6  OXE d   1      -0.967   1.370   0.183  0.00  0.00     0.003 A 
ENDROOT
TORSDOF 0
ENDMDL
