MODEL 1
REMARK minimizedAffinity 2.5273881
REMARK minimizedRMSD -1
REMARK  0 active torsions:
REMARK  status: ('A' for Active; 'I' for Inactive)
ROOT
ATOM      1  C2' OXE d   1      -1.560  -0.914   2.546  0.00  0.00     0.078 C 
ATOM      2  C1' OXE d   1       0.566  -1.441   0.791  0.00  0.00     0.078 C 
ATOM      3  C1  OXE d   1       0.113  -0.010   0.938  0.00  0.00    -0.078 A 
ATOM      4  C2  OXE d   1      -0.958   0.233   1.763  0.00  0.00    -0.078 A 
ATOM      5  C3  OXE d   1      -1.382   1.541   1.977  0.00  0.00     0.003 A 
ATOM      6  C4  OXE d   1      -0.827   2.595   1.241  0.00  0.00    -0.002 A 
ATOM      7  C5  OXE d   1       0.239   2.365   0.365  0.00  0.00    -0.002 A 
ATOM      8  C6  OXE d   1       0.748   1.078   0.234  0.00  0.00     0.003 A 
ENDROOT
TORSDOF 0
ENDMDL
