MODEL 1
REMARK minimizedAffinity 5.25119638
REMARK minimizedRMSD -1
REMARK  0 active torsions:
REMARK  status: ('A' for Active; 'I' for Inactive)
ROOT
ATOM      1  C2' OXE d   1      -0.361   2.510   0.191  0.00  0.00     0.078 C 
ATOM      2  C1' OXE d   1       0.889   0.015  -0.120  0.00  0.00     0.078 C 
ATOM      3  C1  OXE d   1       1.753   1.193   0.254  0.00  0.00    -0.078 A 
ATOM      4  C2  OXE d   1       1.141   2.419   0.358  0.00  0.00    -0.078 A 
ATOM      5  C3  OXE d   1       1.882   3.528   0.754  0.00  0.00     0.003 A 
ATOM      6  C4  OXE d   1       3.272   3.438   0.898  0.00  0.00    -0.002 A 
ATOM      7  C5  OXE d   1       3.922   2.207   0.757  0.00  0.00    -0.002 A 
ATOM      8  C6  OXE d   1       3.172   1.069   0.478  0.00  0.00     0.003 A 
ENDROOT
TORSDOF 0
ENDMDL
