MODEL 1
REMARK minimizedAffinity 5.91597939
REMARK minimizedRMSD -1
REMARK  0 active torsions:
REMARK  status: ('A' for Active; 'I' for Inactive)
ROOT
ATOM      1  C2' OXE d   1       0.756   2.957  -0.205  0.00  0.00     0.078 C 
ATOM      2  C1' OXE d   1       1.181   0.204   0.141  0.00  0.00     0.078 C 
ATOM      3  C1  OXE d   1       0.082   0.853   0.945  0.00  0.00    -0.078 A 
ATOM      4  C2  OXE d   1      -0.088   2.209   0.804  0.00  0.00    -0.078 A 
ATOM      5  C3  OXE d   1      -1.122   2.848   1.481  0.00  0.00     0.003 A 
ATOM      6  C4  OXE d   1      -1.892   2.151   2.420  0.00  0.00    -0.002 A 
ATOM      7  C5  OXE d   1      -1.709   0.777   2.609  0.00  0.00    -0.002 A 
ATOM      8  C6  OXE d   1      -0.757   0.106   1.850  0.00  0.00     0.003 A 
ENDROOT
TORSDOF 0
ENDMDL
