MODEL 1
REMARK minimizedAffinity 8.08382225
REMARK minimizedRMSD -1
REMARK  0 active torsions:
REMARK  status: ('A' for Active; 'I' for Inactive)
ROOT
ATOM      1  C2' OXE d   1      -2.233  -0.680   2.813  0.00  0.00     0.078 C 
ATOM      2  C1' OXE d   1      -0.669   1.414   1.791  0.00  0.00     0.078 C 
ATOM      3  C1  OXE d   1      -0.351   0.012   1.335  0.00  0.00    -0.078 A 
ATOM      4  C2  OXE d   1      -1.092  -1.011   1.876  0.00  0.00    -0.078 A 
ATOM      5  C3  OXE d   1      -0.877  -2.319   1.448  0.00  0.00     0.003 A 
ATOM      6  C4  OXE d   1       0.188  -2.617   0.589  0.00  0.00    -0.002 A 
ATOM      7  C5  OXE d   1       0.980  -1.594   0.058  0.00  0.00    -0.002 A 
ATOM      8  C6  OXE d   1       0.697  -0.273   0.386  0.00  0.00     0.003 A 
ENDROOT
TORSDOF 0
ENDMDL
