MODEL 1
REMARK minimizedAffinity 2.28054857
REMARK minimizedRMSD -1
REMARK  0 active torsions:
REMARK  status: ('A' for Active; 'I' for Inactive)
ROOT
ATOM      1  C2' OXE d   1       1.222  -0.365   0.634  0.00  0.00     0.078 C 
ATOM      2  C1' OXE d   1       3.659   1.025   0.742  0.00  0.00     0.078 C 
ATOM      3  C1  OXE d   1       2.397   1.830   0.555  0.00  0.00    -0.078 A 
ATOM      4  C2  OXE d   1       1.214   1.138   0.457  0.00  0.00    -0.078 A 
ATOM      5  C3  OXE d   1       0.015   1.836   0.339  0.00  0.00     0.003 A 
ATOM      6  C4  OXE d   1       0.018   3.225   0.165  0.00  0.00    -0.002 A 
ATOM      7  C5  OXE d   1       1.216   3.946   0.223  0.00  0.00    -0.002 A 
ATOM      8  C6  OXE d   1       2.407   3.269   0.459  0.00  0.00     0.003 A 
ENDROOT
TORSDOF 0
ENDMDL
