MODEL 1
REMARK minimizedAffinity 3.48713017
REMARK minimizedRMSD -1
REMARK  0 active torsions:
REMARK  status: ('A' for Active; 'I' for Inactive)
ROOT
ATOM      1  C2' OXE d   1      -0.702   2.935   0.051  0.00  0.00     0.078 C 
ATOM      2  C1' OXE d   1      -0.660   2.662   2.845  0.00  0.00     0.078 C 
ATOM      3  C1  OXE d   1       0.645   2.511   2.103  0.00  0.00    -0.078 A 
ATOM      4  C2  OXE d   1       0.607   2.600   0.733  0.00  0.00    -0.078 A 
ATOM      5  C3  OXE d   1       1.791   2.524   0.004  0.00  0.00     0.003 A 
ATOM      6  C4  OXE d   1       2.996   2.204   0.641  0.00  0.00    -0.002 A 
ATOM      7  C5  OXE d   1       3.050   2.070   2.032  0.00  0.00    -0.002 A 
ATOM      8  C6  OXE d   1       1.894   2.262   2.781  0.00  0.00     0.003 A 
ENDROOT
TORSDOF 0
ENDMDL
