MODEL 1
REMARK minimizedAffinity 14.9296741
REMARK minimizedRMSD -1
REMARK  0 active torsions:
REMARK  status: ('A' for Active; 'I' for Inactive)
ROOT
ATOM      1  C2' OXE d   1       2.339   2.490  -0.456  0.00  0.00     0.078 C 
ATOM      2  C1' OXE d   1       0.018   3.679  -1.496  0.00  0.00     0.078 C 
ATOM      3  C1  OXE d   1       0.012   3.278  -0.042  0.00  0.00    -0.078 A 
ATOM      4  C2  OXE d   1       1.135   2.654   0.446  0.00  0.00    -0.078 A 
ATOM      5  C3  OXE d   1       1.203   2.313   1.794  0.00  0.00     0.003 A 
ATOM      6  C4  OXE d   1       0.081   2.459   2.619  0.00  0.00    -0.002 A 
ATOM      7  C5  OXE d   1      -1.087   3.055   2.132  0.00  0.00    -0.002 A 
ATOM      8  C6  OXE d   1      -1.123   3.508   0.817  0.00  0.00     0.003 A 
ENDROOT
TORSDOF 0
ENDMDL
