MODEL 1
REMARK minimizedAffinity 0.321447492
REMARK minimizedRMSD -1
REMARK  0 active torsions:
REMARK  status: ('A' for Active; 'I' for Inactive)
ROOT
ATOM      1  C2' OXE d   1       4.744  -5.318  -3.470  0.00  0.00     0.078 C 
ATOM      2  C1' OXE d   1       3.689  -6.000  -5.980  0.00  0.00     0.078 C 
ATOM      3  C1  OXE d   1       2.725  -5.840  -4.831  0.00  0.00    -0.078 A 
ATOM      4  C2  OXE d   1       3.254  -5.552  -3.597  0.00  0.00    -0.078 A 
ATOM      5  C3  OXE d   1       2.405  -5.340  -2.514  0.00  0.00     0.003 A 
ATOM      6  C4  OXE d   1       1.029  -5.568  -2.638  0.00  0.00    -0.002 A 
ATOM      7  C5  OXE d   1       0.473  -5.901  -3.878  0.00  0.00    -0.002 A 
ATOM      8  C6  OXE d   1       1.300  -5.999  -4.991  0.00  0.00     0.003 A 
ENDROOT
TORSDOF 0
ENDMDL
