MODEL 1
REMARK minimizedAffinity 9.74457836
REMARK minimizedRMSD -1
REMARK  0 active torsions:
REMARK  status: ('A' for Active; 'I' for Inactive)
ROOT
ATOM      1  C2' OXE d   1       4.515   1.815  -2.370  0.00  0.00     0.078 C 
ATOM      2  C1' OXE d   1       3.165   0.965  -4.679  0.00  0.00     0.078 C 
ATOM      3  C1  OXE d   1       3.992   2.223  -4.771  0.00  0.00    -0.078 A 
ATOM      4  C2  OXE d   1       4.611   2.657  -3.624  0.00  0.00    -0.078 A 
ATOM      5  C3  OXE d   1       5.431   3.782  -3.666  0.00  0.00     0.003 A 
ATOM      6  C4  OXE d   1       5.506   4.561  -4.827  0.00  0.00    -0.002 A 
ATOM      7  C5  OXE d   1       4.851   4.158  -5.995  0.00  0.00    -0.002 A 
ATOM      8  C6  OXE d   1       4.126   2.972  -5.996  0.00  0.00     0.003 A 
ENDROOT
TORSDOF 0
ENDMDL
