MODEL 1
REMARK minimizedAffinity 1.2569139
REMARK minimizedRMSD -1
REMARK  0 active torsions:
REMARK  status: ('A' for Active; 'I' for Inactive)
ROOT
ATOM      1  C2' OXE d   1      -1.001   3.366   0.629  0.00  0.00     0.078 C 
ATOM      2  C1' OXE d   1       1.085   5.245   0.626  0.00  0.00     0.078 C 
ATOM      3  C1  OXE d   1       1.405   3.839   1.068  0.00  0.00    -0.078 A 
ATOM      4  C2  OXE d   1       0.368   2.938   1.111  0.00  0.00    -0.078 A 
ATOM      5  C3  OXE d   1       0.620   1.614   1.460  0.00  0.00     0.003 A 
ATOM      6  C4  OXE d   1       1.887   1.229   1.914  0.00  0.00    -0.002 A 
ATOM      7  C5  OXE d   1       2.948   2.141   1.916  0.00  0.00    -0.002 A 
ATOM      8  C6  OXE d   1       2.734   3.436   1.457  0.00  0.00     0.003 A 
ENDROOT
TORSDOF 0
ENDMDL
