MODEL 1
REMARK minimizedAffinity 2.98039389
REMARK minimizedRMSD -1
REMARK  0 active torsions:
REMARK  status: ('A' for Active; 'I' for Inactive)
ROOT
ATOM      1  C2' OXE d   1       0.136   3.539  -0.250  0.00  0.00     0.078 C 
ATOM      2  C1' OXE d   1      -0.593   2.359   2.190  0.00  0.00     0.078 C 
ATOM      3  C1  OXE d   1       0.385   1.617   1.314  0.00  0.00    -0.078 A 
ATOM      4  C2  OXE d   1       0.701   2.179   0.101  0.00  0.00    -0.078 A 
ATOM      5  C3  OXE d   1       1.640   1.563  -0.721  0.00  0.00     0.003 A 
ATOM      6  C4  OXE d   1       2.149   0.301  -0.393  0.00  0.00    -0.002 A 
ATOM      7  C5  OXE d   1       1.811  -0.308   0.820  0.00  0.00    -0.002 A 
ATOM      8  C6  OXE d   1       0.965   0.354   1.702  0.00  0.00     0.003 A 
ENDROOT
TORSDOF 0
ENDMDL
