MODEL 1
REMARK minimizedAffinity 3.7505815
REMARK minimizedRMSD -1
REMARK  0 active torsions:
REMARK  status: ('A' for Active; 'I' for Inactive)
ROOT
ATOM      1  C2' OXE d   1       0.386  -5.881  -2.618  0.00  0.00     0.078 C 
ATOM      2  C1' OXE d   1      -0.247  -5.975  -5.352  0.00  0.00     0.078 C 
ATOM      3  C1  OXE d   1       1.212  -5.950  -4.967  0.00  0.00    -0.078 A 
ATOM      4  C2  OXE d   1       1.511  -5.857  -3.630  0.00  0.00    -0.078 A 
ATOM      5  C3  OXE d   1       2.841  -5.886  -3.217  0.00  0.00     0.003 A 
ATOM      6  C4  OXE d   1       3.876  -5.854  -4.159  0.00  0.00    -0.002 A 
ATOM      7  C5  OXE d   1       3.592  -5.908  -5.528  0.00  0.00    -0.002 A 
ATOM      8  C6  OXE d   1       2.269  -6.000  -5.947  0.00  0.00     0.003 A 
ENDROOT
TORSDOF 0
ENDMDL
