MODEL 1
REMARK minimizedAffinity 1.47513402
REMARK minimizedRMSD -1
REMARK  0 active torsions:
REMARK  status: ('A' for Active; 'I' for Inactive)
ROOT
ATOM      1  C2' OXE d   1       1.047   1.487   1.749  0.00  0.00     0.078 C 
ATOM      2  C1' OXE d   1       2.342   3.068  -0.176  0.00  0.00     0.078 C 
ATOM      3  C1  OXE d   1       3.043   2.848   1.141  0.00  0.00    -0.078 A 
ATOM      4  C2  OXE d   1       2.382   2.112   2.095  0.00  0.00    -0.078 A 
ATOM      5  C3  OXE d   1       3.007   1.834   3.307  0.00  0.00     0.003 A 
ATOM      6  C4  OXE d   1       4.237   2.424   3.622  0.00  0.00    -0.002 A 
ATOM      7  C5  OXE d   1       4.909   3.210   2.680  0.00  0.00    -0.002 A 
ATOM      8  C6  OXE d   1       4.347   3.396   1.422  0.00  0.00     0.003 A 
ENDROOT
TORSDOF 0
ENDMDL
