MODEL 1
REMARK minimizedAffinity 0.641606748
REMARK minimizedRMSD -1
REMARK  0 active torsions:
REMARK  status: ('A' for Active; 'I' for Inactive)
ROOT
ATOM      1  C2' OXE d   1       4.119   6.000   2.802  0.00  0.00     0.078 C 
ATOM      2  C1' OXE d   1       1.454   5.305   3.348  0.00  0.00     0.078 C 
ATOM      3  C1  OXE d   1       2.335   4.264   2.704  0.00  0.00    -0.078 A 
ATOM      4  C2  OXE d   1       3.624   4.628   2.398  0.00  0.00    -0.078 A 
ATOM      5  C3  OXE d   1       4.495   3.688   1.853  0.00  0.00     0.003 A 
ATOM      6  C4  OXE d   1       4.026   2.424   1.474  0.00  0.00    -0.002 A 
ATOM      7  C5  OXE d   1       2.706   2.047   1.740  0.00  0.00    -0.002 A 
ATOM      8  C6  OXE d   1       1.861   2.938   2.393  0.00  0.00     0.003 A 
ENDROOT
TORSDOF 0
ENDMDL
