MODEL 1
REMARK minimizedAffinity 5.05547476
REMARK minimizedRMSD -1
REMARK  0 active torsions:
REMARK  status: ('A' for Active; 'I' for Inactive)
ROOT
ATOM      1  C2' OXE d   1      -1.520   2.762   0.462  0.00  0.00     0.078 C 
ATOM      2  C1' OXE d   1      -0.673   3.055   3.122  0.00  0.00     0.078 C 
ATOM      3  C1  OXE d   1       0.386   2.985   2.051  0.00  0.00    -0.078 A 
ATOM      4  C2  OXE d   1      -0.036   2.795   0.757  0.00  0.00    -0.078 A 
ATOM      5  C3  OXE d   1       0.896   2.778  -0.277  0.00  0.00     0.003 A 
ATOM      6  C4  OXE d   1       2.268   2.799   0.005  0.00  0.00    -0.002 A 
ATOM      7  C5  OXE d   1       2.720   2.952   1.320  0.00  0.00    -0.002 A 
ATOM      8  C6  OXE d   1       1.793   3.089   2.348  0.00  0.00     0.003 A 
ENDROOT
TORSDOF 0
ENDMDL
