MODEL 1
REMARK minimizedAffinity 4.92345381
REMARK minimizedRMSD -1
REMARK  0 active torsions:
REMARK  status: ('A' for Active; 'I' for Inactive)
ROOT
ATOM      1  C2' OXE d   1       1.081  -0.310   0.341  0.00  0.00     0.078 C 
ATOM      2  C1' OXE d   1      -0.489   2.001   0.610  0.00  0.00     0.078 C 
ATOM      3  C1  OXE d   1       1.005   2.146   0.752  0.00  0.00    -0.078 A 
ATOM      4  C2  OXE d   1       1.762   1.003   0.666  0.00  0.00    -0.078 A 
ATOM      5  C3  OXE d   1       3.150   1.088   0.735  0.00  0.00     0.003 A 
ATOM      6  C4  OXE d   1       3.771   2.304   1.046  0.00  0.00    -0.002 A 
ATOM      7  C5  OXE d   1       3.015   3.474   1.177  0.00  0.00    -0.002 A 
ATOM      8  C6  OXE d   1       1.638   3.420   0.991  0.00  0.00     0.003 A 
ENDROOT
TORSDOF 0
ENDMDL
