MODEL 1
REMARK minimizedAffinity 3.85219049
REMARK minimizedRMSD -1
REMARK  0 active torsions:
REMARK  status: ('A' for Active; 'I' for Inactive)
ROOT
ATOM      1  C2' OXE d   1       0.889  -0.189   0.020  0.00  0.00     0.078 C 
ATOM      2  C1' OXE d   1      -0.368   2.253   0.600  0.00  0.00     0.078 C 
ATOM      3  C1  OXE d   1       1.132   2.182   0.742  0.00  0.00    -0.078 A 
ATOM      4  C2  OXE d   1       1.734   0.970   0.502  0.00  0.00    -0.078 A 
ATOM      5  C3  OXE d   1       3.120   0.864   0.565  0.00  0.00     0.003 A 
ATOM      6  C4  OXE d   1       3.893   1.938   1.022  0.00  0.00    -0.002 A 
ATOM      7  C5  OXE d   1       3.296   3.170   1.311  0.00  0.00    -0.002 A 
ATOM      8  C6  OXE d   1       1.925   3.321   1.136  0.00  0.00     0.003 A 
ENDROOT
TORSDOF 0
ENDMDL
