MODEL 1
REMARK minimizedAffinity 13.1563387
REMARK minimizedRMSD -1
REMARK  0 active torsions:
REMARK  status: ('A' for Active; 'I' for Inactive)
ROOT
ATOM      1  O1  BZF d   1       2.866  -4.347  -0.297  0.00  0.00    -0.204 OA
ATOM      2  C2  BZF d   1       2.583  -5.453   0.480  0.00  0.00     0.174 A 
ATOM      3  C3  BZF d   1       1.873  -5.102   1.572  0.00  0.00    -0.012 A 
ATOM      4  C3A BZF d   1       1.621  -3.701   1.422  0.00  0.00    -0.107 A 
ATOM      5  C4  BZF d   1       0.950  -2.782   2.177  0.00  0.00     0.055 A 
ATOM      6  C5  BZF d   1       0.952  -1.480   1.788  0.00  0.00    -0.016 A 
ATOM      7  C6  BZF d   1       1.620  -1.062   0.656  0.00  0.00     0.022 A 
ATOM      8  C7  BZF d   1       2.295  -1.937  -0.128  0.00  0.00     0.029 A 
ATOM      9  C7A BZF d   1       2.267  -3.259   0.244  0.00  0.00     0.058 A 
ENDROOT
TORSDOF 0
ENDMDL
