MODEL 1
REMARK minimizedAffinity 2.27653217
REMARK minimizedRMSD -1
REMARK  0 active torsions:
REMARK  status: ('A' for Active; 'I' for Inactive)
ROOT
ATOM      1  O1  BZF d   1      -0.676   3.009  -2.208  0.00  0.00    -0.204 OA
ATOM      2  C2  BZF d   1      -1.558   1.945  -2.201  0.00  0.00     0.174 A 
ATOM      3  C3  BZF d   1      -1.392   1.179  -3.299  0.00  0.00    -0.012 A 
ATOM      4  C3A BZF d   1      -0.278   1.751  -3.992  0.00  0.00    -0.107 A 
ATOM      5  C4  BZF d   1       0.378   1.426  -5.144  0.00  0.00     0.055 A 
ATOM      6  C5  BZF d   1       1.380   2.232  -5.584  0.00  0.00    -0.016 A 
ATOM      7  C6  BZF d   1       1.748   3.372  -4.899  0.00  0.00     0.022 A 
ATOM      8  C7  BZF d   1       1.130   3.733  -3.749  0.00  0.00     0.029 A 
ATOM      9  C7A BZF d   1       0.139   2.903  -3.285  0.00  0.00     0.058 A 
ENDROOT
TORSDOF 0
ENDMDL
