MODEL 1
REMARK minimizedAffinity -0.391629785
REMARK minimizedRMSD -1
REMARK  0 active torsions:
REMARK  status: ('A' for Active; 'I' for Inactive)
ROOT
ATOM      1  O1  BZF d   1       5.991   1.158  -0.933  0.00  0.00    -0.204 OA
ATOM      2  C2  BZF d   1       6.000   0.038  -0.124  0.00  0.00     0.174 A 
ATOM      3  C3  BZF d   1       5.928  -1.087  -0.864  0.00  0.00    -0.012 A 
ATOM      4  C3A BZF d   1       5.963  -0.645  -2.225  0.00  0.00    -0.107 A 
ATOM      5  C4  BZF d   1       5.940  -1.297  -3.424  0.00  0.00     0.055 A 
ATOM      6  C5  BZF d   1       5.914  -0.569  -4.572  0.00  0.00    -0.016 A 
ATOM      7  C6  BZF d   1       5.906   0.810  -4.556  0.00  0.00     0.022 A 
ATOM      8  C7  BZF d   1       5.933   1.501  -3.391  0.00  0.00     0.029 A 
ATOM      9  C7A BZF d   1       5.993   0.769  -2.230  0.00  0.00     0.058 A 
ENDROOT
TORSDOF 0
ENDMDL
