MODEL 1
REMARK minimizedAffinity 0.163089603
REMARK minimizedRMSD -1
REMARK  0 active torsions:
REMARK  status: ('A' for Active; 'I' for Inactive)
ROOT
ATOM      1  O1  BZF d   1      -0.216  -1.511   3.843  0.00  0.00    -0.204 OA
ATOM      2  C2  BZF d   1      -1.113  -0.483   3.628  0.00  0.00     0.174 A 
ATOM      3  C3  BZF d   1      -1.099  -0.097   2.336  0.00  0.00    -0.012 A 
ATOM      4  C3A BZF d   1      -0.199  -0.999   1.684  0.00  0.00    -0.107 A 
ATOM      5  C4  BZF d   1       0.221  -1.136   0.392  0.00  0.00     0.055 A 
ATOM      6  C5  BZF d   1       1.161  -2.072   0.099  0.00  0.00    -0.016 A 
ATOM      7  C6  BZF d   1       1.707  -2.883   1.072  0.00  0.00     0.022 A 
ATOM      8  C7  BZF d   1       1.318  -2.788   2.367  0.00  0.00     0.029 A 
ATOM      9  C7A BZF d   1       0.343  -1.866   2.661  0.00  0.00     0.058 A 
ENDROOT
TORSDOF 0
ENDMDL
