MODEL 1
REMARK minimizedAffinity 20.1183414
REMARK minimizedRMSD -1
REMARK  0 active torsions:
REMARK  status: ('A' for Active; 'I' for Inactive)
ROOT
ATOM      1  O1  BZF d   1       1.058  -1.977  -1.417  0.00  0.00    -0.204 OA
ATOM      2  C2  BZF d   1      -0.175  -1.377  -1.581  0.00  0.00     0.174 A 
ATOM      3  C3  BZF d   1      -0.708  -1.044  -0.387  0.00  0.00    -0.012 A 
ATOM      4  C3A BZF d   1       0.294  -1.379   0.578  0.00  0.00    -0.107 A 
ATOM      5  C4  BZF d   1       0.362  -1.268   1.938  0.00  0.00     0.055 A 
ATOM      6  C5  BZF d   1       1.452  -1.755   2.586  0.00  0.00    -0.016 A 
ATOM      7  C6  BZF d   1       2.489  -2.362   1.909  0.00  0.00     0.022 A 
ATOM      8  C7  BZF d   1       2.469  -2.491   0.560  0.00  0.00     0.029 A 
ATOM      9  C7A BZF d   1       1.383  -1.970  -0.102  0.00  0.00     0.058 A 
ENDROOT
TORSDOF 0
ENDMDL
