MODEL 1
REMARK minimizedAffinity 6.6388607
REMARK minimizedRMSD -1
REMARK  0 active torsions:
REMARK  status: ('A' for Active; 'I' for Inactive)
ROOT
ATOM      1  O1  BZF d   1       1.036  -1.381   2.960  0.00  0.00    -0.204 OA
ATOM      2  C2  BZF d   1       1.507  -2.022   1.830  0.00  0.00     0.174 A 
ATOM      3  C3  BZF d   1       1.992  -1.131   0.942  0.00  0.00    -0.012 A 
ATOM      4  C3A BZF d   1       1.897   0.140   1.593  0.00  0.00    -0.107 A 
ATOM      5  C4  BZF d   1       2.235   1.411   1.226  0.00  0.00     0.055 A 
ATOM      6  C5  BZF d   1       1.945   2.440   2.065  0.00  0.00    -0.016 A 
ATOM      7  C6  BZF d   1       1.312   2.235   3.273  0.00  0.00     0.022 A 
ATOM      8  C7  BZF d   1       0.961   0.992   3.683  0.00  0.00     0.029 A 
ATOM      9  C7A BZF d   1       1.284  -0.054   2.853  0.00  0.00     0.058 A 
ENDROOT
TORSDOF 0
ENDMDL
