MODEL 1
REMARK minimizedAffinity 4.10297203
REMARK minimizedRMSD -1
REMARK  0 active torsions:
REMARK  status: ('A' for Active; 'I' for Inactive)
ROOT
ATOM      1  O1  BZF d   1       2.319  -2.718   2.510  0.00  0.00    -0.204 OA
ATOM      2  C2  BZF d   1       2.938  -3.022   1.312  0.00  0.00     0.174 A 
ATOM      3  C3  BZF d   1       2.128  -2.741   0.271  0.00  0.00    -0.012 A 
ATOM      4  C3A BZF d   1       0.964  -2.144   0.850  0.00  0.00    -0.107 A 
ATOM      5  C4  BZF d   1      -0.191  -1.637   0.326  0.00  0.00     0.055 A 
ATOM      6  C5  BZF d   1      -1.160  -1.194   1.169  0.00  0.00    -0.016 A 
ATOM      7  C6  BZF d   1      -1.011  -1.247   2.539  0.00  0.00     0.022 A 
ATOM      8  C7  BZF d   1       0.119  -1.736   3.106  0.00  0.00     0.029 A 
ATOM      9  C7A BZF d   1       1.114  -2.155   2.256  0.00  0.00     0.058 A 
ENDROOT
TORSDOF 0
ENDMDL
