MODEL 1
REMARK minimizedAffinity 7.68637609
REMARK minimizedRMSD -1
REMARK  0 active torsions:
REMARK  status: ('A' for Active; 'I' for Inactive)
ROOT
ATOM      1  O1  BZF d   1       0.188  -0.449   3.450  0.00  0.00    -0.204 OA
ATOM      2  C2  BZF d   1       0.786  -1.506   2.793  0.00  0.00     0.174 A 
ATOM      3  C3  BZF d   1      -0.042  -2.022   1.862  0.00  0.00    -0.012 A 
ATOM      4  C3A BZF d   1      -1.199  -1.180   1.880  0.00  0.00    -0.107 A 
ATOM      5  C4  BZF d   1      -2.364  -1.171   1.168  0.00  0.00     0.055 A 
ATOM      6  C5  BZF d   1      -3.321  -0.257   1.480  0.00  0.00    -0.016 A 
ATOM      7  C6  BZF d   1      -3.148   0.657   2.498  0.00  0.00     0.022 A 
ATOM      8  C7  BZF d   1      -2.006   0.691   3.228  0.00  0.00     0.029 A 
ATOM      9  C7A BZF d   1      -1.024  -0.210   2.894  0.00  0.00     0.058 A 
ENDROOT
TORSDOF 0
ENDMDL
