MODEL 1
REMARK minimizedAffinity -3.86699438
REMARK minimizedRMSD -1
REMARK  0 active torsions:
REMARK  status: ('A' for Active; 'I' for Inactive)
ROOT
ATOM      1  C1  BNZ d   1      -0.502  -0.741   0.095  0.00  0.00     0.000 A 
ATOM      2  C2  BNZ d   1       0.280  -1.826  -0.198  0.00  0.00     0.000 A 
ATOM      3  C3  BNZ d   1       1.485  -1.672  -0.824  0.00  0.00     0.000 A 
ATOM      4  C4  BNZ d   1       1.888  -0.439  -1.192  0.00  0.00     0.000 A 
ATOM      5  C5  BNZ d   1       1.107   0.664  -0.913  0.00  0.00     0.000 A 
ATOM      6  C6  BNZ d   1      -0.088   0.510  -0.248  0.00  0.00     0.000 A 
ENDROOT
TORSDOF 0
ENDMDL
