MODEL 1
REMARK minimizedAffinity -4.31842995
REMARK minimizedRMSD -1
REMARK  0 active torsions:
REMARK  status: ('A' for Active; 'I' for Inactive)
ROOT
ATOM      1  C1  BNZ d   1       0.730   0.071  -1.572  0.00  0.00     0.000 A 
ATOM      2  C2  BNZ d   1       1.707  -0.888  -1.559  0.00  0.00     0.000 A 
ATOM      3  C3  BNZ d   1       1.762  -1.818  -0.558  0.00  0.00     0.000 A 
ATOM      4  C4  BNZ d   1       0.865  -1.763   0.447  0.00  0.00     0.000 A 
ATOM      5  C5  BNZ d   1      -0.121  -0.796   0.453  0.00  0.00     0.000 A 
ATOM      6  C6  BNZ d   1      -0.196   0.114  -0.576  0.00  0.00     0.000 A 
ENDROOT
TORSDOF 0
ENDMDL
