MODEL 1
REMARK minimizedAffinity -2.42828703
REMARK minimizedRMSD -1
REMARK  0 active torsions:
REMARK  status: ('A' for Active; 'I' for Inactive)
ROOT
ATOM      1  C1  BNZ d   1       5.282  -0.793   3.642  0.00  0.00     0.000 A 
ATOM      2  C2  BNZ d   1       5.316   0.576   3.657  0.00  0.00     0.000 A 
ATOM      3  C3  BNZ d   1       5.426   1.260   4.836  0.00  0.00     0.000 A 
ATOM      4  C4  BNZ d   1       5.461   0.577   5.998  0.00  0.00     0.000 A 
ATOM      5  C5  BNZ d   1       5.418  -0.803   5.999  0.00  0.00     0.000 A 
ATOM      6  C6  BNZ d   1       5.347  -1.489   4.809  0.00  0.00     0.000 A 
ENDROOT
TORSDOF 0
ENDMDL
