MODEL 1
REMARK minimizedAffinity 1.6284591
REMARK minimizedRMSD -1
REMARK  0 active torsions:
REMARK  status: ('A' for Active; 'I' for Inactive)
ROOT
ATOM      1  C1  BNZ d   1       4.054   4.085   1.407  0.00  0.00     0.000 A 
ATOM      2  C2  BNZ d   1       4.073   5.004   2.422  0.00  0.00     0.000 A 
ATOM      3  C3  BNZ d   1       5.035   5.974   2.471  0.00  0.00     0.000 A 
ATOM      4  C4  BNZ d   1       5.998   6.000   1.528  0.00  0.00     0.000 A 
ATOM      5  C5  BNZ d   1       5.999   5.075   0.503  0.00  0.00     0.000 A 
ATOM      6  C6  BNZ d   1       5.006   4.124   0.435  0.00  0.00     0.000 A 
ENDROOT
TORSDOF 0
ENDMDL
