MODEL 1
REMARK minimizedAffinity 0.261870116
REMARK minimizedRMSD -1
REMARK  0 active torsions:
REMARK  status: ('A' for Active; 'I' for Inactive)
ROOT
ATOM      1  C1  BNZ d   1       6.000   2.011   4.678  0.00  0.00     0.000 A 
ATOM      2  C2  BNZ d   1       5.999   3.361   4.453  0.00  0.00     0.000 A 
ATOM      3  C3  BNZ d   1       4.851   4.011   4.097  0.00  0.00     0.000 A 
ATOM      4  C4  BNZ d   1       3.714   3.305   3.927  0.00  0.00     0.000 A 
ATOM      5  C5  BNZ d   1       3.701   1.941   4.141  0.00  0.00     0.000 A 
ATOM      6  C6  BNZ d   1       4.850   1.296   4.537  0.00  0.00     0.000 A 
ENDROOT
TORSDOF 0
ENDMDL
