MODEL 1
REMARK minimizedAffinity -1.14945424
REMARK minimizedRMSD -1
REMARK  0 active torsions:
REMARK  status: ('A' for Active; 'I' for Inactive)
ROOT
ATOM      1  C1  BNZ d   1       0.738  -0.301  -0.143  0.00  0.00     0.000 A 
ATOM      2  C2  BNZ d   1      -0.013   0.708   0.399  0.00  0.00     0.000 A 
ATOM      3  C3  BNZ d   1      -1.327   0.509   0.717  0.00  0.00     0.000 A 
ATOM      4  C4  BNZ d   1      -1.900  -0.684   0.456  0.00  0.00     0.000 A 
ATOM      5  C5  BNZ d   1      -1.159  -1.708  -0.099  0.00  0.00     0.000 A 
ATOM      6  C6  BNZ d   1       0.174  -1.517  -0.382  0.00  0.00     0.000 A 
ENDROOT
TORSDOF 0
ENDMDL
