MODEL 1
REMARK minimizedAffinity -3.85308623
REMARK minimizedRMSD -1
REMARK  0 active torsions:
REMARK  status: ('A' for Active; 'I' for Inactive)
ROOT
ATOM      1  C1  BNZ d   1      -0.605  -0.525   0.263  0.00  0.00     0.000 A 
ATOM      2  C2  BNZ d   1       0.187  -1.615   0.019  0.00  0.00     0.000 A 
ATOM      3  C3  BNZ d   1       1.431  -1.468  -0.528  0.00  0.00     0.000 A 
ATOM      4  C4  BNZ d   1       1.865  -0.236  -0.866  0.00  0.00     0.000 A 
ATOM      5  C5  BNZ d   1       1.074   0.872  -0.635  0.00  0.00     0.000 A 
ATOM      6  C6  BNZ d   1      -0.162   0.723  -0.049  0.00  0.00     0.000 A 
ENDROOT
TORSDOF 0
ENDMDL
