MODEL 1
REMARK minimizedAffinity -4.89788532
REMARK minimizedRMSD -1
REMARK  0 active torsions:
REMARK  status: ('A' for Active; 'I' for Inactive)
ROOT
ATOM      1  C1  BNZ d   1      -0.047  -0.967  -0.396  0.00  0.00     0.000 A 
ATOM      2  C2  BNZ d   1       0.972  -1.874  -0.514  0.00  0.00     0.000 A 
ATOM      3  C3  BNZ d   1       2.180  -1.505  -1.036  0.00  0.00     0.000 A 
ATOM      4  C4  BNZ d   1       2.354  -0.242  -1.475  0.00  0.00     0.000 A 
ATOM      5  C5  BNZ d   1       1.333   0.681  -1.372  0.00  0.00     0.000 A 
ATOM      6  C6  BNZ d   1       0.131   0.317  -0.810  0.00  0.00     0.000 A 
ENDROOT
TORSDOF 0
ENDMDL
