MODEL 1
REMARK minimizedAffinity -3.9943037
REMARK minimizedRMSD -1
REMARK  0 active torsions:
REMARK  status: ('A' for Active; 'I' for Inactive)
ROOT
ATOM      1  C1  BNZ d   1       0.195  -0.852   0.143  0.00  0.00     0.000 A 
ATOM      2  C2  BNZ d   1       0.979  -1.939  -0.139  0.00  0.00     0.000 A 
ATOM      3  C3  BNZ d   1       2.168  -1.792  -0.797  0.00  0.00     0.000 A 
ATOM      4  C4  BNZ d   1       2.553  -0.566  -1.207  0.00  0.00     0.000 A 
ATOM      5  C5  BNZ d   1       1.769   0.538  -0.937  0.00  0.00     0.000 A 
ATOM      6  C6  BNZ d   1       0.591   0.392  -0.241  0.00  0.00     0.000 A 
ENDROOT
TORSDOF 0
ENDMDL
