MODEL 1
REMARK minimizedAffinity -3.33682871
REMARK minimizedRMSD -1
REMARK  0 active torsions:
REMARK  status: ('A' for Active; 'I' for Inactive)
ROOT
ATOM      1  C1  BNZ d   1      -2.713  -0.343   3.996  0.00  0.00     0.000 A 
ATOM      2  C2  BNZ d   1      -1.982   0.764   4.338  0.00  0.00     0.000 A 
ATOM      3  C3  BNZ d   1      -1.583   1.661   3.387  0.00  0.00     0.000 A 
ATOM      4  C4  BNZ d   1      -1.881   1.430   2.092  0.00  0.00     0.000 A 
ATOM      5  C5  BNZ d   1      -2.609   0.314   1.730  0.00  0.00     0.000 A 
ATOM      6  C6  BNZ d   1      -3.042  -0.566   2.695  0.00  0.00     0.000 A 
ENDROOT
TORSDOF 0
ENDMDL
