MODEL 1
REMARK minimizedAffinity -0.998668253
REMARK minimizedRMSD -1
REMARK  0 active torsions:
REMARK  status: ('A' for Active; 'I' for Inactive)
ROOT
ATOM      1  C1  BNZ d   1      -2.780   0.254   3.454  0.00  0.00     0.000 A 
ATOM      2  C2  BNZ d   1      -2.386  -0.144   2.204  0.00  0.00     0.000 A 
ATOM      3  C3  BNZ d   1      -1.429   0.550   1.518  0.00  0.00     0.000 A 
ATOM      4  C4  BNZ d   1      -0.896   1.661   2.065  0.00  0.00     0.000 A 
ATOM      5  C5  BNZ d   1      -1.289   2.080   3.321  0.00  0.00     0.000 A 
ATOM      6  C6  BNZ d   1      -2.224   1.357   4.025  0.00  0.00     0.000 A 
ENDROOT
TORSDOF 0
ENDMDL
