MODEL 1
REMARK minimizedAffinity -4.64040852
REMARK minimizedRMSD -1
REMARK  0 active torsions:
REMARK  status: ('A' for Active; 'I' for Inactive)
ROOT
ATOM      1  C1  BNZ d   1      -0.306  -0.809  -0.255  0.00  0.00     0.000 A 
ATOM      2  C2  BNZ d   1       0.405  -1.977  -0.328  0.00  0.00     0.000 A 
ATOM      3  C3  BNZ d   1       1.708  -1.978  -0.738  0.00  0.00     0.000 A 
ATOM      4  C4  BNZ d   1       2.287  -0.818  -1.113  0.00  0.00     0.000 A 
ATOM      5  C5  BNZ d   1       1.580   0.366  -1.053  0.00  0.00     0.000 A 
ATOM      6  C6  BNZ d   1       0.280   0.369  -0.603  0.00  0.00     0.000 A 
ENDROOT
TORSDOF 0
ENDMDL
