MODEL 1
REMARK minimizedAffinity -4.46990013
REMARK minimizedRMSD -1
REMARK  0 active torsions:
REMARK  status: ('A' for Active; 'I' for Inactive)
ROOT
ATOM      1  C1  BNZ d   1       1.200   0.319  -0.999  0.00  0.00     0.000 A 
ATOM      2  C2  BNZ d   1      -0.008   0.277  -0.356  0.00  0.00     0.000 A 
ATOM      3  C3  BNZ d   1      -0.534  -0.912   0.068  0.00  0.00     0.000 A 
ATOM      4  C4  BNZ d   1       0.129  -2.058  -0.187  0.00  0.00     0.000 A 
ATOM      5  C5  BNZ d   1       1.343  -2.033  -0.843  0.00  0.00     0.000 A 
ATOM      6  C6  BNZ d   1       1.888  -0.831  -1.234  0.00  0.00     0.000 A 
ENDROOT
TORSDOF 0
ENDMDL
