MODEL 1
REMARK minimizedAffinity -5.19082165
REMARK minimizedRMSD -1
REMARK  0 active torsions:
REMARK  status: ('A' for Active; 'I' for Inactive)
ROOT
ATOM      1  C1  BNZ d   1       2.908   0.519  -1.878  0.00  0.00     0.000 A 
ATOM      2  C2  BNZ d   1       3.098  -0.835  -1.794  0.00  0.00     0.000 A 
ATOM      3  C3  BNZ d   1       2.190  -1.630  -1.152  0.00  0.00     0.000 A 
ATOM      4  C4  BNZ d   1       1.116  -1.067  -0.561  0.00  0.00     0.000 A 
ATOM      5  C5  BNZ d   1       0.916   0.297  -0.629  0.00  0.00     0.000 A 
ATOM      6  C6  BNZ d   1       1.812   1.090  -1.309  0.00  0.00     0.000 A 
ENDROOT
TORSDOF 0
ENDMDL
