MODEL 1
REMARK minimizedAffinity -4.17116594
REMARK minimizedRMSD -1
REMARK  0 active torsions:
REMARK  status: ('A' for Active; 'I' for Inactive)
ROOT
ATOM      1  C1  BNZ d   1       1.903  -0.044  -1.283  0.00  0.00     0.000 A 
ATOM      2  C2  BNZ d   1       1.067   0.976  -0.915  0.00  0.00     0.000 A 
ATOM      3  C3  BNZ d   1      -0.092   0.720  -0.237  0.00  0.00     0.000 A 
ATOM      4  C4  BNZ d   1      -0.433  -0.555   0.037  0.00  0.00     0.000 A 
ATOM      5  C5  BNZ d   1       0.396  -1.595  -0.335  0.00  0.00     0.000 A 
ATOM      6  C6  BNZ d   1       1.580  -1.332  -0.983  0.00  0.00     0.000 A 
ENDROOT
TORSDOF 0
ENDMDL
