MODEL 1
REMARK minimizedAffinity 5.40536308
REMARK minimizedRMSD -1
REMARK  0 active torsions:
REMARK  status: ('A' for Active; 'I' for Inactive)
ROOT
ATOM      1  C1  DEN d   1       0.089   1.733   2.885  0.00  0.00     0.130 A 
ATOM      2  C2  DEN d   1      -1.318   1.632   3.262  0.00  0.00    -0.031 A 
ATOM      3  C3  DEN d   1      -1.788   0.276   2.914  0.00  0.00     0.027 A 
ATOM      4  C4  DEN d   1      -0.479  -1.669   1.839  0.00  0.00     0.027 A 
ATOM      5  C5  DEN d   1       0.742  -2.055   1.331  0.00  0.00    -0.003 A 
ATOM      6  C6  DEN d   1       1.812  -1.202   1.274  0.00  0.00     0.001 A 
ATOM      7  C7  DEN d   1       1.695   0.068   1.776  0.00  0.00     0.017 A 
ATOM      8  C8  DEN d   1       0.465   0.466   2.283  0.00  0.00    -0.094 A 
ATOM      9  C9  DEN d   1      -0.601  -0.414   2.342  0.00  0.00    -0.072 A 
ENDROOT
TORSDOF 0
ENDMDL
