MODEL 1
REMARK minimizedAffinity 7.38822079
REMARK minimizedRMSD -1
REMARK  0 active torsions:
REMARK  status: ('A' for Active; 'I' for Inactive)
ROOT
ATOM      1  C1  DEN d   1       4.609   2.432   5.867  0.00  0.00     0.130 A 
ATOM      2  C2  DEN d   1       5.964   2.937   5.666  0.00  0.00    -0.031 A 
ATOM      3  C3  DEN d   1       5.892   4.408   5.553  0.00  0.00     0.027 A 
ATOM      4  C4  DEN d   1       3.823   5.944   5.673  0.00  0.00     0.027 A 
ATOM      5  C5  DEN d   1       2.454   5.974   5.820  0.00  0.00    -0.003 A 
ATOM      6  C6  DEN d   1       1.709   4.832   5.957  0.00  0.00     0.001 A 
ATOM      7  C7  DEN d   1       2.335   3.614   5.996  0.00  0.00     0.017 A 
ATOM      8  C8  DEN d   1       3.715   3.576   5.841  0.00  0.00    -0.094 A 
ATOM      9  C9  DEN d   1       4.451   4.742   5.716  0.00  0.00    -0.072 A 
ENDROOT
TORSDOF 0
ENDMDL
