MODEL 1
REMARK minimizedAffinity 0.0868346095
REMARK minimizedRMSD -1
REMARK  0 active torsions:
REMARK  status: ('A' for Active; 'I' for Inactive)
ROOT
ATOM      1  C1  DEN d   1      -6.000   5.267   1.557  0.00  0.00     0.130 A 
ATOM      2  C2  DEN d   1      -5.094   4.541   2.443  0.00  0.00    -0.031 A 
ATOM      3  C3  DEN d   1      -3.857   4.248   1.690  0.00  0.00     0.027 A 
ATOM      4  C4  DEN d   1      -3.259   4.848  -0.746  0.00  0.00     0.027 A 
ATOM      5  C5  DEN d   1      -3.715   5.450  -1.898  0.00  0.00    -0.003 A 
ATOM      6  C6  DEN d   1      -4.966   6.000  -1.989  0.00  0.00     0.001 A 
ATOM      7  C7  DEN d   1      -5.790   5.997  -0.894  0.00  0.00     0.017 A 
ATOM      8  C8  DEN d   1      -5.340   5.385   0.268  0.00  0.00    -0.094 A 
ATOM      9  C9  DEN d   1      -4.067   4.846   0.344  0.00  0.00    -0.072 A 
ENDROOT
TORSDOF 0
ENDMDL
