MODEL 1
REMARK minimizedAffinity -2.41611552
REMARK minimizedRMSD -1
REMARK  0 active torsions:
REMARK  status: ('A' for Active; 'I' for Inactive)
ROOT
ATOM      1  C1  DEN d   1       3.596   1.983   5.999  0.00  0.00     0.130 A 
ATOM      2  C2  DEN d   1       4.881   1.290   5.966  0.00  0.00    -0.031 A 
ATOM      3  C3  DEN d   1       5.950   2.309   5.952  0.00  0.00     0.027 A 
ATOM      4  C4  DEN d   1       5.740   4.880   5.983  0.00  0.00     0.027 A 
ATOM      5  C5  DEN d   1       4.853   5.934   6.000  0.00  0.00    -0.003 A 
ATOM      6  C6  DEN d   1       3.496   5.746   5.983  0.00  0.00     0.001 A 
ATOM      7  C7  DEN d   1       2.986   4.475   5.995  0.00  0.00     0.017 A 
ATOM      8  C8  DEN d   1       3.874   3.408   5.970  0.00  0.00    -0.094 A 
ATOM      9  C9  DEN d   1       5.242   3.617   5.999  0.00  0.00    -0.072 A 
ENDROOT
TORSDOF 0
ENDMDL
