MODEL 1
REMARK minimizedAffinity 12.4436579
REMARK minimizedRMSD -1
REMARK  0 active torsions:
REMARK  status: ('A' for Active; 'I' for Inactive)
ROOT
ATOM      1  C1  DEN d   1      -2.866   3.607  -3.717  0.00  0.00     0.130 A 
ATOM      2  C2  DEN d   1      -2.926   2.188  -4.057  0.00  0.00    -0.031 A 
ATOM      3  C3  DEN d   1      -4.035   1.993  -5.013  0.00  0.00     0.027 A 
ATOM      4  C4  DEN d   1      -5.652   3.744  -6.000  0.00  0.00     0.027 A 
ATOM      5  C5  DEN d   1      -5.999   5.077  -6.000  0.00  0.00    -0.003 A 
ATOM      6  C6  DEN d   1      -5.354   6.000  -5.220  0.00  0.00     0.001 A 
ATOM      7  C7  DEN d   1      -4.297   5.610  -4.441  0.00  0.00     0.017 A 
ATOM      8  C8  DEN d   1      -3.946   4.266  -4.429  0.00  0.00    -0.094 A 
ATOM      9  C9  DEN d   1      -4.603   3.351  -5.234  0.00  0.00    -0.072 A 
ENDROOT
TORSDOF 0
ENDMDL
