MODEL 1
REMARK minimizedAffinity 16.7314529
REMARK minimizedRMSD -1
REMARK  0 active torsions:
REMARK  status: ('A' for Active; 'I' for Inactive)
ROOT
ATOM      1  C1  DEN d   1      -1.135  -2.479  -2.451  0.00  0.00     0.130 A 
ATOM      2  C2  DEN d   1      -1.827  -1.759  -3.517  0.00  0.00    -0.031 A 
ATOM      3  C3  DEN d   1      -2.868  -0.915  -2.897  0.00  0.00     0.027 A 
ATOM      4  C4  DEN d   1      -3.471  -0.652  -0.403  0.00  0.00     0.027 A 
ATOM      5  C5  DEN d   1      -3.169  -1.069   0.875  0.00  0.00    -0.003 A 
ATOM      6  C6  DEN d   1      -2.200  -2.002   1.129  0.00  0.00     0.001 A 
ATOM      7  C7  DEN d   1      -1.465  -2.517   0.093  0.00  0.00     0.017 A 
ATOM      8  C8  DEN d   1      -1.769  -2.107  -1.198  0.00  0.00    -0.094 A 
ATOM      9  C9  DEN d   1      -2.744  -1.154  -1.433  0.00  0.00    -0.072 A 
ENDROOT
TORSDOF 0
ENDMDL
