MODEL 1
REMARK minimizedAffinity 13.2751179
REMARK minimizedRMSD -1
REMARK  0 active torsions:
REMARK  status: ('A' for Active; 'I' for Inactive)
ROOT
ATOM      1  C1  DEN d   1       3.028  -0.728  -2.244  0.00  0.00     0.130 A 
ATOM      2  C2  DEN d   1       2.371   0.475  -1.740  0.00  0.00    -0.031 A 
ATOM      3  C3  DEN d   1       3.064   1.647  -2.311  0.00  0.00     0.027 A 
ATOM      4  C4  DEN d   1       5.078   1.716  -3.921  0.00  0.00     0.027 A 
ATOM      5  C5  DEN d   1       5.986   0.948  -4.617  0.00  0.00    -0.003 A 
ATOM      6  C6  DEN d   1       5.992  -0.419  -4.545  0.00  0.00     0.001 A 
ATOM      7  C7  DEN d   1       5.045  -1.064  -3.794  0.00  0.00     0.017 A 
ATOM      8  C8  DEN d   1       4.131  -0.297  -3.084  0.00  0.00    -0.094 A 
ATOM      9  C9  DEN d   1       4.133   1.085  -3.180  0.00  0.00    -0.072 A 
ENDROOT
TORSDOF 0
ENDMDL
