MODEL 1
REMARK minimizedAffinity 13.7544584
REMARK minimizedRMSD -1
REMARK  0 active torsions:
REMARK  status: ('A' for Active; 'I' for Inactive)
ROOT
ATOM      1  C1  DEN d   1      -0.498  -1.867   1.409  0.00  0.00     0.130 A 
ATOM      2  C2  DEN d   1      -1.111  -1.531   0.127  0.00  0.00    -0.031 A 
ATOM      3  C3  DEN d   1      -1.529  -2.789  -0.523  0.00  0.00     0.027 A 
ATOM      4  C4  DEN d   1      -1.292  -5.212   0.328  0.00  0.00     0.027 A 
ATOM      5  C5  DEN d   1      -0.826  -6.000   1.357  0.00  0.00    -0.003 A 
ATOM      6  C6  DEN d   1      -0.193  -5.472   2.451  0.00  0.00     0.001 A 
ATOM      7  C7  DEN d   1      -0.048  -4.115   2.563  0.00  0.00     0.017 A 
ATOM      8  C8  DEN d   1      -0.509  -3.314   1.526  0.00  0.00    -0.094 A 
ATOM      9  C9  DEN d   1      -1.157  -3.866   0.434  0.00  0.00    -0.072 A 
ENDROOT
TORSDOF 0
ENDMDL
