MODEL 1
REMARK minimizedAffinity 7.3838954
REMARK minimizedRMSD -1
REMARK  0 active torsions:
REMARK  status: ('A' for Active; 'I' for Inactive)
ROOT
ATOM      1  C1  DEN d   1      -4.715   5.999  -4.097  0.00  0.00     0.130 A 
ATOM      2  C2  DEN d   1      -5.975   5.960  -4.834  0.00  0.00    -0.031 A 
ATOM      3  C3  DEN d   1      -5.999   4.717  -5.632  0.00  0.00     0.027 A 
ATOM      4  C4  DEN d   1      -4.219   2.858  -5.794  0.00  0.00     0.027 A 
ATOM      5  C5  DEN d   1      -2.975   2.455  -5.361  0.00  0.00    -0.003 A 
ATOM      6  C6  DEN d   1      -2.215   3.214  -4.511  0.00  0.00     0.001 A 
ATOM      7  C7  DEN d   1      -2.712   4.396  -4.030  0.00  0.00     0.017 A 
ATOM      8  C8  DEN d   1      -3.962   4.814  -4.467  0.00  0.00    -0.094 A 
ATOM      9  C9  DEN d   1      -4.720   4.026  -5.318  0.00  0.00    -0.072 A 
ENDROOT
TORSDOF 0
ENDMDL
