MODEL 1
REMARK minimizedAffinity 17.0324421
REMARK minimizedRMSD -1
REMARK  0 active torsions:
REMARK  status: ('A' for Active; 'I' for Inactive)
ROOT
ATOM      1  C1  DEN d   1       2.986  -0.879  -1.807  0.00  0.00     0.130 A 
ATOM      2  C2  DEN d   1       2.341   0.353  -1.363  0.00  0.00    -0.031 A 
ATOM      3  C3  DEN d   1       3.060   1.490  -1.973  0.00  0.00     0.027 A 
ATOM      4  C4  DEN d   1       5.095   1.461  -3.557  0.00  0.00     0.027 A 
ATOM      5  C5  DEN d   1       6.000   0.651  -4.207  0.00  0.00    -0.003 A 
ATOM      6  C6  DEN d   1       5.985  -0.713  -4.078  0.00  0.00     0.001 A 
ATOM      7  C7  DEN d   1       5.017  -1.311  -3.314  0.00  0.00     0.017 A 
ATOM      8  C8  DEN d   1       4.106  -0.501  -2.649  0.00  0.00    -0.094 A 
ATOM      9  C9  DEN d   1       4.131   0.875  -2.803  0.00  0.00    -0.072 A 
ENDROOT
TORSDOF 0
ENDMDL
