MODEL 1
REMARK minimizedAffinity 18.9572411
REMARK minimizedRMSD -1
REMARK  0 active torsions:
REMARK  status: ('A' for Active; 'I' for Inactive)
ROOT
ATOM      1  C1  DEN d   1      -0.926  -4.966   0.422  0.00  0.00     0.130 A 
ATOM      2  C2  DEN d   1      -0.736  -5.413  -0.955  0.00  0.00    -0.031 A 
ATOM      3  C3  DEN d   1      -0.836  -4.231  -1.836  0.00  0.00     0.027 A 
ATOM      4  C4  DEN d   1      -1.258  -1.767  -1.203  0.00  0.00     0.027 A 
ATOM      5  C5  DEN d   1      -1.492  -0.900  -0.158  0.00  0.00    -0.003 A 
ATOM      6  C6  DEN d   1      -1.587  -1.330   1.139  0.00  0.00     0.001 A 
ATOM      7  C7  DEN d   1      -1.402  -2.655   1.431  0.00  0.00     0.017 A 
ATOM      8  C8  DEN d   1      -1.173  -3.536   0.382  0.00  0.00    -0.094 A 
ATOM      9  C9  DEN d   1      -1.068  -3.081  -0.922  0.00  0.00    -0.072 A 
ENDROOT
TORSDOF 0
ENDMDL
