MODEL 1
REMARK minimizedAffinity 22.2869205
REMARK minimizedRMSD -1
REMARK  0 active torsions:
REMARK  status: ('A' for Active; 'I' for Inactive)
ROOT
ATOM      1  C1  DEN d   1      -1.201  -4.105   0.350  0.00  0.00     0.130 A 
ATOM      2  C2  DEN d   1      -0.985  -3.696   1.735  0.00  0.00    -0.031 A 
ATOM      3  C3  DEN d   1      -0.850  -2.226   1.760  0.00  0.00     0.027 A 
ATOM      4  C4  DEN d   1      -0.958  -0.552  -0.199  0.00  0.00     0.027 A 
ATOM      5  C5  DEN d   1      -1.112  -0.428  -1.562  0.00  0.00    -0.003 A 
ATOM      6  C6  DEN d   1      -1.271  -1.515  -2.381  0.00  0.00     0.001 A 
ATOM      7  C7  DEN d   1      -1.326  -2.771  -1.838  0.00  0.00     0.017 A 
ATOM      8  C8  DEN d   1      -1.164  -2.905  -0.465  0.00  0.00    -0.094 A 
ATOM      9  C9  DEN d   1      -1.016  -1.793   0.347  0.00  0.00    -0.072 A 
ENDROOT
TORSDOF 0
ENDMDL
