MODEL 1
REMARK minimizedAffinity 14.1511335
REMARK minimizedRMSD -1
REMARK  0 active torsions:
REMARK  status: ('A' for Active; 'I' for Inactive)
ROOT
ATOM      1  C1  DEN d   1      -2.626  -0.614  -0.211  0.00  0.00     0.130 A 
ATOM      2  C2  DEN d   1      -1.865  -1.420   0.741  0.00  0.00    -0.031 A 
ATOM      3  C3  DEN d   1      -1.092  -2.420  -0.023  0.00  0.00     0.027 A 
ATOM      4  C4  DEN d   1      -0.996  -2.794  -2.573  0.00  0.00     0.027 A 
ATOM      5  C5  DEN d   1      -1.478  -2.364  -3.790  0.00  0.00    -0.003 A 
ATOM      6  C6  DEN d   1      -2.395  -1.352  -3.896  0.00  0.00     0.001 A 
ATOM      7  C7  DEN d   1      -2.825  -0.705  -2.767  0.00  0.00     0.017 A 
ATOM      8  C8  DEN d   1      -2.349  -1.137  -1.537  0.00  0.00    -0.094 A 
ATOM      9  C9  DEN d   1      -1.413  -2.154  -1.451  0.00  0.00    -0.072 A 
ENDROOT
TORSDOF 0
ENDMDL
