MODEL 1
REMARK minimizedAffinity 14.299119
REMARK minimizedRMSD -1
REMARK  0 active torsions:
REMARK  status: ('A' for Active; 'I' for Inactive)
ROOT
ATOM      1  C1  DEN d   1      -1.778   0.677   5.538  0.00  0.00     0.130 A 
ATOM      2  C2  DEN d   1      -3.038   1.409   5.644  0.00  0.00    -0.031 A 
ATOM      3  C3  DEN d   1      -4.121   0.426   5.842  0.00  0.00     0.027 A 
ATOM      4  C4  DEN d   1      -3.972  -2.144   6.000  0.00  0.00     0.027 A 
ATOM      5  C5  DEN d   1      -3.118  -3.224   5.956  0.00  0.00    -0.003 A 
ATOM      6  C6  DEN d   1      -1.773  -3.083   5.737  0.00  0.00     0.001 A 
ATOM      7  C7  DEN d   1      -1.236  -1.830   5.599  0.00  0.00     0.017 A 
ATOM      8  C8  DEN d   1      -2.092  -0.737   5.635  0.00  0.00    -0.094 A 
ATOM      9  C9  DEN d   1      -3.447  -0.900   5.869  0.00  0.00    -0.072 A 
ENDROOT
TORSDOF 0
ENDMDL
