MODEL 1
REMARK minimizedAffinity 1.95006847
REMARK minimizedRMSD -1
REMARK  2 active torsions:
REMARK  status: ('A' for Active; 'I' for Inactive)
REMARK    1  A    between atoms: C1_2  and  C2_3 
REMARK    2  A    between atoms: C2_3  and  C3_4 
ROOT
ATOM      1  C3  UNL d   1       2.267  -5.299  -4.346  0.00  0.00    -0.075 A 
ATOM      2  C4  UNL d   1       1.874  -5.046  -3.024  0.00  0.00     0.002 A 
ATOM      3  C5  UNL d   1       0.560  -5.281  -2.618  0.00  0.00     0.002 A 
ATOM      4  C6  UNL d   1      -0.378  -5.761  -3.529  0.00  0.00    -0.004 A 
ATOM      5  C7  UNL d   1      -0.003  -6.000  -4.849  0.00  0.00     0.002 A 
ATOM      6  C8  UNL d   1       1.312  -5.770  -5.257  0.00  0.00     0.002 A 
ENDROOT
BRANCH   1   7
ATOM      7  C2  UNL d   1       3.695  -5.075  -4.784  0.00  0.00     0.056 C 
BRANCH   7   8
ATOM      8  C1  UNL d   1       4.076  -3.599  -4.936  0.00  0.00     0.007 C 
ATOM      9  C   UNL d   1       5.403  -3.393  -5.655  0.00  0.00     0.009 C 
ENDBRANCH   7   8
ENDBRANCH   1   7
TORSDOF 2
ENDMDL
