MODEL 1
REMARK minimizedAffinity -0.883001924
REMARK minimizedRMSD -1
REMARK  2 active torsions:
REMARK  status: ('A' for Active; 'I' for Inactive)
REMARK    1  A    between atoms: C1_2  and  C2_3 
REMARK    2  A    between atoms: C2_3  and  C3_4 
ROOT
ATOM      1  C3  UNL d   1       0.415  -1.023   2.549  0.00  0.00    -0.075 A 
ATOM      2  C4  UNL d   1       0.849   0.247   2.140  0.00  0.00     0.002 A 
ATOM      3  C5  UNL d   1      -0.026   1.120   1.493  0.00  0.00     0.002 A 
ATOM      4  C6  UNL d   1      -1.339   0.733   1.238  0.00  0.00    -0.004 A 
ATOM      5  C7  UNL d   1      -1.777  -0.532   1.625  0.00  0.00     0.002 A 
ATOM      6  C8  UNL d   1      -0.905  -1.406   2.277  0.00  0.00     0.002 A 
ENDROOT
BRANCH   1   7
ATOM      7  C2  UNL d   1       1.348  -1.961   3.276  0.00  0.00     0.056 C 
BRANCH   7   8
ATOM      8  C1  UNL d   1       2.368  -1.254   4.174  0.00  0.00     0.007 C 
ATOM      9  C   UNL d   1       1.994  -1.288   5.650  0.00  0.00     0.009 C 
ENDBRANCH   7   8
ENDBRANCH   1   7
TORSDOF 2
ENDMDL
