MODEL 1
REMARK minimizedAffinity 0.385569036
REMARK minimizedRMSD -1
REMARK  2 active torsions:
REMARK  status: ('A' for Active; 'I' for Inactive)
REMARK    1  A    between atoms: C1_2  and  C2_3 
REMARK    2  A    between atoms: C2_3  and  C3_4 
ROOT
ATOM      1  C3  UNL d   1      -1.256  -0.010   1.787  0.00  0.00    -0.075 A 
ATOM      2  C4  UNL d   1      -1.166   1.219   1.118  0.00  0.00     0.002 A 
ATOM      3  C5  UNL d   1      -1.664   1.358  -0.178  0.00  0.00     0.002 A 
ATOM      4  C6  UNL d   1      -2.246   0.270  -0.824  0.00  0.00    -0.004 A 
ATOM      5  C7  UNL d   1      -2.325  -0.960  -0.176  0.00  0.00     0.002 A 
ATOM      6  C8  UNL d   1      -1.832  -1.101   1.123  0.00  0.00     0.002 A 
ENDROOT
BRANCH   1   7
ATOM      7  C2  UNL d   1      -0.746  -0.159   3.201  0.00  0.00     0.056 C 
BRANCH   7   8
ATOM      8  C1  UNL d   1       0.001  -1.472   3.459  0.00  0.00     0.007 C 
ATOM      9  C   UNL d   1       1.034  -1.366   4.573  0.00  0.00     0.009 C 
ENDBRANCH   7   8
ENDBRANCH   1   7
TORSDOF 2
ENDMDL
