MODEL 1
REMARK minimizedAffinity 3.0505991
REMARK minimizedRMSD -1
REMARK  2 active torsions:
REMARK  status: ('A' for Active; 'I' for Inactive)
REMARK    1  A    between atoms: C1_2  and  C2_3 
REMARK    2  A    between atoms: C2_3  and  C3_4 
ROOT
ATOM      1  C3  UNL d   1       2.232  -4.523  -4.395  0.00  0.00    -0.075 A 
ATOM      2  C4  UNL d   1       1.848  -4.540  -3.046  0.00  0.00     0.002 A 
ATOM      3  C5  UNL d   1       0.739  -5.279  -2.635  0.00  0.00     0.002 A 
ATOM      4  C6  UNL d   1      -0.006  -6.000  -3.566  0.00  0.00    -0.004 A 
ATOM      5  C7  UNL d   1       0.356  -5.976  -4.911  0.00  0.00     0.002 A 
ATOM      6  C8  UNL d   1       1.469  -5.242  -5.324  0.00  0.00     0.002 A 
ENDROOT
BRANCH   1   7
ATOM      7  C2  UNL d   1       3.450  -3.749  -4.841  0.00  0.00     0.056 C 
BRANCH   7   8
ATOM      8  C1  UNL d   1       3.560  -2.350  -4.227  0.00  0.00     0.007 C 
ATOM      9  C   UNL d   1       4.119  -1.313  -5.191  0.00  0.00     0.009 C 
ENDBRANCH   7   8
ENDBRANCH   1   7
TORSDOF 2
ENDMDL
