MODEL 1
REMARK minimizedAffinity -3.02893949
REMARK minimizedRMSD -1
REMARK  2 active torsions:
REMARK  status: ('A' for Active; 'I' for Inactive)
REMARK    1  A    between atoms: C1_2  and  C2_3 
REMARK    2  A    between atoms: C2_3  and  C3_4 
ROOT
ATOM      1  C3  UNL d   1      -0.352  -0.587   1.677  0.00  0.00    -0.075 A 
ATOM      2  C4  UNL d   1      -1.494  -0.764   2.471  0.00  0.00     0.002 A 
ATOM      3  C5  UNL d   1      -1.378  -1.216   3.786  0.00  0.00     0.002 A 
ATOM      4  C6  UNL d   1      -0.124  -1.504   4.319  0.00  0.00    -0.004 A 
ATOM      5  C7  UNL d   1       1.016  -1.347   3.534  0.00  0.00     0.002 A 
ATOM      6  C8  UNL d   1       0.903  -0.892   2.219  0.00  0.00     0.002 A 
ENDROOT
BRANCH   1   7
ATOM      7  C2  UNL d   1      -0.468  -0.070   0.262  0.00  0.00     0.056 C 
BRANCH   7   8
ATOM      8  C1  UNL d   1      -1.330  -0.946  -0.653  0.00  0.00     0.007 C 
ATOM      9  C   UNL d   1      -1.926  -0.182  -1.828  0.00  0.00     0.009 C 
ENDBRANCH   7   8
ENDBRANCH   1   7
TORSDOF 2
ENDMDL
