MODEL 1
REMARK minimizedAffinity -4.97704792
REMARK minimizedRMSD -1
REMARK  2 active torsions:
REMARK  status: ('A' for Active; 'I' for Inactive)
REMARK    1  A    between atoms: C1_2  and  C2_3 
REMARK    2  A    between atoms: C2_3  and  C3_4 
ROOT
ATOM      1  C3  UNL d   1       0.646  -0.834   3.234  0.00  0.00    -0.075 A 
ATOM      2  C4  UNL d   1       0.732  -1.672   4.355  0.00  0.00     0.002 A 
ATOM      3  C5  UNL d   1      -0.422  -2.095   5.014  0.00  0.00     0.002 A 
ATOM      4  C6  UNL d   1      -1.675  -1.680   4.568  0.00  0.00    -0.004 A 
ATOM      5  C7  UNL d   1      -1.772  -0.834   3.465  0.00  0.00     0.002 A 
ATOM      6  C8  UNL d   1      -0.619  -0.413   2.801  0.00  0.00     0.002 A 
ENDROOT
BRANCH   1   7
ATOM      7  C2  UNL d   1       1.890  -0.396   2.498  0.00  0.00     0.056 C 
BRANCH   7   8
ATOM      8  C1  UNL d   1       1.611   0.313   1.169  0.00  0.00     0.007 C 
ATOM      9  C   UNL d   1       1.685   1.830   1.271  0.00  0.00     0.009 C 
ENDBRANCH   7   8
ENDBRANCH   1   7
TORSDOF 2
ENDMDL
