MODEL 1
REMARK minimizedAffinity 1.89206958
REMARK minimizedRMSD -1
REMARK  2 active torsions:
REMARK  status: ('A' for Active; 'I' for Inactive)
REMARK    1  A    between atoms: C1_2  and  C2_3 
REMARK    2  A    between atoms: C2_3  and  C3_4 
ROOT
ATOM      1  C3  UNL d   1       0.109  -0.650   1.771  0.00  0.00    -0.075 A 
ATOM      2  C4  UNL d   1      -0.744  -1.441   2.555  0.00  0.00     0.002 A 
ATOM      3  C5  UNL d   1      -0.244  -2.154   3.646  0.00  0.00     0.002 A 
ATOM      4  C6  UNL d   1       1.111  -2.092   3.960  0.00  0.00    -0.004 A 
ATOM      5  C7  UNL d   1       1.970  -1.322   3.179  0.00  0.00     0.002 A 
ATOM      6  C8  UNL d   1       1.473  -0.605   2.089  0.00  0.00     0.002 A 
ENDROOT
BRANCH   1   7
ATOM      7  C2  UNL d   1      -0.430   0.147   0.607  0.00  0.00     0.056 C 
BRANCH   7   8
ATOM      8  C1  UNL d   1      -1.301  -0.667  -0.356  0.00  0.00     0.007 C 
ATOM      9  C   UNL d   1      -1.969   0.185  -1.427  0.00  0.00     0.009 C 
ENDBRANCH   7   8
ENDBRANCH   1   7
TORSDOF 2
ENDMDL
