MODEL 1
REMARK minimizedAffinity 4.59495544
REMARK minimizedRMSD -1
REMARK  2 active torsions:
REMARK  status: ('A' for Active; 'I' for Inactive)
REMARK    1  A    between atoms: C1_2  and  C2_3 
REMARK    2  A    between atoms: C2_3  and  C3_4 
ROOT
ATOM      1  C3  UNL d   1       1.888  -1.528   4.123  0.00  0.00    -0.075 A 
ATOM      2  C4  UNL d   1       2.073  -0.509   5.069  0.00  0.00     0.002 A 
ATOM      3  C5  UNL d   1       3.111  -0.585   5.998  0.00  0.00     0.002 A 
ATOM      4  C6  UNL d   1       3.969  -1.683   6.000  0.00  0.00    -0.004 A 
ATOM      5  C7  UNL d   1       3.785  -2.708   5.075  0.00  0.00     0.002 A 
ATOM      6  C8  UNL d   1       2.750  -2.633   4.141  0.00  0.00     0.002 A 
ENDROOT
BRANCH   1   7
ATOM      7  C2  UNL d   1       0.785  -1.437   3.096  0.00  0.00     0.056 C 
BRANCH   7   8
ATOM      8  C1  UNL d   1       0.907  -0.234   2.154  0.00  0.00     0.007 C 
ATOM      9  C   UNL d   1      -0.428   0.438   1.863  0.00  0.00     0.009 C 
ENDBRANCH   7   8
ENDBRANCH   1   7
TORSDOF 2
ENDMDL
