MODEL 1
REMARK minimizedAffinity -2.50793648
REMARK minimizedRMSD -1
REMARK  3 active torsions:
REMARK  status: ('A' for Active; 'I' for Inactive)
REMARK    1  A    between atoms: C3'_2  and  C2'_3 
REMARK    2  A    between atoms: C2'_3  and  C1'_4 
REMARK    3  A    between atoms: C1'_4  and  C1_5 
ROOT
ATOM      1  C1  N4B d   1      -0.244   0.244  -1.071  0.00  0.00    -0.075 A 
ATOM      2  C2  N4B d   1       1.027  -0.367  -1.153  0.00  0.00     0.002 A 
ATOM      3  C3  N4B d   1       1.541  -1.030  -0.065  0.00  0.00     0.002 A 
ATOM      4  C4  N4B d   1       0.814  -1.078   1.115  0.00  0.00    -0.004 A 
ATOM      5  C5  N4B d   1      -0.423  -0.507   1.178  0.00  0.00     0.002 A 
ATOM      6  C6  N4B d   1      -0.954   0.159   0.091  0.00  0.00     0.002 A 
ENDROOT
BRANCH   1   7
ATOM      7  C1' N4B d   1      -0.810   1.054  -2.205  0.00  0.00     0.057 C 
BRANCH   7   8
ATOM      8  C2' N4B d   1       0.222   2.088  -2.646  0.00  0.00     0.009 C 
BRANCH   8   9
ATOM      9  C3' N4B d   1      -0.432   3.370  -3.135  0.00  0.00     0.004 C 
ATOM     10  C4' N4B d   1      -1.559   3.820  -2.253  0.00  0.00     0.003 C 
ENDBRANCH   8   9
ENDBRANCH   7   8
ENDBRANCH   1   7
TORSDOF 3
ENDMDL
