MODEL 1
REMARK minimizedAffinity -5.49286509
REMARK minimizedRMSD -1
REMARK  3 active torsions:
REMARK  status: ('A' for Active; 'I' for Inactive)
REMARK    1  A    between atoms: C3'_2  and  C2'_3 
REMARK    2  A    between atoms: C2'_3  and  C1'_4 
REMARK    3  A    between atoms: C1'_4  and  C1_5 
ROOT
ATOM      1  C1  N4B d   1       0.261  -0.318   0.244  0.00  0.00    -0.075 A 
ATOM      2  C2  N4B d   1      -0.828  -0.328   1.143  0.00  0.00     0.002 A 
ATOM      3  C3  N4B d   1      -0.618  -0.591   2.474  0.00  0.00     0.002 A 
ATOM      4  C4  N4B d   1       0.665  -0.864   2.924  0.00  0.00    -0.004 A 
ATOM      5  C5  N4B d   1       1.716  -0.828   2.055  0.00  0.00     0.002 A 
ATOM      6  C6  N4B d   1       1.519  -0.561   0.715  0.00  0.00     0.002 A 
ENDROOT
BRANCH   1   7
ATOM      7  C1' N4B d   1       0.069  -0.120  -1.235  0.00  0.00     0.057 C 
BRANCH   7   8
ATOM      8  C2' N4B d   1      -0.644   1.207  -1.474  0.00  0.00     0.009 C 
BRANCH   8   9
ATOM      9  C3' N4B d   1       0.321   2.303  -1.893  0.00  0.00     0.004 C 
ATOM     10  C4' N4B d   1      -0.361   3.441  -2.592  0.00  0.00     0.003 C 
ENDBRANCH   8   9
ENDBRANCH   7   8
ENDBRANCH   1   7
TORSDOF 3
ENDMDL
