MODEL 1
REMARK minimizedAffinity -4.8165226
REMARK minimizedRMSD -1
REMARK  3 active torsions:
REMARK  status: ('A' for Active; 'I' for Inactive)
REMARK    1  A    between atoms: C3'_2  and  C2'_3 
REMARK    2  A    between atoms: C2'_3  and  C1'_4 
REMARK    3  A    between atoms: C1'_4  and  C1_5 
ROOT
ATOM      1  C1  N4B d   1       0.588  -0.128   0.154  0.00  0.00    -0.075 A 
ATOM      2  C2  N4B d   1      -0.589  -0.358   0.900  0.00  0.00     0.002 A 
ATOM      3  C3  N4B d   1      -0.528  -0.437   2.270  0.00  0.00     0.002 A 
ATOM      4  C4  N4B d   1       0.695  -0.308   2.911  0.00  0.00    -0.004 A 
ATOM      5  C5  N4B d   1       1.823  -0.061   2.184  0.00  0.00     0.002 A 
ATOM      6  C6  N4B d   1       1.776   0.024   0.807  0.00  0.00     0.002 A 
ENDROOT
BRANCH   1   7
ATOM      7  C1' N4B d   1       0.585  -0.120  -1.351  0.00  0.00     0.057 C 
BRANCH   7   8
ATOM      8  C2' N4B d   1      -0.620   0.674  -1.845  0.00  0.00     0.009 C 
BRANCH   8   9
ATOM      9  C3' N4B d   1      -0.214   1.806  -2.773  0.00  0.00     0.004 C 
ATOM     10  C4' N4B d   1      -1.217   2.920  -2.805  0.00  0.00     0.003 C 
ENDBRANCH   8   9
ENDBRANCH   7   8
ENDBRANCH   1   7
TORSDOF 3
ENDMDL
