MODEL 1
REMARK minimizedAffinity -4.7651577
REMARK minimizedRMSD -1
REMARK  3 active torsions:
REMARK  status: ('A' for Active; 'I' for Inactive)
REMARK    1  A    between atoms: C3'_2  and  C2'_3 
REMARK    2  A    between atoms: C2'_3  and  C1'_4 
REMARK    3  A    between atoms: C1'_4  and  C1_5 
ROOT
ATOM      1  C1  N4B d   1      -0.490  -0.256   1.024  0.00  0.00    -0.075 A 
ATOM      2  C2  N4B d   1       0.910  -0.095   0.932  0.00  0.00     0.002 A 
ATOM      3  C3  N4B d   1       1.716  -0.483   1.974  0.00  0.00     0.002 A 
ATOM      4  C4  N4B d   1       1.146  -1.015   3.121  0.00  0.00    -0.004 A 
ATOM      5  C5  N4B d   1      -0.205  -1.190   3.192  0.00  0.00     0.002 A 
ATOM      6  C6  N4B d   1      -1.027  -0.808   2.151  0.00  0.00     0.002 A 
ENDROOT
BRANCH   1   7
ATOM      7  C1' N4B d   1      -1.418   0.232  -0.054  0.00  0.00     0.057 C 
BRANCH   7   8
ATOM      8  C2' N4B d   1      -0.627   0.430  -1.344  0.00  0.00     0.009 C 
BRANCH   8   9
ATOM      9  C3' N4B d   1      -1.307   1.412  -2.282  0.00  0.00     0.004 C 
ATOM     10  C4' N4B d   1      -0.417   2.555  -2.671  0.00  0.00     0.003 C 
ENDBRANCH   8   9
ENDBRANCH   7   8
ENDBRANCH   1   7
TORSDOF 3
ENDMDL
