MODEL 1
REMARK minimizedAffinity -3.85085416
REMARK minimizedRMSD -1
REMARK  3 active torsions:
REMARK  status: ('A' for Active; 'I' for Inactive)
REMARK    1  A    between atoms: C3'_2  and  C2'_3 
REMARK    2  A    between atoms: C2'_3  and  C1'_4 
REMARK    3  A    between atoms: C1'_4  and  C1_5 
ROOT
ATOM      1  C1  N4B d   1      -0.232  -0.131  -0.382  0.00  0.00    -0.075 A 
ATOM      2  C2  N4B d   1      -0.296  -0.185   1.028  0.00  0.00     0.002 A 
ATOM      3  C3  N4B d   1       0.697  -0.816   1.736  0.00  0.00     0.002 A 
ATOM      4  C4  N4B d   1       1.749  -1.413   1.059  0.00  0.00    -0.004 A 
ATOM      5  C5  N4B d   1       1.817  -1.334  -0.301  0.00  0.00     0.002 A 
ATOM      6  C6  N4B d   1       0.828  -0.700  -1.026  0.00  0.00     0.002 A 
ENDROOT
BRANCH   1   7
ATOM      7  C1' N4B d   1      -1.337   0.473  -1.205  0.00  0.00     0.057 C 
BRANCH   7   8
ATOM      8  C2' N4B d   1      -0.838   1.766  -1.842  0.00  0.00     0.009 C 
BRANCH   8   9
ATOM      9  C3' N4B d   1      -1.935   2.480  -2.613  0.00  0.00     0.004 C 
ATOM     10  C4' N4B d   1      -3.162   1.637  -2.792  0.00  0.00     0.003 C 
ENDBRANCH   8   9
ENDBRANCH   7   8
ENDBRANCH   1   7
TORSDOF 3
ENDMDL
