MODEL 1
REMARK minimizedAffinity -3.43635511
REMARK minimizedRMSD -1
REMARK  3 active torsions:
REMARK  status: ('A' for Active; 'I' for Inactive)
REMARK    1  A    between atoms: C3'_2  and  C2'_3 
REMARK    2  A    between atoms: C2'_3  and  C1'_4 
REMARK    3  A    between atoms: C1'_4  and  C1_5 
ROOT
ATOM      1  C1  N4B d   1      -0.159  -0.322   0.423  0.00  0.00    -0.075 A 
ATOM      2  C2  N4B d   1       1.220  -0.169   0.688  0.00  0.00     0.002 A 
ATOM      3  C3  N4B d   1       1.707  -0.403   1.950  0.00  0.00     0.002 A 
ATOM      4  C4  N4B d   1       0.835  -0.771   2.964  0.00  0.00    -0.004 A 
ATOM      5  C5  N4B d   1      -0.491  -0.941   2.695  0.00  0.00     0.002 A 
ATOM      6  C6  N4B d   1      -0.994  -0.713   1.430  0.00  0.00     0.002 A 
ENDROOT
BRANCH   1   7
ATOM      7  C1' N4B d   1      -0.751   0.006  -0.920  0.00  0.00     0.057 C 
BRANCH   7   8
ATOM      8  C2' N4B d   1      -0.100   1.276  -1.458  0.00  0.00     0.009 C 
BRANCH   8   9
ATOM      9  C3' N4B d   1      -1.130   2.317  -1.861  0.00  0.00     0.004 C 
ATOM     10  C4' N4B d   1      -0.510   3.616  -2.281  0.00  0.00     0.003 C 
ENDBRANCH   8   9
ENDBRANCH   7   8
ENDBRANCH   1   7
TORSDOF 3
ENDMDL
