MODEL 1
REMARK minimizedAffinity -4.83671904
REMARK minimizedRMSD -1
REMARK  3 active torsions:
REMARK  status: ('A' for Active; 'I' for Inactive)
REMARK    1  A    between atoms: C3'_2  and  C2'_3 
REMARK    2  A    between atoms: C2'_3  and  C1'_4 
REMARK    3  A    between atoms: C1'_4  and  C1_5 
ROOT
ATOM      1  C1  N4B d   1      -0.767   0.787  -1.364  0.00  0.00    -0.075 A 
ATOM      2  C2  N4B d   1      -2.000   1.144  -1.953  0.00  0.00     0.002 A 
ATOM      3  C3  N4B d   1      -2.072   2.231  -2.789  0.00  0.00     0.002 A 
ATOM      4  C4  N4B d   1      -0.934   2.985  -3.034  0.00  0.00    -0.004 A 
ATOM      5  C5  N4B d   1       0.258   2.619  -2.481  0.00  0.00     0.002 A 
ATOM      6  C6  N4B d   1       0.347   1.526  -1.642  0.00  0.00     0.002 A 
ENDROOT
BRANCH   1   7
ATOM      7  C1' N4B d   1      -0.656  -0.342  -0.376  0.00  0.00     0.057 C 
BRANCH   7   8
ATOM      8  C2' N4B d   1       0.735  -0.323   0.252  0.00  0.00     0.009 C 
BRANCH   8   9
ATOM      9  C3' N4B d   1       0.692  -0.642   1.737  0.00  0.00     0.004 C 
ATOM     10  C4' N4B d   1      -0.700  -0.627   2.294  0.00  0.00     0.003 C 
ENDBRANCH   8   9
ENDBRANCH   7   8
ENDBRANCH   1   7
TORSDOF 3
ENDMDL
