MODEL 1
REMARK minimizedAffinity -5.41773367
REMARK minimizedRMSD -1
REMARK  3 active torsions:
REMARK  status: ('A' for Active; 'I' for Inactive)
REMARK    1  A    between atoms: C3'_2  and  C2'_3 
REMARK    2  A    between atoms: C2'_3  and  C1'_4 
REMARK    3  A    between atoms: C1'_4  and  C1_5 
ROOT
ATOM      1  C1  N4B d   1      -0.195  -0.585   0.352  0.00  0.00    -0.075 A 
ATOM      2  C2  N4B d   1       1.196  -0.815   0.273  0.00  0.00     0.002 A 
ATOM      3  C3  N4B d   1       1.866  -1.349   1.347  0.00  0.00     0.002 A 
ATOM      4  C4  N4B d   1       1.172  -1.642   2.511  0.00  0.00    -0.004 A 
ATOM      5  C5  N4B d   1      -0.176  -1.440   2.571  0.00  0.00     0.002 A 
ATOM      6  C6  N4B d   1      -0.863  -0.908   1.498  0.00  0.00     0.002 A 
ENDROOT
BRANCH   1   7
ATOM      7  C1' N4B d   1      -0.955   0.077  -0.764  0.00  0.00     0.057 C 
BRANCH   7   8
ATOM      8  C2' N4B d   1      -0.319   1.430  -1.071  0.00  0.00     0.009 C 
BRANCH   8   9
ATOM      9  C3' N4B d   1      -0.951   2.093  -2.282  0.00  0.00     0.004 C 
ATOM     10  C4' N4B d   1      -0.315   3.408  -2.622  0.00  0.00     0.003 C 
ENDBRANCH   8   9
ENDBRANCH   7   8
ENDBRANCH   1   7
TORSDOF 3
ENDMDL
