MODEL 1
REMARK minimizedAffinity -3.84404612
REMARK minimizedRMSD -1
REMARK  1 active torsions:
REMARK  status: ('A' for Active; 'I' for Inactive)
REMARK    1  A    between atoms: C1_2  and  C2_3 
ROOT
ATOM      1  C2  UNL d   1      -1.154   2.993  -3.875  0.00  0.00    -0.077 A 
ATOM      2  C3  UNL d   1      -1.725   1.861  -4.473  0.00  0.00     0.002 A 
ATOM      3  C4  UNL d   1      -2.527   0.996  -3.726  0.00  0.00     0.002 A 
ATOM      4  C5  UNL d   1      -2.768   1.256  -2.378  0.00  0.00    -0.004 A 
ATOM      5  C6  UNL d   1      -2.203   2.378  -1.774  0.00  0.00     0.002 A 
ATOM      6  C7  UNL d   1      -1.400   3.243  -2.519  0.00  0.00     0.002 A 
ENDROOT
BRANCH   1   7
ATOM      7  C1  UNL d   1      -0.329   3.953  -4.691  0.00  0.00     0.055 C 
ATOM      8  C   UNL d   1       0.297   5.028  -3.814  0.00  0.00     0.019 C 
ENDBRANCH   1   7
TORSDOF 1
ENDMDL
