MODEL 1
REMARK minimizedAffinity -3.15003204
REMARK minimizedRMSD -1
REMARK  1 active torsions:
REMARK  status: ('A' for Active; 'I' for Inactive)
REMARK    1  A    between atoms: C1_2  and  C2_3 
ROOT
ATOM      1  C2  UNL d   1       0.083   0.460   0.357  0.00  0.00    -0.077 A 
ATOM      2  C3  UNL d   1      -0.629   0.078   1.503  0.00  0.00     0.002 A 
ATOM      3  C4  UNL d   1      -0.103  -0.877   2.375  0.00  0.00     0.002 A 
ATOM      4  C5  UNL d   1       1.137  -1.454   2.113  0.00  0.00    -0.004 A 
ATOM      5  C6  UNL d   1       1.852  -1.082   0.975  0.00  0.00     0.002 A 
ATOM      6  C7  UNL d   1       1.328  -0.129   0.101  0.00  0.00     0.002 A 
ENDROOT
BRANCH   1   7
ATOM      7  C1  UNL d   1      -0.460   1.526  -0.559  0.00  0.00     0.055 C 
ATOM      8  C   UNL d   1      -1.235   0.918  -1.718  0.00  0.00     0.019 C 
ENDBRANCH   1   7
TORSDOF 1
ENDMDL
