MODEL 1
REMARK minimizedAffinity -1.86201262
REMARK minimizedRMSD -1
REMARK  1 active torsions:
REMARK  status: ('A' for Active; 'I' for Inactive)
REMARK    1  A    between atoms: C1_2  and  C2_3 
ROOT
ATOM      1  C2  UNL d   1       1.064  -0.570   0.363  0.00  0.00    -0.077 A 
ATOM      2  C3  UNL d   1       1.311   0.507  -0.501  0.00  0.00     0.002 A 
ATOM      3  C4  UNL d   1       0.310   1.443  -0.766  0.00  0.00     0.002 A 
ATOM      4  C5  UNL d   1      -0.942   1.315  -0.168  0.00  0.00    -0.004 A 
ATOM      5  C6  UNL d   1      -1.198   0.248   0.691  0.00  0.00     0.002 A 
ATOM      6  C7  UNL d   1      -0.199  -0.690   0.956  0.00  0.00     0.002 A 
ENDROOT
BRANCH   1   7
ATOM      7  C1  UNL d   1       2.157  -1.553   0.689  0.00  0.00     0.055 C 
ATOM      8  C   UNL d   1       3.280  -0.892   1.476  0.00  0.00     0.019 C 
ENDBRANCH   1   7
TORSDOF 1
ENDMDL
