MODEL 1
REMARK minimizedAffinity -2.34735823
REMARK minimizedRMSD -1
REMARK  1 active torsions:
REMARK  status: ('A' for Active; 'I' for Inactive)
REMARK    1  A    between atoms: C1_2  and  C2_3 
ROOT
ATOM      1  C2  UNL d   1      -0.011   0.722  -0.361  0.00  0.00    -0.077 A 
ATOM      2  C3  UNL d   1      -0.067  -0.520   0.287  0.00  0.00     0.002 A 
ATOM      3  C4  UNL d   1       1.090  -1.285   0.447  0.00  0.00     0.002 A 
ATOM      4  C5  UNL d   1       2.311  -0.816  -0.034  0.00  0.00    -0.004 A 
ATOM      5  C6  UNL d   1       2.375   0.417  -0.682  0.00  0.00     0.002 A 
ATOM      6  C7  UNL d   1       1.220   1.183  -0.844  0.00  0.00     0.002 A 
ENDROOT
BRANCH   1   7
ATOM      7  C1  UNL d   1      -1.249   1.571  -0.491  0.00  0.00     0.055 C 
ATOM      8  C   UNL d   1      -1.396   2.123  -1.901  0.00  0.00     0.019 C 
ENDBRANCH   1   7
TORSDOF 1
ENDMDL
