MODEL 1
REMARK minimizedAffinity -3.83197045
REMARK minimizedRMSD -1
REMARK  1 active torsions:
REMARK  status: ('A' for Active; 'I' for Inactive)
REMARK    1  A    between atoms: C1_2  and  C2_3 
ROOT
ATOM      1  C2  UNL d   1       0.185   0.025   0.516  0.00  0.00    -0.077 A 
ATOM      2  C3  UNL d   1      -1.045   0.384   1.086  0.00  0.00     0.002 A 
ATOM      3  C4  UNL d   1      -1.518  -0.280   2.219  0.00  0.00     0.002 A 
ATOM      4  C5  UNL d   1      -0.767  -1.303   2.794  0.00  0.00    -0.004 A 
ATOM      5  C6  UNL d   1       0.456  -1.669   2.233  0.00  0.00     0.002 A 
ATOM      6  C7  UNL d   1       0.930  -1.007   1.100  0.00  0.00     0.002 A 
ENDROOT
BRANCH   1   7
ATOM      7  C1  UNL d   1       0.720   0.772  -0.678  0.00  0.00     0.055 C 
ATOM      8  C   UNL d   1       2.178   1.161  -0.479  0.00  0.00     0.019 C 
ENDBRANCH   1   7
TORSDOF 1
ENDMDL
