MODEL 1
REMARK minimizedAffinity -4.53412771
REMARK minimizedRMSD -1
REMARK  1 active torsions:
REMARK  status: ('A' for Active; 'I' for Inactive)
REMARK    1  A    between atoms: C1_2  and  C2_3 
ROOT
ATOM      1  C2  UNL d   1       0.917  -1.007   1.193  0.00  0.00    -0.077 A 
ATOM      2  C3  UNL d   1      -0.414  -0.576   1.277  0.00  0.00     0.002 A 
ATOM      3  C4  UNL d   1      -1.213  -0.955   2.358  0.00  0.00     0.002 A 
ATOM      4  C5  UNL d   1      -0.687  -1.762   3.365  0.00  0.00    -0.004 A 
ATOM      5  C6  UNL d   1       0.635  -2.198   3.289  0.00  0.00     0.002 A 
ATOM      6  C7  UNL d   1       1.434  -1.821   2.209  0.00  0.00     0.002 A 
ENDROOT
BRANCH   1   7
ATOM      7  C1  UNL d   1       1.794  -0.559   0.053  0.00  0.00     0.055 C 
ATOM      8  C   UNL d   1       1.443   0.853  -0.394  0.00  0.00     0.019 C 
ENDBRANCH   1   7
TORSDOF 1
ENDMDL
