MODEL 1
REMARK minimizedAffinity -1.62780547
REMARK minimizedRMSD -1
REMARK  1 active torsions:
REMARK  status: ('A' for Active; 'I' for Inactive)
REMARK    1  A    between atoms: C1_2  and  C2_3 
ROOT
ATOM      1  C2  UNL d   1       1.076  -0.396   0.464  0.00  0.00    -0.077 A 
ATOM      2  C3  UNL d   1      -0.265  -0.177   0.809  0.00  0.00     0.002 A 
ATOM      3  C4  UNL d   1      -1.054   0.694   0.055  0.00  0.00     0.002 A 
ATOM      4  C5  UNL d   1      -0.513   1.349  -1.049  0.00  0.00    -0.004 A 
ATOM      5  C6  UNL d   1       0.820   1.139  -1.399  0.00  0.00     0.002 A 
ATOM      6  C7  UNL d   1       1.611   0.270  -0.646  0.00  0.00     0.002 A 
ENDROOT
BRANCH   1   7
ATOM      7  C1  UNL d   1       1.915  -1.373   1.246  0.00  0.00     0.055 C 
ATOM      8  C   UNL d   1       1.283  -1.692   2.592  0.00  0.00     0.019 C 
ENDBRANCH   1   7
TORSDOF 1
ENDMDL
