MODEL 1
REMARK minimizedAffinity -5.24535704
REMARK minimizedRMSD -1
REMARK  1 active torsions:
REMARK  status: ('A' for Active; 'I' for Inactive)
REMARK    1  A    between atoms: C1_2  and  C2_3 
ROOT
ATOM      1  C2  UNL d   1       0.023   0.270   0.369  0.00  0.00    -0.077 A 
ATOM      2  C3  UNL d   1      -0.635  -0.471   1.361  0.00  0.00     0.002 A 
ATOM      3  C4  UNL d   1      -0.020  -1.584   1.936  0.00  0.00     0.002 A 
ATOM      4  C5  UNL d   1       1.257  -1.964   1.529  0.00  0.00    -0.004 A 
ATOM      5  C6  UNL d   1       1.919  -1.236   0.542  0.00  0.00     0.002 A 
ATOM      6  C7  UNL d   1       1.305  -0.123  -0.035  0.00  0.00     0.002 A 
ENDROOT
BRANCH   1   7
ATOM      7  C1  UNL d   1      -0.619   1.500  -0.217  0.00  0.00     0.055 C 
ATOM      8  C   UNL d   1      -1.346   1.180  -1.515  0.00  0.00     0.019 C 
ENDBRANCH   1   7
TORSDOF 1
ENDMDL
