MODEL 1
REMARK minimizedAffinity -4.1911397
REMARK minimizedRMSD -1
REMARK  1 active torsions:
REMARK  status: ('A' for Active; 'I' for Inactive)
REMARK    1  A    between atoms: C1_2  and  C2_3 
ROOT
ATOM      1  C2  UNL d   1      -0.903   3.125  -4.087  0.00  0.00    -0.077 A 
ATOM      2  C3  UNL d   1      -2.052   2.434  -4.497  0.00  0.00     0.002 A 
ATOM      3  C4  UNL d   1      -2.738   1.611  -3.602  0.00  0.00     0.002 A 
ATOM      4  C5  UNL d   1      -2.287   1.475  -2.291  0.00  0.00    -0.004 A 
ATOM      5  C6  UNL d   1      -1.144   2.157  -1.874  0.00  0.00     0.002 A 
ATOM      6  C7  UNL d   1      -0.456   2.978  -2.768  0.00  0.00     0.002 A 
ENDROOT
BRANCH   1   7
ATOM      7  C1  UNL d   1      -0.189   4.051  -5.037  0.00  0.00     0.055 C 
ATOM      8  C   UNL d   1       0.458   5.212  -4.296  0.00  0.00     0.019 C 
ENDBRANCH   1   7
TORSDOF 1
ENDMDL
