MODEL 1
REMARK minimizedAffinity -4.37209845
REMARK minimizedRMSD -1
REMARK  1 active torsions:
REMARK  status: ('A' for Active; 'I' for Inactive)
REMARK    1  A    between atoms: C1_2  and  C2_3 
ROOT
ATOM      1  C2  UNL d   1      -0.018   0.347   0.263  0.00  0.00    -0.077 A 
ATOM      2  C3  UNL d   1      -0.171  -0.490   1.377  0.00  0.00     0.002 A 
ATOM      3  C4  UNL d   1       0.772  -1.483   1.650  0.00  0.00     0.002 A 
ATOM      4  C5  UNL d   1       1.876  -1.645   0.816  0.00  0.00    -0.004 A 
ATOM      5  C6  UNL d   1       2.037  -0.819  -0.296  0.00  0.00     0.002 A 
ATOM      6  C7  UNL d   1       1.094   0.173  -0.570  0.00  0.00     0.002 A 
ENDROOT
BRANCH   1   7
ATOM      7  C1  UNL d   1      -1.008   1.450  -0.005  0.00  0.00     0.055 C 
ATOM      8  C   UNL d   1      -1.040   1.819  -1.481  0.00  0.00     0.019 C 
ENDBRANCH   1   7
TORSDOF 1
ENDMDL
