MODEL 1
REMARK minimizedAffinity -5.11945057
REMARK minimizedRMSD -1
REMARK  1 active torsions:
REMARK  status: ('A' for Active; 'I' for Inactive)
REMARK    1  A    between atoms: C1_2  and  C2_3 
ROOT
ATOM      1  C2  UNL d   1       0.000  -0.893   0.774  0.00  0.00    -0.077 A 
ATOM      2  C3  UNL d   1      -0.736  -1.069   1.954  0.00  0.00     0.002 A 
ATOM      3  C4  UNL d   1      -0.294  -1.959   2.935  0.00  0.00     0.002 A 
ATOM      4  C5  UNL d   1       0.886  -2.675   2.748  0.00  0.00    -0.004 A 
ATOM      5  C6  UNL d   1       1.624  -2.508   1.577  0.00  0.00     0.002 A 
ATOM      6  C7  UNL d   1       1.184  -1.620   0.595  0.00  0.00     0.002 A 
ENDROOT
BRANCH   1   7
ATOM      7  C1  UNL d   1      -0.449   0.103  -0.264  0.00  0.00     0.055 C 
ATOM      8  C   UNL d   1       0.693   1.017  -0.684  0.00  0.00     0.019 C 
ENDBRANCH   1   7
TORSDOF 1
ENDMDL
