MODEL 1
REMARK minimizedAffinity -1.0810324
REMARK minimizedRMSD -1
REMARK  1 active torsions:
REMARK  status: ('A' for Active; 'I' for Inactive)
REMARK    1  A    between atoms: C1_2  and  C2_3 
ROOT
ATOM      1  C2  UNL d   1       0.808  -1.493   2.037  0.00  0.00    -0.077 A 
ATOM      2  C3  UNL d   1       2.069  -1.529   1.427  0.00  0.00     0.002 A 
ATOM      3  C4  UNL d   1       2.315  -0.788   0.269  0.00  0.00     0.002 A 
ATOM      4  C5  UNL d   1       1.306  -0.003  -0.285  0.00  0.00    -0.004 A 
ATOM      5  C6  UNL d   1       0.047   0.038   0.314  0.00  0.00     0.002 A 
ATOM      6  C7  UNL d   1      -0.200  -0.703   1.470  0.00  0.00     0.002 A 
ENDROOT
BRANCH   1   7
ATOM      7  C1  UNL d   1       0.555  -2.252   3.313  0.00  0.00     0.055 C 
ATOM      8  C   UNL d   1      -0.497  -1.562   4.170  0.00  0.00     0.019 C 
ENDBRANCH   1   7
TORSDOF 1
ENDMDL
