MODEL 1
REMARK minimizedAffinity -2.7797401
REMARK minimizedRMSD -1
REMARK  0 active torsions:
REMARK  status: ('A' for Active; 'I' for Inactive)
ROOT
ATOM      1  C1  DEN d   1      -3.691   0.722   1.229  0.00  0.00     0.130 A 
ATOM      2  C2  DEN d   1      -4.859   1.009   0.401  0.00  0.00    -0.031 A 
ATOM      3  C3  DEN d   1      -5.970   1.391   1.295  0.00  0.00     0.027 A 
ATOM      4  C4  DEN d   1      -5.994   1.569   3.868  0.00  0.00     0.027 A 
ATOM      5  C5  DEN d   1      -5.242   1.412   5.012  0.00  0.00    -0.003 A 
ATOM      6  C6  DEN d   1      -3.941   0.985   4.977  0.00  0.00     0.001 A 
ATOM      7  C7  DEN d   1      -3.338   0.743   3.771  0.00  0.00     0.017 A 
ATOM      8  C8  DEN d   1      -4.092   0.892   2.614  0.00  0.00    -0.094 A 
ATOM      9  C9  DEN d   1      -5.402   1.337   2.670  0.00  0.00    -0.072 A 
ENDROOT
TORSDOF 0
ENDMDL
