MODEL 1
REMARK minimizedAffinity 8.74887657
REMARK minimizedRMSD -1
REMARK  0 active torsions:
REMARK  status: ('A' for Active; 'I' for Inactive)
ROOT
ATOM      1  C1  DEN d   1      -1.968  -0.437   1.511  0.00  0.00     0.130 A 
ATOM      2  C2  DEN d   1      -2.364   0.312   2.700  0.00  0.00    -0.031 A 
ATOM      3  C3  DEN d   1      -3.660   0.962   2.421  0.00  0.00     0.027 A 
ATOM      4  C4  DEN d   1      -5.088   0.878   0.274  0.00  0.00     0.027 A 
ATOM      5  C5  DEN d   1      -5.158   0.380  -1.008  0.00  0.00    -0.003 A 
ATOM      6  C6  DEN d   1      -4.163  -0.391  -1.548  0.00  0.00     0.001 A 
ATOM      7  C7  DEN d   1      -3.074  -0.724  -0.787  0.00  0.00     0.017 A 
ATOM      8  C8  DEN d   1      -2.992  -0.220   0.504  0.00  0.00    -0.094 A 
ATOM      9  C9  DEN d   1      -4.014   0.548   1.036  0.00  0.00    -0.072 A 
ENDROOT
TORSDOF 0
ENDMDL
