MODEL 1
REMARK minimizedAffinity 3.75780773
REMARK minimizedRMSD -1
REMARK  0 active torsions:
REMARK  status: ('A' for Active; 'I' for Inactive)
ROOT
ATOM      1  C1  DEN d   1      -1.654  -2.014   1.148  0.00  0.00     0.130 A 
ATOM      2  C2  DEN d   1      -0.444  -1.974   1.965  0.00  0.00    -0.031 A 
ATOM      3  C3  DEN d   1      -0.528  -0.793   2.848  0.00  0.00     0.027 A 
ATOM      4  C4  DEN d   1      -2.405   0.965   3.032  0.00  0.00     0.027 A 
ATOM      5  C5  DEN d   1      -3.628   1.358   2.534  0.00  0.00    -0.003 A 
ATOM      6  C6  DEN d   1      -4.258   0.680   1.525  0.00  0.00     0.001 A 
ATOM      7  C7  DEN d   1      -3.688  -0.455   1.011  0.00  0.00     0.017 A 
ATOM      8  C8  DEN d   1      -2.451  -0.853   1.502  0.00  0.00    -0.094 A 
ATOM      9  C9  DEN d   1      -1.837  -0.161   2.531  0.00  0.00    -0.072 A 
ENDROOT
TORSDOF 0
ENDMDL
