MODEL 1
REMARK minimizedAffinity -2.04622078
REMARK minimizedRMSD -1
REMARK  0 active torsions:
REMARK  status: ('A' for Active; 'I' for Inactive)
ROOT
ATOM      1  C1  DEN d   1       1.143  -4.726  -3.968  0.00  0.00     0.130 A 
ATOM      2  C2  DEN d   1       1.931  -5.398  -4.999  0.00  0.00    -0.031 A 
ATOM      3  C3  DEN d   1       0.995  -5.997  -5.971  0.00  0.00     0.027 A 
ATOM      4  C4  DEN d   1      -1.584  -5.947  -5.983  0.00  0.00     0.027 A 
ATOM      5  C5  DEN d   1      -2.702  -5.508  -5.308  0.00  0.00    -0.003 A 
ATOM      6  C6  DEN d   1      -2.617  -4.812  -4.131  0.00  0.00     0.001 A 
ATOM      7  C7  DEN d   1      -1.388  -4.496  -3.616  0.00  0.00     0.017 A 
ATOM      8  C8  DEN d   1      -0.257  -4.942  -4.287  0.00  0.00    -0.094 A 
ATOM      9  C9  DEN d   1      -0.363  -5.633  -5.482  0.00  0.00    -0.072 A 
ENDROOT
TORSDOF 0
ENDMDL
