MODEL 1
REMARK minimizedAffinity 3.46645045
REMARK minimizedRMSD -1
REMARK  0 active torsions:
REMARK  status: ('A' for Active; 'I' for Inactive)
ROOT
ATOM      1  C1  DEN d   1       0.041  -2.058   2.847  0.00  0.00     0.130 A 
ATOM      2  C2  DEN d   1       0.539  -1.483   4.094  0.00  0.00    -0.031 A 
ATOM      3  C3  DEN d   1      -0.312  -0.327   4.437  0.00  0.00     0.027 A 
ATOM      4  C4  DEN d   1      -2.347   0.622   3.167  0.00  0.00     0.027 A 
ATOM      5  C5  DEN d   1      -3.142   0.477   2.051  0.00  0.00    -0.003 A 
ATOM      6  C6  DEN d   1      -2.912  -0.493   1.113  0.00  0.00     0.001 A 
ATOM      7  C7  DEN d   1      -1.890  -1.386   1.296  0.00  0.00     0.017 A 
ATOM      8  C8  DEN d   1      -1.080  -1.242   2.415  0.00  0.00    -0.094 A 
ATOM      9  C9  DEN d   1      -1.336  -0.262   3.359  0.00  0.00    -0.072 A 
ENDROOT
TORSDOF 0
ENDMDL
