MODEL 1
REMARK minimizedAffinity 11.3266792
REMARK minimizedRMSD -1
REMARK  0 active torsions:
REMARK  status: ('A' for Active; 'I' for Inactive)
ROOT
ATOM      1  C1  DEN d   1       6.000   5.031  -1.119  0.00  0.00     0.130 A 
ATOM      2  C2  DEN d   1       5.174   4.956  -2.321  0.00  0.00    -0.031 A 
ATOM      3  C3  DEN d   1       4.124   3.943  -2.091  0.00  0.00     0.027 A 
ATOM      4  C4  DEN d   1       3.696   2.496   0.000  0.00  0.00     0.027 A 
ATOM      5  C5  DEN d   1       4.142   2.197   1.269  0.00  0.00    -0.003 A 
ATOM      6  C6  DEN d   1       5.249   2.792   1.813  0.00  0.00     0.001 A 
ATOM      7  C7  DEN d   1       5.922   3.751   1.103  0.00  0.00     0.017 A 
ATOM      8  C8  DEN d   1       5.483   4.052  -0.180  0.00  0.00    -0.094 A 
ATOM      9  C9  DEN d   1       4.355   3.448  -0.708  0.00  0.00    -0.072 A 
ENDROOT
TORSDOF 0
ENDMDL
