MODEL 1
REMARK minimizedAffinity 6.41087532
REMARK minimizedRMSD -1
REMARK  0 active torsions:
REMARK  status: ('A' for Active; 'I' for Inactive)
ROOT
ATOM      1  C1  DEN d   1      -1.830  -1.771   0.662  0.00  0.00     0.130 A 
ATOM      2  C2  DEN d   1      -0.659  -1.985   1.508  0.00  0.00    -0.031 A 
ATOM      3  C3  DEN d   1      -0.728  -1.030   2.632  0.00  0.00     0.027 A 
ATOM      4  C4  DEN d   1      -2.527   0.746   3.145  0.00  0.00     0.027 A 
ATOM      5  C5  DEN d   1      -3.705   1.309   2.708  0.00  0.00    -0.003 A 
ATOM      6  C6  DEN d   1      -4.318   0.912   1.549  0.00  0.00     0.001 A 
ATOM      7  C7  DEN d   1      -3.779  -0.109   0.811  0.00  0.00     0.017 A 
ATOM      8  C8  DEN d   1      -2.587  -0.676   1.242  0.00  0.00    -0.094 A 
ATOM      9  C9  DEN d   1      -1.989  -0.269   2.423  0.00  0.00    -0.072 A 
ENDROOT
TORSDOF 0
ENDMDL
