MODEL 1
REMARK minimizedAffinity 7.78064013
REMARK minimizedRMSD -1
REMARK  0 active torsions:
REMARK  status: ('A' for Active; 'I' for Inactive)
ROOT
ATOM      1  C1  DEN d   1      -2.345   0.775   2.882  0.00  0.00     0.130 A 
ATOM      2  C2  DEN d   1      -3.051   0.663   1.609  0.00  0.00    -0.031 A 
ATOM      3  C3  DEN d   1      -2.457  -0.459   0.855  0.00  0.00     0.027 A 
ATOM      4  C4  DEN d   1      -0.527  -2.029   1.534  0.00  0.00     0.027 A 
ATOM      5  C5  DEN d   1       0.393  -2.317   2.518  0.00  0.00    -0.003 A 
ATOM      6  C6  DEN d   1       0.487  -1.578   3.667  0.00  0.00     0.001 A 
ATOM      7  C7  DEN d   1      -0.384  -0.543   3.883  0.00  0.00     0.017 A 
ATOM      8  C8  DEN d   1      -1.310  -0.243   2.892  0.00  0.00    -0.094 A 
ATOM      9  C9  DEN d   1      -1.397  -1.009   1.742  0.00  0.00    -0.072 A 
ENDROOT
TORSDOF 0
ENDMDL
