MODEL 1
REMARK minimizedAffinity 6.77335978
REMARK minimizedRMSD -1
REMARK  0 active torsions:
REMARK  status: ('A' for Active; 'I' for Inactive)
ROOT
ATOM      1  C1  DEN d   1      -3.776   2.071   6.000  0.00  0.00     0.130 A 
ATOM      2  C2  DEN d   1      -5.150   2.564   5.994  0.00  0.00    -0.031 A 
ATOM      3  C3  DEN d   1      -5.736   2.268   4.671  0.00  0.00     0.027 A 
ATOM      4  C4  DEN d   1      -4.654   1.096   2.644  0.00  0.00     0.027 A 
ATOM      5  C5  DEN d   1      -3.501   0.511   2.169  0.00  0.00    -0.003 A 
ATOM      6  C6  DEN d   1      -2.358   0.436   2.919  0.00  0.00     0.001 A 
ATOM      7  C7  DEN d   1      -2.356   0.915   4.203  0.00  0.00     0.017 A 
ATOM      8  C8  DEN d   1      -3.512   1.512   4.686  0.00  0.00    -0.094 A 
ATOM      9  C9  DEN d   1      -4.662   1.567   3.916  0.00  0.00    -0.072 A 
ENDROOT
TORSDOF 0
ENDMDL
