MODEL 1
REMARK minimizedAffinity 6.32919931
REMARK minimizedRMSD -1
REMARK  0 active torsions:
REMARK  status: ('A' for Active; 'I' for Inactive)
ROOT
ATOM      1  C1  DEN d   1       4.891   6.000  -2.614  0.00  0.00     0.130 A 
ATOM      2  C2  DEN d   1       5.980   5.370  -3.355  0.00  0.00    -0.031 A 
ATOM      3  C3  DEN d   1       5.484   4.088  -3.895  0.00  0.00     0.027 A 
ATOM      4  C4  DEN d   1       3.146   3.025  -3.659  0.00  0.00     0.027 A 
ATOM      5  C5  DEN d   1       1.893   3.181  -3.110  0.00  0.00    -0.003 A 
ATOM      6  C6  DEN d   1       1.563   4.261  -2.336  0.00  0.00     0.001 A 
ATOM      7  C7  DEN d   1       2.486   5.252  -2.126  0.00  0.00     0.017 A 
ATOM      8  C8  DEN d   1       3.755   5.098  -2.669  0.00  0.00    -0.094 A 
ATOM      9  C9  DEN d   1       4.064   4.004  -3.459  0.00  0.00    -0.072 A 
ENDROOT
TORSDOF 0
ENDMDL
