MODEL 1
REMARK minimizedAffinity 11.4772644
REMARK minimizedRMSD -1
REMARK  0 active torsions:
REMARK  status: ('A' for Active; 'I' for Inactive)
ROOT
ATOM      1  C1  DEN d   1      -1.199   0.577   4.825  0.00  0.00     0.130 A 
ATOM      2  C2  DEN d   1      -2.557   0.744   5.335  0.00  0.00    -0.031 A 
ATOM      3  C3  DEN d   1      -3.494   0.228   4.317  0.00  0.00     0.027 A 
ATOM      4  C4  DEN d   1      -2.975  -0.813   2.015  0.00  0.00     0.027 A 
ATOM      5  C5  DEN d   1      -1.969  -1.155   1.138  0.00  0.00    -0.003 A 
ATOM      6  C6  DEN d   1      -0.649  -0.915   1.413  0.00  0.00     0.001 A 
ATOM      7  C7  DEN d   1      -0.296  -0.356   2.613  0.00  0.00     0.017 A 
ATOM      8  C8  DEN d   1      -1.305  -0.002   3.498  0.00  0.00    -0.094 A 
ATOM      9  C9  DEN d   1      -2.633  -0.264   3.208  0.00  0.00    -0.072 A 
ENDROOT
TORSDOF 0
ENDMDL
