MODEL 1
REMARK minimizedAffinity 7.20563269
REMARK minimizedRMSD -1
REMARK  0 active torsions:
REMARK  status: ('A' for Active; 'I' for Inactive)
ROOT
ATOM      1  C1  DEN d   1      -4.109   1.546   6.000  0.00  0.00     0.130 A 
ATOM      2  C2  DEN d   1      -3.242   2.216   5.034  0.00  0.00    -0.031 A 
ATOM      3  C3  DEN d   1      -3.056   1.311   3.882  0.00  0.00     0.027 A 
ATOM      4  C4  DEN d   1      -4.027  -1.048   3.499  0.00  0.00     0.027 A 
ATOM      5  C5  DEN d   1      -4.811  -2.041   4.044  0.00  0.00    -0.003 A 
ATOM      6  C6  DEN d   1      -5.382  -1.924   5.283  0.00  0.00     0.001 A 
ATOM      7  C7  DEN d   1      -5.216  -0.768   6.000  0.00  0.00     0.017 A 
ATOM      8  C8  DEN d   1      -4.422   0.235   5.461  0.00  0.00    -0.094 A 
ATOM      9  C9  DEN d   1      -3.863   0.102   4.201  0.00  0.00    -0.072 A 
ENDROOT
TORSDOF 0
ENDMDL
