MODEL 1
REMARK minimizedAffinity 7.62052536
REMARK minimizedRMSD -1
REMARK  0 active torsions:
REMARK  status: ('A' for Active; 'I' for Inactive)
ROOT
ATOM      1  C1  DEN d   1      -5.997   4.848  -2.807  0.00  0.00     0.130 A 
ATOM      2  C2  DEN d   1      -5.236   4.697  -1.570  0.00  0.00    -0.031 A 
ATOM      3  C3  DEN d   1      -3.819   4.989  -1.867  0.00  0.00     0.027 A 
ATOM      4  C4  DEN d   1      -2.736   5.660  -4.109  0.00  0.00     0.027 A 
ATOM      5  C5  DEN d   1      -2.976   5.903  -5.444  0.00  0.00    -0.003 A 
ATOM      6  C6  DEN d   1      -4.224   5.780  -5.995  0.00  0.00     0.001 A 
ATOM      7  C7  DEN d   1      -5.288   5.447  -5.199  0.00  0.00     0.017 A 
ATOM      8  C8  DEN d   1      -5.052   5.193  -3.855  0.00  0.00    -0.094 A 
ATOM      9  C9  DEN d   1      -3.786   5.334  -3.313  0.00  0.00    -0.072 A 
ENDROOT
TORSDOF 0
ENDMDL
