MODEL 1
REMARK minimizedAffinity 6.95821476
REMARK minimizedRMSD -1
REMARK  0 active torsions:
REMARK  status: ('A' for Active; 'I' for Inactive)
ROOT
ATOM      1  C1  DEN d   1       1.492  -4.365  -3.206  0.00  0.00     0.130 A 
ATOM      2  C2  DEN d   1       2.610  -5.208  -3.620  0.00  0.00    -0.031 A 
ATOM      3  C3  DEN d   1       2.177  -6.000  -4.788  0.00  0.00     0.027 A 
ATOM      4  C4  DEN d   1      -0.103  -6.000  -5.994  0.00  0.00     0.027 A 
ATOM      5  C5  DEN d   1      -1.369  -5.459  -6.000  0.00  0.00    -0.003 A 
ATOM      6  C6  DEN d   1      -1.779  -4.549  -5.062  0.00  0.00     0.001 A 
ATOM      7  C7  DEN d   1      -0.899  -4.117  -4.105  0.00  0.00     0.017 A 
ATOM      8  C8  DEN d   1       0.378  -4.663  -4.089  0.00  0.00    -0.094 A 
ATOM      9  C9  DEN d   1       0.777  -5.573  -5.053  0.00  0.00    -0.072 A 
ENDROOT
TORSDOF 0
ENDMDL
