MODEL 1
REMARK minimizedAffinity 10.5799265
REMARK minimizedRMSD -1
REMARK  1 active torsions:
REMARK  status: ('A' for Active; 'I' for Inactive)
REMARK    1  A    between atoms: C1_2  and  C2_3 
ROOT
ATOM      1  C2  UNL d   1       4.069   4.942  -2.133  0.00  0.00    -0.081 A 
ATOM      2  C3  UNL d   1       3.240   5.305  -3.201  0.00  0.00     0.006 A 
ATOM      3  C4  UNL d   1       3.786   5.610  -4.450  0.00  0.00     0.002 A 
ATOM      4  C5  UNL d   1       5.169   5.549  -4.654  0.00  0.00    -0.080 A 
ATOM      5  C6  UNL d   1       5.766   5.844  -5.998  0.00  0.00     0.076 C 
ATOM      6  C7  UNL d   1       5.999   5.202  -3.583  0.00  0.00     0.002 A 
ATOM      7  C8  UNL d   1       5.454   4.898  -2.333  0.00  0.00     0.006 A 
ENDROOT
BRANCH   1   8
ATOM      8  C1  UNL d   1       3.479   4.550  -0.803  0.00  0.00     0.054 C 
ATOM      9  C   UNL d   1       1.958   4.617  -0.832  0.00  0.00     0.018 C 
ENDBRANCH   1   8
TORSDOF 1
ENDMDL
