MODEL 1
REMARK minimizedAffinity 0.0600481033
REMARK minimizedRMSD -1
REMARK  1 active torsions:
REMARK  status: ('A' for Active; 'I' for Inactive)
REMARK    1  A    between atoms: C1_2  and  C2_3 
ROOT
ATOM      1  C2  UNL d   1       5.499   2.214  -5.268  0.00  0.00    -0.081 A 
ATOM      2  C3  UNL d   1       4.837   3.279  -5.892  0.00  0.00     0.006 A 
ATOM      3  C4  UNL d   1       4.686   4.502  -5.234  0.00  0.00     0.002 A 
ATOM      4  C5  UNL d   1       5.200   4.683  -3.946  0.00  0.00    -0.080 A 
ATOM      5  C6  UNL d   1       5.071   6.000  -3.240  0.00  0.00     0.076 C 
ATOM      6  C7  UNL d   1       5.846   3.614  -3.315  0.00  0.00     0.002 A 
ATOM      7  C8  UNL d   1       5.997   2.390  -3.972  0.00  0.00     0.006 A 
ENDROOT
BRANCH   1   8
ATOM      8  C1  UNL d   1       5.720   0.915  -6.000  0.00  0.00     0.054 C 
ATOM      9  C   UNL d   1       5.111  -0.257  -5.244  0.00  0.00     0.018 C 
ENDBRANCH   1   8
TORSDOF 1
ENDMDL
