MODEL 1
REMARK minimizedAffinity -3.26898289
REMARK minimizedRMSD -1
REMARK  1 active torsions:
REMARK  status: ('A' for Active; 'I' for Inactive)
REMARK    1  A    between atoms: C1_2  and  C2_3 
ROOT
ATOM      1  C2  UNL d   1       4.759   2.940  -4.945  0.00  0.00    -0.081 A 
ATOM      2  C3  UNL d   1       5.977   3.413  -4.442  0.00  0.00     0.006 A 
ATOM      3  C4  UNL d   1       6.000   4.412  -3.465  0.00  0.00     0.002 A 
ATOM      4  C5  UNL d   1       4.806   4.947  -2.969  0.00  0.00    -0.080 A 
ATOM      5  C6  UNL d   1       4.816   5.997  -1.898  0.00  0.00     0.076 C 
ATOM      6  C7  UNL d   1       3.590   4.487  -3.484  0.00  0.00     0.002 A 
ATOM      7  C8  UNL d   1       3.566   3.490  -4.462  0.00  0.00     0.006 A 
ENDROOT
BRANCH   1   8
ATOM      8  C1  UNL d   1       4.729   1.819  -5.952  0.00  0.00     0.054 C 
ATOM      9  C   UNL d   1       5.640   0.674  -5.532  0.00  0.00     0.018 C 
ENDBRANCH   1   8
TORSDOF 1
ENDMDL
