MODEL 1
REMARK minimizedAffinity -0.466970235
REMARK minimizedRMSD -1
REMARK  1 active torsions:
REMARK  status: ('A' for Active; 'I' for Inactive)
REMARK    1  A    between atoms: C1_2  and  C2_3 
ROOT
ATOM      1  C2  UNL d   1       4.029   4.509  -2.402  0.00  0.00    -0.081 A 
ATOM      2  C3  UNL d   1       5.193   5.283  -2.323  0.00  0.00     0.006 A 
ATOM      3  C4  UNL d   1       5.840   5.710  -3.484  0.00  0.00     0.002 A 
ATOM      4  C5  UNL d   1       5.331   5.376  -4.744  0.00  0.00    -0.080 A 
ATOM      5  C6  UNL d   1       5.999   5.854  -5.999  0.00  0.00     0.076 C 
ATOM      6  C7  UNL d   1       4.178   4.588  -4.824  0.00  0.00     0.002 A 
ATOM      7  C8  UNL d   1       3.531   4.160  -3.662  0.00  0.00     0.006 A 
ENDROOT
BRANCH   1   8
ATOM      8  C1  UNL d   1       3.292   4.102  -1.152  0.00  0.00     0.054 C 
ATOM      9  C   UNL d   1       1.788   4.064  -1.383  0.00  0.00     0.018 C 
ENDBRANCH   1   8
TORSDOF 1
ENDMDL
