MODEL 1
REMARK minimizedAffinity 5.4997735
REMARK minimizedRMSD -1
REMARK  1 active torsions:
REMARK  status: ('A' for Active; 'I' for Inactive)
REMARK    1  A    between atoms: C1_2  and  C2_3 
ROOT
ATOM      1  C2  UNL d   1       4.312   4.515  -5.152  0.00  0.00    -0.081 A 
ATOM      2  C3  UNL d   1       5.444   4.267  -5.938  0.00  0.00     0.006 A 
ATOM      3  C4  UNL d   1       5.999   2.987  -5.996  0.00  0.00     0.002 A 
ATOM      4  C5  UNL d   1       5.427   1.932  -5.277  0.00  0.00    -0.080 A 
ATOM      5  C6  UNL d   1       5.994   0.546  -5.356  0.00  0.00     0.076 C 
ATOM      6  C7  UNL d   1       4.306   2.183  -4.479  0.00  0.00     0.002 A 
ATOM      7  C8  UNL d   1       3.751   3.463  -4.419  0.00  0.00     0.006 A 
ENDROOT
BRANCH   1   8
ATOM      8  C1  UNL d   1       3.672   5.880  -5.138  0.00  0.00     0.054 C 
ATOM      9  C   UNL d   1       2.645   5.998  -4.021  0.00  0.00     0.018 C 
ENDBRANCH   1   8
TORSDOF 1
ENDMDL
