MODEL 1
REMARK minimizedAffinity -1.9345324
REMARK minimizedRMSD -1
REMARK  1 active torsions:
REMARK  status: ('A' for Active; 'I' for Inactive)
REMARK    1  A    between atoms: C1_2  and  C2_3 
ROOT
ATOM      1  C2  UNL d   1       4.869   3.121  -4.921  0.00  0.00    -0.081 A 
ATOM      2  C3  UNL d   1       5.998   3.914  -4.685  0.00  0.00     0.006 A 
ATOM      3  C4  UNL d   1       6.000   4.855  -3.653  0.00  0.00     0.002 A 
ATOM      4  C5  UNL d   1       4.876   5.013  -2.835  0.00  0.00    -0.080 A 
ATOM      5  C6  UNL d   1       4.876   5.998  -1.704  0.00  0.00     0.076 C 
ATOM      6  C7  UNL d   1       3.741   4.233  -3.081  0.00  0.00     0.002 A 
ATOM      7  C8  UNL d   1       3.739   3.293  -4.114  0.00  0.00     0.006 A 
ENDROOT
BRANCH   1   8
ATOM      8  C1  UNL d   1       4.887   2.060  -5.992  0.00  0.00     0.054 C 
ATOM      9  C   UNL d   1       5.494   0.764  -5.476  0.00  0.00     0.018 C 
ENDBRANCH   1   8
TORSDOF 1
ENDMDL
