MODEL 1
REMARK minimizedAffinity -5.45778084
REMARK minimizedRMSD -1
REMARK  1 active torsions:
REMARK  status: ('A' for Active; 'I' for Inactive)
REMARK    1  A    between atoms: C1_2  and  C2_3 
ROOT
ATOM      1  C2  UNL d   1       4.936   3.332  -4.830  0.00  0.00    -0.081 A 
ATOM      2  C3  UNL d   1       5.979   3.741  -3.990  0.00  0.00     0.006 A 
ATOM      3  C4  UNL d   1       5.724   4.572  -2.896  0.00  0.00     0.002 A 
ATOM      4  C5  UNL d   1       4.422   5.002  -2.620  0.00  0.00    -0.080 A 
ATOM      5  C6  UNL d   1       4.129   5.869  -1.432  0.00  0.00     0.076 C 
ATOM      6  C7  UNL d   1       3.382   4.608  -3.470  0.00  0.00     0.002 A 
ATOM      7  C8  UNL d   1       3.637   3.778  -4.563  0.00  0.00     0.006 A 
ENDROOT
BRANCH   1   8
ATOM      8  C1  UNL d   1       5.199   2.384  -5.972  0.00  0.00     0.054 C 
ATOM      9  C   UNL d   1       5.628   1.014  -5.466  0.00  0.00     0.018 C 
ENDBRANCH   1   8
TORSDOF 1
ENDMDL
