MODEL 1
REMARK minimizedAffinity 0.305547684
REMARK minimizedRMSD -1
REMARK  1 active torsions:
REMARK  status: ('A' for Active; 'I' for Inactive)
REMARK    1  A    between atoms: C1_2  and  C2_3 
ROOT
ATOM      1  C2  UNL d   1       0.358  -3.222  -3.020  0.00  0.00    -0.081 A 
ATOM      2  C3  UNL d   1       0.559  -4.602  -2.893  0.00  0.00     0.006 A 
ATOM      3  C4  UNL d   1      -0.318  -5.504  -3.501  0.00  0.00     0.002 A 
ATOM      4  C5  UNL d   1      -1.404  -5.042  -4.252  0.00  0.00    -0.080 A 
ATOM      5  C6  UNL d   1      -2.334  -6.000  -4.935  0.00  0.00     0.076 C 
ATOM      6  C7  UNL d   1      -1.615  -3.664  -4.364  0.00  0.00     0.002 A 
ATOM      7  C8  UNL d   1      -0.739  -2.761  -3.756  0.00  0.00     0.006 A 
ENDROOT
BRANCH   1   8
ATOM      8  C1  UNL d   1       1.337  -2.247  -2.419  0.00  0.00     0.054 C 
ATOM      9  C   UNL d   1       2.530  -2.024  -3.338  0.00  0.00     0.018 C 
ENDBRANCH   1   8
TORSDOF 1
ENDMDL
