MODEL 1
REMARK minimizedAffinity 5.27776146
REMARK minimizedRMSD -1
REMARK  1 active torsions:
REMARK  status: ('A' for Active; 'I' for Inactive)
REMARK    1  A    between atoms: C1_2  and  C2_3 
ROOT
ATOM      1  C2  UNL d   1       4.708   4.772  -2.049  0.00  0.00    -0.081 A 
ATOM      2  C3  UNL d   1       3.547   4.542  -2.797  0.00  0.00     0.006 A 
ATOM      3  C4  UNL d   1       3.612   3.856  -4.012  0.00  0.00     0.002 A 
ATOM      4  C5  UNL d   1       4.837   3.383  -4.496  0.00  0.00    -0.080 A 
ATOM      5  C6  UNL d   1       4.916   2.619  -5.784  0.00  0.00     0.076 C 
ATOM      6  C7  UNL d   1       5.999   3.628  -3.757  0.00  0.00     0.002 A 
ATOM      7  C8  UNL d   1       5.935   4.315  -2.542  0.00  0.00     0.006 A 
ENDROOT
BRANCH   1   8
ATOM      8  C1  UNL d   1       4.632   5.455  -0.707  0.00  0.00     0.054 C 
ATOM      9  C   UNL d   1       5.989   5.999  -0.286  0.00  0.00     0.018 C 
ENDBRANCH   1   8
TORSDOF 1
ENDMDL
