MODEL 1
REMARK minimizedAffinity 7.12890768
REMARK minimizedRMSD -1
REMARK  1 active torsions:
REMARK  status: ('A' for Active; 'I' for Inactive)
REMARK    1  A    between atoms: C1_2  and  C2_3 
ROOT
ATOM      1  C2  UNL d   1       5.248   5.470  -4.000  0.00  0.00    -0.081 A 
ATOM      2  C3  UNL d   1       5.932   5.786  -2.820  0.00  0.00     0.006 A 
ATOM      3  C4  UNL d   1       5.299   5.667  -1.580  0.00  0.00     0.002 A 
ATOM      4  C5  UNL d   1       3.974   5.222  -1.500  0.00  0.00    -0.080 A 
ATOM      5  C6  UNL d   1       3.293   5.061  -0.174  0.00  0.00     0.076 C 
ATOM      6  C7  UNL d   1       3.285   4.923  -2.680  0.00  0.00     0.002 A 
ATOM      7  C8  UNL d   1       3.918   5.043  -3.920  0.00  0.00     0.006 A 
ENDROOT
BRANCH   1   8
ATOM      8  C1  UNL d   1       5.948   5.536  -5.333  0.00  0.00     0.054 C 
ATOM      9  C   UNL d   1       6.000   4.169  -5.999  0.00  0.00     0.018 C 
ENDBRANCH   1   8
TORSDOF 1
ENDMDL
