MODEL 1
REMARK minimizedAffinity 4.83271933
REMARK minimizedRMSD -1
REMARK  1 active torsions:
REMARK  status: ('A' for Active; 'I' for Inactive)
REMARK    1  A    between atoms: C1_2  and  C2_3 
ROOT
ATOM      1  C2  UNL d   1       4.932   4.761  -3.581  0.00  0.00    -0.081 A 
ATOM      2  C3  UNL d   1       3.580   4.766  -3.945  0.00  0.00     0.006 A 
ATOM      3  C4  UNL d   1       2.594   4.452  -3.007  0.00  0.00     0.002 A 
ATOM      4  C5  UNL d   1       2.941   4.136  -1.690  0.00  0.00    -0.080 A 
ATOM      5  C6  UNL d   1       1.890   3.826  -0.666  0.00  0.00     0.076 C 
ATOM      6  C7  UNL d   1       4.293   4.113  -1.331  0.00  0.00     0.002 A 
ATOM      7  C8  UNL d   1       5.280   4.427  -2.268  0.00  0.00     0.006 A 
ENDROOT
BRANCH   1   8
ATOM      8  C1  UNL d   1       5.994   5.162  -4.573  0.00  0.00     0.054 C 
ATOM      9  C   UNL d   1       5.464   5.119  -5.999  0.00  0.00     0.018 C 
ENDBRANCH   1   8
TORSDOF 1
ENDMDL
