MODEL 1
REMARK minimizedAffinity 2.52973652
REMARK minimizedRMSD -1
REMARK  1 active torsions:
REMARK  status: ('A' for Active; 'I' for Inactive)
REMARK    1  A    between atoms: C1_2  and  C2_3 
ROOT
ATOM      1  C2  UNL d   1       5.189  -3.361  -2.013  0.00  0.00    -0.081 A 
ATOM      2  C3  UNL d   1       3.839  -2.995  -1.951  0.00  0.00     0.006 A 
ATOM      3  C4  UNL d   1       3.075  -2.907  -3.116  0.00  0.00     0.002 A 
ATOM      4  C5  UNL d   1       3.645  -3.190  -4.362  0.00  0.00    -0.080 A 
ATOM      5  C6  UNL d   1       2.828  -3.128  -5.618  0.00  0.00     0.076 C 
ATOM      6  C7  UNL d   1       4.998  -3.539  -4.426  0.00  0.00     0.002 A 
ATOM      7  C8  UNL d   1       5.763  -3.627  -3.261  0.00  0.00     0.006 A 
ENDROOT
BRANCH   1   8
ATOM      8  C1  UNL d   1       5.999  -3.520  -0.752  0.00  0.00     0.054 C 
ATOM      9  C   UNL d   1       6.000  -4.965  -0.273  0.00  0.00     0.018 C 
ENDBRANCH   1   8
TORSDOF 1
ENDMDL
