MODEL 1
REMARK minimizedAffinity -2.50653434
REMARK minimizedRMSD -1
REMARK  1 active torsions:
REMARK  status: ('A' for Active; 'I' for Inactive)
REMARK    1  A    between atoms: C1_2  and  C2_3 
ROOT
ATOM      1  C2  UNL d   1      -1.725   0.548  -0.396  0.00  0.00    -0.081 A 
ATOM      2  C3  UNL d   1      -1.216  -0.072   0.751  0.00  0.00     0.006 A 
ATOM      3  C4  UNL d   1      -0.009  -0.773   0.701  0.00  0.00     0.002 A 
ATOM      4  C5  UNL d   1       0.713  -0.859  -0.494  0.00  0.00    -0.080 A 
ATOM      5  C6  UNL d   1       2.026  -1.582  -0.555  0.00  0.00     0.076 C 
ATOM      6  C7  UNL d   1       0.196  -0.254  -1.645  0.00  0.00     0.002 A 
ATOM      7  C8  UNL d   1      -1.012   0.446  -1.596  0.00  0.00     0.006 A 
ENDROOT
BRANCH   1   8
ATOM      8  C1  UNL d   1      -2.994   1.358  -0.330  0.00  0.00     0.054 C 
ATOM      9  C   UNL d   1      -3.431   1.586   1.110  0.00  0.00     0.018 C 
ENDBRANCH   1   8
TORSDOF 1
ENDMDL
