MODEL 1
REMARK minimizedAffinity -3.61605811
REMARK minimizedRMSD -1
REMARK  1 active torsions:
REMARK  status: ('A' for Active; 'I' for Inactive)
REMARK    1  A    between atoms: C1_2  and  C2_3 
ROOT
ATOM      1  C2  UNL d   1      -0.787   0.559  -0.057  0.00  0.00    -0.081 A 
ATOM      2  C3  UNL d   1       0.398   1.302  -0.144  0.00  0.00     0.006 A 
ATOM      3  C4  UNL d   1       1.614   0.744   0.258  0.00  0.00     0.002 A 
ATOM      4  C5  UNL d   1       1.667  -0.566   0.746  0.00  0.00    -0.080 A 
ATOM      5  C6  UNL d   1       2.971  -1.186   1.152  0.00  0.00     0.076 C 
ATOM      6  C7  UNL d   1       0.482  -1.301   0.849  0.00  0.00     0.002 A 
ATOM      7  C8  UNL d   1      -0.735  -0.744   0.448  0.00  0.00     0.006 A 
ENDROOT
BRANCH   1   8
ATOM      8  C1  UNL d   1      -2.090   1.135  -0.550  0.00  0.00     0.054 C 
ATOM      9  C   UNL d   1      -3.190   0.983   0.490  0.00  0.00     0.018 C 
ENDBRANCH   1   8
TORSDOF 1
ENDMDL
