MODEL 1
REMARK minimizedAffinity -4.83866358
REMARK minimizedRMSD -1
REMARK  1 active torsions:
REMARK  status: ('A' for Active; 'I' for Inactive)
REMARK    1  A    between atoms: C1_2  and  C2_3 
ROOT
ATOM      1  C2  UNL d   1      -0.664   0.391  -0.294  0.00  0.00    -0.081 A 
ATOM      2  C3  UNL d   1      -0.368  -0.970  -0.442  0.00  0.00     0.006 A 
ATOM      3  C4  UNL d   1       0.858  -1.479  -0.008  0.00  0.00     0.002 A 
ATOM      4  C5  UNL d   1       1.804  -0.639   0.588  0.00  0.00    -0.080 A 
ATOM      5  C6  UNL d   1       3.112  -1.179   1.086  0.00  0.00     0.076 C 
ATOM      6  C7  UNL d   1       1.516   0.723   0.720  0.00  0.00     0.002 A 
ATOM      7  C8  UNL d   1       0.290   1.234   0.286  0.00  0.00     0.006 A 
ENDROOT
BRANCH   1   8
ATOM      8  C1  UNL d   1      -2.011   0.931  -0.702  0.00  0.00     0.054 C 
ATOM      9  C   UNL d   1      -3.100   0.491   0.266  0.00  0.00     0.018 C 
ENDBRANCH   1   8
TORSDOF 1
ENDMDL
