MODEL 1
REMARK minimizedAffinity -3.68436098
REMARK minimizedRMSD -1
REMARK  1 active torsions:
REMARK  status: ('A' for Active; 'I' for Inactive)
REMARK    1  A    between atoms: C1_2  and  C2_3 
ROOT
ATOM      1  C2  UNL d   1      -1.227   0.288   0.124  0.00  0.00    -0.081 A 
ATOM      2  C3  UNL d   1      -1.005  -1.071  -0.128  0.00  0.00     0.006 A 
ATOM      3  C4  UNL d   1       0.297  -1.571  -0.221  0.00  0.00     0.002 A 
ATOM      4  C5  UNL d   1       1.396  -0.722  -0.057  0.00  0.00    -0.080 A 
ATOM      5  C6  UNL d   1       2.798  -1.251  -0.124  0.00  0.00     0.076 C 
ATOM      6  C7  UNL d   1       1.175   0.639   0.177  0.00  0.00     0.002 A 
ATOM      7  C8  UNL d   1      -0.126   1.140   0.270  0.00  0.00     0.006 A 
ENDROOT
BRANCH   1   8
ATOM      8  C1  UNL d   1      -2.628   0.818   0.289  0.00  0.00     0.054 C 
ATOM      9  C   UNL d   1      -3.599  -0.292   0.666  0.00  0.00     0.018 C 
ENDBRANCH   1   8
TORSDOF 1
ENDMDL
