MODEL 1
REMARK minimizedAffinity -1.71162796
REMARK minimizedRMSD -1
REMARK  1 active torsions:
REMARK  status: ('A' for Active; 'I' for Inactive)
REMARK    1  A    between atoms: C1_2  and  C2_3 
ROOT
ATOM      1  C2  UNL d   1      -1.262   0.453   0.298  0.00  0.00    -0.081 A 
ATOM      2  C3  UNL d   1      -0.546  -0.363   1.182  0.00  0.00     0.006 A 
ATOM      3  C4  UNL d   1       0.638  -0.981   0.774  0.00  0.00     0.002 A 
ATOM      4  C5  UNL d   1       1.129  -0.788  -0.522  0.00  0.00    -0.080 A 
ATOM      5  C6  UNL d   1       2.415  -1.422  -0.963  0.00  0.00     0.076 C 
ATOM      6  C7  UNL d   1       0.405   0.012  -1.411  0.00  0.00     0.002 A 
ATOM      7  C8  UNL d   1      -0.780   0.630  -1.004  0.00  0.00     0.006 A 
ENDROOT
BRANCH   1   8
ATOM      8  C1  UNL d   1      -2.505   1.173   0.755  0.00  0.00     0.054 C 
ATOM      9  C   UNL d   1      -3.763   0.423   0.340  0.00  0.00     0.018 C 
ENDBRANCH   1   8
TORSDOF 1
ENDMDL
