MODEL 1
REMARK minimizedAffinity -2.72328067
REMARK minimizedRMSD -1
REMARK  1 active torsions:
REMARK  status: ('A' for Active; 'I' for Inactive)
REMARK    1  A    between atoms: C1_2  and  C2_3 
ROOT
ATOM      1  C2  UNL d   1      -0.557   0.484  -0.574  0.00  0.00    -0.081 A 
ATOM      2  C3  UNL d   1      -0.096  -0.663  -1.232  0.00  0.00     0.006 A 
ATOM      3  C4  UNL d   1       1.061  -1.313  -0.795  0.00  0.00     0.002 A 
ATOM      4  C5  UNL d   1       1.771  -0.832   0.310  0.00  0.00    -0.080 A 
ATOM      5  C6  UNL d   1       2.997  -1.538   0.807  0.00  0.00     0.076 C 
ATOM      6  C7  UNL d   1       1.320   0.324   0.956  0.00  0.00     0.002 A 
ATOM      7  C8  UNL d   1       0.164   0.975   0.520  0.00  0.00     0.006 A 
ENDROOT
BRANCH   1   8
ATOM      8  C1  UNL d   1      -1.840   1.150  -1.002  0.00  0.00     0.054 C 
ATOM      9  C   UNL d   1      -3.051   0.470  -0.379  0.00  0.00     0.018 C 
ENDBRANCH   1   8
TORSDOF 1
ENDMDL
