MODEL 1
REMARK minimizedAffinity -3.66070604
REMARK minimizedRMSD -1
REMARK  0 active torsions:
REMARK  status: ('A' for Active; 'I' for Inactive)
ROOT
ATOM      1  C1  DEN d   1       2.387   1.097   0.730  0.00  0.00     0.130 A 
ATOM      2  C2  DEN d   1       2.785  -0.307   0.676  0.00  0.00    -0.031 A 
ATOM      3  C3  DEN d   1       1.585  -1.110   0.366  0.00  0.00     0.027 A 
ATOM      4  C4  DEN d   1      -0.836  -0.319  -0.040  0.00  0.00     0.027 A 
ATOM      5  C5  DEN d   1      -1.665   0.780  -0.088  0.00  0.00    -0.003 A 
ATOM      6  C6  DEN d   1      -1.212   2.048   0.164  0.00  0.00     0.001 A 
ATOM      7  C7  DEN d   1       0.116   2.253   0.432  0.00  0.00     0.017 A 
ATOM      8  C8  DEN d   1       0.956   1.149   0.490  0.00  0.00    -0.094 A 
ATOM      9  C9  DEN d   1       0.481  -0.123   0.220  0.00  0.00    -0.072 A 
ENDROOT
TORSDOF 0
ENDMDL
