MODEL 1
REMARK minimizedAffinity -4.19013119
REMARK minimizedRMSD -1
REMARK  0 active torsions:
REMARK  status: ('A' for Active; 'I' for Inactive)
ROOT
ATOM      1  C1  DEN d   1       2.780  -1.214   0.489  0.00  0.00     0.130 A 
ATOM      2  C2  DEN d   1       3.546  -0.013   0.810  0.00  0.00    -0.031 A 
ATOM      3  C3  DEN d   1       2.612   1.131   0.834  0.00  0.00     0.027 A 
ATOM      4  C4  DEN d   1       0.068   1.158   0.410  0.00  0.00     0.027 A 
ATOM      5  C5  DEN d   1      -1.025   0.384   0.090  0.00  0.00    -0.003 A 
ATOM      6  C6  DEN d   1      -0.921  -0.961  -0.152  0.00  0.00     0.001 A 
ATOM      7  C7  DEN d   1       0.294  -1.580  -0.032  0.00  0.00     0.017 A 
ATOM      8  C8  DEN d   1       1.402  -0.805   0.283  0.00  0.00    -0.094 A 
ATOM      9  C9  DEN d   1       1.275   0.550   0.536  0.00  0.00    -0.072 A 
ENDROOT
TORSDOF 0
ENDMDL
