MODEL 1
REMARK minimizedAffinity -1.6020577
REMARK minimizedRMSD -1
REMARK  0 active torsions:
REMARK  status: ('A' for Active; 'I' for Inactive)
ROOT
ATOM      1  C1  DEN d   1      -1.513  -0.029  -3.271  0.00  0.00     0.130 A 
ATOM      2  C2  DEN d   1      -2.964   0.086  -3.158  0.00  0.00    -0.031 A 
ATOM      3  C3  DEN d   1      -3.302   0.209  -1.725  0.00  0.00     0.027 A 
ATOM      4  C4  DEN d   1      -1.726   0.238   0.316  0.00  0.00     0.027 A 
ATOM      5  C5  DEN d   1      -0.412   0.157   0.721  0.00  0.00    -0.003 A 
ATOM      6  C6  DEN d   1       0.616  -0.023  -0.166  0.00  0.00     0.001 A 
ATOM      7  C7  DEN d   1       0.351  -0.084  -1.509  0.00  0.00     0.017 A 
ATOM      8  C8  DEN d   1      -0.972  -0.012  -1.924  0.00  0.00    -0.094 A 
ATOM      9  C9  DEN d   1      -1.996   0.183  -1.013  0.00  0.00    -0.072 A 
ENDROOT
TORSDOF 0
ENDMDL
