MODEL 1
REMARK minimizedAffinity -2.81887126
REMARK minimizedRMSD -1
REMARK  0 active torsions:
REMARK  status: ('A' for Active; 'I' for Inactive)
ROOT
ATOM      1  C1  DEN d   1       2.323   0.079   0.326  0.00  0.00     0.130 A 
ATOM      2  C2  DEN d   1       3.042  -1.148   0.657  0.00  0.00    -0.031 A 
ATOM      3  C3  DEN d   1       2.062  -2.130   1.162  0.00  0.00     0.027 A 
ATOM      4  C4  DEN d   1      -0.487  -1.874   1.457  0.00  0.00     0.027 A 
ATOM      5  C5  DEN d   1      -1.551  -1.010   1.322  0.00  0.00    -0.003 A 
ATOM      6  C6  DEN d   1      -1.396   0.277   0.882  0.00  0.00     0.001 A 
ATOM      7  C7  DEN d   1      -0.153   0.724   0.517  0.00  0.00     0.017 A 
ATOM      8  C8  DEN d   1       0.926  -0.138   0.657  0.00  0.00    -0.094 A 
ATOM      9  C9  DEN d   1       0.746  -1.440   1.093  0.00  0.00    -0.072 A 
ENDROOT
TORSDOF 0
ENDMDL
