MODEL 1
REMARK minimizedAffinity -2.5139482
REMARK minimizedRMSD -1
REMARK  0 active torsions:
REMARK  status: ('A' for Active; 'I' for Inactive)
ROOT
ATOM      1  C1  DEN d   1      -1.271  -0.631   1.239  0.00  0.00     0.130 A 
ATOM      2  C2  DEN d   1      -0.748  -1.879   1.787  0.00  0.00    -0.031 A 
ATOM      3  C3  DEN d   1       0.725  -1.840   1.685  0.00  0.00     0.027 A 
ATOM      4  C4  DEN d   1       2.237   0.023   0.740  0.00  0.00     0.027 A 
ATOM      5  C5  DEN d   1       2.250   1.268   0.151  0.00  0.00    -0.003 A 
ATOM      6  C6  DEN d   1       1.098   1.947  -0.146  0.00  0.00     0.001 A 
ATOM      7  C7  DEN d   1      -0.115   1.404   0.188  0.00  0.00     0.017 A 
ATOM      8  C8  DEN d   1      -0.136   0.146   0.775  0.00  0.00    -0.094 A 
ATOM      9  C9  DEN d   1       1.040  -0.519   1.078  0.00  0.00    -0.072 A 
ENDROOT
TORSDOF 0
ENDMDL
