MODEL 1
REMARK minimizedAffinity 11.2154751
REMARK minimizedRMSD -1
REMARK  0 active torsions:
REMARK  status: ('A' for Active; 'I' for Inactive)
ROOT
ATOM      1  N1  IND d   1       2.595  -2.207   0.005  0.00  0.00    -0.196 N 
ATOM      2  C2  IND d   1       1.585  -1.743   0.801  0.00  0.00     0.054 A 
ATOM      3  C3  IND d   1       1.635  -2.334   2.016  0.00  0.00    -0.031 A 
ATOM      4  C4  IND d   1       3.348  -4.015   2.948  0.00  0.00     0.051 A 
ATOM      5  C5  IND d   1       4.431  -4.764   2.582  0.00  0.00    -0.031 A 
ATOM      6  C6  IND d   1       4.970  -4.695   1.313  0.00  0.00     0.015 A 
ATOM      7  C7  IND d   1       4.451  -3.863   0.363  0.00  0.00    -0.016 A 
ATOM      8  C8  IND d   1       3.347  -3.106   0.729  0.00  0.00    -0.047 A 
ATOM      9  C9  IND d   1       2.769  -3.203   2.001  0.00  0.00    -0.096 A 
ATOM     10  HN1 IND d   1       2.737  -1.975  -0.811  0.00  0.00     0.298 HD
ENDROOT
TORSDOF 0
ENDMDL
