MODEL 1
REMARK minimizedAffinity 0.378085226
REMARK minimizedRMSD -1
REMARK  0 active torsions:
REMARK  status: ('A' for Active; 'I' for Inactive)
ROOT
ATOM      1  N1  IND d   1      -2.896  -1.671  -4.120  0.00  0.00    -0.196 N 
ATOM      2  C2  IND d   1      -1.946  -1.510  -5.091  0.00  0.00     0.054 A 
ATOM      3  C3  IND d   1      -2.337  -0.571  -5.981  0.00  0.00    -0.031 A 
ATOM      4  C4  IND d   1      -4.449   0.901  -5.983  0.00  0.00     0.051 A 
ATOM      5  C5  IND d   1      -5.629   1.093  -5.321  0.00  0.00    -0.031 A 
ATOM      6  C6  IND d   1      -5.964   0.361  -4.200  0.00  0.00     0.015 A 
ATOM      7  C7  IND d   1      -5.122  -0.587  -3.691  0.00  0.00    -0.016 A 
ATOM      8  C8  IND d   1      -3.926  -0.790  -4.365  0.00  0.00    -0.047 A 
ATOM      9  C9  IND d   1      -3.600  -0.080  -5.528  0.00  0.00    -0.096 A 
ATOM     10  HN1 IND d   1      -2.856  -2.229  -3.467  0.00  0.00     0.298 HD
ENDROOT
TORSDOF 0
ENDMDL
