MODEL 1
REMARK minimizedAffinity 0.823824704
REMARK minimizedRMSD -1
REMARK  0 active torsions:
REMARK  status: ('A' for Active; 'I' for Inactive)
ROOT
ATOM      1  N1  IND d   1      -4.410  -1.410  -3.799  0.00  0.00    -0.196 N 
ATOM      2  C2  IND d   1      -4.075  -1.574  -2.484  0.00  0.00     0.054 A 
ATOM      3  C3  IND d   1      -3.646  -0.404  -1.959  0.00  0.00    -0.031 A 
ATOM      4  C4  IND d   1      -3.508   1.925  -3.048  0.00  0.00     0.051 A 
ATOM      5  C5  IND d   1      -3.671   2.566  -4.244  0.00  0.00    -0.031 A 
ATOM      6  C6  IND d   1      -4.100   1.901  -5.375  0.00  0.00     0.015 A 
ATOM      7  C7  IND d   1      -4.394   0.567  -5.349  0.00  0.00    -0.016 A 
ATOM      8  C8  IND d   1      -4.223  -0.088  -4.138  0.00  0.00    -0.047 A 
ATOM      9  C9  IND d   1      -3.747   0.571  -2.998  0.00  0.00    -0.096 A 
ATOM     10  HN1 IND d   1      -4.690  -2.030  -4.326  0.00  0.00     0.298 HD
ENDROOT
TORSDOF 0
ENDMDL
