MODEL 1
REMARK minimizedAffinity 4.30787134
REMARK minimizedRMSD -1
REMARK  0 active torsions:
REMARK  status: ('A' for Active; 'I' for Inactive)
ROOT
ATOM      1  N1  IND d   1      -2.398  -1.482  -3.571  0.00  0.00    -0.196 N 
ATOM      2  C2  IND d   1      -1.910  -2.082  -4.698  0.00  0.00     0.054 A 
ATOM      3  C3  IND d   1      -2.215  -1.348  -5.792  0.00  0.00    -0.031 A 
ATOM      4  C4  IND d   1      -3.419   0.922  -5.954  0.00  0.00     0.051 A 
ATOM      5  C5  IND d   1      -4.081   1.846  -5.196  0.00  0.00    -0.031 A 
ATOM      6  C6  IND d   1      -4.217   1.707  -3.829  0.00  0.00     0.015 A 
ATOM      7  C7  IND d   1      -3.683   0.639  -3.166  0.00  0.00    -0.016 A 
ATOM      8  C8  IND d   1      -3.016  -0.305  -3.933  0.00  0.00    -0.047 A 
ATOM      9  C9  IND d   1      -2.912  -0.191  -5.325  0.00  0.00    -0.096 A 
ATOM     10  HN1 IND d   1      -2.331  -1.789  -2.770  0.00  0.00     0.298 HD
ENDROOT
TORSDOF 0
ENDMDL
