MODEL 1
REMARK minimizedAffinity -0.804308414
REMARK minimizedRMSD -1
REMARK  0 active torsions:
REMARK  status: ('A' for Active; 'I' for Inactive)
ROOT
ATOM      1  N1  IND d   1      -3.225  -1.563  -3.480  0.00  0.00    -0.196 N 
ATOM      2  C2  IND d   1      -2.121  -1.695  -4.275  0.00  0.00     0.054 A 
ATOM      3  C3  IND d   1      -2.224  -0.893  -5.359  0.00  0.00    -0.031 A 
ATOM      4  C4  IND d   1      -4.070   0.792  -5.978  0.00  0.00     0.051 A 
ATOM      5  C5  IND d   1      -5.298   1.239  -5.578  0.00  0.00    -0.031 A 
ATOM      6  C6  IND d   1      -5.909   0.767  -4.434  0.00  0.00     0.015 A 
ATOM      7  C7  IND d   1      -5.306  -0.165  -3.637  0.00  0.00    -0.016 A 
ATOM      8  C8  IND d   1      -4.062  -0.626  -4.044  0.00  0.00    -0.047 A 
ATOM      9  C9  IND d   1      -3.456  -0.183  -5.226  0.00  0.00    -0.096 A 
ATOM     10  HN1 IND d   1      -3.371  -1.993  -2.750  0.00  0.00     0.298 HD
ENDROOT
TORSDOF 0
ENDMDL
