MODEL 1
REMARK minimizedAffinity 0.299526572
REMARK minimizedRMSD -1
REMARK  0 active torsions:
REMARK  status: ('A' for Active; 'I' for Inactive)
ROOT
ATOM      1  N1  IND d   1       5.598  -3.253   1.958  0.00  0.00    -0.196 N 
ATOM      2  C2  IND d   1       5.183  -4.494   1.563  0.00  0.00     0.054 A 
ATOM      3  C3  IND d   1       4.942  -5.275   2.640  0.00  0.00    -0.031 A 
ATOM      4  C4  IND d   1       5.063  -4.690   5.144  0.00  0.00     0.051 A 
ATOM      5  C5  IND d   1       5.429  -3.689   6.000  0.00  0.00    -0.031 A 
ATOM      6  C6  IND d   1       5.876  -2.466   5.543  0.00  0.00     0.015 A 
ATOM      7  C7  IND d   1       5.964  -2.194   4.207  0.00  0.00    -0.016 A 
ATOM      8  C8  IND d   1       5.600  -3.210   3.335  0.00  0.00    -0.047 A 
ATOM      9  C9  IND d   1       5.186  -4.468   3.793  0.00  0.00    -0.096 A 
ATOM     10  HN1 IND d   1       5.821  -2.608   1.435  0.00  0.00     0.298 HD
ENDROOT
TORSDOF 0
ENDMDL
