MODEL 1
REMARK minimizedAffinity 3.42707133
REMARK minimizedRMSD -1
REMARK  0 active torsions:
REMARK  status: ('A' for Active; 'I' for Inactive)
ROOT
ATOM      1  N1  IND d   1      -5.833   0.371  -4.470  0.00  0.00    -0.196 N 
ATOM      2  C2  IND d   1      -6.000   1.370  -5.387  0.00  0.00     0.054 A 
ATOM      3  C3  IND d   1      -4.827   1.647  -6.000  0.00  0.00    -0.031 A 
ATOM      4  C4  IND d   1      -2.531   0.514  -5.725  0.00  0.00     0.051 A 
ATOM      5  C5  IND d   1      -1.876  -0.424  -4.979  0.00  0.00    -0.031 A 
ATOM      6  C6  IND d   1      -2.519  -1.162  -4.007  0.00  0.00     0.015 A 
ATOM      7  C7  IND d   1      -3.851  -0.997  -3.751  0.00  0.00    -0.016 A 
ATOM      8  C8  IND d   1      -4.519  -0.040  -4.503  0.00  0.00    -0.047 A 
ATOM      9  C9  IND d   1      -3.861   0.742  -5.461  0.00  0.00    -0.096 A 
ATOM     10  HN1 IND d   1      -6.446   0.052  -3.958  0.00  0.00     0.298 HD
ENDROOT
TORSDOF 0
ENDMDL
