MODEL 1
REMARK minimizedAffinity 6.35841417
REMARK minimizedRMSD -1
REMARK  1 active torsions:
REMARK  status: ('A' for Active; 'I' for Inactive)
REMARK    1  A    between atoms: C1_2  and  C2_3 
ROOT
ATOM      1  C2  UNL d   1      -2.041  -2.555  -1.716  0.00  0.00    -0.081 A 
ATOM      2  C3  UNL d   1      -2.090  -3.662  -2.572  0.00  0.00     0.006 A 
ATOM      3  C4  UNL d   1      -1.826  -3.515  -3.935  0.00  0.00     0.002 A 
ATOM      4  C5  UNL d   1      -1.501  -2.261  -4.464  0.00  0.00    -0.080 A 
ATOM      5  C6  UNL d   1      -1.185  -2.095  -5.921  0.00  0.00     0.076 C 
ATOM      6  C7  UNL d   1      -1.469  -1.152  -3.613  0.00  0.00     0.002 A 
ATOM      7  C8  UNL d   1      -1.734  -1.298  -2.249  0.00  0.00     0.006 A 
ENDROOT
BRANCH   1   8
ATOM      8  C1  UNL d   1      -2.263  -2.721  -0.234  0.00  0.00     0.054 C 
ATOM      9  C   UNL d   1      -0.949  -2.953   0.499  0.00  0.00     0.018 C 
ENDBRANCH   1   8
TORSDOF 1
ENDMDL
