MODEL 1
REMARK minimizedAffinity 1.87581539
REMARK minimizedRMSD -1
REMARK  1 active torsions:
REMARK  status: ('A' for Active; 'I' for Inactive)
REMARK    1  A    between atoms: C1_2  and  C2_3 
ROOT
ATOM      1  C2  UNL d   1      -1.425  -3.215  -0.592  0.00  0.00    -0.081 A 
ATOM      2  C3  UNL d   1      -0.144  -3.503  -1.077  0.00  0.00     0.006 A 
ATOM      3  C4  UNL d   1       0.134  -3.413  -2.443  0.00  0.00     0.002 A 
ATOM      4  C5  UNL d   1      -0.862  -3.026  -3.346  0.00  0.00    -0.080 A 
ATOM      5  C6  UNL d   1      -0.570  -2.896  -4.811  0.00  0.00     0.076 C 
ATOM      6  C7  UNL d   1      -2.147  -2.754  -2.864  0.00  0.00     0.002 A 
ATOM      7  C8  UNL d   1      -2.426  -2.845  -1.498  0.00  0.00     0.006 A 
ENDROOT
BRANCH   1   8
ATOM      8  C1  UNL d   1      -1.710  -3.248   0.888  0.00  0.00     0.054 C 
ATOM      9  C   UNL d   1      -1.375  -1.917   1.546  0.00  0.00     0.018 C 
ENDBRANCH   1   8
TORSDOF 1
ENDMDL
