MODEL 1
REMARK minimizedAffinity 11.6380825
REMARK minimizedRMSD -1
REMARK  1 active torsions:
REMARK  status: ('A' for Active; 'I' for Inactive)
REMARK    1  A    between atoms: C1_2  and  C2_3 
ROOT
ATOM      1  C2  UNL d   1       4.157   1.268  -2.809  0.00  0.00    -0.081 A 
ATOM      2  C3  UNL d   1       4.804   0.274  -2.064  0.00  0.00     0.006 A 
ATOM      3  C4  UNL d   1       4.448   0.042  -0.733  0.00  0.00     0.002 A 
ATOM      4  C5  UNL d   1       3.435   0.793  -0.128  0.00  0.00    -0.080 A 
ATOM      5  C6  UNL d   1       3.022   0.534   1.290  0.00  0.00     0.076 C 
ATOM      6  C7  UNL d   1       2.801   1.798  -0.867  0.00  0.00     0.002 A 
ATOM      7  C8  UNL d   1       3.157   2.031  -2.197  0.00  0.00     0.006 A 
ENDROOT
BRANCH   1   8
ATOM      8  C1  UNL d   1       4.495   1.477  -4.263  0.00  0.00     0.054 C 
ATOM      9  C   UNL d   1       6.000   1.469  -4.489  0.00  0.00     0.018 C 
ENDBRANCH   1   8
TORSDOF 1
ENDMDL
