MODEL 1
REMARK minimizedAffinity 1.74744892
REMARK minimizedRMSD -1
REMARK  1 active torsions:
REMARK  status: ('A' for Active; 'I' for Inactive)
REMARK    1  A    between atoms: C1_2  and  C2_3 
ROOT
ATOM      1  C2  UNL d   1      -1.578  -3.407   0.138  0.00  0.00    -0.081 A 
ATOM      2  C3  UNL d   1      -2.725  -3.199  -0.638  0.00  0.00     0.006 A 
ATOM      3  C4  UNL d   1      -2.615  -2.831  -1.981  0.00  0.00     0.002 A 
ATOM      4  C5  UNL d   1      -1.357  -2.674  -2.572  0.00  0.00    -0.080 A 
ATOM      5  C6  UNL d   1      -1.225  -2.309  -4.021  0.00  0.00     0.076 C 
ATOM      6  C7  UNL d   1      -0.211  -2.865  -1.793  0.00  0.00     0.002 A 
ATOM      7  C8  UNL d   1      -0.321  -3.232  -0.450  0.00  0.00     0.006 A 
ENDROOT
BRANCH   1   8
ATOM      8  C1  UNL d   1      -1.694  -3.867   1.569  0.00  0.00     0.054 C 
ATOM      9  C   UNL d   1      -1.751  -5.385   1.659  0.00  0.00     0.018 C 
ENDBRANCH   1   8
TORSDOF 1
ENDMDL
