MODEL 1
REMARK minimizedAffinity 5.64818716
REMARK minimizedRMSD -1
REMARK  1 active torsions:
REMARK  status: ('A' for Active; 'I' for Inactive)
REMARK    1  A    between atoms: C1_2  and  C2_3 
ROOT
ATOM      1  C2  UNL d   1       2.545   0.735   1.965  0.00  0.00    -0.081 A 
ATOM      2  C3  UNL d   1       3.551   0.199   2.778  0.00  0.00     0.006 A 
ATOM      3  C4  UNL d   1       4.665  -0.424   2.210  0.00  0.00     0.002 A 
ATOM      4  C5  UNL d   1       4.795  -0.514   0.820  0.00  0.00    -0.080 A 
ATOM      5  C6  UNL d   1       6.000  -1.154   0.196  0.00  0.00     0.076 C 
ATOM      6  C7  UNL d   1       3.781   0.006   0.007  0.00  0.00     0.002 A 
ATOM      7  C8  UNL d   1       2.668   0.628   0.575  0.00  0.00     0.006 A 
ENDROOT
BRANCH   1   8
ATOM      8  C1  UNL d   1       1.375   1.465   2.574  0.00  0.00     0.054 C 
ATOM      9  C   UNL d   1       1.125   1.013   4.005  0.00  0.00     0.018 C 
ENDBRANCH   1   8
TORSDOF 1
ENDMDL
