MODEL 1
REMARK minimizedAffinity 2.79139876
REMARK minimizedRMSD -1
REMARK  1 active torsions:
REMARK  status: ('A' for Active; 'I' for Inactive)
REMARK    1  A    between atoms: C1_2  and  C2_3 
ROOT
ATOM      1  C2  UNL d   1      -1.128  -3.251  -0.363  0.00  0.00    -0.081 A 
ATOM      2  C3  UNL d   1       0.036  -3.742  -0.967  0.00  0.00     0.006 A 
ATOM      3  C4  UNL d   1       0.197  -3.675  -2.353  0.00  0.00     0.002 A 
ATOM      4  C5  UNL d   1      -0.799  -3.109  -3.157  0.00  0.00    -0.080 A 
ATOM      5  C6  UNL d   1      -0.625  -3.004  -4.643  0.00  0.00     0.076 C 
ATOM      6  C7  UNL d   1      -1.969  -2.635  -2.555  0.00  0.00     0.002 A 
ATOM      7  C8  UNL d   1      -2.131  -2.702  -1.169  0.00  0.00     0.006 A 
ENDROOT
BRANCH   1   8
ATOM      8  C1  UNL d   1      -1.277  -3.263   1.137  0.00  0.00     0.054 C 
ATOM      9  C   UNL d   1      -1.337  -4.685   1.676  0.00  0.00     0.018 C 
ENDBRANCH   1   8
TORSDOF 1
ENDMDL
