MODEL 1
REMARK minimizedAffinity 5.28971004
REMARK minimizedRMSD -1
REMARK  1 active torsions:
REMARK  status: ('A' for Active; 'I' for Inactive)
REMARK    1  A    between atoms: C1_2  and  C2_3 
ROOT
ATOM      1  C2  UNL d   1      -3.199  -4.474   0.153  0.00  0.00    -0.081 A 
ATOM      2  C3  UNL d   1      -3.926  -4.501  -1.043  0.00  0.00     0.006 A 
ATOM      3  C4  UNL d   1      -3.631  -3.603  -2.071  0.00  0.00     0.002 A 
ATOM      4  C5  UNL d   1      -2.599  -2.670  -1.924  0.00  0.00    -0.080 A 
ATOM      5  C6  UNL d   1      -2.252  -1.720  -3.032  0.00  0.00     0.076 C 
ATOM      6  C7  UNL d   1      -1.884  -2.632  -0.723  0.00  0.00     0.002 A 
ATOM      7  C8  UNL d   1      -2.179  -3.529   0.306  0.00  0.00     0.006 A 
ENDROOT
BRANCH   1   8
ATOM      8  C1  UNL d   1      -3.472  -5.484   1.239  0.00  0.00     0.054 C 
ATOM      9  C   UNL d   1      -4.902  -6.000   1.167  0.00  0.00     0.018 C 
ENDBRANCH   1   8
TORSDOF 1
ENDMDL
