MODEL 1
REMARK minimizedAffinity -0.256391943
REMARK minimizedRMSD -1
REMARK  1 active torsions:
REMARK  status: ('A' for Active; 'I' for Inactive)
REMARK    1  A    between atoms: C1_2  and  C2_3 
ROOT
ATOM      1  C2  UNL d   1      -1.643  -3.028  -1.800  0.00  0.00    -0.081 A 
ATOM      2  C3  UNL d   1      -1.610  -4.045  -2.761  0.00  0.00     0.006 A 
ATOM      3  C4  UNL d   1      -1.563  -3.733  -4.122  0.00  0.00     0.002 A 
ATOM      4  C5  UNL d   1      -1.540  -2.399  -4.543  0.00  0.00    -0.080 A 
ATOM      5  C6  UNL d   1      -1.458  -2.049  -6.000  0.00  0.00     0.076 C 
ATOM      6  C7  UNL d   1      -1.590  -1.382  -3.583  0.00  0.00     0.002 A 
ATOM      7  C8  UNL d   1      -1.638  -1.694  -2.223  0.00  0.00     0.006 A 
ENDROOT
BRANCH   1   8
ATOM      8  C1  UNL d   1      -1.629  -3.362  -0.330  0.00  0.00     0.054 C 
ATOM      9  C   UNL d   1      -0.208  -3.399   0.215  0.00  0.00     0.018 C 
ENDBRANCH   1   8
TORSDOF 1
ENDMDL
