MODEL 1
REMARK minimizedAffinity 2.89920211
REMARK minimizedRMSD -1
REMARK  1 active torsions:
REMARK  status: ('A' for Active; 'I' for Inactive)
REMARK    1  A    between atoms: C1_2  and  C2_3 
ROOT
ATOM      1  C2  UNL d   1       2.726   1.458  -0.979  0.00  0.00    -0.081 A 
ATOM      2  C3  UNL d   1       3.647   0.404  -1.029  0.00  0.00     0.006 A 
ATOM      3  C4  UNL d   1       3.970  -0.310   0.127  0.00  0.00     0.002 A 
ATOM      4  C5  UNL d   1       3.371   0.011   1.350  0.00  0.00    -0.080 A 
ATOM      5  C6  UNL d   1       3.686  -0.768   2.592  0.00  0.00     0.076 C 
ATOM      6  C7  UNL d   1       2.464   1.075   1.404  0.00  0.00     0.002 A 
ATOM      7  C8  UNL d   1       2.142   1.790   0.248  0.00  0.00     0.006 A 
ENDROOT
BRANCH   1   8
ATOM      8  C1  UNL d   1       2.327   2.188  -2.236  0.00  0.00     0.054 C 
ATOM      9  C   UNL d   1       0.816   2.335  -2.334  0.00  0.00     0.018 C 
ENDBRANCH   1   8
TORSDOF 1
ENDMDL
