MODEL 1
REMARK minimizedAffinity 9.30421734
REMARK minimizedRMSD -1
REMARK  1 active torsions:
REMARK  status: ('A' for Active; 'I' for Inactive)
REMARK    1  A    between atoms: C1_2  and  C2_3 
ROOT
ATOM      1  C2  UNL d   1       2.472   0.639   1.268  0.00  0.00    -0.081 A 
ATOM      2  C3  UNL d   1       3.754   0.209   0.908  0.00  0.00     0.006 A 
ATOM      3  C4  UNL d   1       4.155   0.217  -0.431  0.00  0.00     0.002 A 
ATOM      4  C5  UNL d   1       3.283   0.663  -1.430  0.00  0.00    -0.080 A 
ATOM      5  C6  UNL d   1       3.711   0.706  -2.866  0.00  0.00     0.076 C 
ATOM      6  C7  UNL d   1       1.995   1.077  -1.072  0.00  0.00     0.002 A 
ATOM      7  C8  UNL d   1       1.594   1.068   0.266  0.00  0.00     0.006 A 
ENDROOT
BRANCH   1   8
ATOM      8  C1  UNL d   1       2.059   0.693   2.717  0.00  0.00     0.054 C 
ATOM      9  C   UNL d   1       0.793   1.517   2.902  0.00  0.00     0.018 C 
ENDBRANCH   1   8
TORSDOF 1
ENDMDL
