MODEL 1
REMARK minimizedAffinity 12.5901327
REMARK minimizedRMSD -1
REMARK  1 active torsions:
REMARK  status: ('A' for Active; 'I' for Inactive)
REMARK    1  A    between atoms: C1_2  and  C2_3 
ROOT
ATOM      1  C2  UNL d   1       0.979  -1.334   0.282  0.00  0.00    -0.081 A 
ATOM      2  C3  UNL d   1       1.520  -2.139  -0.728  0.00  0.00     0.006 A 
ATOM      3  C4  UNL d   1       0.724  -3.077  -1.389  0.00  0.00     0.002 A 
ATOM      4  C5  UNL d   1      -0.628  -3.220  -1.057  0.00  0.00    -0.080 A 
ATOM      5  C6  UNL d   1      -1.501  -4.202  -1.780  0.00  0.00     0.076 C 
ATOM      6  C7  UNL d   1      -1.164  -2.428  -0.037  0.00  0.00     0.002 A 
ATOM      7  C8  UNL d   1      -0.368  -1.490   0.625  0.00  0.00     0.006 A 
ENDROOT
BRANCH   1   8
ATOM      8  C1  UNL d   1       1.819  -0.276   0.951  0.00  0.00     0.054 C 
ATOM      9  C   UNL d   1       2.948   0.190   0.044  0.00  0.00     0.018 C 
ENDBRANCH   1   8
TORSDOF 1
ENDMDL
