MODEL 1
REMARK minimizedAffinity -0.314715326
REMARK minimizedRMSD -1
REMARK  1 active torsions:
REMARK  status: ('A' for Active; 'I' for Inactive)
REMARK    1  A    between atoms: C1_2  and  C2_3 
ROOT
ATOM      1  C2  UNL d   1       2.303   0.686   2.221  0.00  0.00    -0.081 A 
ATOM      2  C3  UNL d   1       3.338  -0.174   2.607  0.00  0.00     0.006 A 
ATOM      3  C4  UNL d   1       4.528  -0.222   1.877  0.00  0.00     0.002 A 
ATOM      4  C5  UNL d   1       4.706   0.594   0.754  0.00  0.00    -0.080 A 
ATOM      5  C6  UNL d   1       5.990   0.574  -0.020  0.00  0.00     0.076 C 
ATOM      6  C7  UNL d   1       3.665   1.440   0.358  0.00  0.00     0.002 A 
ATOM      7  C8  UNL d   1       2.475   1.489   1.087  0.00  0.00     0.006 A 
ENDROOT
BRANCH   1   8
ATOM      8  C1  UNL d   1       1.044   0.788   3.043  0.00  0.00     0.054 C 
ATOM      9  C   UNL d   1       1.302   0.423   4.498  0.00  0.00     0.018 C 
ENDBRANCH   1   8
TORSDOF 1
ENDMDL
