MODEL 1
REMARK minimizedAffinity 3.14132738
REMARK minimizedRMSD -1
REMARK  1 active torsions:
REMARK  status: ('A' for Active; 'I' for Inactive)
REMARK    1  A    between atoms: C1_2  and  C2_3 
ROOT
ATOM      1  C2  UNL d   1       1.890   1.118   2.436  0.00  0.00    -0.081 A 
ATOM      2  C3  UNL d   1       1.963   1.450   1.078  0.00  0.00     0.006 A 
ATOM      3  C4  UNL d   1       2.995   0.951   0.281  0.00  0.00     0.002 A 
ATOM      4  C5  UNL d   1       3.967   0.105   0.826  0.00  0.00    -0.080 A 
ATOM      5  C6  UNL d   1       5.064  -0.462  -0.025  0.00  0.00     0.076 C 
ATOM      6  C7  UNL d   1       3.905  -0.213   2.187  0.00  0.00     0.002 A 
ATOM      7  C8  UNL d   1       2.873   0.286   2.984  0.00  0.00     0.006 A 
ENDROOT
BRANCH   1   8
ATOM      8  C1  UNL d   1       0.741   1.603   3.283  0.00  0.00     0.054 C 
ATOM      9  C   UNL d   1       0.851   1.087   4.711  0.00  0.00     0.018 C 
ENDBRANCH   1   8
TORSDOF 1
ENDMDL
