MODEL 1
REMARK minimizedAffinity 6.60509539
REMARK minimizedRMSD -1
REMARK  0 active torsions:
REMARK  status: ('A' for Active; 'I' for Inactive)
ROOT
ATOM      1  C   UNL d   1       0.090  -1.794  -0.429  0.00  0.00     0.020 A 
ATOM      2  C1  UNL d   1      -0.754  -0.761  -0.020  0.00  0.00     0.020 A 
ATOM      3  C2  UNL d   1      -0.252   0.533   0.128  0.00  0.00     0.034 A 
ATOM      4  C3  UNL d   1       1.098   0.799  -0.133  0.00  0.00     0.017 A 
ATOM      5  C4  UNL d   1       1.943  -0.238  -0.544  0.00  0.00     0.017 A 
ATOM      6  C5  UNL d   1       1.435  -1.532  -0.690  0.00  0.00     0.034 A 
ATOM      7 Cl   UNL d   1       3.619   0.013  -0.885  0.00  0.00    -0.070 Cl
ATOM      8 Cl1  UNL d   1       1.650   2.424   0.070  0.00  0.00    -0.070 Cl
ENDROOT
TORSDOF 0
ENDMDL
