MODEL 1
REMARK minimizedAffinity 5.13608646
REMARK minimizedRMSD -1
REMARK  0 active torsions:
REMARK  status: ('A' for Active; 'I' for Inactive)
ROOT
ATOM      1  C   UNL d   1      -2.051  -4.972   5.967  0.00  0.00     0.020 A 
ATOM      2  C1  UNL d   1      -1.106  -5.997   5.927  0.00  0.00     0.020 A 
ATOM      3  C2  UNL d   1       0.256  -5.691   5.905  0.00  0.00     0.034 A 
ATOM      4  C3  UNL d   1       0.678  -4.356   5.923  0.00  0.00     0.017 A 
ATOM      5  C4  UNL d   1      -0.271  -3.328   5.963  0.00  0.00     0.017 A 
ATOM      6  C5  UNL d   1      -1.634  -3.641   5.985  0.00  0.00     0.034 A 
ATOM      7 Cl   UNL d   1       0.173  -1.658   5.987  0.00  0.00    -0.070 Cl
ATOM      8 Cl1  UNL d   1       2.378  -4.051   5.894  0.00  0.00    -0.070 Cl
ENDROOT
TORSDOF 0
ENDMDL
