MODEL 1
REMARK minimizedAffinity 0.583227992
REMARK minimizedRMSD -1
REMARK  0 active torsions:
REMARK  status: ('A' for Active; 'I' for Inactive)
ROOT
ATOM      1  C   UNL d   1       2.642  -2.712  -0.766  0.00  0.00     0.020 A 
ATOM      2  C1  UNL d   1       1.269  -2.575  -0.571  0.00  0.00     0.020 A 
ATOM      3  C2  UNL d   1       0.718  -1.312  -0.347  0.00  0.00     0.034 A 
ATOM      4  C3  UNL d   1       1.541  -0.180  -0.317  0.00  0.00     0.017 A 
ATOM      5  C4  UNL d   1       2.920  -0.319  -0.513  0.00  0.00     0.017 A 
ATOM      6  C5  UNL d   1       3.466  -1.586  -0.737  0.00  0.00     0.034 A 
ATOM      7 Cl   UNL d   1       4.000   1.031  -0.491  0.00  0.00    -0.070 Cl
ATOM      8 Cl1  UNL d   1       0.792   1.351  -0.035  0.00  0.00    -0.070 Cl
ENDROOT
TORSDOF 0
ENDMDL
