MODEL 1
REMARK minimizedAffinity 7.93257713
REMARK minimizedRMSD -1
REMARK  0 active torsions:
REMARK  status: ('A' for Active; 'I' for Inactive)
ROOT
ATOM      1  C   UNL d   1       1.385  -0.621   1.221  0.00  0.00     0.020 A 
ATOM      2  C1  UNL d   1       2.037  -0.902   0.021  0.00  0.00     0.020 A 
ATOM      3  C2  UNL d   1       1.300  -1.288  -1.101  0.00  0.00     0.034 A 
ATOM      4  C3  UNL d   1      -0.094  -1.394  -1.025  0.00  0.00     0.017 A 
ATOM      5  C4  UNL d   1      -0.748  -1.112   0.180  0.00  0.00     0.017 A 
ATOM      6  C5  UNL d   1      -0.005  -0.726   1.300  0.00  0.00     0.034 A 
ATOM      7 Cl   UNL d   1      -2.464  -1.221   0.351  0.00  0.00    -0.070 Cl
ATOM      8 Cl1  UNL d   1      -0.942  -1.877  -2.451  0.00  0.00    -0.070 Cl
ENDROOT
TORSDOF 0
ENDMDL
