MODEL 1
REMARK minimizedAffinity 4.89152479
REMARK minimizedRMSD -1
REMARK  0 active torsions:
REMARK  status: ('A' for Active; 'I' for Inactive)
ROOT
ATOM      1  C   UNL d   1       4.005  -1.676  -2.216  0.00  0.00     0.020 A 
ATOM      2  C1  UNL d   1       4.306  -0.368  -1.840  0.00  0.00     0.020 A 
ATOM      3  C2  UNL d   1       3.399   0.365  -1.071  0.00  0.00     0.034 A 
ATOM      4  C3  UNL d   1       2.186  -0.210  -0.676  0.00  0.00     0.017 A 
ATOM      5  C4  UNL d   1       1.884  -1.524  -1.054  0.00  0.00     0.017 A 
ATOM      6  C5  UNL d   1       2.796  -2.253  -1.824  0.00  0.00     0.034 A 
ATOM      7 Cl   UNL d   1       0.407  -2.301  -0.605  0.00  0.00    -0.070 Cl
ATOM      8 Cl1  UNL d   1       1.112   0.753   0.274  0.00  0.00    -0.070 Cl
ENDROOT
TORSDOF 0
ENDMDL
