MODEL 1
REMARK minimizedAffinity 11.626811
REMARK minimizedRMSD -1
REMARK  0 active torsions:
REMARK  status: ('A' for Active; 'I' for Inactive)
ROOT
ATOM      1  C   UNL d   1       2.541  -1.515   0.001  0.00  0.00     0.020 A 
ATOM      2  C1  UNL d   1       2.301  -2.689   0.714  0.00  0.00     0.020 A 
ATOM      3  C2  UNL d   1       1.213  -3.499   0.381  0.00  0.00     0.034 A 
ATOM      4  C3  UNL d   1       0.361  -3.136  -0.667  0.00  0.00     0.017 A 
ATOM      5  C4  UNL d   1       0.601  -1.957  -1.382  0.00  0.00     0.017 A 
ATOM      6  C5  UNL d   1       1.692  -1.150  -1.045  0.00  0.00     0.034 A 
ATOM      7 Cl   UNL d   1      -0.407  -1.443  -2.689  0.00  0.00    -0.070 Cl
ATOM      8 Cl1  UNL d   1      -0.965  -4.184  -1.024  0.00  0.00    -0.070 Cl
ENDROOT
TORSDOF 0
ENDMDL
