MODEL 1
REMARK minimizedAffinity 12.0956602
REMARK minimizedRMSD -1
REMARK  0 active torsions:
REMARK  status: ('A' for Active; 'I' for Inactive)
ROOT
ATOM      1  C   UNL d   1       1.868  -2.015  -0.048  0.00  0.00     0.020 A 
ATOM      2  C1  UNL d   1       1.835  -0.771  -0.677  0.00  0.00     0.020 A 
ATOM      3  C2  UNL d   1       1.688   0.392   0.082  0.00  0.00     0.034 A 
ATOM      4  C3  UNL d   1       1.573   0.313   1.475  0.00  0.00     0.017 A 
ATOM      5  C4  UNL d   1       1.606  -0.937   2.105  0.00  0.00     0.017 A 
ATOM      6  C5  UNL d   1       1.753  -2.097   1.340  0.00  0.00     0.034 A 
ATOM      7 Cl   UNL d   1       1.469  -1.114   3.819  0.00  0.00    -0.070 Cl
ATOM      8 Cl1  UNL d   1       1.394   1.791   2.352  0.00  0.00    -0.070 Cl
ENDROOT
TORSDOF 0
ENDMDL
