MODEL 1
REMARK minimizedAffinity 10.9109087
REMARK minimizedRMSD -1
REMARK  0 active torsions:
REMARK  status: ('A' for Active; 'I' for Inactive)
ROOT
ATOM      1  C   UNL d   1      -1.879  -5.398  -2.177  0.00  0.00     0.020 A 
ATOM      2  C1  UNL d   1      -1.226  -5.839  -1.027  0.00  0.00     0.020 A 
ATOM      3  C2  UNL d   1      -0.271  -5.028  -0.412  0.00  0.00     0.034 A 
ATOM      4  C3  UNL d   1       0.035  -3.770  -0.946  0.00  0.00     0.017 A 
ATOM      5  C4  UNL d   1      -0.622  -3.328  -2.100  0.00  0.00     0.017 A 
ATOM      6  C5  UNL d   1      -1.578  -4.145  -2.712  0.00  0.00     0.034 A 
ATOM      7 Cl   UNL d   1      -0.299  -1.789  -2.818  0.00  0.00    -0.070 Cl
ATOM      8 Cl1  UNL d   1       1.226  -2.820  -0.133  0.00  0.00    -0.070 Cl
ENDROOT
TORSDOF 0
ENDMDL
