MODEL 1
REMARK minimizedAffinity -4.62820101
REMARK minimizedRMSD -1
REMARK  0 active torsions:
REMARK  status: ('A' for Active; 'I' for Inactive)
ROOT
ATOM      1  C1  BNZ d   1      -1.936   0.354   1.715  0.00  0.00     0.000 A 
ATOM      2  C2  BNZ d   1      -1.114   1.226   2.380  0.00  0.00     0.000 A 
ATOM      3  C3  BNZ d   1       0.078   1.615   1.838  0.00  0.00     0.000 A 
ATOM      4  C4  BNZ d   1       0.467   1.103   0.652  0.00  0.00     0.000 A 
ATOM      5  C5  BNZ d   1      -0.346   0.216  -0.026  0.00  0.00     0.000 A 
ATOM      6  C6  BNZ d   1      -1.564  -0.143   0.504  0.00  0.00     0.000 A 
ENDROOT
TORSDOF 0
ENDMDL
