MODEL 1
REMARK minimizedAffinity -3.60269046
REMARK minimizedRMSD -1
REMARK  0 active torsions:
REMARK  status: ('A' for Active; 'I' for Inactive)
ROOT
ATOM      1  C1  BNZ d   1       0.199   1.301   1.579  0.00  0.00     0.000 A 
ATOM      2  C2  BNZ d   1       0.762   0.564   0.571  0.00  0.00     0.000 A 
ATOM      3  C3  BNZ d   1      -0.017  -0.167  -0.281  0.00  0.00     0.000 A 
ATOM      4  C4  BNZ d   1      -1.353  -0.195  -0.100  0.00  0.00     0.000 A 
ATOM      5  C5  BNZ d   1      -1.935   0.535   0.918  0.00  0.00     0.000 A 
ATOM      6  C6  BNZ d   1      -1.151   1.301   1.749  0.00  0.00     0.000 A 
ENDROOT
TORSDOF 0
ENDMDL
