MODEL 1
REMARK minimizedAffinity -2.95900249
REMARK minimizedRMSD -1
REMARK  0 active torsions:
REMARK  status: ('A' for Active; 'I' for Inactive)
ROOT
ATOM      1  C1  BNZ d   1       1.276   0.391   1.332  0.00  0.00     0.000 A 
ATOM      2  C2  BNZ d   1       1.277  -0.138   0.069  0.00  0.00     0.000 A 
ATOM      3  C3  BNZ d   1       0.146  -0.116  -0.699  0.00  0.00     0.000 A 
ATOM      4  C4  BNZ d   1      -0.992   0.398  -0.190  0.00  0.00     0.000 A 
ATOM      5  C5  BNZ d   1      -1.011   0.926   1.085  0.00  0.00     0.000 A 
ATOM      6  C6  BNZ d   1       0.138   0.938   1.842  0.00  0.00     0.000 A 
ENDROOT
TORSDOF 0
ENDMDL
