MODEL 1
REMARK minimizedAffinity -4.64445925
REMARK minimizedRMSD -1
REMARK  0 active torsions:
REMARK  status: ('A' for Active; 'I' for Inactive)
ROOT
ATOM      1  C1  BNZ d   1       0.864   0.590   0.980  0.00  0.00     0.000 A 
ATOM      2  C2  BNZ d   1       0.607   1.148   2.203  0.00  0.00     0.000 A 
ATOM      3  C3  BNZ d   1      -0.677   1.382   2.610  0.00  0.00     0.000 A 
ATOM      4  C4  BNZ d   1      -1.699   1.095   1.778  0.00  0.00     0.000 A 
ATOM      5  C5  BNZ d   1      -1.455   0.540   0.537  0.00  0.00     0.000 A 
ATOM      6  C6  BNZ d   1      -0.163   0.270   0.147  0.00  0.00     0.000 A 
ENDROOT
TORSDOF 0
ENDMDL
