MODEL 1
REMARK minimizedAffinity -1.81701398
REMARK minimizedRMSD -1
REMARK  0 active torsions:
REMARK  status: ('A' for Active; 'I' for Inactive)
ROOT
ATOM      1  C1  BNZ d   1       1.271  -0.767  -0.000  0.00  0.00     0.000 A 
ATOM      2  C2  BNZ d   1       1.875  -0.383   1.167  0.00  0.00     0.000 A 
ATOM      3  C3  BNZ d   1       1.602   0.833   1.730  0.00  0.00     0.000 A 
ATOM      4  C4  BNZ d   1       0.758   1.678   1.104  0.00  0.00     0.000 A 
ATOM      5  C5  BNZ d   1       0.148   1.310  -0.078  0.00  0.00     0.000 A 
ATOM      6  C6  BNZ d   1       0.395   0.070  -0.621  0.00  0.00     0.000 A 
ENDROOT
TORSDOF 0
ENDMDL
