MODEL 1
REMARK minimizedAffinity -3.52506685
REMARK minimizedRMSD -1
REMARK  0 active torsions:
REMARK  status: ('A' for Active; 'I' for Inactive)
ROOT
ATOM      1  C1  BNZ d   1      -0.752  -0.428  -0.698  0.00  0.00     0.000 A 
ATOM      2  C2  BNZ d   1      -1.849   0.012  -0.006  0.00  0.00     0.000 A 
ATOM      3  C3  BNZ d   1      -1.712   0.603   1.219  0.00  0.00     0.000 A 
ATOM      4  C4  BNZ d   1      -0.485   0.716   1.767  0.00  0.00     0.000 A 
ATOM      5  C5  BNZ d   1       0.629   0.269   1.086  0.00  0.00     0.000 A 
ATOM      6  C6  BNZ d   1       0.492  -0.290  -0.164  0.00  0.00     0.000 A 
ENDROOT
TORSDOF 0
ENDMDL
