MODEL 1
REMARK minimizedAffinity -5.14462805
REMARK minimizedRMSD -1
REMARK  0 active torsions:
REMARK  status: ('A' for Active; 'I' for Inactive)
ROOT
ATOM      1  C1  BNZ d   1      -1.305   0.518   0.509  0.00  0.00     0.000 A 
ATOM      2  C2  BNZ d   1      -1.672   0.951   1.755  0.00  0.00     0.000 A 
ATOM      3  C3  BNZ d   1      -0.821   0.828   2.818  0.00  0.00     0.000 A 
ATOM      4  C4  BNZ d   1       0.378   0.237   2.642  0.00  0.00     0.000 A 
ATOM      5  C5  BNZ d   1       0.759  -0.214   1.393  0.00  0.00     0.000 A 
ATOM      6  C6  BNZ d   1      -0.084  -0.053   0.318  0.00  0.00     0.000 A 
ENDROOT
TORSDOF 0
ENDMDL
