MODEL 1
REMARK minimizedAffinity -4.37588739
REMARK minimizedRMSD -1
REMARK  0 active torsions:
REMARK  status: ('A' for Active; 'I' for Inactive)
ROOT
ATOM      1  C1  BNZ d   1      -0.680   0.132  -0.174  0.00  0.00     0.000 A 
ATOM      2  C2  BNZ d   1      -0.768   0.850   0.988  0.00  0.00     0.000 A 
ATOM      3  C3  BNZ d   1       0.291   0.919   1.850  0.00  0.00     0.000 A 
ATOM      4  C4  BNZ d   1       1.420   0.237   1.568  0.00  0.00     0.000 A 
ATOM      5  C5  BNZ d   1       1.521  -0.499   0.405  0.00  0.00     0.000 A 
ATOM      6  C6  BNZ d   1       0.467  -0.534  -0.479  0.00  0.00     0.000 A 
ENDROOT
TORSDOF 0
ENDMDL
