MODEL 1
REMARK minimizedAffinity -1.44166636
REMARK minimizedRMSD -1
REMARK  0 active torsions:
REMARK  status: ('A' for Active; 'I' for Inactive)
ROOT
ATOM      1  C1  BNZ d   1      -1.582  -0.091   0.119  0.00  0.00     0.000 A 
ATOM      2  C2  BNZ d   1      -1.632   0.544   1.331  0.00  0.00     0.000 A 
ATOM      3  C3  BNZ d   1      -0.487   0.811   2.029  0.00  0.00     0.000 A 
ATOM      4  C4  BNZ d   1       0.701   0.409   1.533  0.00  0.00     0.000 A 
ATOM      5  C5  BNZ d   1       0.767  -0.241   0.316  0.00  0.00     0.000 A 
ATOM      6  C6  BNZ d   1      -0.384  -0.474  -0.401  0.00  0.00     0.000 A 
ENDROOT
TORSDOF 0
ENDMDL
