MODEL 1
REMARK minimizedAffinity -4.84531784
REMARK minimizedRMSD -1
REMARK  0 active torsions:
REMARK  status: ('A' for Active; 'I' for Inactive)
ROOT
ATOM      1  C1  BNZ d   1       0.802   1.084   1.499  0.00  0.00     0.000 A 
ATOM      2  C2  BNZ d   1       0.378   1.513   2.728  0.00  0.00     0.000 A 
ATOM      3  C3  BNZ d   1      -0.918   1.332   3.124  0.00  0.00     0.000 A 
ATOM      4  C4  BNZ d   1      -1.796   0.760   2.276  0.00  0.00     0.000 A 
ATOM      5  C5  BNZ d   1      -1.386   0.331   1.029  0.00  0.00     0.000 A 
ATOM      6  C6  BNZ d   1      -0.072   0.479   0.649  0.00  0.00     0.000 A 
ENDROOT
TORSDOF 0
ENDMDL
