MODEL 1
REMARK minimizedAffinity -2.10989094
REMARK minimizedRMSD -1
REMARK  0 active torsions:
REMARK  status: ('A' for Active; 'I' for Inactive)
ROOT
ATOM      1  C1  BNZ d   1       0.506   1.208   2.131  0.00  0.00     0.000 A 
ATOM      2  C2  BNZ d   1       0.654   0.467   0.989  0.00  0.00     0.000 A 
ATOM      3  C3  BNZ d   1      -0.437   0.040   0.285  0.00  0.00     0.000 A 
ATOM      4  C4  BNZ d   1      -1.674   0.321   0.744  0.00  0.00     0.000 A 
ATOM      5  C5  BNZ d   1      -1.839   1.059   1.899  0.00  0.00     0.000 A 
ATOM      6  C6  BNZ d   1      -0.739   1.520   2.584  0.00  0.00     0.000 A 
ENDROOT
TORSDOF 0
ENDMDL
