MODEL 1
REMARK minimizedAffinity -3.49456453
REMARK minimizedRMSD -1
REMARK  0 active torsions:
REMARK  status: ('A' for Active; 'I' for Inactive)
ROOT
ATOM      1  C1  BNZ d   1      -0.625   0.610   1.082  0.00  0.00     0.000 A 
ATOM      2  C2  BNZ d   1      -0.615  -0.109  -0.083  0.00  0.00     0.000 A 
ATOM      3  C3  BNZ d   1       0.438  -0.924  -0.393  0.00  0.00     0.000 A 
ATOM      4  C4  BNZ d   1       1.495  -0.988   0.441  0.00  0.00     0.000 A 
ATOM      5  C5  BNZ d   1       1.504  -0.261   1.615  0.00  0.00     0.000 A 
ATOM      6  C6  BNZ d   1       0.425   0.528   1.943  0.00  0.00     0.000 A 
ENDROOT
TORSDOF 0
ENDMDL
