MODEL 1
REMARK minimizedAffinity 9.22445583
REMARK minimizedRMSD -1
REMARK  0 active torsions:
REMARK  status: ('A' for Active; 'I' for Inactive)
ROOT
ATOM      1  C   UNL d   1       0.654  -0.371   3.527  0.00  0.00     0.078 C 
ATOM      2  C1  UNL d   1       1.065   0.552   2.419  0.00  0.00    -0.077 A 
ATOM      3  C2  UNL d   1       0.368   1.742   2.175  0.00  0.00    -0.001 A 
ATOM      4  C3  UNL d   1       0.756   2.587   1.134  0.00  0.00     0.003 A 
ATOM      5  C4  UNL d   1       1.842   2.250   0.327  0.00  0.00    -0.005 A 
ATOM      6  C5  UNL d   1       2.540   1.067   0.561  0.00  0.00     0.003 A 
ATOM      7  C6  UNL d   1       2.153   0.221   1.601  0.00  0.00    -0.001 A 
ENDROOT
TORSDOF 0
ENDMDL
