MODEL 1
REMARK minimizedAffinity 15.9871902
REMARK minimizedRMSD -1
REMARK  0 active torsions:
REMARK  status: ('A' for Active; 'I' for Inactive)
ROOT
ATOM      1  C   UNL d   1       2.698   2.466   0.357  0.00  0.00     0.078 C 
ATOM      2  C1  UNL d   1       3.432   3.699  -0.081  0.00  0.00    -0.077 A 
ATOM      3  C2  UNL d   1       3.430   4.857   0.706  0.00  0.00    -0.001 A 
ATOM      4  C3  UNL d   1       4.109   6.000   0.282  0.00  0.00     0.003 A 
ATOM      5  C4  UNL d   1       4.795   5.996  -0.931  0.00  0.00    -0.005 A 
ATOM      6  C5  UNL d   1       4.800   4.850  -1.722  0.00  0.00     0.003 A 
ATOM      7  C6  UNL d   1       4.122   3.705  -1.300  0.00  0.00    -0.001 A 
ENDROOT
TORSDOF 0
ENDMDL
