MODEL 1
REMARK minimizedAffinity 9.06726837
REMARK minimizedRMSD -1
REMARK  0 active torsions:
REMARK  status: ('A' for Active; 'I' for Inactive)
ROOT
ATOM      1  C   UNL d   1       5.633   2.759  -2.996  0.00  0.00     0.078 C 
ATOM      2  C1  UNL d   1       5.119   3.710  -4.035  0.00  0.00    -0.077 A 
ATOM      3  C2  UNL d   1       3.762   4.051  -4.093  0.00  0.00    -0.001 A 
ATOM      4  C3  UNL d   1       3.296   4.931  -5.071  0.00  0.00     0.003 A 
ATOM      5  C4  UNL d   1       4.180   5.476  -5.999  0.00  0.00    -0.005 A 
ATOM      6  C5  UNL d   1       5.532   5.142  -5.951  0.00  0.00     0.003 A 
ATOM      7  C6  UNL d   1       6.000   4.262  -4.973  0.00  0.00    -0.001 A 
ENDROOT
TORSDOF 0
ENDMDL
