MODEL 1
REMARK minimizedAffinity 14.7513609
REMARK minimizedRMSD -1
REMARK  0 active torsions:
REMARK  status: ('A' for Active; 'I' for Inactive)
ROOT
ATOM      1  C   UNL d   1      -1.944  -2.644  -4.716  0.00  0.00     0.078 C 
ATOM      2  C1  UNL d   1      -2.322  -2.758  -3.269  0.00  0.00    -0.077 A 
ATOM      3  C2  UNL d   1      -1.455  -2.323  -2.260  0.00  0.00    -0.001 A 
ATOM      4  C3  UNL d   1      -1.816  -2.445  -0.917  0.00  0.00     0.003 A 
ATOM      5  C4  UNL d   1      -3.046  -3.002  -0.572  0.00  0.00    -0.005 A 
ATOM      6  C5  UNL d   1      -3.915  -3.440  -1.569  0.00  0.00     0.003 A 
ATOM      7  C6  UNL d   1      -3.555  -3.319  -2.912  0.00  0.00    -0.001 A 
ENDROOT
TORSDOF 0
ENDMDL
