MODEL 1
REMARK minimizedAffinity 2.76432586
REMARK minimizedRMSD -1
REMARK  0 active torsions:
REMARK  status: ('A' for Active; 'I' for Inactive)
ROOT
ATOM      1  C   UNL d   1      -2.684  -2.879  -2.439  0.00  0.00     0.078 C 
ATOM      2  C1  UNL d   1      -3.820  -3.844  -2.605  0.00  0.00    -0.077 A 
ATOM      3  C2  UNL d   1      -3.789  -5.105  -1.997  0.00  0.00    -0.001 A 
ATOM      4  C3  UNL d   1      -4.849  -5.997  -2.169  0.00  0.00     0.003 A 
ATOM      5  C4  UNL d   1      -5.946  -5.639  -2.950  0.00  0.00    -0.005 A 
ATOM      6  C5  UNL d   1      -5.984  -4.387  -3.560  0.00  0.00     0.003 A 
ATOM      7  C6  UNL d   1      -4.926  -3.493  -3.390  0.00  0.00    -0.001 A 
ENDROOT
TORSDOF 0
ENDMDL
