MODEL 1
REMARK minimizedAffinity 7.54806757
REMARK minimizedRMSD -1
REMARK  0 active torsions:
REMARK  status: ('A' for Active; 'I' for Inactive)
ROOT
ATOM      1  C   UNL d   1       1.674   4.059   0.738  0.00  0.00     0.078 C 
ATOM      2  C1  UNL d   1       1.599   2.702   1.373  0.00  0.00    -0.077 A 
ATOM      3  C2  UNL d   1       0.706   2.444   2.420  0.00  0.00    -0.001 A 
ATOM      4  C3  UNL d   1       0.654   1.179   3.008  0.00  0.00     0.003 A 
ATOM      5  C4  UNL d   1       1.493   0.163   2.557  0.00  0.00    -0.005 A 
ATOM      6  C5  UNL d   1       2.387   0.411   1.517  0.00  0.00     0.003 A 
ATOM      7  C6  UNL d   1       2.440   1.675   0.928  0.00  0.00    -0.001 A 
ENDROOT
TORSDOF 0
ENDMDL
