MODEL 1
REMARK minimizedAffinity 11.7741051
REMARK minimizedRMSD -1
REMARK  0 active torsions:
REMARK  status: ('A' for Active; 'I' for Inactive)
ROOT
ATOM      1  C   UNL d   1       5.895   0.770  -2.184  0.00  0.00     0.078 C 
ATOM      2  C1  UNL d   1       4.966   1.228  -3.268  0.00  0.00    -0.077 A 
ATOM      3  C2  UNL d   1       4.357   2.487  -3.212  0.00  0.00    -0.001 A 
ATOM      4  C3  UNL d   1       3.486   2.896  -4.223  0.00  0.00     0.003 A 
ATOM      5  C4  UNL d   1       3.215   2.051  -5.297  0.00  0.00    -0.005 A 
ATOM      6  C5  UNL d   1       3.814   0.794  -5.360  0.00  0.00     0.003 A 
ATOM      7  C6  UNL d   1       4.685   0.384  -4.350  0.00  0.00    -0.001 A 
ENDROOT
TORSDOF 0
ENDMDL
