MODEL 1
REMARK minimizedAffinity 7.64007902
REMARK minimizedRMSD -1
REMARK  0 active torsions:
REMARK  status: ('A' for Active; 'I' for Inactive)
ROOT
ATOM      1  C   UNL d   1      -4.524  -5.999  -1.851  0.00  0.00     0.078 C 
ATOM      2  C1  UNL d   1      -3.524  -4.966  -2.277  0.00  0.00    -0.077 A 
ATOM      3  C2  UNL d   1      -3.741  -3.606  -2.026  0.00  0.00    -0.001 A 
ATOM      4  C3  UNL d   1      -2.806  -2.654  -2.437  0.00  0.00     0.003 A 
ATOM      5  C4  UNL d   1      -1.648  -3.052  -3.101  0.00  0.00    -0.005 A 
ATOM      6  C5  UNL d   1      -1.424  -4.403  -3.357  0.00  0.00     0.003 A 
ATOM      7  C6  UNL d   1      -2.358  -5.356  -2.948  0.00  0.00    -0.001 A 
ENDROOT
TORSDOF 0
ENDMDL
