MODEL 1
REMARK minimizedAffinity -1.29625571
REMARK minimizedRMSD -1
REMARK  0 active torsions:
REMARK  status: ('A' for Active; 'I' for Inactive)
ROOT
ATOM      1  C   UNL d   1       1.200   3.373  -3.054  0.00  0.00     0.078 C 
ATOM      2  C1  UNL d   1       2.091   4.019  -4.072  0.00  0.00    -0.077 A 
ATOM      3  C2  UNL d   1       2.232   5.411  -4.128  0.00  0.00    -0.001 A 
ATOM      4  C3  UNL d   1       3.058   5.999  -5.088  0.00  0.00     0.003 A 
ATOM      5  C4  UNL d   1       3.748   5.203  -6.000  0.00  0.00    -0.005 A 
ATOM      6  C5  UNL d   1       3.612   3.817  -5.953  0.00  0.00     0.003 A 
ATOM      7  C6  UNL d   1       2.787   3.227  -4.994  0.00  0.00    -0.001 A 
ENDROOT
TORSDOF 0
ENDMDL
