MODEL 1
REMARK minimizedAffinity 10.1810551
REMARK minimizedRMSD -1
REMARK  0 active torsions:
REMARK  status: ('A' for Active; 'I' for Inactive)
ROOT
ATOM      1  C   UNL d   1       3.370   1.663  -5.213  0.00  0.00     0.078 C 
ATOM      2  C1  UNL d   1       2.963   1.864  -3.784  0.00  0.00    -0.077 A 
ATOM      3  C2  UNL d   1       3.809   1.491  -2.733  0.00  0.00    -0.001 A 
ATOM      4  C3  UNL d   1       3.413   1.676  -1.408  0.00  0.00     0.003 A 
ATOM      5  C4  UNL d   1       2.168   2.232  -1.121  0.00  0.00    -0.005 A 
ATOM      6  C5  UNL d   1       1.318   2.604  -2.160  0.00  0.00     0.003 A 
ATOM      7  C6  UNL d   1       1.712   2.421  -3.486  0.00  0.00    -0.001 A 
ENDROOT
TORSDOF 0
ENDMDL
