MODEL 1
REMARK minimizedAffinity 5.75743675
REMARK minimizedRMSD -1
REMARK  0 active torsions:
REMARK  status: ('A' for Active; 'I' for Inactive)
ROOT
ATOM      1  C   UNL d   1       1.888   0.799  -0.220  0.00  0.00     0.078 C 
ATOM      2  C1  UNL d   1       2.254   1.295  -1.587  0.00  0.00    -0.077 A 
ATOM      3  C2  UNL d   1       1.457   2.237  -2.250  0.00  0.00    -0.001 A 
ATOM      4  C3  UNL d   1       1.804   2.682  -3.526  0.00  0.00     0.003 A 
ATOM      5  C4  UNL d   1       2.948   2.189  -4.152  0.00  0.00    -0.005 A 
ATOM      6  C5  UNL d   1       3.745   1.250  -3.502  0.00  0.00     0.003 A 
ATOM      7  C6  UNL d   1       3.400   0.804  -2.225  0.00  0.00    -0.001 A 
ENDROOT
TORSDOF 0
ENDMDL
