MODEL 1
REMARK minimizedAffinity 4.9824729
REMARK minimizedRMSD -1
REMARK  0 active torsions:
REMARK  status: ('A' for Active; 'I' for Inactive)
ROOT
ATOM      1  C   UNL d   1      -4.289   0.634   2.735  0.00  0.00     0.078 C 
ATOM      2  C1  UNL d   1      -4.857   1.445   3.861  0.00  0.00    -0.077 A 
ATOM      3  C2  UNL d   1      -4.769   2.842   3.860  0.00  0.00    -0.001 A 
ATOM      4  C3  UNL d   1      -5.293   3.584   4.919  0.00  0.00     0.003 A 
ATOM      5  C4  UNL d   1      -5.909   2.937   5.989  0.00  0.00    -0.005 A 
ATOM      6  C5  UNL d   1      -6.000   1.546   6.000  0.00  0.00     0.003 A 
ATOM      7  C6  UNL d   1      -5.476   0.803   4.941  0.00  0.00    -0.001 A 
ENDROOT
TORSDOF 0
ENDMDL
