MODEL 1
REMARK minimizedAffinity 1.26732349
REMARK minimizedRMSD -1
REMARK  0 active torsions:
REMARK  status: ('A' for Active; 'I' for Inactive)
ROOT
ATOM      1  C   UNL d   1      -5.057   0.704   5.572  0.00  0.00     0.078 C 
ATOM      2  C1  UNL d   1      -5.075   2.178   5.294  0.00  0.00    -0.077 A 
ATOM      3  C2  UNL d   1      -5.998   2.731   4.398  0.00  0.00    -0.001 A 
ATOM      4  C3  UNL d   1      -5.997   4.103   4.141  0.00  0.00     0.003 A 
ATOM      5  C4  UNL d   1      -5.075   4.933   4.775  0.00  0.00    -0.005 A 
ATOM      6  C5  UNL d   1      -4.151   4.391   5.666  0.00  0.00     0.003 A 
ATOM      7  C6  UNL d   1      -4.150   3.019   5.924  0.00  0.00    -0.001 A 
ENDROOT
TORSDOF 0
ENDMDL
