MODEL 1
REMARK minimizedAffinity 9.84295082
REMARK minimizedRMSD -1
REMARK  0 active torsions:
REMARK  status: ('A' for Active; 'I' for Inactive)
ROOT
ATOM      1  C   UNL d   1       0.067   1.520   2.955  0.00  0.00     0.078 C 
ATOM      2  C1  UNL d   1       1.170   1.347   1.954  0.00  0.00    -0.077 A 
ATOM      3  C2  UNL d   1       1.190   0.248   1.086  0.00  0.00    -0.001 A 
ATOM      4  C3  UNL d   1       2.228   0.095   0.166  0.00  0.00     0.003 A 
ATOM      5  C4  UNL d   1       3.255   1.035   0.105  0.00  0.00    -0.005 A 
ATOM      6  C5  UNL d   1       3.244   2.131   0.967  0.00  0.00     0.003 A 
ATOM      7  C6  UNL d   1       2.207   2.286   1.887  0.00  0.00    -0.001 A 
ENDROOT
TORSDOF 0
ENDMDL
