MODEL 1
REMARK minimizedAffinity 4.8680954
REMARK minimizedRMSD -1
REMARK  0 active torsions:
REMARK  status: ('A' for Active; 'I' for Inactive)
ROOT
ATOM      1  C   UNL d   1      -1.729  -5.276   1.770  0.00  0.00     0.078 C 
ATOM      2  C1  UNL d   1      -1.927  -4.040   0.945  0.00  0.00    -0.077 A 
ATOM      3  C2  UNL d   1      -1.616  -2.774   1.456  0.00  0.00    -0.001 A 
ATOM      4  C3  UNL d   1      -1.814  -1.631   0.680  0.00  0.00     0.003 A 
ATOM      5  C4  UNL d   1      -2.326  -1.742  -0.611  0.00  0.00    -0.005 A 
ATOM      6  C5  UNL d   1      -2.641  -2.997  -1.128  0.00  0.00     0.003 A 
ATOM      7  C6  UNL d   1      -2.443  -4.142  -0.353  0.00  0.00    -0.001 A 
ENDROOT
TORSDOF 0
ENDMDL
