MODEL 1
REMARK minimizedAffinity 2.39983034
REMARK minimizedRMSD -1
REMARK  0 active torsions:
REMARK  status: ('A' for Active; 'I' for Inactive)
ROOT
ATOM      1  C   UNL d   1      -5.996   4.464   5.347  0.00  0.00     0.078 C 
ATOM      2  C1  UNL d   1      -5.874   3.012   4.995  0.00  0.00    -0.077 A 
ATOM      3  C2  UNL d   1      -5.650   2.606   3.674  0.00  0.00    -0.001 A 
ATOM      4  C3  UNL d   1      -5.549   1.250   3.359  0.00  0.00     0.003 A 
ATOM      5  C4  UNL d   1      -5.672   0.288   4.361  0.00  0.00    -0.005 A 
ATOM      6  C5  UNL d   1      -5.898   0.682   5.678  0.00  0.00     0.003 A 
ATOM      7  C6  UNL d   1      -5.999   2.038   5.994  0.00  0.00    -0.001 A 
ENDROOT
TORSDOF 0
ENDMDL
