MODEL 1
REMARK minimizedAffinity 1.84778941
REMARK minimizedRMSD -1
REMARK  0 active torsions:
REMARK  status: ('A' for Active; 'I' for Inactive)
ROOT
ATOM      1  C   UNL d   1      -2.350   2.287   2.173  0.00  0.00     0.078 C 
ATOM      2  C1  UNL d   1      -1.012   1.728   1.791  0.00  0.00    -0.077 A 
ATOM      3  C2  UNL d   1      -0.668   0.407   2.101  0.00  0.00    -0.001 A 
ATOM      4  C3  UNL d   1       0.585  -0.098   1.748  0.00  0.00     0.003 A 
ATOM      5  C4  UNL d   1       1.504   0.713   1.085  0.00  0.00    -0.005 A 
ATOM      6  C5  UNL d   1       1.171   2.030   0.775  0.00  0.00     0.003 A 
ATOM      7  C6  UNL d   1      -0.081   2.536   1.127  0.00  0.00    -0.001 A 
ENDROOT
TORSDOF 0
ENDMDL
