MODEL 1
REMARK minimizedAffinity 3.25769043
REMARK minimizedRMSD -1
REMARK  0 active torsions:
REMARK  status: ('A' for Active; 'I' for Inactive)
ROOT
ATOM      1  C   UNL d   1      -0.336   1.872   1.881  0.00  0.00     0.078 C 
ATOM      2  C1  UNL d   1      -1.666   1.439   2.420  0.00  0.00    -0.077 A 
ATOM      3  C2  UNL d   1      -2.592   2.376   2.893  0.00  0.00    -0.001 A 
ATOM      4  C3  UNL d   1      -3.823   1.958   3.401  0.00  0.00     0.003 A 
ATOM      5  C4  UNL d   1      -4.139   0.602   3.443  0.00  0.00    -0.005 A 
ATOM      6  C5  UNL d   1      -3.223  -0.339   2.977  0.00  0.00     0.003 A 
ATOM      7  C6  UNL d   1      -1.991   0.077   2.468  0.00  0.00    -0.001 A 
ENDROOT
TORSDOF 0
ENDMDL
