MODEL 1
REMARK minimizedAffinity 3.12946773
REMARK minimizedRMSD -1
REMARK  0 active torsions:
REMARK  status: ('A' for Active; 'I' for Inactive)
ROOT
ATOM      1  C1  DEN d   1       1.303   0.059  -0.174  0.00  0.00     0.130 A 
ATOM      2  C2  DEN d   1       0.025  -0.603   0.072  0.00  0.00    -0.031 A 
ATOM      3  C3  DEN d   1      -0.653  -0.784  -1.228  0.00  0.00     0.027 A 
ATOM      4  C4  DEN d   1       0.152  -0.111  -3.584  0.00  0.00     0.027 A 
ATOM      5  C5  DEN d   1       1.168   0.489  -4.295  0.00  0.00    -0.003 A 
ATOM      6  C6  DEN d   1       2.276   1.014  -3.683  0.00  0.00     0.001 A 
ATOM      7  C7  DEN d   1       2.415   0.908  -2.325  0.00  0.00     0.017 A 
ATOM      8  C8  DEN d   1       1.391   0.311  -1.601  0.00  0.00    -0.094 A 
ATOM      9  C9  DEN d   1       0.285  -0.224  -2.239  0.00  0.00    -0.072 A 
ENDROOT
TORSDOF 0
ENDMDL
