MODEL 1
REMARK minimizedAffinity -2.93894768
REMARK minimizedRMSD -1
REMARK  0 active torsions:
REMARK  status: ('A' for Active; 'I' for Inactive)
ROOT
ATOM      1  C1  DEN d   1       0.417   1.282   2.653  0.00  0.00     0.130 A 
ATOM      2  C2  DEN d   1      -0.932   1.357   3.207  0.00  0.00    -0.031 A 
ATOM      3  C3  DEN d   1      -1.865   0.787   2.215  0.00  0.00     0.027 A 
ATOM      4  C4  DEN d   1      -1.355  -0.203  -0.112  0.00  0.00     0.027 A 
ATOM      5  C5  DEN d   1      -0.357  -0.473  -1.022  0.00  0.00    -0.003 A 
ATOM      6  C6  DEN d   1       0.953  -0.149  -0.788  0.00  0.00     0.001 A 
ATOM      7  C7  DEN d   1       1.307   0.424   0.405  0.00  0.00     0.017 A 
ATOM      8  C8  DEN d   1       0.306   0.706   1.325  0.00  0.00    -0.094 A 
ATOM      9  C9  DEN d   1      -1.010   0.359   1.075  0.00  0.00    -0.072 A 
ENDROOT
TORSDOF 0
ENDMDL
