MODEL 1
REMARK minimizedAffinity -4.61781883
REMARK minimizedRMSD -1
REMARK  0 active torsions:
REMARK  status: ('A' for Active; 'I' for Inactive)
ROOT
ATOM      1  C1  DEN d   1       1.619  -0.002   0.477  0.00  0.00     0.130 A 
ATOM      2  C2  DEN d   1       1.509  -0.689  -0.807  0.00  0.00    -0.031 A 
ATOM      3  C3  DEN d   1       0.075  -0.839  -1.123  0.00  0.00     0.027 A 
ATOM      4  C4  DEN d   1      -1.976  -0.076   0.242  0.00  0.00     0.027 A 
ATOM      5  C5  DEN d   1      -2.385   0.540   1.404  0.00  0.00    -0.003 A 
ATOM      6  C6  DEN d   1      -1.496   0.984   2.347  0.00  0.00     0.001 A 
ATOM      7  C7  DEN d   1      -0.151   0.859   2.123  0.00  0.00     0.017 A 
ATOM      8  C8  DEN d   1       0.269   0.233   0.957  0.00  0.00    -0.094 A 
ATOM      9  C9  DEN d   1      -0.645  -0.198   0.010  0.00  0.00    -0.072 A 
ENDROOT
TORSDOF 0
ENDMDL
