MODEL 1
REMARK minimizedAffinity -5.61579132
REMARK minimizedRMSD -1
REMARK  0 active torsions:
REMARK  status: ('A' for Active; 'I' for Inactive)
ROOT
ATOM      1  C1  DEN d   1       1.308   0.702   0.388  0.00  0.00     0.130 A 
ATOM      2  C2  DEN d   1       1.081  -0.085  -0.821  0.00  0.00    -0.031 A 
ATOM      3  C3  DEN d   1      -0.322  -0.545  -0.810  0.00  0.00     0.027 A 
ATOM      4  C4  DEN d   1      -2.157  -0.114   0.951  0.00  0.00     0.027 A 
ATOM      5  C5  DEN d   1      -2.435   0.490   2.158  0.00  0.00    -0.003 A 
ATOM      6  C6  DEN d   1      -1.484   1.172   2.869  0.00  0.00     0.001 A 
ATOM      7  C7  DEN d   1      -0.220   1.306   2.358  0.00  0.00     0.017 A 
ATOM      8  C8  DEN d   1       0.070   0.694   1.146  0.00  0.00    -0.094 A 
ATOM      9  C9  DEN d   1      -0.908   0.019   0.436  0.00  0.00    -0.072 A 
ENDROOT
TORSDOF 0
ENDMDL
