MODEL 1
REMARK minimizedAffinity -0.82639724
REMARK minimizedRMSD -1
REMARK  0 active torsions:
REMARK  status: ('A' for Active; 'I' for Inactive)
ROOT
ATOM      1  C1  DEN d   1      -0.565  -0.902  -0.910  0.00  0.00     0.130 A 
ATOM      2  C2  DEN d   1       0.674  -0.213  -1.261  0.00  0.00    -0.031 A 
ATOM      3  C3  DEN d   1       1.058   0.644  -0.122  0.00  0.00     0.027 A 
ATOM      4  C4  DEN d   1      -0.136   0.966   2.142  0.00  0.00     0.027 A 
ATOM      5  C5  DEN d   1      -1.229   0.602   2.896  0.00  0.00    -0.003 A 
ATOM      6  C6  DEN d   1      -2.187  -0.256   2.426  0.00  0.00     0.001 A 
ATOM      7  C7  DEN d   1      -2.047  -0.814   1.182  0.00  0.00     0.017 A 
ATOM      8  C8  DEN d   1      -0.952  -0.446   0.413  0.00  0.00    -0.094 A 
ATOM      9  C9  DEN d   1       0.013   0.414   0.911  0.00  0.00    -0.072 A 
ENDROOT
TORSDOF 0
ENDMDL
