MODEL 1
REMARK minimizedAffinity -3.55001354
REMARK minimizedRMSD -1
REMARK  0 active torsions:
REMARK  status: ('A' for Active; 'I' for Inactive)
ROOT
ATOM      1  C1  DEN d   1       1.592  -0.673  -0.274  0.00  0.00     0.130 A 
ATOM      2  C2  DEN d   1       0.952  -1.348  -1.400  0.00  0.00    -0.031 A 
ATOM      3  C3  DEN d   1      -0.505  -1.133  -1.292  0.00  0.00     0.027 A 
ATOM      4  C4  DEN d   1      -1.824   0.177   0.496  0.00  0.00     0.027 A 
ATOM      5  C5  DEN d   1      -1.717   0.914   1.655  0.00  0.00    -0.003 A 
ATOM      6  C6  DEN d   1      -0.512   1.142   2.266  0.00  0.00     0.001 A 
ATOM      7  C7  DEN d   1       0.639   0.668   1.695  0.00  0.00     0.017 A 
ATOM      8  C8  DEN d   1       0.538  -0.082   0.530  0.00  0.00    -0.094 A 
ATOM      9  C9  DEN d   1      -0.687  -0.292  -0.078  0.00  0.00    -0.072 A 
ENDROOT
TORSDOF 0
ENDMDL
