MODEL 1
REMARK minimizedAffinity -2.42293596
REMARK minimizedRMSD -1
REMARK  0 active torsions:
REMARK  status: ('A' for Active; 'I' for Inactive)
ROOT
ATOM      1  C1  DEN d   1       0.429  -0.139  -0.213  0.00  0.00     0.130 A 
ATOM      2  C2  DEN d   1      -0.374  -1.349  -0.367  0.00  0.00    -0.031 A 
ATOM      3  C3  DEN d   1      -1.395  -1.358   0.700  0.00  0.00     0.027 A 
ATOM      4  C4  DEN d   1      -1.811   0.376   2.563  0.00  0.00     0.027 A 
ATOM      5  C5  DEN d   1      -1.377   1.565   3.107  0.00  0.00    -0.003 A 
ATOM      6  C6  DEN d   1      -0.299   2.246   2.608  0.00  0.00     0.001 A 
ATOM      7  C7  DEN d   1       0.355   1.766   1.504  0.00  0.00     0.017 A 
ATOM      8  C8  DEN d   1      -0.071   0.565   0.954  0.00  0.00    -0.094 A 
ATOM      9  C9  DEN d   1      -1.171  -0.103   1.466  0.00  0.00    -0.072 A 
ENDROOT
TORSDOF 0
ENDMDL
