MODEL 1
REMARK minimizedAffinity 5.37266064
REMARK minimizedRMSD -1
REMARK  0 active torsions:
REMARK  status: ('A' for Active; 'I' for Inactive)
ROOT
ATOM      1  C   UNL d   1       0.930   0.009   4.613  0.00  0.00     0.023 A 
ATOM      2  C1  UNL d   1       1.901   0.117   3.617  0.00  0.00     0.003 A 
ATOM      3  C2  UNL d   1       1.700   0.975   2.534  0.00  0.00     0.048 A 
ATOM      4  C3  UNL d   1       0.526   1.723   2.454  0.00  0.00     0.023 A 
ATOM      5  C4  UNL d   1      -0.448   1.618   3.448  0.00  0.00     0.048 A 
ATOM      6  C5  UNL d   1      -0.243   0.758   4.529  0.00  0.00     0.003 A 
ATOM      7  I   UNL d   1       0.224   3.001   0.843  0.00  0.00    -0.146 I 
ENDROOT
TORSDOF 0
ENDMDL
