MODEL 1
REMARK minimizedAffinity 9.82876968
REMARK minimizedRMSD -1
REMARK  0 active torsions:
REMARK  status: ('A' for Active; 'I' for Inactive)
ROOT
ATOM      1  C   UNL d   1      -0.293  -4.579  -0.742  0.00  0.00     0.023 A 
ATOM      2  C1  UNL d   1      -1.113  -4.825  -1.843  0.00  0.00     0.003 A 
ATOM      3  C2  UNL d   1      -1.906  -3.801  -2.366  0.00  0.00     0.048 A 
ATOM      4  C3  UNL d   1      -1.872  -2.534  -1.785  0.00  0.00     0.023 A 
ATOM      5  C4  UNL d   1      -1.052  -2.284  -0.683  0.00  0.00     0.048 A 
ATOM      6  C5  UNL d   1      -0.262  -3.311  -0.163  0.00  0.00     0.003 A 
ATOM      7  I   UNL d   1      -3.051  -1.009  -2.562  0.00  0.00    -0.146 I 
ENDROOT
TORSDOF 0
ENDMDL
