MODEL 1
REMARK minimizedAffinity 0.933201611
REMARK minimizedRMSD -1
REMARK  0 active torsions:
REMARK  status: ('A' for Active; 'I' for Inactive)
ROOT
ATOM      1  C   UNL d   1      -5.974   4.454  -5.999  0.00  0.00     0.023 A 
ATOM      2  C1  UNL d   1      -5.840   3.077  -5.824  0.00  0.00     0.003 A 
ATOM      3  C2  UNL d   1      -5.731   2.543  -4.538  0.00  0.00     0.048 A 
ATOM      4  C3  UNL d   1      -5.757   3.392  -3.432  0.00  0.00     0.023 A 
ATOM      5  C4  UNL d   1      -5.892   4.771  -3.603  0.00  0.00     0.048 A 
ATOM      6  C5  UNL d   1      -6.000   5.300  -4.890  0.00  0.00     0.003 A 
ATOM      7  I   UNL d   1      -5.595   2.599  -1.518  0.00  0.00    -0.146 I 
ENDROOT
TORSDOF 0
ENDMDL
