MODEL 1
REMARK minimizedAffinity 4.42791557
REMARK minimizedRMSD -1
REMARK  0 active torsions:
REMARK  status: ('A' for Active; 'I' for Inactive)
ROOT
ATOM      1  C   UNL d   1      -0.914  -0.362  -0.171  0.00  0.00     0.023 A 
ATOM      2  C1  UNL d   1      -1.628   0.822  -0.356  0.00  0.00     0.003 A 
ATOM      3  C2  UNL d   1      -2.997   0.862  -0.085  0.00  0.00     0.048 A 
ATOM      4  C3  UNL d   1      -3.645  -0.284   0.373  0.00  0.00     0.023 A 
ATOM      5  C4  UNL d   1      -2.934  -1.471   0.561  0.00  0.00     0.048 A 
ATOM      6  C5  UNL d   1      -1.566  -1.506   0.288  0.00  0.00     0.003 A 
ATOM      7  I   UNL d   1      -5.683  -0.227   0.778  0.00  0.00    -0.146 I 
ENDROOT
TORSDOF 0
ENDMDL
