MODEL 1
REMARK minimizedAffinity 3.51702666
REMARK minimizedRMSD -1
REMARK  0 active torsions:
REMARK  status: ('A' for Active; 'I' for Inactive)
ROOT
ATOM      1  C   UNL d   1       0.686   0.995   0.185  0.00  0.00     0.023 A 
ATOM      2  C1  UNL d   1       1.036  -0.232   0.749  0.00  0.00     0.003 A 
ATOM      3  C2  UNL d   1       0.146  -1.306   0.692  0.00  0.00     0.048 A 
ATOM      4  C3  UNL d   1      -1.092  -1.147   0.069  0.00  0.00     0.023 A 
ATOM      5  C4  UNL d   1      -1.446   0.079  -0.497  0.00  0.00     0.048 A 
ATOM      6  C5  UNL d   1      -0.553   1.150  -0.437  0.00  0.00     0.003 A 
ATOM      7  I   UNL d   1      -2.418  -2.745  -0.016  0.00  0.00    -0.146 I 
ENDROOT
TORSDOF 0
ENDMDL
