MODEL 1
REMARK minimizedAffinity 5.75932026
REMARK minimizedRMSD -1
REMARK  0 active torsions:
REMARK  status: ('A' for Active; 'I' for Inactive)
ROOT
ATOM      1  C   UNL d   1       1.279  -0.077   0.406  0.00  0.00     0.023 A 
ATOM      2  C1  UNL d   1       0.487   0.423   1.440  0.00  0.00     0.003 A 
ATOM      3  C2  UNL d   1      -0.821   0.838   1.181  0.00  0.00     0.048 A 
ATOM      4  C3  UNL d   1      -1.331   0.750  -0.114  0.00  0.00     0.023 A 
ATOM      5  C4  UNL d   1      -0.542   0.249  -1.151  0.00  0.00     0.048 A 
ATOM      6  C5  UNL d   1       0.765  -0.164  -0.888  0.00  0.00     0.003 A 
ATOM      7  I   UNL d   1      -3.277   1.367  -0.501  0.00  0.00    -0.146 I 
ENDROOT
TORSDOF 0
ENDMDL
