MODEL 1
REMARK minimizedAffinity 5.41214895
REMARK minimizedRMSD -1
REMARK  0 active torsions:
REMARK  status: ('A' for Active; 'I' for Inactive)
ROOT
ATOM      1  C1  DEN d   1       1.751  -1.566  -4.488  0.00  0.00     0.130 A 
ATOM      2  C2  DEN d   1       2.945  -2.406  -4.534  0.00  0.00    -0.031 A 
ATOM      3  C3  DEN d   1       4.123  -1.520  -4.618  0.00  0.00     0.027 A 
ATOM      4  C4  DEN d   1       4.215   1.057  -4.677  0.00  0.00     0.027 A 
ATOM      5  C5  DEN d   1       3.458   2.208  -4.673  0.00  0.00    -0.003 A 
ATOM      6  C6  DEN d   1       2.089   2.181  -4.641  0.00  0.00     0.001 A 
ATOM      7  C7  DEN d   1       1.435   0.979  -4.567  0.00  0.00     0.017 A 
ATOM      8  C8  DEN d   1       2.191  -0.185  -4.578  0.00  0.00    -0.094 A 
ATOM      9  C9  DEN d   1       3.575  -0.137  -4.598  0.00  0.00    -0.072 A 
ENDROOT
TORSDOF 0
ENDMDL
