MODEL 1
REMARK minimizedAffinity 4.2968626
REMARK minimizedRMSD -1
REMARK  0 active torsions:
REMARK  status: ('A' for Active; 'I' for Inactive)
ROOT
ATOM      1  C1  DEN d   1      -0.085  -3.327  -0.298  0.00  0.00     0.130 A 
ATOM      2  C2  DEN d   1      -1.109  -3.339  -1.338  0.00  0.00    -0.031 A 
ATOM      3  C3  DEN d   1      -1.163  -1.992  -1.942  0.00  0.00     0.027 A 
ATOM      4  C4  DEN d   1       0.237   0.098  -1.372  0.00  0.00     0.027 A 
ATOM      5  C5  DEN d   1       1.225   0.599  -0.553  0.00  0.00    -0.003 A 
ATOM      6  C6  DEN d   1       1.816  -0.158   0.424  0.00  0.00     0.001 A 
ATOM      7  C7  DEN d   1       1.457  -1.471   0.576  0.00  0.00     0.017 A 
ATOM      8  C8  DEN d   1       0.457  -1.981  -0.242  0.00  0.00    -0.094 A 
ATOM      9  C9  DEN d   1      -0.120  -1.204  -1.231  0.00  0.00    -0.072 A 
ENDROOT
TORSDOF 0
ENDMDL
