MODEL 1
REMARK minimizedAffinity 5.77312946
REMARK minimizedRMSD -1
REMARK  0 active torsions:
REMARK  status: ('A' for Active; 'I' for Inactive)
ROOT
ATOM      1  C1  DEN d   1       1.287  -1.060  -0.559  0.00  0.00     0.130 A 
ATOM      2  C2  DEN d   1       0.001  -1.460   0.007  0.00  0.00    -0.031 A 
ATOM      3  C3  DEN d   1      -0.349  -0.496   1.069  0.00  0.00     0.027 A 
ATOM      4  C4  DEN d   1       0.964   1.568   1.886  0.00  0.00     0.027 A 
ATOM      5  C5  DEN d   1       2.115   2.305   1.717  0.00  0.00    -0.003 A 
ATOM      6  C6  DEN d   1       3.079   1.956   0.808  0.00  0.00     0.001 A 
ATOM      7  C7  DEN d   1       2.888   0.865   0.002  0.00  0.00     0.017 A 
ATOM      8  C8  DEN d   1       1.733   0.113   0.172  0.00  0.00    -0.094 A 
ATOM      9  C9  DEN d   1       0.765   0.489   1.087  0.00  0.00    -0.072 A 
ENDROOT
TORSDOF 0
ENDMDL
