MODEL 1
REMARK minimizedAffinity 2.08633566
REMARK minimizedRMSD -1
REMARK  0 active torsions:
REMARK  status: ('A' for Active; 'I' for Inactive)
ROOT
ATOM      1  C1  DEN d   1      -2.215  -1.691  -2.017  0.00  0.00     0.130 A 
ATOM      2  C2  DEN d   1      -1.287  -1.222  -0.991  0.00  0.00    -0.031 A 
ATOM      3  C3  DEN d   1      -0.218  -2.229  -0.848  0.00  0.00     0.027 A 
ATOM      4  C4  DEN d   1       0.094  -4.457  -2.110  0.00  0.00     0.027 A 
ATOM      5  C5  DEN d   1      -0.444  -5.290  -3.066  0.00  0.00    -0.003 A 
ATOM      6  C6  DEN d   1      -1.618  -5.001  -3.710  0.00  0.00     0.001 A 
ATOM      7  C7  DEN d   1      -2.270  -3.827  -3.438  0.00  0.00     0.017 A 
ATOM      8  C8  DEN d   1      -1.737  -2.985  -2.470  0.00  0.00    -0.094 A 
ATOM      9  C9  DEN d   1      -0.543  -3.289  -1.839  0.00  0.00    -0.072 A 
ENDROOT
TORSDOF 0
ENDMDL
