MODEL 1
REMARK minimizedAffinity 1.89915848
REMARK minimizedRMSD -1
REMARK  0 active torsions:
REMARK  status: ('A' for Active; 'I' for Inactive)
ROOT
ATOM      1  C1  DEN d   1       0.978   1.904   1.392  0.00  0.00     0.130 A 
ATOM      2  C2  DEN d   1       2.324   1.636   1.889  0.00  0.00    -0.031 A 
ATOM      3  C3  DEN d   1       2.706   0.274   1.462  0.00  0.00     0.027 A 
ATOM      4  C4  DEN d   1       1.351  -1.432   0.082  0.00  0.00     0.027 A 
ATOM      5  C5  DEN d   1       0.151  -1.661  -0.555  0.00  0.00    -0.003 A 
ATOM      6  C6  DEN d   1      -0.861  -0.739  -0.560  0.00  0.00     0.001 A 
ATOM      7  C7  DEN d   1      -0.676   0.475   0.048  0.00  0.00     0.017 A 
ATOM      8  C8  DEN d   1       0.528   0.710   0.699  0.00  0.00    -0.094 A 
ATOM      9  C9  DEN d   1       1.544  -0.230   0.682  0.00  0.00    -0.072 A 
ENDROOT
TORSDOF 0
ENDMDL
