MODEL 1
REMARK minimizedAffinity 0.273901254
REMARK minimizedRMSD -1
REMARK  0 active torsions:
REMARK  status: ('A' for Active; 'I' for Inactive)
ROOT
ATOM      1  C1  DEN d   1       1.405   1.155   3.331  0.00  0.00     0.130 A 
ATOM      2  C2  DEN d   1       0.220   0.676   4.038  0.00  0.00    -0.031 A 
ATOM      3  C3  DEN d   1      -0.474  -0.289   3.163  0.00  0.00     0.027 A 
ATOM      4  C4  DEN d   1       0.169  -1.089   0.797  0.00  0.00     0.027 A 
ATOM      5  C5  DEN d   1       1.085  -0.955  -0.223  0.00  0.00    -0.003 A 
ATOM      6  C6  DEN d   1       2.144  -0.091  -0.144  0.00  0.00     0.001 A 
ATOM      7  C7  DEN d   1       2.340   0.641   0.997  0.00  0.00     0.017 A 
ATOM      8  C8  DEN d   1       1.416   0.517   2.027  0.00  0.00    -0.094 A 
ATOM      9  C9  DEN d   1       0.358  -0.372   1.933  0.00  0.00    -0.072 A 
ENDROOT
TORSDOF 0
ENDMDL
