MODEL 1
REMARK minimizedAffinity 3.34427643
REMARK minimizedRMSD -1
REMARK  0 active torsions:
REMARK  status: ('A' for Active; 'I' for Inactive)
ROOT
ATOM      1  C1  DEN d   1       0.026  -0.767   0.941  0.00  0.00     0.130 A 
ATOM      2  C2  DEN d   1       0.606  -1.196  -0.329  0.00  0.00    -0.031 A 
ATOM      3  C3  DEN d   1       1.909  -0.519  -0.487  0.00  0.00     0.027 A 
ATOM      4  C4  DEN d   1       3.081   1.139   1.104  0.00  0.00     0.027 A 
ATOM      5  C5  DEN d   1       2.971   1.815   2.299  0.00  0.00    -0.003 A 
ATOM      6  C6  DEN d   1       1.867   1.706   3.102  0.00  0.00     0.001 A 
ATOM      7  C7  DEN d   1       0.847   0.866   2.742  0.00  0.00     0.017 A 
ATOM      8  C8  DEN d   1       0.946   0.186   1.535  0.00  0.00    -0.094 A 
ATOM      9  C9  DEN d   1       2.076   0.301   0.743  0.00  0.00    -0.072 A 
ENDROOT
TORSDOF 0
ENDMDL
