MODEL 1
REMARK minimizedAffinity 10.216033
REMARK minimizedRMSD -1
REMARK  0 active torsions:
REMARK  status: ('A' for Active; 'I' for Inactive)
ROOT
ATOM      1  C1  DEN d   1      -2.151  -5.196  -4.488  0.00  0.00     0.130 A 
ATOM      2  C2  DEN d   1      -2.673  -4.125  -5.332  0.00  0.00    -0.031 A 
ATOM      3  C3  DEN d   1      -1.524  -3.400  -5.912  0.00  0.00     0.027 A 
ATOM      4  C4  DEN d   1       0.998  -3.834  -5.589  0.00  0.00     0.027 A 
ATOM      5  C5  DEN d   1       1.928  -4.626  -4.954  0.00  0.00    -0.003 A 
ATOM      6  C6  DEN d   1       1.568  -5.634  -4.100  0.00  0.00     0.001 A 
ATOM      7  C7  DEN d   1       0.241  -5.906  -3.892  0.00  0.00     0.017 A 
ATOM      8  C8  DEN d   1      -0.703  -5.106  -4.523  0.00  0.00    -0.094 A 
ATOM      9  C9  DEN d   1      -0.318  -4.100  -5.393  0.00  0.00    -0.072 A 
ENDROOT
TORSDOF 0
ENDMDL
