MODEL 1
REMARK minimizedAffinity 18.2537746
REMARK minimizedRMSD -1
REMARK  0 active torsions:
REMARK  status: ('A' for Active; 'I' for Inactive)
ROOT
ATOM      1  C1  DEN d   1       1.436  -0.564  -4.256  0.00  0.00     0.130 A 
ATOM      2  C2  DEN d   1       1.236   0.355  -5.373  0.00  0.00    -0.031 A 
ATOM      3  C3  DEN d   1       2.160   1.494  -5.200  0.00  0.00     0.027 A 
ATOM      4  C4  DEN d   1       3.876   1.918  -3.322  0.00  0.00     0.027 A 
ATOM      5  C5  DEN d   1       4.400   1.425  -2.147  0.00  0.00    -0.003 A 
ATOM      6  C6  DEN d   1       3.953   0.261  -1.580  0.00  0.00     0.001 A 
ATOM      7  C7  DEN d   1       2.984  -0.472  -2.211  0.00  0.00     0.017 A 
ATOM      8  C8  DEN d   1       2.445   0.022  -3.392  0.00  0.00    -0.094 A 
ATOM      9  C9  DEN d   1       2.919   1.195  -3.955  0.00  0.00    -0.072 A 
ENDROOT
TORSDOF 0
ENDMDL
