MODEL 1
REMARK minimizedAffinity 4.7394824
REMARK minimizedRMSD -1
REMARK  0 active torsions:
REMARK  status: ('A' for Active; 'I' for Inactive)
ROOT
ATOM      1  C1  DEN d   1      -4.230   1.673   0.132  0.00  0.00     0.130 A 
ATOM      2  C2  DEN d   1      -4.608   1.094  -1.155  0.00  0.00    -0.031 A 
ATOM      3  C3  DEN d   1      -4.141  -0.306  -1.181  0.00  0.00     0.027 A 
ATOM      4  C4  DEN d   1      -2.879  -1.630   0.638  0.00  0.00     0.027 A 
ATOM      5  C5  DEN d   1      -2.327  -1.559   1.898  0.00  0.00    -0.003 A 
ATOM      6  C6  DEN d   1      -2.340  -0.406   2.638  0.00  0.00     0.001 A 
ATOM      7  C7  DEN d   1      -2.957   0.711   2.141  0.00  0.00     0.017 A 
ATOM      8  C8  DEN d   1      -3.510   0.650   0.869  0.00  0.00    -0.094 A 
ATOM      9  C9  DEN d   1      -3.498  -0.528   0.142  0.00  0.00    -0.072 A 
ENDROOT
TORSDOF 0
ENDMDL
