MODEL 1
REMARK minimizedAffinity -3.70060682
REMARK minimizedRMSD -1
REMARK  0 active torsions:
REMARK  status: ('A' for Active; 'I' for Inactive)
ROOT
ATOM      1  N1  IND d   1      -0.881   0.492  -0.980  0.00  0.00    -0.196 N 
ATOM      2  C2  IND d   1       0.340   1.107  -0.979  0.00  0.00     0.054 A 
ATOM      3  C3  IND d   1       1.133   0.576  -0.021  0.00  0.00    -0.031 A 
ATOM      4  C4  IND d   1       0.669  -1.379   1.588  0.00  0.00     0.051 A 
ATOM      5  C5  IND d   1      -0.319  -2.234   1.988  0.00  0.00    -0.031 A 
ATOM      6  C6  IND d   1      -1.570  -2.226   1.404  0.00  0.00     0.015 A 
ATOM      7  C7  IND d   1      -1.876  -1.366   0.388  0.00  0.00    -0.016 A 
ATOM      8  C8  IND d   1      -0.877  -0.492  -0.015  0.00  0.00    -0.047 A 
ATOM      9  C9  IND d   1       0.380  -0.466   0.602  0.00  0.00    -0.096 A 
ATOM     10  HN1 IND d   1      -1.540   0.686  -1.496  0.00  0.00     0.298 HD
ENDROOT
TORSDOF 0
ENDMDL
