MODEL 1
REMARK minimizedAffinity -4.74586821
REMARK minimizedRMSD -1
REMARK  0 active torsions:
REMARK  status: ('A' for Active; 'I' for Inactive)
ROOT
ATOM      1  N1  IND d   1       1.412  -0.235   0.073  0.00  0.00    -0.196 N 
ATOM      2  C2  IND d   1       1.078   1.051  -0.250  0.00  0.00     0.054 A 
ATOM      3  C3  IND d   1      -0.259   1.226  -0.161  0.00  0.00    -0.031 A 
ATOM      4  C4  IND d   1      -2.079  -0.431   0.594  0.00  0.00     0.051 A 
ATOM      5  C5  IND d   1      -2.266  -1.736   0.953  0.00  0.00    -0.031 A 
ATOM      6  C6  IND d   1      -1.214  -2.625   1.042  0.00  0.00     0.015 A 
ATOM      7  C7  IND d   1       0.070  -2.237   0.784  0.00  0.00    -0.016 A 
ATOM      8  C8  IND d   1       0.263  -0.914   0.412  0.00  0.00    -0.047 A 
ATOM      9  C9  IND d   1      -0.806  -0.018   0.279  0.00  0.00    -0.096 A 
ATOM     10  HN1 IND d   1       2.206  -0.564   0.066  0.00  0.00     0.298 HD
ENDROOT
TORSDOF 0
ENDMDL
