MODEL 1
REMARK minimizedAffinity -4.23758173
REMARK minimizedRMSD -1
REMARK  0 active torsions:
REMARK  status: ('A' for Active; 'I' for Inactive)
ROOT
ATOM      1  N1  IND d   1       0.022   1.996   0.135  0.00  0.00    -0.196 N 
ATOM      2  C2  IND d   1      -1.279   2.279   0.442  0.00  0.00     0.054 A 
ATOM      3  C3  IND d   1      -1.956   1.141   0.718  0.00  0.00    -0.031 A 
ATOM      4  C4  IND d   1      -1.102  -1.285   0.824  0.00  0.00     0.051 A 
ATOM      5  C5  IND d   1       0.007  -2.048   0.586  0.00  0.00    -0.031 A 
ATOM      6  C6  IND d   1       1.202  -1.490   0.180  0.00  0.00     0.015 A 
ATOM      7  C7  IND d   1       1.337  -0.142   0.007  0.00  0.00    -0.016 A 
ATOM      8  C8  IND d   1       0.211   0.635   0.241  0.00  0.00    -0.047 A 
ATOM      9  C9  IND d   1      -1.016   0.071   0.612  0.00  0.00    -0.096 A 
ATOM     10  HN1 IND d   1       0.622   2.570  -0.088  0.00  0.00     0.298 HD
ENDROOT
TORSDOF 0
ENDMDL
