MODEL 1
REMARK minimizedAffinity -5.48057747
REMARK minimizedRMSD -1
REMARK  0 active torsions:
REMARK  status: ('A' for Active; 'I' for Inactive)
ROOT
ATOM      1  N1  IND d   1      -0.435   0.760   0.483  0.00  0.00    -0.196 N 
ATOM      2  C2  IND d   1       0.584   0.074  -0.117  0.00  0.00     0.054 A 
ATOM      3  C3  IND d   1       0.339  -1.255  -0.084  0.00  0.00    -0.031 A 
ATOM      4  C4  IND d   1      -1.716  -2.518   0.815  0.00  0.00     0.051 A 
ATOM      5  C5  IND d   1      -2.890  -2.325   1.488  0.00  0.00    -0.031 A 
ATOM      6  C6  IND d   1      -3.315  -1.067   1.865  0.00  0.00     0.015 A 
ATOM      7  C7  IND d   1      -2.585   0.049   1.573  0.00  0.00    -0.016 A 
ATOM      8  C8  IND d   1      -1.389  -0.144   0.896  0.00  0.00    -0.047 A 
ATOM      9  C9  IND d   1      -0.931  -1.421   0.548  0.00  0.00    -0.096 A 
ATOM     10  HN1 IND d   1      -0.473   1.613   0.586  0.00  0.00     0.298 HD
ENDROOT
TORSDOF 0
ENDMDL
