MODEL 1
REMARK minimizedAffinity -0.333273441
REMARK minimizedRMSD -1
REMARK  0 active torsions:
REMARK  status: ('A' for Active; 'I' for Inactive)
ROOT
ATOM      1  N1  IND d   1      -1.617  -1.389   1.212  0.00  0.00    -0.196 N 
ATOM      2  C2  IND d   1      -0.596  -2.187   0.777  0.00  0.00     0.054 A 
ATOM      3  C3  IND d   1       0.382  -1.438   0.222  0.00  0.00    -0.031 A 
ATOM      4  C4  IND d   1       0.564   1.121   0.012  0.00  0.00     0.051 A 
ATOM      5  C5  IND d   1      -0.139   2.272   0.231  0.00  0.00    -0.031 A 
ATOM      6  C6  IND d   1      -1.394   2.262   0.803  0.00  0.00     0.015 A 
ATOM      7  C7  IND d   1      -1.992   1.096   1.189  0.00  0.00    -0.016 A 
ATOM      8  C8  IND d   1      -1.284  -0.076   0.961  0.00  0.00    -0.047 A 
ATOM      9  C9  IND d   1      -0.028  -0.075   0.342  0.00  0.00    -0.096 A 
ATOM     10  HN1 IND d   1      -2.345  -1.661   1.580  0.00  0.00     0.298 HD
ENDROOT
TORSDOF 0
ENDMDL
