MODEL 1
REMARK minimizedAffinity -3.66584849
REMARK minimizedRMSD -1
REMARK  0 active torsions:
REMARK  status: ('A' for Active; 'I' for Inactive)
ROOT
ATOM      1  N1  IND d   1      -0.021  -1.877   0.856  0.00  0.00    -0.196 N 
ATOM      2  C2  IND d   1      -1.368  -1.682   0.728  0.00  0.00     0.054 A 
ATOM      3  C3  IND d   1      -1.626  -0.408   0.355  0.00  0.00    -0.031 A 
ATOM      4  C4  IND d   1       0.014   1.498  -0.198  0.00  0.00     0.051 A 
ATOM      5  C5  IND d   1       1.344   1.811  -0.191  0.00  0.00    -0.031 A 
ATOM      6  C6  IND d   1       2.307   0.891   0.170  0.00  0.00     0.015 A 
ATOM      7  C7  IND d   1       1.975  -0.385   0.529  0.00  0.00    -0.016 A 
ATOM      8  C8  IND d   1       0.625  -0.704   0.529  0.00  0.00    -0.047 A 
ATOM      9  C9  IND d   1      -0.360   0.238   0.204  0.00  0.00    -0.096 A 
ATOM     10  HN1 IND d   1       0.360  -2.608   1.099  0.00  0.00     0.298 HD
ENDROOT
TORSDOF 0
ENDMDL
