MODEL 1
REMARK minimizedAffinity 0.514521241
REMARK minimizedRMSD -1
REMARK  0 active torsions:
REMARK  status: ('A' for Active; 'I' for Inactive)
ROOT
ATOM      1  N1  IND d   1      -1.164   1.842  -0.726  0.00  0.00    -0.196 N 
ATOM      2  C2  IND d   1      -0.387   1.237   0.222  0.00  0.00     0.054 A 
ATOM      3  C3  IND d   1       0.896   1.166  -0.198  0.00  0.00    -0.031 A 
ATOM      4  C4  IND d   1       1.963   2.071  -2.359  0.00  0.00     0.051 A 
ATOM      5  C5  IND d   1       1.649   2.668  -3.547  0.00  0.00    -0.031 A 
ATOM      6  C6  IND d   1       0.355   3.030  -3.861  0.00  0.00     0.015 A 
ATOM      7  C7  IND d   1      -0.676   2.818  -2.990  0.00  0.00    -0.016 A 
ATOM      8  C8  IND d   1      -0.361   2.205  -1.785  0.00  0.00    -0.047 A 
ATOM      9  C9  IND d   1       0.943   1.797  -1.478  0.00  0.00    -0.096 A 
ATOM     10  HN1 IND d   1      -2.012   1.974  -0.670  0.00  0.00     0.298 HD
ENDROOT
TORSDOF 0
ENDMDL
