MODEL 1
REMARK minimizedAffinity -4.71970558
REMARK minimizedRMSD -1
REMARK  0 active torsions:
REMARK  status: ('A' for Active; 'I' for Inactive)
ROOT
ATOM      1  N1  IND d   1       0.908  -0.183  -0.565  0.00  0.00    -0.196 N 
ATOM      2  C2  IND d   1       0.417   1.092  -0.604  0.00  0.00     0.054 A 
ATOM      3  C3  IND d   1      -0.773   1.158   0.034  0.00  0.00    -0.031 A 
ATOM      4  C4  IND d   1      -2.051  -0.681   1.304  0.00  0.00     0.051 A 
ATOM      5  C5  IND d   1      -2.018  -2.019   1.584  0.00  0.00    -0.031 A 
ATOM      6  C6  IND d   1      -0.986  -2.828   1.156  0.00  0.00     0.015 A 
ATOM      7  C7  IND d   1       0.063  -2.326   0.438  0.00  0.00    -0.016 A 
ATOM      8  C8  IND d   1       0.029  -0.970   0.145  0.00  0.00    -0.047 A 
ATOM      9  C9  IND d   1      -1.037  -0.152   0.541  0.00  0.00    -0.096 A 
ATOM     10  HN1 IND d   1       1.643  -0.449  -0.925  0.00  0.00     0.298 HD
ENDROOT
TORSDOF 0
ENDMDL
