MODEL 1
REMARK minimizedAffinity -2.33453536
REMARK minimizedRMSD -1
REMARK  0 active torsions:
REMARK  status: ('A' for Active; 'I' for Inactive)
ROOT
ATOM      1  N1  IND d   1       1.148   0.475  -0.556  0.00  0.00    -0.196 N 
ATOM      2  C2  IND d   1       0.365   1.595  -0.577  0.00  0.00     0.054 A 
ATOM      3  C3  IND d   1      -0.868   1.316  -0.097  0.00  0.00    -0.031 A 
ATOM      4  C4  IND d   1      -1.786  -0.886   0.871  0.00  0.00     0.051 A 
ATOM      5  C5  IND d   1      -1.455  -2.197   1.066  0.00  0.00    -0.031 A 
ATOM      6  C6  IND d   1      -0.214  -2.694   0.726  0.00  0.00     0.015 A 
ATOM      7  C7  IND d   1       0.752  -1.892   0.187  0.00  0.00    -0.016 A 
ATOM      8  C8  IND d   1       0.417  -0.561  -0.020  0.00  0.00    -0.047 A 
ATOM      9  C9  IND d   1      -0.856  -0.061   0.284  0.00  0.00    -0.096 A 
ATOM     10  HN1 IND d   1       1.961   0.427  -0.832  0.00  0.00     0.298 HD
ENDROOT
TORSDOF 0
ENDMDL
