MODEL 1
REMARK minimizedAffinity 1.19982266
REMARK minimizedRMSD -1
REMARK  0 active torsions:
REMARK  status: ('A' for Active; 'I' for Inactive)
ROOT
ATOM      1  N1  IND d   1      -1.621   1.734   0.602  0.00  0.00    -0.196 N 
ATOM      2  C2  IND d   1      -2.968   1.710   0.834  0.00  0.00     0.054 A 
ATOM      3  C3  IND d   1      -3.436   0.445   0.756  0.00  0.00    -0.031 A 
ATOM      4  C4  IND d   1      -2.154  -1.752   0.359  0.00  0.00     0.051 A 
ATOM      5  C5  IND d   1      -0.912  -2.235   0.059  0.00  0.00    -0.031 A 
ATOM      6  C6  IND d   1       0.181  -1.403  -0.076  0.00  0.00     0.015 A 
ATOM      7  C7  IND d   1       0.073  -0.052   0.096  0.00  0.00    -0.016 A 
ATOM      8  C8  IND d   1      -1.189   0.443   0.395  0.00  0.00    -0.047 A 
ATOM      9  C9  IND d   1      -2.309  -0.392   0.491  0.00  0.00    -0.096 A 
ATOM     10  HN1 IND d   1      -1.127   2.438   0.588  0.00  0.00     0.298 HD
ENDROOT
TORSDOF 0
ENDMDL
