MODEL 1
REMARK minimizedAffinity -4.98052168
REMARK minimizedRMSD -1
REMARK  0 active torsions:
REMARK  status: ('A' for Active; 'I' for Inactive)
ROOT
ATOM      1  N1  IND d   1       1.095   2.050  -1.906  0.00  0.00    -0.196 N 
ATOM      2  C2  IND d   1       0.916   1.763  -3.231  0.00  0.00     0.054 A 
ATOM      3  C3  IND d   1       0.308   0.564  -3.374  0.00  0.00    -0.031 A 
ATOM      4  C4  IND d   1      -0.574  -1.048  -1.571  0.00  0.00     0.051 A 
ATOM      5  C5  IND d   1      -0.609  -1.236  -0.218  0.00  0.00    -0.031 A 
ATOM      6  C6  IND d   1      -0.070  -0.318   0.660  0.00  0.00     0.015 A 
ATOM      7  C7  IND d   1       0.517   0.833   0.215  0.00  0.00    -0.016 A 
ATOM      8  C8  IND d   1       0.561   1.023  -1.159  0.00  0.00    -0.047 A 
ATOM      9  C9  IND d   1       0.053   0.075  -2.056  0.00  0.00    -0.096 A 
ATOM     10  HN1 IND d   1       1.476   2.754  -1.593  0.00  0.00     0.298 HD
ENDROOT
TORSDOF 0
ENDMDL
