MODEL 1
REMARK minimizedAffinity -4.30838299
REMARK minimizedRMSD -1
REMARK  0 active torsions:
REMARK  status: ('A' for Active; 'I' for Inactive)
ROOT
ATOM      1  N1  IND d   1       1.128   0.703  -0.768  0.00  0.00    -0.196 N 
ATOM      2  C2  IND d   1       0.479   1.906  -0.734  0.00  0.00     0.054 A 
ATOM      3  C3  IND d   1      -0.707   1.783  -0.098  0.00  0.00    -0.031 A 
ATOM      4  C4  IND d   1      -1.738  -0.275   1.056  0.00  0.00     0.051 A 
ATOM      5  C5  IND d   1      -1.535  -1.611   1.258  0.00  0.00    -0.031 A 
ATOM      6  C6  IND d   1      -0.410  -2.257   0.788  0.00  0.00     0.015 A 
ATOM      7  C7  IND d   1       0.564  -1.585   0.104  0.00  0.00    -0.016 A 
ATOM      8  C8  IND d   1       0.358  -0.229  -0.108  0.00  0.00    -0.047 A 
ATOM      9  C9  IND d   1      -0.802   0.423   0.330  0.00  0.00    -0.096 A 
ATOM     10  HN1 IND d   1       1.889   0.554  -1.139  0.00  0.00     0.298 HD
ENDROOT
TORSDOF 0
ENDMDL
