MODEL 1
REMARK minimizedAffinity -4.33324432
REMARK minimizedRMSD -1
REMARK  0 active torsions:
REMARK  status: ('A' for Active; 'I' for Inactive)
ROOT
ATOM      1  N1  IND d   1       0.385   2.583  -1.961  0.00  0.00    -0.196 N 
ATOM      2  C2  IND d   1       1.088   2.104  -3.031  0.00  0.00     0.054 A 
ATOM      3  C3  IND d   1       1.279   0.771  -2.909  0.00  0.00    -0.031 A 
ATOM      4  C4  IND d   1       0.438  -0.843  -1.088  0.00  0.00     0.051 A 
ATOM      5  C5  IND d   1      -0.215  -0.866   0.112  0.00  0.00    -0.031 A 
ATOM      6  C6  IND d   1      -0.714   0.282   0.693  0.00  0.00     0.015 A 
ATOM      7  C7  IND d   1      -0.588   1.500   0.087  0.00  0.00    -0.016 A 
ATOM      8  C8  IND d   1       0.081   1.528  -1.128  0.00  0.00    -0.047 A 
ATOM      9  C9  IND d   1       0.627   0.373  -1.702  0.00  0.00    -0.096 A 
ATOM     10  HN1 IND d   1       0.169   3.405  -1.830  0.00  0.00     0.298 HD
ENDROOT
TORSDOF 0
ENDMDL
