MODEL 1
REMARK minimizedAffinity -2.26949835
REMARK minimizedRMSD -1
REMARK  0 active torsions:
REMARK  status: ('A' for Active; 'I' for Inactive)
ROOT
ATOM      1  N1  IND d   1       1.182  -0.408   0.793  0.00  0.00    -0.196 N 
ATOM      2  C2  IND d   1       0.870   0.813   0.263  0.00  0.00     0.054 A 
ATOM      3  C3  IND d   1      -0.452   0.882  -0.013  0.00  0.00    -0.031 A 
ATOM      4  C4  IND d   1      -2.304  -0.854   0.416  0.00  0.00     0.051 A 
ATOM      5  C5  IND d   1      -2.501  -2.135   0.849  0.00  0.00    -0.031 A 
ATOM      6  C6  IND d   1      -1.459  -2.921   1.296  0.00  0.00     0.015 A 
ATOM      7  C7  IND d   1      -0.177  -2.449   1.339  0.00  0.00    -0.016 A 
ATOM      8  C8  IND d   1       0.027  -1.151   0.894  0.00  0.00    -0.047 A 
ATOM      9  C9  IND d   1      -1.020  -0.363   0.398  0.00  0.00    -0.096 A 
ATOM     10  HN1 IND d   1       1.969  -0.668   1.024  0.00  0.00     0.298 HD
ENDROOT
TORSDOF 0
ENDMDL
