MODEL 1
REMARK minimizedAffinity -6.17098618
REMARK minimizedRMSD -1
REMARK  0 active torsions:
REMARK  status: ('A' for Active; 'I' for Inactive)
ROOT
ATOM      1  N1  IND d   1      -0.665   1.220   0.181  0.00  0.00    -0.196 N 
ATOM      2  C2  IND d   1       0.585   1.578  -0.241  0.00  0.00     0.054 A 
ATOM      3  C3  IND d   1       1.402   0.501  -0.257  0.00  0.00    -0.031 A 
ATOM      4  C4  IND d   1       0.871  -1.962   0.269  0.00  0.00     0.051 A 
ATOM      5  C5  IND d   1      -0.126  -2.774   0.732  0.00  0.00    -0.031 A 
ATOM      6  C6  IND d   1      -1.380  -2.287   1.039  0.00  0.00     0.015 A 
ATOM      7  C7  IND d   1      -1.688  -0.965   0.882  0.00  0.00    -0.016 A 
ATOM      8  C8  IND d   1      -0.676  -0.136   0.419  0.00  0.00    -0.047 A 
ATOM      9  C9  IND d   1       0.611  -0.618   0.146  0.00  0.00    -0.096 A 
ATOM     10  HN1 IND d   1      -1.333   1.753   0.280  0.00  0.00     0.298 HD
ENDROOT
TORSDOF 0
ENDMDL
