MODEL 1
REMARK minimizedAffinity -5.14266348
REMARK minimizedRMSD -1
REMARK  0 active torsions:
REMARK  status: ('A' for Active; 'I' for Inactive)
ROOT
ATOM      1  N1  IND d   1      -0.026   1.687   0.714  0.00  0.00    -0.196 N 
ATOM      2  C2  IND d   1      -1.308   1.970   1.095  0.00  0.00     0.054 A 
ATOM      3  C3  IND d   1      -2.025   0.830   1.216  0.00  0.00    -0.031 A 
ATOM      4  C4  IND d   1      -1.269  -1.615   0.937  0.00  0.00     0.051 A 
ATOM      5  C5  IND d   1      -0.198  -2.375   0.560  0.00  0.00    -0.031 A 
ATOM      6  C6  IND d   1       1.010  -1.809   0.209  0.00  0.00     0.015 A 
ATOM      7  C7  IND d   1       1.197  -0.456   0.235  0.00  0.00    -0.016 A 
ATOM      8  C8  IND d   1       0.109   0.320   0.612  0.00  0.00    -0.047 A 
ATOM      9  C9  IND d   1      -1.132  -0.247   0.927  0.00  0.00    -0.096 A 
ATOM     10  HN1 IND d   1       0.592   2.265   0.564  0.00  0.00     0.298 HD
ENDROOT
TORSDOF 0
ENDMDL
