MODEL 1
REMARK minimizedAffinity -4.25480604
REMARK minimizedRMSD -1
REMARK  0 active torsions:
REMARK  status: ('A' for Active; 'I' for Inactive)
ROOT
ATOM      1  N1  IND d   1       0.267  -1.930   0.316  0.00  0.00    -0.196 N 
ATOM      2  C2  IND d   1      -0.789  -2.693   0.732  0.00  0.00     0.054 A 
ATOM      3  C3  IND d   1      -1.817  -1.904   1.115  0.00  0.00    -0.031 A 
ATOM      4  C4  IND d   1      -2.025   0.661   1.046  0.00  0.00     0.051 A 
ATOM      5  C5  IND d   1      -1.308   1.793   0.777  0.00  0.00    -0.031 A 
ATOM      6  C6  IND d   1      -0.003   1.741   0.330  0.00  0.00     0.015 A 
ATOM      7  C7  IND d   1       0.631   0.549   0.122  0.00  0.00    -0.016 A 
ATOM      8  C8  IND d   1      -0.092  -0.602   0.400  0.00  0.00    -0.047 A 
ATOM      9  C9  IND d   1      -1.401  -0.555   0.896  0.00  0.00    -0.096 A 
ATOM     10  HN1 IND d   1       1.027  -2.229   0.046  0.00  0.00     0.298 HD
ENDROOT
TORSDOF 0
ENDMDL
