MODEL 1
REMARK minimizedAffinity -0.850451767
REMARK minimizedRMSD -1
REMARK  0 active torsions:
REMARK  status: ('A' for Active; 'I' for Inactive)
ROOT
ATOM      1  N1  IND d   1      -1.262   0.531   1.208  0.00  0.00    -0.196 N 
ATOM      2  C2  IND d   1      -0.631   1.500   0.479  0.00  0.00     0.054 A 
ATOM      3  C3  IND d   1       0.459   0.990  -0.136  0.00  0.00    -0.031 A 
ATOM      4  C4  IND d   1       1.337  -1.430  -0.170  0.00  0.00     0.051 A 
ATOM      5  C5  IND d   1       1.117  -2.663   0.376  0.00  0.00    -0.031 A 
ATOM      6  C6  IND d   1       0.070  -2.900   1.243  0.00  0.00     0.015 A 
ATOM      7  C7  IND d   1      -0.807  -1.911   1.588  0.00  0.00    -0.016 A 
ATOM      8  C8  IND d   1      -0.582  -0.656   1.041  0.00  0.00    -0.047 A 
ATOM      9  C9  IND d   1       0.504  -0.399   0.195  0.00  0.00    -0.096 A 
ATOM     10  HN1 IND d   1      -1.965   0.643   1.690  0.00  0.00     0.298 HD
ENDROOT
TORSDOF 0
ENDMDL
