MODEL 1
REMARK minimizedAffinity 7.4276762
REMARK minimizedRMSD -1
REMARK  2 active torsions:
REMARK  status: ('A' for Active; 'I' for Inactive)
REMARK    1  A    between atoms: C1_2  and  C2_3 
REMARK    2  A    between atoms: C2_3  and  C3_4 
ROOT
ATOM      1  C3  UNL d   1      -1.883   1.064   1.556  0.00  0.00    -0.075 A 
ATOM      2  C4  UNL d   1      -2.329  -0.232   1.850  0.00  0.00     0.002 A 
ATOM      3  C5  UNL d   1      -2.431  -0.663   3.173  0.00  0.00     0.002 A 
ATOM      4  C6  UNL d   1      -2.078   0.191   4.216  0.00  0.00    -0.004 A 
ATOM      5  C7  UNL d   1      -1.617   1.475   3.934  0.00  0.00     0.002 A 
ATOM      6  C8  UNL d   1      -1.519   1.911   2.612  0.00  0.00     0.002 A 
ENDROOT
BRANCH   1   7
ATOM      7  C2  UNL d   1      -1.799   1.546   0.127  0.00  0.00     0.056 C 
BRANCH   7   8
ATOM      8  C1  UNL d   1      -3.037   2.317  -0.345  0.00  0.00     0.007 C 
ATOM      9  C   UNL d   1      -2.857   2.965  -1.711  0.00  0.00     0.009 C 
ENDBRANCH   7   8
ENDBRANCH   1   7
TORSDOF 2
ENDMDL
