MODEL 1
REMARK minimizedAffinity 1.41551578
REMARK minimizedRMSD -1
REMARK  2 active torsions:
REMARK  status: ('A' for Active; 'I' for Inactive)
REMARK    1  A    between atoms: C1_2  and  C2_3 
REMARK    2  A    between atoms: C2_3  and  C3_4 
ROOT
ATOM      1  C3  UNL d   1      -3.457   1.502   0.309  0.00  0.00    -0.075 A 
ATOM      2  C4  UNL d   1      -3.194   0.389   1.121  0.00  0.00     0.002 A 
ATOM      3  C5  UNL d   1      -1.982  -0.294   1.014  0.00  0.00     0.002 A 
ATOM      4  C6  UNL d   1      -1.025   0.119   0.090  0.00  0.00    -0.004 A 
ATOM      5  C7  UNL d   1      -1.283   1.213  -0.733  0.00  0.00     0.002 A 
ATOM      6  C8  UNL d   1      -2.493   1.902  -0.625  0.00  0.00     0.002 A 
ENDROOT
BRANCH   1   7
ATOM      7  C2  UNL d   1      -4.755   2.263   0.440  0.00  0.00     0.056 C 
BRANCH   7   8
ATOM      8  C1  UNL d   1      -5.999   1.371   0.492  0.00  0.00     0.007 C 
ATOM      9  C   UNL d   1      -5.947   0.332   1.604  0.00  0.00     0.009 C 
ENDBRANCH   7   8
ENDBRANCH   1   7
TORSDOF 2
ENDMDL
