MODEL 1
REMARK minimizedAffinity 7.3088274
REMARK minimizedRMSD -1
REMARK  2 active torsions:
REMARK  status: ('A' for Active; 'I' for Inactive)
REMARK    1  A    between atoms: C1_2  and  C2_3 
REMARK    2  A    between atoms: C2_3  and  C3_4 
ROOT
ATOM      1  C3  UNL d   1       2.944   5.981   5.033  0.00  0.00    -0.075 A 
ATOM      2  C4  UNL d   1       3.150   5.991   3.645  0.00  0.00     0.002 A 
ATOM      3  C5  UNL d   1       4.442   5.957   3.121  0.00  0.00     0.002 A 
ATOM      4  C6  UNL d   1       5.543   5.922   3.973  0.00  0.00    -0.004 A 
ATOM      5  C7  UNL d   1       5.351   5.928   5.353  0.00  0.00     0.002 A 
ATOM      6  C8  UNL d   1       4.059   5.959   5.881  0.00  0.00     0.002 A 
ENDROOT
BRANCH   1   7
ATOM      7  C2  UNL d   1       1.548   5.989   5.607  0.00  0.00     0.056 C 
BRANCH   7   8
ATOM      8  C1  UNL d   1       0.469   5.511   4.630  0.00  0.00     0.007 C 
ATOM      9  C   UNL d   1      -0.077   4.129   4.966  0.00  0.00     0.009 C 
ENDBRANCH   7   8
ENDBRANCH   1   7
TORSDOF 2
ENDMDL
