MODEL 1
REMARK minimizedAffinity 5.25776768
REMARK minimizedRMSD -1
REMARK  2 active torsions:
REMARK  status: ('A' for Active; 'I' for Inactive)
REMARK    1  A    between atoms: C1_2  and  C2_3 
REMARK    2  A    between atoms: C2_3  and  C3_4 
ROOT
ATOM      1  C3  UNL d   1      -2.566  -4.516  -0.569  0.00  0.00    -0.075 A 
ATOM      2  C4  UNL d   1      -3.346  -3.384  -0.845  0.00  0.00     0.002 A 
ATOM      3  C5  UNL d   1      -3.204  -2.704  -2.055  0.00  0.00     0.002 A 
ATOM      4  C6  UNL d   1      -2.276  -3.140  -2.998  0.00  0.00    -0.004 A 
ATOM      5  C7  UNL d   1      -1.484  -4.254  -2.727  0.00  0.00     0.002 A 
ATOM      6  C8  UNL d   1      -1.627  -4.939  -1.519  0.00  0.00     0.002 A 
ENDROOT
BRANCH   1   7
ATOM      7  C2  UNL d   1      -2.736  -5.274   0.727  0.00  0.00     0.056 C 
BRANCH   7   8
ATOM      8  C1  UNL d   1      -1.433  -5.472   1.508  0.00  0.00     0.007 C 
ATOM      9  C   UNL d   1      -1.028  -4.249   2.321  0.00  0.00     0.009 C 
ENDBRANCH   7   8
ENDBRANCH   1   7
TORSDOF 2
ENDMDL
