MODEL 1
REMARK minimizedAffinity 0.661892951
REMARK minimizedRMSD -1
REMARK  2 active torsions:
REMARK  status: ('A' for Active; 'I' for Inactive)
REMARK    1  A    between atoms: C1_2  and  C2_3 
REMARK    2  A    between atoms: C2_3  and  C3_4 
ROOT
ATOM      1  C3  UNL d   1      -3.303   0.820   1.610  0.00  0.00    -0.075 A 
ATOM      2  C4  UNL d   1      -3.688   2.071   1.106  0.00  0.00     0.002 A 
ATOM      3  C5  UNL d   1      -5.030   2.343   0.836  0.00  0.00     0.002 A 
ATOM      4  C6  UNL d   1      -6.000   1.367   1.057  0.00  0.00    -0.004 A 
ATOM      5  C7  UNL d   1      -5.626   0.116   1.542  0.00  0.00     0.002 A 
ATOM      6  C8  UNL d   1      -4.285  -0.158   1.817  0.00  0.00     0.002 A 
ENDROOT
BRANCH   1   7
ATOM      7  C2  UNL d   1      -1.857   0.529   1.932  0.00  0.00     0.056 C 
BRANCH   7   8
ATOM      8  C1  UNL d   1      -1.494   0.729   3.408  0.00  0.00     0.007 C 
ATOM      9  C   UNL d   1      -1.562   2.184   3.851  0.00  0.00     0.009 C 
ENDBRANCH   7   8
ENDBRANCH   1   7
TORSDOF 2
ENDMDL
