MODEL 1
REMARK minimizedAffinity 6.59828138
REMARK minimizedRMSD -1
REMARK  2 active torsions:
REMARK  status: ('A' for Active; 'I' for Inactive)
REMARK    1  A    between atoms: C1_2  and  C2_3 
REMARK    2  A    between atoms: C2_3  and  C3_4 
ROOT
ATOM      1  C3  UNL d   1      -3.035   0.669   0.833  0.00  0.00    -0.075 A 
ATOM      2  C4  UNL d   1      -3.218   1.943   0.276  0.00  0.00     0.002 A 
ATOM      3  C5  UNL d   1      -4.501   2.470   0.122  0.00  0.00     0.002 A 
ATOM      4  C6  UNL d   1      -5.614   1.728   0.512  0.00  0.00    -0.004 A 
ATOM      5  C7  UNL d   1      -5.444   0.455   1.051  0.00  0.00     0.002 A 
ATOM      6  C8  UNL d   1      -4.162  -0.073   1.210  0.00  0.00     0.002 A 
ENDROOT
BRANCH   1   7
ATOM      7  C2  UNL d   1      -1.648   0.105   1.030  0.00  0.00     0.056 C 
BRANCH   7   8
ATOM      8  C1  UNL d   1      -1.198   0.051   2.493  0.00  0.00     0.007 C 
ATOM      9  C   UNL d   1      -1.349   1.382   3.217  0.00  0.00     0.009 C 
ENDBRANCH   7   8
ENDBRANCH   1   7
TORSDOF 2
ENDMDL
