MODEL 1
REMARK minimizedAffinity 8.33781719
REMARK minimizedRMSD -1
REMARK  2 active torsions:
REMARK  status: ('A' for Active; 'I' for Inactive)
REMARK    1  A    between atoms: C1_2  and  C2_3 
REMARK    2  A    between atoms: C2_3  and  C3_4 
ROOT
ATOM      1  C3  UNL d   1       4.440   2.263   0.499  0.00  0.00    -0.075 A 
ATOM      2  C4  UNL d   1       3.824   2.989  -0.531  0.00  0.00     0.002 A 
ATOM      3  C5  UNL d   1       3.004   2.346  -1.459  0.00  0.00     0.002 A 
ATOM      4  C6  UNL d   1       2.799   0.970  -1.375  0.00  0.00    -0.004 A 
ATOM      5  C7  UNL d   1       3.419   0.237  -0.366  0.00  0.00     0.002 A 
ATOM      6  C8  UNL d   1       4.236   0.879   0.566  0.00  0.00     0.002 A 
ENDROOT
BRANCH   1   7
ATOM      7  C2  UNL d   1       5.304   2.958   1.524  0.00  0.00     0.056 C 
BRANCH   7   8
ATOM      8  C1  UNL d   1       4.884   4.402   1.818  0.00  0.00     0.007 C 
ATOM      9  C   UNL d   1       4.741   4.695   3.305  0.00  0.00     0.009 C 
ENDBRANCH   7   8
ENDBRANCH   1   7
TORSDOF 2
ENDMDL
