MODEL 1
REMARK minimizedAffinity 14.9749804
REMARK minimizedRMSD -1
REMARK  2 active torsions:
REMARK  status: ('A' for Active; 'I' for Inactive)
REMARK    1  A    between atoms: C1_2  and  C2_3 
REMARK    2  A    between atoms: C2_3  and  C3_4 
ROOT
ATOM      1  C3  UNL d   1       4.115   2.115  -0.103  0.00  0.00    -0.075 A 
ATOM      2  C4  UNL d   1       3.237   3.000  -0.746  0.00  0.00     0.002 A 
ATOM      3  C5  UNL d   1       2.264   2.520  -1.623  0.00  0.00     0.002 A 
ATOM      4  C6  UNL d   1       2.163   1.153  -1.876  0.00  0.00    -0.004 A 
ATOM      5  C7  UNL d   1       3.041   0.267  -1.256  0.00  0.00     0.002 A 
ATOM      6  C8  UNL d   1       4.012   0.744  -0.374  0.00  0.00     0.002 A 
ENDROOT
BRANCH   1   7
ATOM      7  C2  UNL d   1       5.151   2.625   0.870  0.00  0.00     0.056 C 
BRANCH   7   8
ATOM      8  C1  UNL d   1       4.586   3.000   2.244  0.00  0.00     0.007 C 
ATOM      9  C   UNL d   1       5.251   2.252   3.391  0.00  0.00     0.009 C 
ENDBRANCH   7   8
ENDBRANCH   1   7
TORSDOF 2
ENDMDL
