MODEL 1
REMARK minimizedAffinity 0.911063313
REMARK minimizedRMSD -1
REMARK  2 active torsions:
REMARK  status: ('A' for Active; 'I' for Inactive)
REMARK    1  A    between atoms: C1_2  and  C2_3 
REMARK    2  A    between atoms: C2_3  and  C3_4 
ROOT
ATOM      1  C3  UNL d   1       1.810   1.403   0.843  0.00  0.00    -0.075 A 
ATOM      2  C4  UNL d   1       0.730   0.866   0.127  0.00  0.00     0.002 A 
ATOM      3  C5  UNL d   1      -0.576   1.274   0.403  0.00  0.00     0.002 A 
ATOM      4  C6  UNL d   1      -0.819   2.213   1.402  0.00  0.00    -0.004 A 
ATOM      5  C7  UNL d   1       0.245   2.740   2.131  0.00  0.00     0.002 A 
ATOM      6  C8  UNL d   1       1.552   2.338   1.855  0.00  0.00     0.002 A 
ENDROOT
BRANCH   1   7
ATOM      7  C2  UNL d   1       3.227   0.988   0.530  0.00  0.00     0.056 C 
BRANCH   7   8
ATOM      8  C1  UNL d   1       4.295   1.899   1.146  0.00  0.00     0.007 C 
ATOM      9  C   UNL d   1       5.345   2.357   0.143  0.00  0.00     0.009 C 
ENDBRANCH   7   8
ENDBRANCH   1   7
TORSDOF 2
ENDMDL
