MODEL 1
REMARK minimizedAffinity 4.10622454
REMARK minimizedRMSD -1
REMARK  2 active torsions:
REMARK  status: ('A' for Active; 'I' for Inactive)
REMARK    1  A    between atoms: C1_2  and  C2_3 
REMARK    2  A    between atoms: C2_3  and  C3_4 
ROOT
ATOM      1  C3  UNL d   1       1.770   2.716   2.046  0.00  0.00    -0.075 A 
ATOM      2  C4  UNL d   1       1.243   2.950   3.325  0.00  0.00     0.002 A 
ATOM      3  C5  UNL d   1      -0.137   2.960   3.532  0.00  0.00     0.002 A 
ATOM      4  C6  UNL d   1      -1.006   2.747   2.464  0.00  0.00    -0.004 A 
ATOM      5  C7  UNL d   1      -0.494   2.530   1.186  0.00  0.00     0.002 A 
ATOM      6  C8  UNL d   1       0.886   2.516   0.977  0.00  0.00     0.002 A 
ENDROOT
BRANCH   1   7
ATOM      7  C2  UNL d   1       3.262   2.675   1.821  0.00  0.00     0.056 C 
BRANCH   7   8
ATOM      8  C1  UNL d   1       3.783   1.318   1.337  0.00  0.00     0.007 C 
ATOM      9  C   UNL d   1       2.740   0.513   0.572  0.00  0.00     0.009 C 
ENDBRANCH   7   8
ENDBRANCH   1   7
TORSDOF 2
ENDMDL
