MODEL 1
REMARK minimizedAffinity 8.69657993
REMARK minimizedRMSD -1
REMARK  2 active torsions:
REMARK  status: ('A' for Active; 'I' for Inactive)
REMARK    1  A    between atoms: C1_2  and  C2_3 
REMARK    2  A    between atoms: C2_3  and  C3_4 
ROOT
ATOM      1  C3  UNL d   1       1.435   1.142  -1.156  0.00  0.00    -0.075 A 
ATOM      2  C4  UNL d   1       0.162   1.575  -0.757  0.00  0.00     0.002 A 
ATOM      3  C5  UNL d   1      -0.160   1.671   0.597  0.00  0.00     0.002 A 
ATOM      4  C6  UNL d   1       0.779   1.328   1.566  0.00  0.00    -0.004 A 
ATOM      5  C7  UNL d   1       2.042   0.881   1.181  0.00  0.00     0.002 A 
ATOM      6  C8  UNL d   1       2.368   0.788  -0.173  0.00  0.00     0.002 A 
ENDROOT
BRANCH   1   7
ATOM      7  C2  UNL d   1       1.800   1.064  -2.620  0.00  0.00     0.056 C 
BRANCH   7   8
ATOM      8  C1  UNL d   1       0.650   1.414  -3.569  0.00  0.00     0.007 C 
ATOM      9  C   UNL d   1       1.066   2.345  -4.700  0.00  0.00     0.009 C 
ENDBRANCH   7   8
ENDBRANCH   1   7
TORSDOF 2
ENDMDL
