MODEL 1
REMARK minimizedAffinity 2.75266242
REMARK minimizedRMSD -1
REMARK  1 active torsions:
REMARK  status: ('A' for Active; 'I' for Inactive)
REMARK    1  A    between atoms: C1_2  and  C2_3 
ROOT
ATOM      1  C2  UNL d   1      -1.161   2.029   0.787  0.00  0.00    -0.073 A 
ATOM      2  C3  UNL d   1      -0.401   1.108   0.057  0.00  0.00    -0.002 A 
ATOM      3  C4  UNL d   1       0.472   1.546  -0.939  0.00  0.00     0.004 A 
ATOM      4  C5  UNL d   1       0.600   2.909  -1.210  0.00  0.00    -0.004 A 
ATOM      5  C6  UNL d   1      -0.141   3.845  -0.483  0.00  0.00    -0.075 A 
ATOM      6  C7  UNL d   1      -0.017   5.314  -0.764  0.00  0.00     0.076 C 
ATOM      7  C8  UNL d   1      -1.018   3.397   0.514  0.00  0.00     0.001 A 
ENDROOT
BRANCH   1   8
ATOM      8  C1  UNL d   1      -2.100   1.561   1.868  0.00  0.00     0.053 C 
ATOM      9  C   UNL d   1      -1.588   0.311   2.567  0.00  0.00     0.018 C 
ENDBRANCH   1   8
TORSDOF 1
ENDMDL
