MODEL 1
REMARK minimizedAffinity 6.09465647
REMARK minimizedRMSD -1
REMARK  1 active torsions:
REMARK  status: ('A' for Active; 'I' for Inactive)
REMARK    1  A    between atoms: C1_2  and  C2_3 
ROOT
ATOM      1  C2  UNL d   1       0.067   1.204  -1.345  0.00  0.00    -0.073 A 
ATOM      2  C3  UNL d   1       0.412   2.467  -1.840  0.00  0.00    -0.002 A 
ATOM      3  C4  UNL d   1       0.308   3.596  -1.026  0.00  0.00     0.004 A 
ATOM      4  C5  UNL d   1      -0.134   3.473   0.291  0.00  0.00    -0.004 A 
ATOM      5  C6  UNL d   1      -0.472   2.219   0.808  0.00  0.00    -0.075 A 
ATOM      6  C7  UNL d   1      -0.951   2.070   2.222  0.00  0.00     0.076 C 
ATOM      7  C8  UNL d   1      -0.368   1.090  -0.016  0.00  0.00     0.001 A 
ENDROOT
BRANCH   1   8
ATOM      8  C1  UNL d   1       0.183  -0.018  -2.218  0.00  0.00     0.053 C 
ATOM      9  C   UNL d   1      -1.175  -0.513  -2.689  0.00  0.00     0.018 C 
ENDBRANCH   1   8
TORSDOF 1
ENDMDL
