MODEL 1
REMARK minimizedAffinity 8.78511524
REMARK minimizedRMSD -1
REMARK  1 active torsions:
REMARK  status: ('A' for Active; 'I' for Inactive)
REMARK    1  A    between atoms: C1_2  and  C2_3 
ROOT
ATOM      1  C2  UNL d   1      -1.363   2.411   0.712  0.00  0.00    -0.073 A 
ATOM      2  C3  UNL d   1      -1.290   3.772   0.392  0.00  0.00    -0.002 A 
ATOM      3  C4  UNL d   1      -0.377   4.223  -0.563  0.00  0.00     0.004 A 
ATOM      4  C5  UNL d   1       0.465   3.320  -1.211  0.00  0.00    -0.004 A 
ATOM      5  C6  UNL d   1       0.399   1.955  -0.914  0.00  0.00    -0.075 A 
ATOM      6  C7  UNL d   1       1.300   0.971  -1.600  0.00  0.00     0.076 C 
ATOM      7  C8  UNL d   1      -0.518   1.510   0.048  0.00  0.00     0.001 A 
ENDROOT
BRANCH   1   8
ATOM      8  C1  UNL d   1      -2.351   1.918   1.737  0.00  0.00     0.053 C 
ATOM      9  C   UNL d   1      -1.685   1.067   2.807  0.00  0.00     0.018 C 
ENDBRANCH   1   8
TORSDOF 1
ENDMDL
