MODEL 1
REMARK minimizedAffinity 5.60070944
REMARK minimizedRMSD -1
REMARK  1 active torsions:
REMARK  status: ('A' for Active; 'I' for Inactive)
REMARK    1  A    between atoms: C1_2  and  C2_3 
ROOT
ATOM      1  C2  UNL d   1      -1.271   1.712   1.278  0.00  0.00    -0.073 A 
ATOM      2  C3  UNL d   1      -1.412   3.102   1.351  0.00  0.00    -0.002 A 
ATOM      3  C4  UNL d   1      -0.798   3.923   0.405  0.00  0.00     0.004 A 
ATOM      4  C5  UNL d   1      -0.044   3.364  -0.626  0.00  0.00    -0.004 A 
ATOM      5  C6  UNL d   1       0.099   1.976  -0.723  0.00  0.00    -0.075 A 
ATOM      6  C7  UNL d   1       0.909   1.359  -1.826  0.00  0.00     0.076 C 
ATOM      7  C8  UNL d   1      -0.518   1.158   0.232  0.00  0.00     0.001 A 
ENDROOT
BRANCH   1   8
ATOM      8  C1  UNL d   1      -1.937   0.820   2.294  0.00  0.00     0.053 C 
ATOM      9  C   UNL d   1      -1.081  -0.387   2.642  0.00  0.00     0.018 C 
ENDBRANCH   1   8
TORSDOF 1
ENDMDL
