MODEL 1
REMARK minimizedAffinity 2.00180197
REMARK minimizedRMSD -1
REMARK  1 active torsions:
REMARK  status: ('A' for Active; 'I' for Inactive)
REMARK    1  A    between atoms: C1_2  and  C2_3 
ROOT
ATOM      1  C2  UNL d   1      -1.004   0.346   2.179  0.00  0.00    -0.073 A 
ATOM      2  C3  UNL d   1      -1.732  -0.634   2.865  0.00  0.00    -0.002 A 
ATOM      3  C4  UNL d   1      -1.177  -1.894   3.093  0.00  0.00     0.004 A 
ATOM      4  C5  UNL d   1       0.111  -2.185   2.645  0.00  0.00    -0.004 A 
ATOM      5  C6  UNL d   1       0.859  -1.216   1.968  0.00  0.00    -0.075 A 
ATOM      6  C7  UNL d   1       2.245  -1.514   1.478  0.00  0.00     0.076 C 
ATOM      7  C8  UNL d   1       0.294   0.046   1.741  0.00  0.00     0.001 A 
ENDROOT
BRANCH   1   8
ATOM      8  C1  UNL d   1      -1.596   1.710   1.937  0.00  0.00     0.053 C 
ATOM      9  C   UNL d   1      -0.831   2.483   0.874  0.00  0.00     0.018 C 
ENDBRANCH   1   8
TORSDOF 1
ENDMDL
