MODEL 1
REMARK minimizedAffinity 5.56592417
REMARK minimizedRMSD -1
REMARK  1 active torsions:
REMARK  status: ('A' for Active; 'I' for Inactive)
REMARK    1  A    between atoms: C1_2  and  C2_3 
ROOT
ATOM      1  C2  UNL d   1      -0.158   0.921  -0.483  0.00  0.00    -0.073 A 
ATOM      2  C3  UNL d   1      -0.994   0.914   0.640  0.00  0.00    -0.002 A 
ATOM      3  C4  UNL d   1      -1.426   2.114   1.205  0.00  0.00     0.004 A 
ATOM      4  C5  UNL d   1      -1.033   3.333   0.650  0.00  0.00    -0.004 A 
ATOM      5  C6  UNL d   1      -0.207   3.360  -0.479  0.00  0.00    -0.075 A 
ATOM      6  C7  UNL d   1       0.226   4.662  -1.086  0.00  0.00     0.076 C 
ATOM      7  C8  UNL d   1       0.224   2.150  -1.038  0.00  0.00     0.001 A 
ENDROOT
BRANCH   1   8
ATOM      8  C1  UNL d   1       0.306  -0.373  -1.100  0.00  0.00     0.053 C 
ATOM      9  C   UNL d   1      -0.698  -0.919  -2.103  0.00  0.00     0.018 C 
ENDBRANCH   1   8
TORSDOF 1
ENDMDL
