MODEL 1
REMARK minimizedAffinity 8.52869701
REMARK minimizedRMSD -1
REMARK  1 active torsions:
REMARK  status: ('A' for Active; 'I' for Inactive)
REMARK    1  A    between atoms: C1_2  and  C2_3 
ROOT
ATOM      1  C2  UNL d   1      -0.060   1.059  -1.253  0.00  0.00    -0.073 A 
ATOM      2  C3  UNL d   1       0.140   2.345  -1.769  0.00  0.00    -0.002 A 
ATOM      3  C4  UNL d   1       0.006   3.464  -0.946  0.00  0.00     0.004 A 
ATOM      4  C5  UNL d   1      -0.324   3.309   0.400  0.00  0.00    -0.004 A 
ATOM      5  C6  UNL d   1      -0.517   2.032   0.937  0.00  0.00    -0.075 A 
ATOM      6  C7  UNL d   1      -0.874   1.849   2.383  0.00  0.00     0.076 C 
ATOM      7  C8  UNL d   1      -0.382   0.914   0.104  0.00  0.00     0.001 A 
ENDROOT
BRANCH   1   8
ATOM      8  C1  UNL d   1       0.090  -0.152  -2.137  0.00  0.00     0.053 C 
ATOM      9  C   UNL d   1      -1.253  -0.772  -2.488  0.00  0.00     0.018 C 
ENDBRANCH   1   8
TORSDOF 1
ENDMDL
