MODEL 1
REMARK minimizedAffinity 3.883003
REMARK minimizedRMSD -1
REMARK  1 active torsions:
REMARK  status: ('A' for Active; 'I' for Inactive)
REMARK    1  A    between atoms: C1_2  and  C2_3 
ROOT
ATOM      1  C2  UNL d   1      -1.642   2.403  -3.203  0.00  0.00    -0.073 A 
ATOM      2  C3  UNL d   1      -0.608   2.834  -2.364  0.00  0.00    -0.002 A 
ATOM      3  C4  UNL d   1       0.258   1.910  -1.779  0.00  0.00     0.004 A 
ATOM      4  C5  UNL d   1       0.104   0.547  -2.032  0.00  0.00    -0.004 A 
ATOM      5  C6  UNL d   1      -0.916   0.096  -2.877  0.00  0.00    -0.075 A 
ATOM      6  C7  UNL d   1      -1.096  -1.367  -3.157  0.00  0.00     0.076 C 
ATOM      7  C8  UNL d   1      -1.783   1.031  -3.458  0.00  0.00     0.001 A 
ENDROOT
BRANCH   1   8
ATOM      8  C1  UNL d   1      -2.575   3.398  -3.842  0.00  0.00     0.053 C 
ATOM      9  C   UNL d   1      -2.128   4.832  -3.606  0.00  0.00     0.018 C 
ENDBRANCH   1   8
TORSDOF 1
ENDMDL
