MODEL 1
REMARK minimizedAffinity 13.7480516
REMARK minimizedRMSD -1
REMARK  1 active torsions:
REMARK  status: ('A' for Active; 'I' for Inactive)
REMARK    1  A    between atoms: C1_2  and  C2_3 
ROOT
ATOM      1  C2  UNL d   1      -2.056   1.900  -3.088  0.00  0.00    -0.073 A 
ATOM      2  C3  UNL d   1      -0.903   2.462  -2.529  0.00  0.00    -0.002 A 
ATOM      3  C4  UNL d   1       0.083   1.643  -1.976  0.00  0.00     0.004 A 
ATOM      4  C5  UNL d   1      -0.070   0.257  -1.983  0.00  0.00    -0.004 A 
ATOM      5  C6  UNL d   1      -1.210  -0.324  -2.548  0.00  0.00    -0.075 A 
ATOM      6  C7  UNL d   1      -1.391  -1.813  -2.562  0.00  0.00     0.076 C 
ATOM      7  C8  UNL d   1      -2.197   0.505  -3.099  0.00  0.00     0.001 A 
ENDROOT
BRANCH   1   8
ATOM      8  C1  UNL d   1      -3.120   2.780  -3.692  0.00  0.00     0.053 C 
ATOM      9  C   UNL d   1      -4.390   2.004  -4.007  0.00  0.00     0.018 C 
ENDBRANCH   1   8
TORSDOF 1
ENDMDL
