MODEL 1
REMARK minimizedAffinity 6.07204628
REMARK minimizedRMSD -1
REMARK  1 active torsions:
REMARK  status: ('A' for Active; 'I' for Inactive)
REMARK    1  A    between atoms: C1_2  and  C2_3 
ROOT
ATOM      1  C2  UNL d   1      -0.975   2.657   1.064  0.00  0.00    -0.073 A 
ATOM      2  C3  UNL d   1      -1.120   4.039   0.904  0.00  0.00    -0.002 A 
ATOM      3  C4  UNL d   1      -0.689   4.662  -0.268  0.00  0.00     0.004 A 
ATOM      4  C5  UNL d   1      -0.116   3.909  -1.293  0.00  0.00    -0.004 A 
ATOM      5  C6  UNL d   1       0.027   2.525  -1.156  0.00  0.00    -0.075 A 
ATOM      6  C7  UNL d   1       0.643   1.701  -2.249  0.00  0.00     0.076 C 
ATOM      7  C8  UNL d   1      -0.406   1.907   0.025  0.00  0.00     0.001 A 
ENDROOT
BRANCH   1   8
ATOM      8  C1  UNL d   1      -1.445   1.979   2.326  0.00  0.00     0.053 C 
ATOM      9  C   UNL d   1      -1.864   0.539   2.077  0.00  0.00     0.018 C 
ENDBRANCH   1   8
TORSDOF 1
ENDMDL
