MODEL 1
REMARK minimizedAffinity 7.4147768
REMARK minimizedRMSD -1
REMARK  1 active torsions:
REMARK  status: ('A' for Active; 'I' for Inactive)
REMARK    1  A    between atoms: C1_2  and  C2_3 
ROOT
ATOM      1  C2  UNL d   1      -0.903   1.857   0.259  0.00  0.00    -0.073 A 
ATOM      2  C3  UNL d   1       0.153   2.502  -0.395  0.00  0.00    -0.002 A 
ATOM      3  C4  UNL d   1       0.445   2.203  -1.726  0.00  0.00     0.004 A 
ATOM      4  C5  UNL d   1      -0.318   1.263  -2.419  0.00  0.00    -0.004 A 
ATOM      5  C6  UNL d   1      -1.384   0.616  -1.786  0.00  0.00    -0.075 A 
ATOM      6  C7  UNL d   1      -2.213  -0.399  -2.516  0.00  0.00     0.076 C 
ATOM      7  C8  UNL d   1      -1.670   0.920  -0.448  0.00  0.00     0.001 A 
ENDROOT
BRANCH   1   8
ATOM      8  C1  UNL d   1      -1.226   2.181   1.695  0.00  0.00     0.053 C 
ATOM      9  C   UNL d   1      -2.070   1.098   2.347  0.00  0.00     0.018 C 
ENDBRANCH   1   8
TORSDOF 1
ENDMDL
