MODEL 1
REMARK minimizedAffinity 4.14750957
REMARK minimizedRMSD -1
REMARK  1 active torsions:
REMARK  status: ('A' for Active; 'I' for Inactive)
REMARK    1  A    between atoms: C1_2  and  C2_3 
ROOT
ATOM      1  C2  UNL d   1      -0.166   2.615  -0.201  0.00  0.00    -0.073 A 
ATOM      2  C3  UNL d   1       0.196   1.270  -0.334  0.00  0.00    -0.002 A 
ATOM      3  C4  UNL d   1       0.294   0.452   0.792  0.00  0.00     0.004 A 
ATOM      4  C5  UNL d   1       0.025   0.967   2.060  0.00  0.00    -0.004 A 
ATOM      5  C6  UNL d   1      -0.350   2.306   2.212  0.00  0.00    -0.075 A 
ATOM      6  C7  UNL d   1      -0.641   2.877   3.569  0.00  0.00     0.076 C 
ATOM      7  C8  UNL d   1      -0.444   3.122   1.076  0.00  0.00     0.001 A 
ENDROOT
BRANCH   1   8
ATOM      8  C1  UNL d   1      -0.279   3.501  -1.415  0.00  0.00     0.053 C 
ATOM      9  C   UNL d   1      -0.139   4.973  -1.062  0.00  0.00     0.018 C 
ENDBRANCH   1   8
TORSDOF 1
ENDMDL
