MODEL 1
REMARK minimizedAffinity 8.70926857
REMARK minimizedRMSD -1
REMARK  1 active torsions:
REMARK  status: ('A' for Active; 'I' for Inactive)
REMARK    1  A    between atoms: C1_2  and  C2_3 
ROOT
ATOM      1  C2  UNL d   1       0.934   0.608   2.503  0.00  0.00    -0.073 A 
ATOM      2  C3  UNL d   1       1.259   1.338   3.653  0.00  0.00    -0.002 A 
ATOM      3  C4  UNL d   1       0.334   2.219   4.214  0.00  0.00     0.004 A 
ATOM      4  C5  UNL d   1      -0.926   2.374   3.637  0.00  0.00    -0.004 A 
ATOM      5  C6  UNL d   1      -1.274   1.646   2.495  0.00  0.00    -0.075 A 
ATOM      6  C7  UNL d   1      -2.625   1.803   1.861  0.00  0.00     0.076 C 
ATOM      7  C8  UNL d   1      -0.339   0.765   1.936  0.00  0.00     0.001 A 
ENDROOT
BRANCH   1   8
ATOM      8  C1  UNL d   1       1.927  -0.349   1.897  0.00  0.00     0.053 C 
ATOM      9  C   UNL d   1       1.708  -0.529   0.404  0.00  0.00     0.018 C 
ENDBRANCH   1   8
TORSDOF 1
ENDMDL
