MODEL 1
REMARK minimizedAffinity -1.07526064
REMARK minimizedRMSD -1
REMARK  1 active torsions:
REMARK  status: ('A' for Active; 'I' for Inactive)
REMARK    1  A    between atoms: N_2  and  C1_3 
ROOT
ATOM      1  C1  UNL d   1       0.292  -0.320  -1.193  0.00  0.00     0.143 A 
ATOM      2  C2  UNL d   1      -0.860   0.414  -1.493  0.00  0.00    -0.057 A 
ATOM      3  C3  UNL d   1      -1.802   0.723  -0.505  0.00  0.00     0.033 A 
ATOM      4  C4  UNL d   1      -1.621   0.277   0.800  0.00  0.00    -0.042 A 
ATOM      5  C5  UNL d   1      -0.495  -0.475   1.116  0.00  0.00     0.033 A 
ATOM      6  C6  UNL d   1       0.445  -0.774   0.126  0.00  0.00    -0.057 A 
ENDROOT
BRANCH   1   7
ATOM      7  N   UNL d   1       1.216  -0.743  -2.152  0.00  0.00    -0.732 N 
ATOM      8  C   UNL d   1       1.618   0.137  -3.228  0.00  0.00     0.284 C 
ATOM      9  H3  UNL d   1       1.981  -1.278  -1.745  0.00  0.00     0.395 HD
ENDBRANCH   1   7
TORSDOF 1
ENDMDL
