MODEL 1
REMARK minimizedAffinity -3.31155944
REMARK minimizedRMSD -1
REMARK  1 active torsions:
REMARK  status: ('A' for Active; 'I' for Inactive)
REMARK    1  A    between atoms: N_2  and  C1_3 
ROOT
ATOM      1  C1  UNL d   1       0.186   0.901   1.292  0.00  0.00     0.143 A 
ATOM      2  C2  UNL d   1      -0.574   0.491   0.192  0.00  0.00    -0.057 A 
ATOM      3  C3  UNL d   1      -0.157  -0.566  -0.627  0.00  0.00     0.033 A 
ATOM      4  C4  UNL d   1       1.048  -1.213  -0.375  0.00  0.00    -0.042 A 
ATOM      5  C5  UNL d   1       1.833  -0.806   0.698  0.00  0.00     0.033 A 
ATOM      6  C6  UNL d   1       1.407   0.246   1.515  0.00  0.00    -0.057 A 
ENDROOT
BRANCH   1   7
ATOM      7  N   UNL d   1      -0.126   2.009   2.084  0.00  0.00    -0.732 N 
ATOM      8  C   UNL d   1      -0.755   1.836   3.376  0.00  0.00     0.284 C 
ATOM      9  H3  UNL d   1       0.604   2.716   2.068  0.00  0.00     0.395 HD
ENDBRANCH   1   7
TORSDOF 1
ENDMDL
