MODEL 1
REMARK minimizedAffinity -3.61824727
REMARK minimizedRMSD -1
REMARK  1 active torsions:
REMARK  status: ('A' for Active; 'I' for Inactive)
REMARK    1  A    between atoms: N_2  and  C1_3 
ROOT
ATOM      1  C1  UNL d   1      -0.195  -0.187  -0.729  0.00  0.00     0.143 A 
ATOM      2  C2  UNL d   1       0.833   0.014   0.199  0.00  0.00    -0.057 A 
ATOM      3  C3  UNL d   1       0.563   0.465   1.496  0.00  0.00     0.033 A 
ATOM      4  C4  UNL d   1      -0.743   0.751   1.881  0.00  0.00    -0.042 A 
ATOM      5  C5  UNL d   1      -1.778   0.582   0.968  0.00  0.00     0.033 A 
ATOM      6  C6  UNL d   1      -1.502   0.125  -0.324  0.00  0.00    -0.057 A 
ENDROOT
BRANCH   1   7
ATOM      7  N   UNL d   1       0.020  -0.539  -2.063  0.00  0.00    -0.732 N 
ATOM      8  C   UNL d   1       0.695   0.368  -2.966  0.00  0.00     0.284 C 
ATOM      9  H3  UNL d   1       0.297  -1.513  -2.169  0.00  0.00     0.395 HD
ENDBRANCH   1   7
TORSDOF 1
ENDMDL
