MODEL 1
REMARK minimizedAffinity -3.78702044
REMARK minimizedRMSD -1
REMARK  1 active torsions:
REMARK  status: ('A' for Active; 'I' for Inactive)
REMARK    1  A    between atoms: N_2  and  C1_3 
ROOT
ATOM      1  C1  UNL d   1       1.036  -0.707  -1.804  0.00  0.00     0.143 A 
ATOM      2  C2  UNL d   1       0.424  -1.211  -2.956  0.00  0.00    -0.057 A 
ATOM      3  C3  UNL d   1       0.770  -0.741  -4.228  0.00  0.00     0.033 A 
ATOM      4  C4  UNL d   1       1.718   0.267  -4.369  0.00  0.00    -0.042 A 
ATOM      5  C5  UNL d   1       2.322   0.802  -3.236  0.00  0.00     0.033 A 
ATOM      6  C6  UNL d   1       1.976   0.323  -1.969  0.00  0.00    -0.057 A 
ENDROOT
BRANCH   1   7
ATOM      7  N   UNL d   1       0.664  -1.063  -0.505  0.00  0.00    -0.732 N 
ATOM      8  C   UNL d   1      -0.012  -0.116   0.354  0.00  0.00     0.284 C 
ATOM      9  H3  UNL d   1       0.294  -2.010  -0.453  0.00  0.00     0.395 HD
ENDBRANCH   1   7
TORSDOF 1
ENDMDL
