MODEL 1
REMARK minimizedAffinity -4.24064064
REMARK minimizedRMSD -1
REMARK  1 active torsions:
REMARK  status: ('A' for Active; 'I' for Inactive)
REMARK    1  A    between atoms: N_2  and  C1_3 
ROOT
ATOM      1  C1  UNL d   1      -0.099   0.100   0.400  0.00  0.00     0.143 A 
ATOM      2  C2  UNL d   1      -1.481   0.013   0.600  0.00  0.00    -0.057 A 
ATOM      3  C3  UNL d   1      -2.114   0.735   1.619  0.00  0.00     0.033 A 
ATOM      4  C4  UNL d   1      -1.370   1.537   2.477  0.00  0.00    -0.042 A 
ATOM      5  C5  UNL d   1       0.008   1.620   2.312  0.00  0.00     0.033 A 
ATOM      6  C6  UNL d   1       0.634   0.901   1.289  0.00  0.00    -0.057 A 
ENDROOT
BRANCH   1   7
ATOM      7  N   UNL d   1       0.602  -0.669  -0.532  0.00  0.00    -0.732 N 
ATOM      8  C   UNL d   1       0.671  -0.263  -1.920  0.00  0.00     0.284 C 
ATOM      9  H3  UNL d   1       1.479  -1.027  -0.160  0.00  0.00     0.395 HD
ENDBRANCH   1   7
TORSDOF 1
ENDMDL
