MODEL 1
REMARK minimizedAffinity -2.83789277
REMARK minimizedRMSD -1
REMARK  1 active torsions:
REMARK  status: ('A' for Active; 'I' for Inactive)
REMARK    1  A    between atoms: N_2  and  C1_3 
ROOT
ATOM      1  C1  UNL d   1      -0.233  -0.243  -0.344  0.00  0.00     0.143 A 
ATOM      2  C2  UNL d   1       0.811   0.212   0.469  0.00  0.00    -0.057 A 
ATOM      3  C3  UNL d   1       0.556   0.879   1.673  0.00  0.00     0.033 A 
ATOM      4  C4  UNL d   1      -0.753   1.130   2.072  0.00  0.00    -0.042 A 
ATOM      5  C5  UNL d   1      -1.806   0.710   1.267  0.00  0.00     0.033 A 
ATOM      6  C6  UNL d   1      -1.544   0.038   0.069  0.00  0.00    -0.057 A 
ENDROOT
BRANCH   1   7
ATOM      7  N   UNL d   1      -0.044  -0.825  -1.600  0.00  0.00    -0.732 N 
ATOM      8  C   UNL d   1       0.613  -0.092  -2.661  0.00  0.00     0.284 C 
ATOM      9  H3  UNL d   1       0.232  -1.802  -1.537  0.00  0.00     0.395 HD
ENDBRANCH   1   7
TORSDOF 1
ENDMDL
