MODEL 1
REMARK minimizedAffinity -4.83826065
REMARK minimizedRMSD -1
REMARK  1 active torsions:
REMARK  status: ('A' for Active; 'I' for Inactive)
REMARK    1  A    between atoms: N_2  and  C1_3 
ROOT
ATOM      1  C1  UNL d   1      -0.042   0.100   0.070  0.00  0.00     0.143 A 
ATOM      2  C2  UNL d   1       0.672   0.968   0.904  0.00  0.00    -0.057 A 
ATOM      3  C3  UNL d   1       0.018   1.773   1.844  0.00  0.00     0.033 A 
ATOM      4  C4  UNL d   1      -1.369   1.746   1.947  0.00  0.00    -0.042 A 
ATOM      5  C5  UNL d   1      -2.101   0.910   1.112  0.00  0.00     0.033 A 
ATOM      6  C6  UNL d   1      -1.441   0.103   0.180  0.00  0.00    -0.057 A 
ENDROOT
BRANCH   1   7
ATOM      7  N   UNL d   1       0.542  -0.653  -0.951  0.00  0.00    -0.732 N 
ATOM      8  C   UNL d   1       0.575  -0.153  -2.309  0.00  0.00     0.284 C 
ATOM      9  H3  UNL d   1       1.402  -1.109  -0.655  0.00  0.00     0.395 HD
ENDBRANCH   1   7
TORSDOF 1
ENDMDL
