MODEL 1
REMARK minimizedAffinity -1.7774812
REMARK minimizedRMSD -1
REMARK  0 active torsions:
REMARK  status: ('A' for Active; 'I' for Inactive)
ROOT
ATOM      1  C   UNL d   1       2.456  -1.110  -1.108  0.00  0.00     0.172 C 
ATOM      2  N   UNL d   1       1.143  -0.633  -0.742  0.00  0.00    -0.070 N 
ATOM      3  C1  UNL d   1       0.701  -0.413   0.535  0.00  0.00    -0.004 A 
ATOM      4  C2  UNL d   1      -0.600   0.036   0.460  0.00  0.00    -0.047 A 
ATOM      5  C3  UNL d   1      -0.952   0.087  -0.909  0.00  0.00    -0.047 A 
ATOM      6  C4  UNL d   1       0.145  -0.332  -1.631  0.00  0.00    -0.004 A 
ENDROOT
TORSDOF 0
ENDMDL
