MODEL 1
REMARK minimizedAffinity -3.07992029
REMARK minimizedRMSD -1
REMARK  0 active torsions:
REMARK  status: ('A' for Active; 'I' for Inactive)
ROOT
ATOM      1  C   UNL d   1      -0.567   0.623  -1.159  0.00  0.00     0.172 C 
ATOM      2  N   UNL d   1      -0.087   0.086   0.092  0.00  0.00    -0.070 N 
ATOM      3  C1  UNL d   1       1.179  -0.378   0.329  0.00  0.00    -0.004 A 
ATOM      4  C2  UNL d   1       1.235  -0.803   1.639  0.00  0.00    -0.047 A 
ATOM      5  C3  UNL d   1      -0.042  -0.587   2.209  0.00  0.00    -0.047 A 
ATOM      6  C4  UNL d   1      -0.841  -0.037   1.230  0.00  0.00    -0.004 A 
ENDROOT
TORSDOF 0
ENDMDL
