MODEL 1
REMARK minimizedAffinity -2.71266055
REMARK minimizedRMSD -1
REMARK  0 active torsions:
REMARK  status: ('A' for Active; 'I' for Inactive)
ROOT
ATOM      1  C   UNL d   1      -0.369   0.193  -0.117  0.00  0.00     0.172 C 
ATOM      2  N   UNL d   1       0.263  -0.297   1.086  0.00  0.00    -0.070 N 
ATOM      3  C1  UNL d   1       1.466   0.126   1.585  0.00  0.00    -0.004 A 
ATOM      4  C2  UNL d   1       1.715  -0.582   2.741  0.00  0.00    -0.047 A 
ATOM      5  C3  UNL d   1       0.625  -1.461   2.943  0.00  0.00    -0.047 A 
ATOM      6  C4  UNL d   1      -0.259  -1.264   1.903  0.00  0.00    -0.004 A 
ENDROOT
TORSDOF 0
ENDMDL
