MODEL 1
REMARK minimizedAffinity -1.44456446
REMARK minimizedRMSD -1
REMARK  0 active torsions:
REMARK  status: ('A' for Active; 'I' for Inactive)
ROOT
ATOM      1  C   UNL d   1      -0.796   1.464  -2.247  0.00  0.00     0.172 C 
ATOM      2  N   UNL d   1      -0.633   0.847  -0.951  0.00  0.00    -0.070 N 
ATOM      3  C1  UNL d   1      -1.606   0.731   0.006  0.00  0.00    -0.004 A 
ATOM      4  C2  UNL d   1      -1.055   0.085   1.091  0.00  0.00    -0.047 A 
ATOM      5  C3  UNL d   1       0.296  -0.197   0.776  0.00  0.00    -0.047 A 
ATOM      6  C4  UNL d   1       0.530   0.286  -0.495  0.00  0.00    -0.004 A 
ENDROOT
TORSDOF 0
ENDMDL
