MODEL 1
REMARK minimizedAffinity -2.77145696
REMARK minimizedRMSD -1
REMARK  0 active torsions:
REMARK  status: ('A' for Active; 'I' for Inactive)
ROOT
ATOM      1  C   UNL d   1      -0.514   2.826  -1.936  0.00  0.00     0.172 C 
ATOM      2  N   UNL d   1      -0.199   1.695  -1.097  0.00  0.00    -0.070 N 
ATOM      3  C1  UNL d   1      -0.982   0.584  -0.928  0.00  0.00    -0.004 A 
ATOM      4  C2  UNL d   1      -0.333  -0.261  -0.054  0.00  0.00    -0.047 A 
ATOM      5  C3  UNL d   1       0.881   0.364   0.317  0.00  0.00    -0.047 A 
ATOM      6  C4  UNL d   1       0.939   1.573  -0.344  0.00  0.00    -0.004 A 
ENDROOT
TORSDOF 0
ENDMDL
