MODEL 1
REMARK minimizedAffinity -3.81437659
REMARK minimizedRMSD -1
REMARK  0 active torsions:
REMARK  status: ('A' for Active; 'I' for Inactive)
ROOT
ATOM      1  C   UNL d   1      -0.331  -0.010  -0.283  0.00  0.00     0.172 C 
ATOM      2  N   UNL d   1       0.584  -0.651   0.633  0.00  0.00    -0.070 N 
ATOM      3  C1  UNL d   1       1.806  -1.175   0.304  0.00  0.00    -0.004 A 
ATOM      4  C2  UNL d   1       2.365  -1.692   1.453  0.00  0.00    -0.047 A 
ATOM      5  C3  UNL d   1       1.447  -1.473   2.507  0.00  0.00    -0.047 A 
ATOM      6  C4  UNL d   1       0.353  -0.826   1.972  0.00  0.00    -0.004 A 
ENDROOT
TORSDOF 0
ENDMDL
