MODEL 1
REMARK minimizedAffinity -3.4952774
REMARK minimizedRMSD -1
REMARK  0 active torsions:
REMARK  status: ('A' for Active; 'I' for Inactive)
ROOT
ATOM      1  C   UNL d   1      -0.360   0.169  -0.848  0.00  0.00     0.172 C 
ATOM      2  N   UNL d   1       0.221  -0.076   0.451  0.00  0.00    -0.070 N 
ATOM      3  C1  UNL d   1       1.560  -0.105   0.734  0.00  0.00    -0.004 A 
ATOM      4  C2  UNL d   1       1.702  -0.367   2.079  0.00  0.00    -0.047 A 
ATOM      5  C3  UNL d   1       0.403  -0.502   2.624  0.00  0.00    -0.047 A 
ATOM      6  C4  UNL d   1      -0.495  -0.317   1.594  0.00  0.00    -0.004 A 
ENDROOT
TORSDOF 0
ENDMDL
