MODEL 1
REMARK minimizedAffinity 11.3661785
REMARK minimizedRMSD -1
REMARK  0 active torsions:
REMARK  status: ('A' for Active; 'I' for Inactive)
ROOT
ATOM      1  C   UNL d   1       0.546   0.099   0.796  0.00  0.00     0.124 A 
ATOM      2  C1  UNL d   1      -0.489  -0.584   1.421  0.00  0.00     0.062 A 
ATOM      3  C2  UNL d   1      -1.540   0.120   2.003  0.00  0.00     0.162 A 
ATOM      4  C3  UNL d   1      -1.562   1.514   1.962  0.00  0.00    -0.034 A 
ATOM      5  C4  UNL d   1      -0.517   2.193   1.333  0.00  0.00     0.162 A 
ATOM      6  C5  UNL d   1       0.531   1.485   0.752  0.00  0.00     0.062 A 
ATOM      7  F   UNL d   1       1.530   2.146   0.149  0.00  0.00    -0.097 F 
ATOM      8  F1  UNL d   1      -0.507   3.533   1.275  0.00  0.00    -0.096 F 
ATOM      9  I   UNL d   1      -3.131   2.569   2.832  0.00  0.00    -0.060 I 
ATOM     10  F2  UNL d   1      -2.526  -0.565   2.600  0.00  0.00    -0.096 F 
ATOM     11  F3  UNL d   1      -0.477  -1.924   1.465  0.00  0.00    -0.097 F 
ATOM     12  F4  UNL d   1       1.556  -0.580   0.237  0.00  0.00    -0.092 F 
ENDROOT
TORSDOF 0
ENDMDL
