MODEL 1
REMARK minimizedAffinity 9.69803143
REMARK minimizedRMSD -1
REMARK  0 active torsions:
REMARK  status: ('A' for Active; 'I' for Inactive)
ROOT
ATOM      1  C   UNL d   1      -1.934   1.567   2.316  0.00  0.00     0.124 A 
ATOM      2  C1  UNL d   1      -1.151   2.509   1.663  0.00  0.00     0.062 A 
ATOM      3  C2  UNL d   1       0.031   2.123   1.036  0.00  0.00     0.162 A 
ATOM      4  C3  UNL d   1       0.436   0.789   1.058  0.00  0.00    -0.034 A 
ATOM      5  C4  UNL d   1      -0.357  -0.152   1.717  0.00  0.00     0.162 A 
ATOM      6  C5  UNL d   1      -1.536   0.238   2.342  0.00  0.00     0.062 A 
ATOM      7  F   UNL d   1      -2.292  -0.673   2.973  0.00  0.00    -0.097 F 
ATOM      8  F1  UNL d   1       0.004  -1.444   1.757  0.00  0.00    -0.096 F 
ATOM      9  I   UNL d   1       2.201   0.209   0.121  0.00  0.00    -0.060 I 
ATOM     10  F2  UNL d   1       0.768   3.055   0.412  0.00  0.00    -0.096 F 
ATOM     11  F3  UNL d   1      -1.532   3.794   1.637  0.00  0.00    -0.097 F 
ATOM     12  F4  UNL d   1      -3.069   1.941   2.919  0.00  0.00    -0.092 F 
ENDROOT
TORSDOF 0
ENDMDL
