MODEL 1
REMARK minimizedAffinity 7.7487278
REMARK minimizedRMSD -1
REMARK  0 active torsions:
REMARK  status: ('A' for Active; 'I' for Inactive)
ROOT
ATOM      1  C   UNL d   1      -2.115   1.346   1.906  0.00  0.00     0.124 A 
ATOM      2  C1  UNL d   1      -1.150   2.281   1.557  0.00  0.00     0.062 A 
ATOM      3  C2  UNL d   1       0.161   1.878   1.318  0.00  0.00     0.162 A 
ATOM      4  C3  UNL d   1       0.515   0.533   1.427  0.00  0.00    -0.034 A 
ATOM      5  C4  UNL d   1      -0.461  -0.401   1.779  0.00  0.00     0.162 A 
ATOM      6  C5  UNL d   1      -1.769   0.006   2.017  0.00  0.00     0.062 A 
ATOM      7  F   UNL d   1      -2.700  -0.898   2.354  0.00  0.00    -0.097 F 
ATOM      8  F1  UNL d   1      -0.155  -1.702   1.893  0.00  0.00    -0.096 F 
ATOM      9  I   UNL d   1       2.474  -0.073   1.071  0.00  0.00    -0.060 I 
ATOM     10  F2  UNL d   1       1.072   2.803   0.983  0.00  0.00    -0.096 F 
ATOM     11  F3  UNL d   1      -1.481   3.576   1.450  0.00  0.00    -0.097 F 
ATOM     12  F4  UNL d   1      -3.375   1.736   2.136  0.00  0.00    -0.092 F 
ENDROOT
TORSDOF 0
ENDMDL
