MODEL 1
REMARK minimizedAffinity 5.11626291
REMARK minimizedRMSD -1
REMARK  0 active torsions:
REMARK  status: ('A' for Active; 'I' for Inactive)
ROOT
ATOM      1  C   UNL d   1      -2.042   1.414   1.995  0.00  0.00     0.124 A 
ATOM      2  C1  UNL d   1      -1.059   2.286   1.548  0.00  0.00     0.062 A 
ATOM      3  C2  UNL d   1       0.172   1.793   1.123  0.00  0.00     0.162 A 
ATOM      4  C3  UNL d   1       0.425   0.422   1.141  0.00  0.00    -0.034 A 
ATOM      5  C4  UNL d   1      -0.569  -0.448   1.592  0.00  0.00     0.162 A 
ATOM      6  C5  UNL d   1      -1.797   0.049   2.016  0.00  0.00     0.062 A 
ATOM      7  F   UNL d   1      -2.746  -0.794   2.447  0.00  0.00    -0.097 F 
ATOM      8  F1  UNL d   1      -0.358  -1.773   1.622  0.00  0.00    -0.096 F 
ATOM      9  I   UNL d   1       2.264  -0.318   0.506  0.00  0.00    -0.060 I 
ATOM     10  F2  UNL d   1       1.104   2.658   0.697  0.00  0.00    -0.096 F 
ATOM     11  F3  UNL d   1      -1.293   3.606   1.527  0.00  0.00    -0.097 F 
ATOM     12  F4  UNL d   1      -3.225   1.891   2.404  0.00  0.00    -0.092 F 
ENDROOT
TORSDOF 0
ENDMDL
