MODEL 1
REMARK minimizedAffinity 13.8572397
REMARK minimizedRMSD -1
REMARK  0 active torsions:
REMARK  status: ('A' for Active; 'I' for Inactive)
ROOT
ATOM      1  C   UNL d   1      -0.507   2.820   0.973  0.00  0.00     0.124 A 
ATOM      2  C1  UNL d   1       0.638   2.112   0.637  0.00  0.00     0.062 A 
ATOM      3  C2  UNL d   1       0.742   0.760   0.953  0.00  0.00     0.162 A 
ATOM      4  C3  UNL d   1      -0.302   0.108   1.609  0.00  0.00    -0.034 A 
ATOM      5  C4  UNL d   1      -1.450   0.828   1.944  0.00  0.00     0.162 A 
ATOM      6  C5  UNL d   1      -1.550   2.178   1.626  0.00  0.00     0.062 A 
ATOM      7  F   UNL d   1      -2.657   2.861   1.951  0.00  0.00    -0.097 F 
ATOM      8  F1  UNL d   1      -2.473   0.231   2.574  0.00  0.00    -0.096 F 
ATOM      9  I   UNL d   1      -0.149  -1.913   2.083  0.00  0.00    -0.060 I 
ATOM     10  F2  UNL d   1       1.861   0.100   0.617  0.00  0.00    -0.096 F 
ATOM     11  F3  UNL d   1       1.647   2.730   0.007  0.00  0.00    -0.097 F 
ATOM     12  F4  UNL d   1      -0.605   4.121   0.668  0.00  0.00    -0.092 F 
ENDROOT
TORSDOF 0
ENDMDL
