MODEL 1
REMARK minimizedAffinity 13.1764679
REMARK minimizedRMSD -1
REMARK  0 active torsions:
REMARK  status: ('A' for Active; 'I' for Inactive)
ROOT
ATOM      1  C   UNL d   1       0.381   0.171   1.061  0.00  0.00     0.124 A 
ATOM      2  C1  UNL d   1       0.325   1.558   1.073  0.00  0.00     0.062 A 
ATOM      3  C2  UNL d   1      -0.836   2.208   1.483  0.00  0.00     0.162 A 
ATOM      4  C3  UNL d   1      -1.950   1.472   1.886  0.00  0.00    -0.034 A 
ATOM      5  C4  UNL d   1      -1.886   0.078   1.870  0.00  0.00     0.162 A 
ATOM      6  C5  UNL d   1      -0.724  -0.568   1.460  0.00  0.00     0.062 A 
ATOM      7  F   UNL d   1      -0.672  -1.908   1.449  0.00  0.00    -0.097 F 
ATOM      8  F1  UNL d   1      -2.939  -0.661   2.252  0.00  0.00    -0.096 F 
ATOM      9  I   UNL d   1      -3.687   2.441   2.500  0.00  0.00    -0.060 I 
ATOM     10  F2  UNL d   1      -0.861   3.549   1.484  0.00  0.00    -0.096 F 
ATOM     11  F3  UNL d   1       1.391   2.274   0.687  0.00  0.00    -0.097 F 
ATOM     12  F4  UNL d   1       1.498  -0.452   0.665  0.00  0.00    -0.092 F 
ENDROOT
TORSDOF 0
ENDMDL
