MODEL 1
REMARK minimizedAffinity 3.51563811
REMARK minimizedRMSD -1
REMARK  0 active torsions:
REMARK  status: ('A' for Active; 'I' for Inactive)
ROOT
ATOM      1  C   UNL d   1      -2.636   0.847   2.431  0.00  0.00     0.124 A 
ATOM      2  C1  UNL d   1      -2.150  -0.400   2.064  0.00  0.00     0.062 A 
ATOM      3  C2  UNL d   1      -0.914  -0.512   1.432  0.00  0.00     0.162 A 
ATOM      4  C3  UNL d   1      -0.156   0.628   1.164  0.00  0.00    -0.034 A 
ATOM      5  C4  UNL d   1      -0.652   1.879   1.535  0.00  0.00     0.162 A 
ATOM      6  C5  UNL d   1      -1.887   1.985   2.167  0.00  0.00     0.062 A 
ATOM      7  F   UNL d   1      -2.355   3.191   2.520  0.00  0.00    -0.097 F 
ATOM      8  F1  UNL d   1       0.052   2.995   1.292  0.00  0.00    -0.096 F 
ATOM      9  I   UNL d   1       1.692   0.465   0.219  0.00  0.00    -0.060 I 
ATOM     10  F2  UNL d   1      -0.469  -1.730   1.089  0.00  0.00    -0.096 F 
ATOM     11  F3  UNL d   1      -2.872  -1.501   2.318  0.00  0.00    -0.097 F 
ATOM     12  F4  UNL d   1      -3.825   0.952   3.038  0.00  0.00    -0.092 F 
ENDROOT
TORSDOF 0
ENDMDL
