MODEL 1
REMARK minimizedAffinity 8.10938263
REMARK minimizedRMSD -1
REMARK  0 active torsions:
REMARK  status: ('A' for Active; 'I' for Inactive)
ROOT
ATOM      1  C   UNL d   1       0.656   2.144   1.428  0.00  0.00     0.124 A 
ATOM      2  C1  UNL d   1      -0.617   2.656   1.636  0.00  0.00     0.062 A 
ATOM      3  C2  UNL d   1      -1.709   1.799   1.730  0.00  0.00     0.162 A 
ATOM      4  C3  UNL d   1      -1.534   0.420   1.616  0.00  0.00    -0.034 A 
ATOM      5  C4  UNL d   1      -0.250  -0.088   1.405  0.00  0.00     0.162 A 
ATOM      6  C5  UNL d   1       0.838   0.773   1.313  0.00  0.00     0.062 A 
ATOM      7  F   UNL d   1       2.068   0.277   1.111  0.00  0.00    -0.097 F 
ATOM      8  F1  UNL d   1      -0.046  -1.408   1.291  0.00  0.00    -0.096 F 
ATOM      9  I   UNL d   1      -3.165  -0.865   1.756  0.00  0.00    -0.060 I 
ATOM     10  F2  UNL d   1      -2.928   2.321   1.932  0.00  0.00    -0.096 F 
ATOM     11  F3  UNL d   1      -0.796   3.980   1.747  0.00  0.00    -0.097 F 
ATOM     12  F4  UNL d   1       1.705   2.972   1.337  0.00  0.00    -0.092 F 
ENDROOT
TORSDOF 0
ENDMDL
