MODEL 1
REMARK minimizedAffinity 5.17621469
REMARK minimizedRMSD -1
REMARK  0 active torsions:
REMARK  status: ('A' for Active; 'I' for Inactive)
ROOT
ATOM      1  C   UNL d   1      -1.292   0.471   1.690  0.00  0.00     0.124 A 
ATOM      2  C1  UNL d   1      -1.354   1.854   1.602  0.00  0.00     0.062 A 
ATOM      3  C2  UNL d   1      -0.264   2.575   1.121  0.00  0.00     0.162 A 
ATOM      4  C3  UNL d   1       0.897   1.913   0.724  0.00  0.00    -0.034 A 
ATOM      5  C4  UNL d   1       0.953   0.521   0.817  0.00  0.00     0.162 A 
ATOM      6  C5  UNL d   1      -0.139  -0.195   1.298  0.00  0.00     0.062 A 
ATOM      7  F   UNL d   1      -0.077  -1.532   1.383  0.00  0.00    -0.097 F 
ATOM      8  F1  UNL d   1       2.054  -0.148   0.443  0.00  0.00    -0.096 F 
ATOM      9  I   UNL d   1       2.529   2.986   0.004  0.00  0.00    -0.060 I 
ATOM     10  F2  UNL d   1      -0.352   3.911   1.046  0.00  0.00    -0.096 F 
ATOM     11  F3  UNL d   1      -2.466   2.500   1.981  0.00  0.00    -0.097 F 
ATOM     12  F4  UNL d   1      -2.341  -0.220   2.154  0.00  0.00    -0.092 F 
ENDROOT
TORSDOF 0
ENDMDL
