MODEL 1
REMARK minimizedAffinity 17.0776672
REMARK minimizedRMSD -1
REMARK  0 active torsions:
REMARK  status: ('A' for Active; 'I' for Inactive)
ROOT
ATOM      1  C   UNL d   1       0.711   1.563   1.829  0.00  0.00     0.124 A 
ATOM      2  C1  UNL d   1       1.154   0.302   2.202  0.00  0.00     0.062 A 
ATOM      3  C2  UNL d   1       0.251  -0.646   2.676  0.00  0.00     0.162 A 
ATOM      4  C3  UNL d   1      -1.105  -0.336   2.778  0.00  0.00    -0.034 A 
ATOM      5  C4  UNL d   1      -1.543   0.935   2.401  0.00  0.00     0.162 A 
ATOM      6  C5  UNL d   1      -0.636   1.879   1.929  0.00  0.00     0.062 A 
ATOM      7  F   UNL d   1      -1.066   3.097   1.568  0.00  0.00    -0.097 F 
ATOM      8  F1  UNL d   1      -2.840   1.267   2.487  0.00  0.00    -0.096 F 
ATOM      9  I   UNL d   1      -2.459  -1.749   3.485  0.00  0.00    -0.060 I 
ATOM     10  F2  UNL d   1       0.707  -1.857   3.029  0.00  0.00    -0.096 F 
ATOM     11  F3  UNL d   1       2.456  -0.006   2.107  0.00  0.00    -0.097 F 
ATOM     12  F4  UNL d   1       1.582   2.473   1.374  0.00  0.00    -0.092 F 
ENDROOT
TORSDOF 0
ENDMDL
