MODEL 1
REMARK minimizedAffinity 11.8775749
REMARK minimizedRMSD -1
REMARK  0 active torsions:
REMARK  status: ('A' for Active; 'I' for Inactive)
ROOT
ATOM      1  C   UNL d   1       0.876   1.496   1.275  0.00  0.00     0.124 A 
ATOM      2  C1  UNL d   1      -0.349   2.083   0.990  0.00  0.00     0.062 A 
ATOM      3  C2  UNL d   1      -1.519   1.333   1.064  0.00  0.00     0.162 A 
ATOM      4  C3  UNL d   1      -1.470  -0.013   1.425  0.00  0.00    -0.034 A 
ATOM      5  C4  UNL d   1      -0.234  -0.598   1.709  0.00  0.00     0.162 A 
ATOM      6  C5  UNL d   1       0.932   0.156   1.635  0.00  0.00     0.062 A 
ATOM      7  F   UNL d   1       2.115  -0.413   1.910  0.00  0.00    -0.097 F 
ATOM      8  F1  UNL d   1      -0.152  -1.890   2.060  0.00  0.00    -0.096 F 
ATOM      9  I   UNL d   1      -3.218  -1.139   1.536  0.00  0.00    -0.060 I 
ATOM     10  F2  UNL d   1      -2.688   1.927   0.783  0.00  0.00    -0.096 F 
ATOM     11  F3  UNL d   1      -0.405   3.377   0.642  0.00  0.00    -0.097 F 
ATOM     12  F4  UNL d   1       2.000   2.220   1.203  0.00  0.00    -0.092 F 
ENDROOT
TORSDOF 0
ENDMDL
