MODEL 1
REMARK minimizedAffinity 5.66862679
REMARK minimizedRMSD -1
REMARK  0 active torsions:
REMARK  status: ('A' for Active; 'I' for Inactive)
ROOT
ATOM      1  C   UNL d   1       0.092   1.535   1.313  0.00  0.00     0.124 A 
ATOM      2  C1  UNL d   1       0.202   0.153   1.368  0.00  0.00     0.062 A 
ATOM      3  C2  UNL d   1      -0.821  -0.609   1.926  0.00  0.00     0.162 A 
ATOM      4  C3  UNL d   1      -1.964   0.010   2.432  0.00  0.00    -0.034 A 
ATOM      5  C4  UNL d   1      -2.067   1.401   2.373  0.00  0.00     0.162 A 
ATOM      6  C5  UNL d   1      -1.042   2.158   1.815  0.00  0.00     0.062 A 
ATOM      7  F   UNL d   1      -1.150   3.493   1.762  0.00  0.00    -0.097 F 
ATOM      8  F1  UNL d   1      -3.152   2.029   2.851  0.00  0.00    -0.096 F 
ATOM      9  I   UNL d   1      -3.495  -1.125   3.267  0.00  0.00    -0.060 I 
ATOM     10  F2  UNL d   1      -0.688  -1.943   1.966  0.00  0.00    -0.096 F 
ATOM     11  F3  UNL d   1       1.297  -0.452   0.884  0.00  0.00    -0.097 F 
ATOM     12  F4  UNL d   1       1.078   2.266   0.776  0.00  0.00    -0.092 F 
ENDROOT
TORSDOF 0
ENDMDL
