MODEL 1
REMARK minimizedAffinity 4.71836901
REMARK minimizedRMSD -1
REMARK  0 active torsions:
REMARK  status: ('A' for Active; 'I' for Inactive)
ROOT
ATOM      1  C   UNL d   1      -2.179   1.485   2.481  0.00  0.00     0.124 A 
ATOM      2  C1  UNL d   1      -1.161   2.311   2.025  0.00  0.00     0.062 A 
ATOM      3  C2  UNL d   1      -0.047   1.766   1.394  0.00  0.00     0.162 A 
ATOM      4  C3  UNL d   1       0.056   0.386   1.214  0.00  0.00    -0.034 A 
ATOM      5  C4  UNL d   1      -0.972  -0.438   1.677  0.00  0.00     0.162 A 
ATOM      6  C5  UNL d   1      -2.083   0.112   2.307  0.00  0.00     0.062 A 
ATOM      7  F   UNL d   1      -3.066  -0.688   2.747  0.00  0.00    -0.097 F 
ATOM      8  F1  UNL d   1      -0.905  -1.769   1.521  0.00  0.00    -0.096 F 
ATOM      9  I   UNL d   1       1.720  -0.433   0.271  0.00  0.00    -0.060 I 
ATOM     10  F2  UNL d   1       0.922   2.588   0.963  0.00  0.00    -0.096 F 
ATOM     11  F3  UNL d   1      -1.250   3.638   2.192  0.00  0.00    -0.097 F 
ATOM     12  F4  UNL d   1      -3.249   2.012   3.088  0.00  0.00    -0.092 F 
ENDROOT
TORSDOF 0
ENDMDL
