MODEL 1
REMARK minimizedAffinity 3.46643162
REMARK minimizedRMSD -1
REMARK  0 active torsions:
REMARK  status: ('A' for Active; 'I' for Inactive)
ROOT
ATOM      1  C   UNL d   1      -2.230   1.162   2.098  0.00  0.00     0.124 A 
ATOM      2  C1  UNL d   1      -1.286   2.125   1.770  0.00  0.00     0.062 A 
ATOM      3  C2  UNL d   1      -0.023   1.745   1.326  0.00  0.00     0.162 A 
ATOM      4  C3  UNL d   1       0.303   0.394   1.206  0.00  0.00    -0.034 A 
ATOM      5  C4  UNL d   1      -0.651  -0.569   1.539  0.00  0.00     0.162 A 
ATOM      6  C5  UNL d   1      -1.912  -0.183   1.983  0.00  0.00     0.062 A 
ATOM      7  F   UNL d   1      -2.823  -1.115   2.299  0.00  0.00    -0.097 F 
ATOM      8  F1  UNL d   1      -0.370  -1.876   1.436  0.00  0.00    -0.096 F 
ATOM      9  I   UNL d   1       2.191  -0.179   0.543  0.00  0.00    -0.060 I 
ATOM     10  F2  UNL d   1       0.869   2.697   1.016  0.00  0.00    -0.096 F 
ATOM     11  F3  UNL d   1      -1.591   3.426   1.882  0.00  0.00    -0.097 F 
ATOM     12  F4  UNL d   1      -3.444   1.531   2.527  0.00  0.00    -0.092 F 
ENDROOT
TORSDOF 0
ENDMDL
