MODEL 1
REMARK minimizedAffinity 1.45766306
REMARK minimizedRMSD -1
REMARK  0 active torsions:
REMARK  status: ('A' for Active; 'I' for Inactive)
ROOT
ATOM      1  C   UNL d   1      -0.498  -0.631   2.268  0.00  0.00     0.124 A 
ATOM      2  C1  UNL d   1       0.454   0.215   1.715  0.00  0.00     0.062 A 
ATOM      3  C2  UNL d   1       0.113   1.518   1.365  0.00  0.00     0.162 A 
ATOM      4  C3  UNL d   1      -1.186   1.985   1.568  0.00  0.00    -0.034 A 
ATOM      5  C4  UNL d   1      -2.138   1.128   2.124  0.00  0.00     0.162 A 
ATOM      6  C5  UNL d   1      -1.792  -0.173   2.472  0.00  0.00     0.062 A 
ATOM      7  F   UNL d   1      -2.713  -0.989   3.006  0.00  0.00    -0.097 F 
ATOM      8  F1  UNL d   1      -3.395   1.545   2.333  0.00  0.00    -0.096 F 
ATOM      9  I   UNL d   1      -1.699   3.933   1.046  0.00  0.00    -0.060 I 
ATOM     10  F2  UNL d   1       1.053   2.313   0.832  0.00  0.00    -0.096 F 
ATOM     11  F3  UNL d   1       1.705  -0.225   1.516  0.00  0.00    -0.097 F 
ATOM     12  F4  UNL d   1      -0.168  -1.884   2.603  0.00  0.00    -0.092 F 
ENDROOT
TORSDOF 0
ENDMDL
