MODEL 1
REMARK minimizedAffinity 18.5457573
REMARK minimizedRMSD -1
REMARK  0 active torsions:
REMARK  status: ('A' for Active; 'I' for Inactive)
ROOT
ATOM      1  C   UNL d   1      -3.554  -2.413  -3.085  0.00  0.00     0.124 A 
ATOM      2  C1  UNL d   1      -3.546  -3.469  -2.184  0.00  0.00     0.062 A 
ATOM      3  C2  UNL d   1      -3.226  -3.246  -0.848  0.00  0.00     0.162 A 
ATOM      4  C3  UNL d   1      -2.912  -1.961  -0.404  0.00  0.00    -0.034 A 
ATOM      5  C4  UNL d   1      -2.921  -0.905  -1.317  0.00  0.00     0.162 A 
ATOM      6  C5  UNL d   1      -3.241  -1.133  -2.651  0.00  0.00     0.062 A 
ATOM      7  F   UNL d   1      -3.248  -0.112  -3.521  0.00  0.00    -0.097 F 
ATOM      8  F1  UNL d   1      -2.623   0.343  -0.924  0.00  0.00    -0.096 F 
ATOM      9  I   UNL d   1      -2.433  -1.624   1.593  0.00  0.00    -0.060 I 
ATOM     10  F2  UNL d   1      -3.227  -4.285   0.001  0.00  0.00    -0.096 F 
ATOM     11  F3  UNL d   1      -3.847  -4.707  -2.601  0.00  0.00    -0.097 F 
ATOM     12  F4  UNL d   1      -3.861  -2.631  -4.371  0.00  0.00    -0.092 F 
ENDROOT
TORSDOF 0
ENDMDL
