MODEL 1
REMARK minimizedAffinity 13.8258467
REMARK minimizedRMSD -1
REMARK  0 active torsions:
REMARK  status: ('A' for Active; 'I' for Inactive)
ROOT
ATOM      1  C   UNL d   1       2.449   4.607  -4.895  0.00  0.00     0.124 A 
ATOM      2  C1  UNL d   1       3.741   4.861  -5.337  0.00  0.00     0.062 A 
ATOM      3  C2  UNL d   1       4.755   3.937  -5.103  0.00  0.00     0.162 A 
ATOM      4  C3  UNL d   1       4.482   2.749  -4.424  0.00  0.00    -0.034 A 
ATOM      5  C4  UNL d   1       3.181   2.501  -3.982  0.00  0.00     0.162 A 
ATOM      6  C5  UNL d   1       2.171   3.427  -4.218  0.00  0.00     0.062 A 
ATOM      7  F   UNL d   1       0.924   3.180  -3.791  0.00  0.00    -0.097 F 
ATOM      8  F1  UNL d   1       2.884   1.369  -3.326  0.00  0.00    -0.096 F 
ATOM      9  I   UNL d   1       5.996   1.365  -4.072  0.00  0.00    -0.060 I 
ATOM     10  F2  UNL d   1       5.993   4.208  -5.541  0.00  0.00    -0.096 F 
ATOM     11  F3  UNL d   1       4.012   5.999  -5.990  0.00  0.00    -0.097 F 
ATOM     12  F4  UNL d   1       1.476   5.498  -5.120  0.00  0.00    -0.092 F 
ENDROOT
TORSDOF 0
ENDMDL
