MODEL 1
REMARK minimizedAffinity 12.8176222
REMARK minimizedRMSD -1
REMARK  0 active torsions:
REMARK  status: ('A' for Active; 'I' for Inactive)
ROOT
ATOM      1  C   UNL d   1      -1.512   3.153   1.508  0.00  0.00     0.124 A 
ATOM      2  C1  UNL d   1      -2.431   2.489   2.309  0.00  0.00     0.062 A 
ATOM      3  C2  UNL d   1      -2.254   1.141   2.608  0.00  0.00     0.162 A 
ATOM      4  C3  UNL d   1      -1.151   0.449   2.108  0.00  0.00    -0.034 A 
ATOM      5  C4  UNL d   1      -0.231   1.124   1.303  0.00  0.00     0.162 A 
ATOM      6  C5  UNL d   1      -0.414   2.470   1.006  0.00  0.00     0.062 A 
ATOM      7  F   UNL d   1       0.476   3.111   0.233  0.00  0.00    -0.097 F 
ATOM      8  F1  UNL d   1       0.840   0.488   0.805  0.00  0.00    -0.096 F 
ATOM      9  I   UNL d   1      -0.881  -1.566   2.553  0.00  0.00    -0.060 I 
ATOM     10  F2  UNL d   1      -3.157   0.525   3.384  0.00  0.00    -0.096 F 
ATOM     11  F3  UNL d   1      -3.494   3.146   2.794  0.00  0.00    -0.097 F 
ATOM     12  F4  UNL d   1      -1.686   4.450   1.221  0.00  0.00    -0.092 F 
ENDROOT
TORSDOF 0
ENDMDL
