MODEL 1
REMARK minimizedAffinity 3.87514043
REMARK minimizedRMSD -1
REMARK  0 active torsions:
REMARK  status: ('A' for Active; 'I' for Inactive)
ROOT
ATOM      1  C   UNL d   1      -2.345  -0.210   2.716  0.00  0.00     0.124 A 
ATOM      2  C1  UNL d   1      -1.038  -0.514   2.362  0.00  0.00     0.062 A 
ATOM      3  C2  UNL d   1      -0.225   0.458   1.786  0.00  0.00     0.162 A 
ATOM      4  C3  UNL d   1      -0.716   1.744   1.562  0.00  0.00    -0.034 A 
ATOM      5  C4  UNL d   1      -2.032   2.042   1.919  0.00  0.00     0.162 A 
ATOM      6  C5  UNL d   1      -2.841   1.067   2.494  0.00  0.00     0.062 A 
ATOM      7  F   UNL d   1      -4.104   1.362   2.836  0.00  0.00    -0.097 F 
ATOM      8  F1  UNL d   1      -2.537   3.268   1.718  0.00  0.00    -0.096 F 
ATOM      9  I   UNL d   1       0.497   3.200   0.701  0.00  0.00    -0.060 I 
ATOM     10  F2  UNL d   1       1.034   0.136   1.454  0.00  0.00    -0.096 F 
ATOM     11  F3  UNL d   1      -0.557  -1.747   2.574  0.00  0.00    -0.097 F 
ATOM     12  F4  UNL d   1      -3.126  -1.147   3.269  0.00  0.00    -0.092 F 
ENDROOT
TORSDOF 0
ENDMDL
