MODEL 1
REMARK minimizedAffinity 8.93439293
REMARK minimizedRMSD -1
REMARK  0 active torsions:
REMARK  status: ('A' for Active; 'I' for Inactive)
ROOT
ATOM      1  C   UNL d   1      -1.575   1.106   1.713  0.00  0.00     0.124 A 
ATOM      2  C1  UNL d   1      -0.286   0.646   1.944  0.00  0.00     0.062 A 
ATOM      3  C2  UNL d   1       0.807   1.470   1.690  0.00  0.00     0.162 A 
ATOM      4  C3  UNL d   1       0.616   2.763   1.203  0.00  0.00    -0.034 A 
ATOM      5  C4  UNL d   1      -0.684   3.218   0.972  0.00  0.00     0.162 A 
ATOM      6  C5  UNL d   1      -1.773   2.391   1.227  0.00  0.00     0.062 A 
ATOM      7  F   UNL d   1      -3.018   2.836   1.003  0.00  0.00    -0.097 F 
ATOM      8  F1  UNL d   1      -0.904   4.455   0.504  0.00  0.00    -0.096 F 
ATOM      9  I   UNL d   1       2.247   3.998   0.822  0.00  0.00    -0.060 I 
ATOM     10  F2  UNL d   1       2.042   1.000   1.922  0.00  0.00    -0.096 F 
ATOM     11  F3  UNL d   1      -0.092  -0.595   2.412  0.00  0.00    -0.097 F 
ATOM     12  F4  UNL d   1      -2.624   0.311   1.957  0.00  0.00    -0.092 F 
ENDROOT
TORSDOF 0
ENDMDL
