MODEL 1
REMARK minimizedAffinity 9.53312492
REMARK minimizedRMSD -1
REMARK  0 active torsions:
REMARK  status: ('A' for Active; 'I' for Inactive)
ROOT
ATOM      1  C   UNL d   1       4.523  -3.375  -4.279  0.00  0.00     0.020 A 
ATOM      2  C1  UNL d   1       5.535  -2.753  -3.548  0.00  0.00     0.020 A 
ATOM      3  C2  UNL d   1       5.773  -3.129  -2.224  0.00  0.00     0.034 A 
ATOM      4  C3  UNL d   1       4.998  -4.129  -1.627  0.00  0.00     0.017 A 
ATOM      5  C4  UNL d   1       3.983  -4.753  -2.361  0.00  0.00     0.017 A 
ATOM      6  C5  UNL d   1       3.749  -4.373  -3.686  0.00  0.00     0.034 A 
ATOM      7 Cl   UNL d   1       2.985  -5.996  -1.692  0.00  0.00    -0.070 Cl
ATOM      8 Cl1  UNL d   1       5.347  -4.544   0.014  0.00  0.00    -0.070 Cl
ENDROOT
TORSDOF 0
ENDMDL
