MODEL 1
REMARK minimizedAffinity 2.21457052
REMARK minimizedRMSD -1
REMARK  0 active torsions:
REMARK  status: ('A' for Active; 'I' for Inactive)
ROOT
ATOM      1  C   UNL d   1       1.248   1.520  -3.241  0.00  0.00     0.020 A 
ATOM      2  C1  UNL d   1       0.646   0.527  -4.012  0.00  0.00     0.020 A 
ATOM      3  C2  UNL d   1      -0.498  -0.123  -3.545  0.00  0.00     0.034 A 
ATOM      4  C3  UNL d   1      -1.045   0.220  -2.303  0.00  0.00     0.017 A 
ATOM      5  C4  UNL d   1      -0.440   1.217  -1.529  0.00  0.00     0.017 A 
ATOM      6  C5  UNL d   1       0.706   1.865  -2.002  0.00  0.00     0.034 A 
ATOM      7 Cl   UNL d   1      -1.056   1.695   0.014  0.00  0.00    -0.070 Cl
ATOM      8 Cl1  UNL d   1      -2.461  -0.624  -1.788  0.00  0.00    -0.070 Cl
ENDROOT
TORSDOF 0
ENDMDL
