MODEL 1
REMARK minimizedAffinity 9.46334743
REMARK minimizedRMSD -1
REMARK  0 active torsions:
REMARK  status: ('A' for Active; 'I' for Inactive)
ROOT
ATOM      1  C   UNL d   1      -0.277   0.688   1.972  0.00  0.00     0.020 A 
ATOM      2  C1  UNL d   1      -1.203   1.231   2.862  0.00  0.00     0.020 A 
ATOM      3  C2  UNL d   1      -1.767   2.482   2.605  0.00  0.00     0.034 A 
ATOM      4  C3  UNL d   1      -1.406   3.195   1.456  0.00  0.00     0.017 A 
ATOM      5  C4  UNL d   1      -0.477   2.649   0.563  0.00  0.00     0.017 A 
ATOM      6  C5  UNL d   1       0.085   1.396   0.825  0.00  0.00     0.034 A 
ATOM      7 Cl   UNL d   1       0.018   3.469  -0.876  0.00  0.00    -0.070 Cl
ATOM      8 Cl1  UNL d   1      -2.144   4.737   1.202  0.00  0.00    -0.070 Cl
ENDROOT
TORSDOF 0
ENDMDL
