MODEL 1
REMARK minimizedAffinity 3.97178555
REMARK minimizedRMSD -1
REMARK  0 active torsions:
REMARK  status: ('A' for Active; 'I' for Inactive)
ROOT
ATOM      1  C   UNL d   1       0.382   0.267  -4.091  0.00  0.00     0.020 A 
ATOM      2  C1  UNL d   1       1.167   1.136  -3.336  0.00  0.00     0.020 A 
ATOM      3  C2  UNL d   1       0.680   1.651  -2.132  0.00  0.00     0.034 A 
ATOM      4  C3  UNL d   1      -0.596   1.297  -1.681  0.00  0.00     0.017 A 
ATOM      5  C4  UNL d   1      -1.384   0.423  -2.439  0.00  0.00     0.017 A 
ATOM      6  C5  UNL d   1      -0.891  -0.089  -3.643  0.00  0.00     0.034 A 
ATOM      7 Cl   UNL d   1      -2.969  -0.060  -1.947  0.00  0.00    -0.070 Cl
ATOM      8 Cl1  UNL d   1      -1.135   1.971  -0.183  0.00  0.00    -0.070 Cl
ENDROOT
TORSDOF 0
ENDMDL
