MODEL 1
REMARK minimizedAffinity 13.1617384
REMARK minimizedRMSD -1
REMARK  0 active torsions:
REMARK  status: ('A' for Active; 'I' for Inactive)
ROOT
ATOM      1  C   UNL d   1       2.219  -4.091  -2.086  0.00  0.00     0.020 A 
ATOM      2  C1  UNL d   1       1.078  -3.290  -2.114  0.00  0.00     0.020 A 
ATOM      3  C2  UNL d   1       0.468  -2.986  -3.333  0.00  0.00     0.034 A 
ATOM      4  C3  UNL d   1       0.999  -3.484  -4.529  0.00  0.00     0.017 A 
ATOM      5  C4  UNL d   1       2.144  -4.288  -4.499  0.00  0.00     0.017 A 
ATOM      6  C5  UNL d   1       2.750  -4.589  -3.276  0.00  0.00     0.034 A 
ATOM      7 Cl   UNL d   1       2.857  -4.939  -5.933  0.00  0.00    -0.070 Cl
ATOM      8 Cl1  UNL d   1       0.193  -3.069  -6.000  0.00  0.00    -0.070 Cl
ENDROOT
TORSDOF 0
ENDMDL
