MODEL 1
REMARK minimizedAffinity 8.21741676
REMARK minimizedRMSD -1
REMARK  0 active torsions:
REMARK  status: ('A' for Active; 'I' for Inactive)
ROOT
ATOM      1  C   UNL d   1      -0.327   1.211   4.208  0.00  0.00     0.020 A 
ATOM      2  C1  UNL d   1       0.792   1.678   3.518  0.00  0.00     0.020 A 
ATOM      3  C2  UNL d   1       0.641   2.266   2.261  0.00  0.00     0.034 A 
ATOM      4  C3  UNL d   1      -0.631   2.389   1.689  0.00  0.00     0.017 A 
ATOM      5  C4  UNL d   1      -1.752   1.921   2.382  0.00  0.00     0.017 A 
ATOM      6  C5  UNL d   1      -1.596   1.333   3.641  0.00  0.00     0.034 A 
ATOM      7 Cl   UNL d   1      -3.354   2.038   1.742  0.00  0.00    -0.070 Cl
ATOM      8 Cl1  UNL d   1      -0.743   3.127   0.131  0.00  0.00    -0.070 Cl
ENDROOT
TORSDOF 0
ENDMDL
