MODEL 1
REMARK minimizedAffinity 4.41316652
REMARK minimizedRMSD -1
REMARK  0 active torsions:
REMARK  status: ('A' for Active; 'I' for Inactive)
ROOT
ATOM      1  C   UNL d   1       0.693   2.906  -0.567  0.00  0.00     0.020 A 
ATOM      2  C1  UNL d   1      -0.428   3.482  -1.162  0.00  0.00     0.020 A 
ATOM      3  C2  UNL d   1      -1.639   3.531  -0.468  0.00  0.00     0.034 A 
ATOM      4  C3  UNL d   1      -1.731   3.002   0.825  0.00  0.00     0.017 A 
ATOM      5  C4  UNL d   1      -0.605   2.423   1.421  0.00  0.00     0.017 A 
ATOM      6  C5  UNL d   1       0.605   2.377   0.721  0.00  0.00     0.034 A 
ATOM      7 Cl   UNL d   1      -0.641   1.749   3.012  0.00  0.00    -0.070 Cl
ATOM      8 Cl1  UNL d   1      -3.260   3.096   1.624  0.00  0.00    -0.070 Cl
ENDROOT
TORSDOF 0
ENDMDL
