MODEL 1
REMARK minimizedAffinity 6.77701044
REMARK minimizedRMSD -1
REMARK  0 active torsions:
REMARK  status: ('A' for Active; 'I' for Inactive)
ROOT
ATOM      1  C   UNL d   1       1.491  -4.970  -2.436  0.00  0.00     0.020 A 
ATOM      2  C1  UNL d   1       2.432  -5.999  -2.439  0.00  0.00     0.020 A 
ATOM      3  C2  UNL d   1       3.468  -6.000  -1.503  0.00  0.00     0.034 A 
ATOM      4  C3  UNL d   1       3.566  -4.970  -0.561  0.00  0.00     0.017 A 
ATOM      5  C4  UNL d   1       2.621  -3.938  -0.559  0.00  0.00     0.017 A 
ATOM      6  C5  UNL d   1       1.585  -3.942  -1.498  0.00  0.00     0.034 A 
ATOM      7 Cl   UNL d   1       2.676  -2.633   0.573  0.00  0.00    -0.070 Cl
ATOM      8 Cl1  UNL d   1       4.873  -5.035   0.567  0.00  0.00    -0.070 Cl
ENDROOT
TORSDOF 0
ENDMDL
