MODEL 1
REMARK minimizedAffinity 14.6874809
REMARK minimizedRMSD -1
REMARK  0 active torsions:
REMARK  status: ('A' for Active; 'I' for Inactive)
ROOT
ATOM      1  C   UNL d   1       0.690   3.018  -0.252  0.00  0.00     0.020 A 
ATOM      2  C1  UNL d   1      -0.046   2.199   0.604  0.00  0.00     0.020 A 
ATOM      3  C2  UNL d   1      -1.142   1.485   0.115  0.00  0.00     0.034 A 
ATOM      4  C3  UNL d   1      -1.505   1.588  -1.232  0.00  0.00     0.017 A 
ATOM      5  C4  UNL d   1      -0.766   2.411  -2.091  0.00  0.00     0.017 A 
ATOM      6  C5  UNL d   1       0.331   3.123  -1.596  0.00  0.00     0.034 A 
ATOM      7 Cl   UNL d   1      -1.154   2.589  -3.765  0.00  0.00    -0.070 Cl
ATOM      8 Cl1  UNL d   1      -2.872   0.677  -1.768  0.00  0.00    -0.070 Cl
ENDROOT
TORSDOF 0
ENDMDL
