MODEL 1
REMARK minimizedAffinity 5.86688662
REMARK minimizedRMSD -1
REMARK  0 active torsions:
REMARK  status: ('A' for Active; 'I' for Inactive)
ROOT
ATOM      1  C   UNL d   1      -0.151   2.243   0.703  0.00  0.00     0.020 A 
ATOM      2  C1  UNL d   1       0.465   3.316   0.060  0.00  0.00     0.020 A 
ATOM      3  C2  UNL d   1       0.118   3.635  -1.254  0.00  0.00     0.034 A 
ATOM      4  C3  UNL d   1      -0.848   2.881  -1.930  0.00  0.00     0.017 A 
ATOM      5  C4  UNL d   1      -1.467   1.805  -1.284  0.00  0.00     0.017 A 
ATOM      6  C5  UNL d   1      -1.115   1.489   0.033  0.00  0.00     0.034 A 
ATOM      7 Cl   UNL d   1      -2.668   0.828  -2.052  0.00  0.00    -0.070 Cl
ATOM      8 Cl1  UNL d   1      -1.229   3.333  -3.554  0.00  0.00    -0.070 Cl
ENDROOT
TORSDOF 0
ENDMDL
