MODEL 1
REMARK minimizedAffinity 15.2197409
REMARK minimizedRMSD -1
REMARK  0 active torsions:
REMARK  status: ('A' for Active; 'I' for Inactive)
ROOT
ATOM      1  C   UNL d   1       1.463  -5.099  -2.532  0.00  0.00     0.020 A 
ATOM      2  C1  UNL d   1       2.526  -5.997  -2.628  0.00  0.00     0.020 A 
ATOM      3  C2  UNL d   1       3.545  -5.976  -1.674  0.00  0.00     0.034 A 
ATOM      4  C3  UNL d   1       3.504  -5.056  -0.619  0.00  0.00     0.017 A 
ATOM      5  C4  UNL d   1       2.437  -4.156  -0.524  0.00  0.00     0.017 A 
ATOM      6  C5  UNL d   1       1.419  -4.181  -1.482  0.00  0.00     0.034 A 
ATOM      7 Cl   UNL d   1       2.317  -2.993   0.749  0.00  0.00    -0.070 Cl
ATOM      8 Cl1  UNL d   1       4.798  -5.088   0.525  0.00  0.00    -0.070 Cl
ENDROOT
TORSDOF 0
ENDMDL
