MODEL 1
REMARK minimizedAffinity 4.58576536
REMARK minimizedRMSD -1
REMARK  0 active torsions:
REMARK  status: ('A' for Active; 'I' for Inactive)
ROOT
ATOM      1  C   UNL d   1       0.045   5.737  -1.144  0.00  0.00     0.020 A 
ATOM      2  C1  UNL d   1       0.635   4.474  -1.126  0.00  0.00     0.020 A 
ATOM      3  C2  UNL d   1       0.110   3.470  -0.309  0.00  0.00     0.034 A 
ATOM      4  C3  UNL d   1      -1.007   3.727   0.494  0.00  0.00     0.017 A 
ATOM      5  C4  UNL d   1      -1.599   4.996   0.475  0.00  0.00     0.017 A 
ATOM      6  C5  UNL d   1      -1.070   5.997  -0.345  0.00  0.00     0.034 A 
ATOM      7 Cl   UNL d   1      -2.980   5.389   1.437  0.00  0.00    -0.070 Cl
ATOM      8 Cl1  UNL d   1      -1.603   2.439   1.479  0.00  0.00    -0.070 Cl
ENDROOT
TORSDOF 0
ENDMDL
