MODEL 1
REMARK minimizedAffinity 19.771452
REMARK minimizedRMSD -1
REMARK  0 active torsions:
REMARK  status: ('A' for Active; 'I' for Inactive)
ROOT
ATOM      1  C   UNL d   1       2.415  -1.407   1.195  0.00  0.00     0.020 A 
ATOM      2  C1  UNL d   1       2.106  -2.699   0.772  0.00  0.00     0.020 A 
ATOM      3  C2  UNL d   1       3.004  -3.743   1.003  0.00  0.00     0.034 A 
ATOM      4  C3  UNL d   1       4.215  -3.497   1.659  0.00  0.00     0.017 A 
ATOM      5  C4  UNL d   1       4.525  -2.200   2.084  0.00  0.00     0.017 A 
ATOM      6  C5  UNL d   1       3.622  -1.158   1.850  0.00  0.00     0.034 A 
ATOM      7 Cl   UNL d   1       6.000  -1.819   2.900  0.00  0.00    -0.070 Cl
ATOM      8 Cl1  UNL d   1       5.278  -4.836   1.912  0.00  0.00    -0.070 Cl
ENDROOT
TORSDOF 0
ENDMDL
