MODEL 1
REMARK minimizedAffinity 8.95049858
REMARK minimizedRMSD -1
REMARK  0 active torsions:
REMARK  status: ('A' for Active; 'I' for Inactive)
ROOT
ATOM      1  C   UNL d   1       0.192   2.076   0.599  0.00  0.00     0.020 A 
ATOM      2  C1  UNL d   1      -1.034   1.702   0.051  0.00  0.00     0.020 A 
ATOM      3  C2  UNL d   1      -1.469   2.276  -1.145  0.00  0.00     0.034 A 
ATOM      4  C3  UNL d   1      -0.676   3.228  -1.798  0.00  0.00     0.017 A 
ATOM      5  C4  UNL d   1       0.555   3.602  -1.248  0.00  0.00     0.017 A 
ATOM      6  C5  UNL d   1       0.985   3.024  -0.049  0.00  0.00     0.034 A 
ATOM      7 Cl   UNL d   1       1.588   4.769  -1.995  0.00  0.00    -0.070 Cl
ATOM      8 Cl1  UNL d   1      -1.276   3.896  -3.274  0.00  0.00    -0.070 Cl
ENDROOT
TORSDOF 0
ENDMDL
