MODEL 1
REMARK minimizedAffinity 14.6150799
REMARK minimizedRMSD -1
REMARK  0 active torsions:
REMARK  status: ('A' for Active; 'I' for Inactive)
ROOT
ATOM      1  C   UNL d   1      -1.703   2.891  -2.906  0.00  0.00     0.020 A 
ATOM      2  C1  UNL d   1      -0.966   4.050  -3.145  0.00  0.00     0.020 A 
ATOM      3  C2  UNL d   1       0.024   4.447  -2.244  0.00  0.00     0.034 A 
ATOM      4  C3  UNL d   1       0.280   3.684  -1.099  0.00  0.00     0.017 A 
ATOM      5  C4  UNL d   1      -0.460   2.520  -0.859  0.00  0.00     0.017 A 
ATOM      6  C5  UNL d   1      -1.450   2.128  -1.765  0.00  0.00     0.034 A 
ATOM      7 Cl   UNL d   1      -0.202   1.527   0.532  0.00  0.00    -0.070 Cl
ATOM      8 Cl1  UNL d   1       1.519   4.233  -0.028  0.00  0.00    -0.070 Cl
ENDROOT
TORSDOF 0
ENDMDL
