MODEL 1
REMARK minimizedAffinity 16.9114418
REMARK minimizedRMSD -1
REMARK  0 active torsions:
REMARK  status: ('A' for Active; 'I' for Inactive)
ROOT
ATOM      1  C   UNL d   1      -5.993   6.000   0.004  0.00  0.00     0.020 A 
ATOM      2  C1  UNL d   1      -5.583   5.663   1.293  0.00  0.00     0.020 A 
ATOM      3  C2  UNL d   1      -4.595   4.694   1.481  0.00  0.00     0.034 A 
ATOM      4  C3  UNL d   1      -4.014   4.058   0.378  0.00  0.00     0.017 A 
ATOM      5  C4  UNL d   1      -4.426   4.396  -0.916  0.00  0.00     0.017 A 
ATOM      6  C5  UNL d   1      -5.416   5.368  -1.098  0.00  0.00     0.034 A 
ATOM      7 Cl   UNL d   1      -3.756   3.655  -2.326  0.00  0.00    -0.070 Cl
ATOM      8 Cl1  UNL d   1      -2.798   2.869   0.684  0.00  0.00    -0.070 Cl
ENDROOT
TORSDOF 0
ENDMDL
