MODEL 1
REMARK minimizedAffinity 0.988271296
REMARK minimizedRMSD -1
REMARK  0 active torsions:
REMARK  status: ('A' for Active; 'I' for Inactive)
ROOT
ATOM      1  C2' OXE d   1       1.192  -2.787   1.606  0.00  0.00     0.078 C 
ATOM      2  C1' OXE d   1       0.967  -0.918  -0.476  0.00  0.00     0.078 C 
ATOM      3  C1  OXE d   1      -0.086  -0.899   0.604  0.00  0.00    -0.078 A 
ATOM      4  C2  OXE d   1       0.005  -1.848   1.593  0.00  0.00    -0.078 A 
ATOM      5  C3  OXE d   1      -0.909  -1.840   2.643  0.00  0.00     0.003 A 
ATOM      6  C4  OXE d   1      -2.009  -0.974   2.618  0.00  0.00    -0.002 A 
ATOM      7  C5  OXE d   1      -2.143  -0.026   1.598  0.00  0.00    -0.002 A 
ATOM      8  C6  OXE d   1      -1.170   0.053   0.608  0.00  0.00     0.003 A 
ENDROOT
TORSDOF 0
ENDMDL
