MODEL 1
REMARK minimizedAffinity -2.10637259
REMARK minimizedRMSD -1
REMARK  0 active torsions:
REMARK  status: ('A' for Active; 'I' for Inactive)
ROOT
ATOM      1  C2' OXE d   1      -1.651  -0.507   0.676  0.00  0.00     0.078 C 
ATOM      2  C1' OXE d   1      -0.910   2.198   0.566  0.00  0.00     0.078 C 
ATOM      3  C1  OXE d   1      -0.016   1.196  -0.121  0.00  0.00    -0.078 A 
ATOM      4  C2  OXE d   1      -0.362  -0.131  -0.022  0.00  0.00    -0.078 A 
ATOM      5  C3  OXE d   1       0.398  -1.092  -0.683  0.00  0.00     0.003 A 
ATOM      6  C4  OXE d   1       1.594  -0.736  -1.318  0.00  0.00    -0.002 A 
ATOM      7  C5  OXE d   1       1.985   0.604  -1.396  0.00  0.00    -0.002 A 
ATOM      8  C6  OXE d   1       1.171   1.585  -0.840  0.00  0.00     0.003 A 
ENDROOT
TORSDOF 0
ENDMDL
