MODEL 1
REMARK minimizedAffinity 2.52845955
REMARK minimizedRMSD -1
REMARK  0 active torsions:
REMARK  status: ('A' for Active; 'I' for Inactive)
ROOT
ATOM      1  C2' OXE d   1       1.095  -6.000   2.512  0.00  0.00     0.078 C 
ATOM      2  C1' OXE d   1       0.653  -3.272   2.017  0.00  0.00     0.078 C 
ATOM      3  C1  OXE d   1       1.790  -3.944   1.289  0.00  0.00    -0.078 A 
ATOM      4  C2  OXE d   1       2.029  -5.268   1.573  0.00  0.00    -0.078 A 
ATOM      5  C3  OXE d   1       3.030  -5.950   0.888  0.00  0.00     0.003 A 
ATOM      6  C4  OXE d   1       3.895  -5.263   0.028  0.00  0.00    -0.002 A 
ATOM      7  C5  OXE d   1       3.695  -3.905  -0.245  0.00  0.00    -0.002 A 
ATOM      8  C6  OXE d   1       2.623  -3.243   0.344  0.00  0.00     0.003 A 
ENDROOT
TORSDOF 0
ENDMDL
