MODEL 1
REMARK minimizedAffinity 2.59146762
REMARK minimizedRMSD -1
REMARK  0 active torsions:
REMARK  status: ('A' for Active; 'I' for Inactive)
ROOT
ATOM      1  C2' OXE d   1       3.103  -3.515  -0.023  0.00  0.00     0.078 C 
ATOM      2  C1' OXE d   1       1.538  -1.190   0.135  0.00  0.00     0.078 C 
ATOM      3  C1  OXE d   1       1.253  -2.298   1.117  0.00  0.00    -0.078 A 
ATOM      4  C2  OXE d   1       1.992  -3.451   1.002  0.00  0.00    -0.078 A 
ATOM      5  C3  OXE d   1       1.806  -4.483   1.918  0.00  0.00     0.003 A 
ATOM      6  C4  OXE d   1       0.769  -4.419   2.857  0.00  0.00    -0.002 A 
ATOM      7  C5  OXE d   1      -0.022  -3.270   2.965  0.00  0.00    -0.002 A 
ATOM      8  C6  OXE d   1       0.234  -2.186   2.132  0.00  0.00     0.003 A 
ENDROOT
TORSDOF 0
ENDMDL
