MODEL 1
REMARK minimizedAffinity -4.62390804
REMARK minimizedRMSD -1
REMARK  0 active torsions:
REMARK  status: ('A' for Active; 'I' for Inactive)
ROOT
ATOM      1  C2' OXE d   1      -0.941  -0.342   0.304  0.00  0.00     0.078 C 
ATOM      2  C1' OXE d   1      -0.473  -0.983   2.997  0.00  0.00     0.078 C 
ATOM      3  C1  OXE d   1       0.490  -1.521   1.968  0.00  0.00    -0.078 A 
ATOM      4  C2  OXE d   1       0.227  -1.241   0.649  0.00  0.00    -0.078 A 
ATOM      5  C3  OXE d   1       1.114  -1.666  -0.336  0.00  0.00     0.003 A 
ATOM      6  C4  OXE d   1       2.186  -2.505  -0.010  0.00  0.00    -0.002 A 
ATOM      7  C5  OXE d   1       2.449  -2.835   1.323  0.00  0.00    -0.002 A 
ATOM      8  C6  OXE d   1       1.637  -2.317   2.326  0.00  0.00     0.003 A 
ENDROOT
TORSDOF 0
ENDMDL
