MODEL 1
REMARK minimizedAffinity 5.19434214
REMARK minimizedRMSD -1
REMARK  0 active torsions:
REMARK  status: ('A' for Active; 'I' for Inactive)
ROOT
ATOM      1  C2' OXE d   1      -3.739   0.945   3.281  0.00  0.00     0.078 C 
ATOM      2  C1' OXE d   1      -4.990  -0.345   1.124  0.00  0.00     0.078 C 
ATOM      3  C1  OXE d   1      -3.483  -0.302   1.140  0.00  0.00    -0.078 A 
ATOM      4  C2  OXE d   1      -2.880   0.371   2.175  0.00  0.00    -0.078 A 
ATOM      5  C3  OXE d   1      -1.491   0.394   2.266  0.00  0.00     0.003 A 
ATOM      6  C4  OXE d   1      -0.704  -0.130   1.234  0.00  0.00    -0.002 A 
ATOM      7  C5  OXE d   1      -1.299  -0.786   0.151  0.00  0.00    -0.002 A 
ATOM      8  C6  OXE d   1      -2.682  -0.918   0.110  0.00  0.00     0.003 A 
ENDROOT
TORSDOF 0
ENDMDL
