MODEL 1
REMARK minimizedAffinity 16.0207577
REMARK minimizedRMSD -1
REMARK  0 active torsions:
REMARK  status: ('A' for Active; 'I' for Inactive)
ROOT
ATOM      1  C   UNL d   1       2.601   1.206  -1.837  0.00  0.00     0.124 A 
ATOM      2  C1  UNL d   1       2.011   0.234  -2.633  0.00  0.00     0.062 A 
ATOM      3  C2  UNL d   1       2.159  -1.113  -2.319  0.00  0.00     0.162 A 
ATOM      4  C3  UNL d   1       2.902  -1.498  -1.202  0.00  0.00    -0.034 A 
ATOM      5  C4  UNL d   1       3.494  -0.515  -0.407  0.00  0.00     0.162 A 
ATOM      6  C5  UNL d   1       3.342   0.831  -0.725  0.00  0.00     0.062 A 
ATOM      7  F   UNL d   1       3.914   1.768   0.045  0.00  0.00    -0.097 F 
ATOM      8  F1  UNL d   1       4.215  -0.850   0.674  0.00  0.00    -0.096 F 
ATOM      9  I   UNL d   1       3.127  -3.512  -0.729  0.00  0.00    -0.060 I 
ATOM     10  F2  UNL d   1       1.577  -2.031  -3.105  0.00  0.00    -0.096 F 
ATOM     11  F3  UNL d   1       1.295   0.594  -3.708  0.00  0.00    -0.097 F 
ATOM     12  F4  UNL d   1       2.457   2.502  -2.142  0.00  0.00    -0.092 F 
ENDROOT
TORSDOF 0
ENDMDL
