MODEL 1
REMARK minimizedAffinity 19.9730968
REMARK minimizedRMSD -1
REMARK  0 active torsions:
REMARK  status: ('A' for Active; 'I' for Inactive)
ROOT
ATOM      1  C   UNL d   1       1.698  -2.485  -1.854  0.00  0.00     0.124 A 
ATOM      2  C1  UNL d   1       1.619  -3.789  -2.324  0.00  0.00     0.062 A 
ATOM      3  C2  UNL d   1       2.528  -4.748  -1.885  0.00  0.00     0.162 A 
ATOM      4  C3  UNL d   1       3.524  -4.406  -0.969  0.00  0.00    -0.034 A 
ATOM      5  C4  UNL d   1       3.598  -3.092  -0.503  0.00  0.00     0.162 A 
ATOM      6  C5  UNL d   1       2.687  -2.138  -0.944  0.00  0.00     0.062 A 
ATOM      7  F   UNL d   1       2.765  -0.879  -0.490  0.00  0.00    -0.097 F 
ATOM      8  F1  UNL d   1       4.543  -2.730   0.378  0.00  0.00    -0.096 F 
ATOM      9  I   UNL d   1       4.885  -5.836  -0.310  0.00  0.00    -0.060 I 
ATOM     10  F2  UNL d   1       2.428  -6.000  -2.355  0.00  0.00    -0.096 F 
ATOM     11  F3  UNL d   1       0.665  -4.127  -3.203  0.00  0.00    -0.097 F 
ATOM     12  F4  UNL d   1       0.823  -1.565  -2.279  0.00  0.00    -0.092 F 
ENDROOT
TORSDOF 0
ENDMDL
