MODEL 1
REMARK minimizedAffinity 24.9788933
REMARK minimizedRMSD -1
REMARK  0 active torsions:
REMARK  status: ('A' for Active; 'I' for Inactive)
ROOT
ATOM      1  C   UNL d   1       3.664  -0.606  -0.341  0.00  0.00     0.124 A 
ATOM      2  C1  UNL d   1       2.555  -0.262  -1.101  0.00  0.00     0.062 A 
ATOM      3  C2  UNL d   1       1.757  -1.253  -1.664  0.00  0.00     0.162 A 
ATOM      4  C3  UNL d   1       2.064  -2.600  -1.469  0.00  0.00    -0.034 A 
ATOM      5  C4  UNL d   1       3.182  -2.939  -0.704  0.00  0.00     0.162 A 
ATOM      6  C5  UNL d   1       3.977  -1.944  -0.144  0.00  0.00     0.062 A 
ATOM      7  F   UNL d   1       5.048  -2.279   0.589  0.00  0.00    -0.097 F 
ATOM      8  F1  UNL d   1       3.507  -4.223  -0.497  0.00  0.00    -0.096 F 
ATOM      9  I   UNL d   1       0.873  -4.085  -2.309  0.00  0.00    -0.060 I 
ATOM     10  F2  UNL d   1       0.691  -0.891  -2.393  0.00  0.00    -0.096 F 
ATOM     11  F3  UNL d   1       2.251   1.030  -1.294  0.00  0.00    -0.097 F 
ATOM     12  F4  UNL d   1       4.431   0.350   0.198  0.00  0.00    -0.092 F 
ENDROOT
TORSDOF 0
ENDMDL
