MODEL 1
REMARK minimizedAffinity 30.1738377
REMARK minimizedRMSD -1
REMARK  0 active torsions:
REMARK  status: ('A' for Active; 'I' for Inactive)
ROOT
ATOM      1  C   UNL d   1      -3.372   1.878   3.932  0.00  0.00     0.124 A 
ATOM      2  C1  UNL d   1      -2.702   1.274   2.877  0.00  0.00     0.062 A 
ATOM      3  C2  UNL d   1      -1.311   1.225   2.867  0.00  0.00     0.162 A 
ATOM      4  C3  UNL d   1      -0.580   1.782   3.916  0.00  0.00    -0.034 A 
ATOM      5  C4  UNL d   1      -1.261   2.388   4.973  0.00  0.00     0.162 A 
ATOM      6  C5  UNL d   1      -2.651   2.434   4.979  0.00  0.00     0.062 A 
ATOM      7  F   UNL d   1      -3.296   3.018   5.999  0.00  0.00    -0.097 F 
ATOM      8  F1  UNL d   1      -0.589   2.933   5.999  0.00  0.00    -0.096 F 
ATOM      9  I   UNL d   1       1.500   1.711   3.905  0.00  0.00    -0.060 I 
ATOM     10  F2  UNL d   1      -0.690   0.635   1.834  0.00  0.00    -0.096 F 
ATOM     11  F3  UNL d   1      -3.396   0.736   1.863  0.00  0.00    -0.097 F 
ATOM     12  F4  UNL d   1      -4.710   1.924   3.938  0.00  0.00    -0.092 F 
ENDROOT
TORSDOF 0
ENDMDL
