MODEL 1
REMARK minimizedAffinity 5.52590847
REMARK minimizedRMSD -1
REMARK  0 active torsions:
REMARK  status: ('A' for Active; 'I' for Inactive)
ROOT
ATOM      1  C   UNL d   1       3.448  -4.722  -1.837  0.00  0.00     0.124 A 
ATOM      2  C1  UNL d   1       2.643  -3.846  -2.552  0.00  0.00     0.062 A 
ATOM      3  C2  UNL d   1       2.527  -2.518  -2.153  0.00  0.00     0.162 A 
ATOM      4  C3  UNL d   1       3.218  -2.057  -1.032  0.00  0.00    -0.034 A 
ATOM      5  C4  UNL d   1       4.025  -2.944  -0.317  0.00  0.00     0.162 A 
ATOM      6  C5  UNL d   1       4.138  -4.271  -0.721  0.00  0.00     0.062 A 
ATOM      7  F   UNL d   1       4.916  -5.116  -0.029  0.00  0.00    -0.097 F 
ATOM      8  F1  UNL d   1       4.703  -2.534   0.765  0.00  0.00    -0.096 F 
ATOM      9  I   UNL d   1       3.047  -0.071  -0.432  0.00  0.00    -0.060 I 
ATOM     10  F2  UNL d   1       1.743  -1.693  -2.863  0.00  0.00    -0.096 F 
ATOM     11  F3  UNL d   1       1.975  -4.280  -3.631  0.00  0.00    -0.097 F 
ATOM     12  F4  UNL d   1       3.557  -6.000  -2.223  0.00  0.00    -0.092 F 
ENDROOT
TORSDOF 0
ENDMDL
