MODEL 1
REMARK minimizedAffinity 17.5108032
REMARK minimizedRMSD -1
REMARK  0 active torsions:
REMARK  status: ('A' for Active; 'I' for Inactive)
ROOT
ATOM      1  C   UNL d   1       2.332  -2.122  -2.504  0.00  0.00     0.124 A 
ATOM      2  C1  UNL d   1       2.014  -1.338  -3.604  0.00  0.00     0.062 A 
ATOM      3  C2  UNL d   1       1.820   0.032  -3.454  0.00  0.00     0.162 A 
ATOM      4  C3  UNL d   1       1.945   0.628  -2.198  0.00  0.00    -0.034 A 
ATOM      5  C4  UNL d   1       2.264  -0.168  -1.097  0.00  0.00     0.162 A 
ATOM      6  C5  UNL d   1       2.457  -1.537  -1.252  0.00  0.00     0.062 A 
ATOM      7  F   UNL d   1       2.764  -2.293  -0.188  0.00  0.00    -0.097 F 
ATOM      8  F1  UNL d   1       2.392   0.372   0.125  0.00  0.00    -0.096 F 
ATOM      9  I   UNL d   1       1.656   2.676  -1.970  0.00  0.00    -0.060 I 
ATOM     10  F2  UNL d   1       1.514   0.766  -4.534  0.00  0.00    -0.096 F 
ATOM     11  F3  UNL d   1       1.892  -1.901  -4.814  0.00  0.00    -0.097 F 
ATOM     12  F4  UNL d   1       2.517  -3.440  -2.651  0.00  0.00    -0.092 F 
ENDROOT
TORSDOF 0
ENDMDL
