MODEL 1
REMARK minimizedAffinity 24.4642296
REMARK minimizedRMSD -1
REMARK  0 active torsions:
REMARK  status: ('A' for Active; 'I' for Inactive)
ROOT
ATOM      1  C   UNL d   1      -4.144  -0.749   2.551  0.00  0.00     0.124 A 
ATOM      2  C1  UNL d   1      -3.726   0.550   2.295  0.00  0.00     0.062 A 
ATOM      3  C2  UNL d   1      -3.057   1.276   3.276  0.00  0.00     0.162 A 
ATOM      4  C3  UNL d   1      -2.800   0.705   4.522  0.00  0.00    -0.034 A 
ATOM      5  C4  UNL d   1      -3.225  -0.601   4.773  0.00  0.00     0.162 A 
ATOM      6  C5  UNL d   1      -3.893  -1.323   3.790  0.00  0.00     0.062 A 
ATOM      7  F   UNL d   1      -4.297  -2.577   4.039  0.00  0.00    -0.097 F 
ATOM      8  F1  UNL d   1      -2.994  -1.180   5.961  0.00  0.00    -0.096 F 
ATOM      9  I   UNL d   1      -1.800   1.788   5.991  0.00  0.00    -0.060 I 
ATOM     10  F2  UNL d   1      -2.664   2.529   3.000  0.00  0.00    -0.096 F 
ATOM     11  F3  UNL d   1      -3.969   1.107   1.100  0.00  0.00    -0.097 F 
ATOM     12  F4  UNL d   1      -4.789  -1.445   1.606  0.00  0.00    -0.092 F 
ENDROOT
TORSDOF 0
ENDMDL
