MODEL 1
REMARK minimizedAffinity 18.6113911
REMARK minimizedRMSD -1
REMARK  0 active torsions:
REMARK  status: ('A' for Active; 'I' for Inactive)
ROOT
ATOM      1  C   UNL d   1       2.821  -3.956  -4.281  0.00  0.00     0.124 A 
ATOM      2  C1  UNL d   1       4.090  -4.518  -4.327  0.00  0.00     0.062 A 
ATOM      3  C2  UNL d   1       4.775  -4.795  -3.147  0.00  0.00     0.162 A 
ATOM      4  C3  UNL d   1       4.193  -4.512  -1.912  0.00  0.00    -0.034 A 
ATOM      5  C4  UNL d   1       2.917  -3.946  -1.874  0.00  0.00     0.162 A 
ATOM      6  C5  UNL d   1       2.236  -3.671  -3.056  0.00  0.00     0.062 A 
ATOM      7  F   UNL d   1       1.011  -3.128  -3.010  0.00  0.00    -0.097 F 
ATOM      8  F1  UNL d   1       2.328  -3.662  -0.704  0.00  0.00    -0.096 F 
ATOM      9  I   UNL d   1       5.214  -4.926  -0.146  0.00  0.00    -0.060 I 
ATOM     10  F2  UNL d   1       5.999  -5.338  -3.221  0.00  0.00    -0.096 F 
ATOM     11  F3  UNL d   1       4.658  -4.794  -5.509  0.00  0.00    -0.097 F 
ATOM     12  F4  UNL d   1       2.165  -3.690  -5.418  0.00  0.00    -0.092 F 
ENDROOT
TORSDOF 0
ENDMDL
