MODEL 1
REMARK minimizedAffinity 21.0457993
REMARK minimizedRMSD -1
REMARK  0 active torsions:
REMARK  status: ('A' for Active; 'I' for Inactive)
ROOT
ATOM      1  C   UNL d   1      -3.012   1.509   3.757  0.00  0.00     0.124 A 
ATOM      2  C1  UNL d   1      -2.322   1.142   2.610  0.00  0.00     0.062 A 
ATOM      3  C2  UNL d   1      -0.931   1.160   2.594  0.00  0.00     0.162 A 
ATOM      4  C3  UNL d   1      -0.219   1.546   3.730  0.00  0.00    -0.034 A 
ATOM      5  C4  UNL d   1      -0.919   1.915   4.880  0.00  0.00     0.162 A 
ATOM      6  C5  UNL d   1      -2.310   1.895   4.890  0.00  0.00     0.062 A 
ATOM      7  F   UNL d   1      -2.975   2.250   6.000  0.00  0.00    -0.097 F 
ATOM      8  F1  UNL d   1      -0.266   2.291   5.989  0.00  0.00    -0.096 F 
ATOM      9  I   UNL d   1       1.862   1.574   3.710  0.00  0.00    -0.060 I 
ATOM     10  F2  UNL d   1      -0.290   0.800   1.472  0.00  0.00    -0.096 F 
ATOM     11  F3  UNL d   1      -2.998   0.770   1.513  0.00  0.00    -0.097 F 
ATOM     12  F4  UNL d   1      -4.351   1.492   3.769  0.00  0.00    -0.092 F 
ENDROOT
TORSDOF 0
ENDMDL
