MODEL 1
REMARK minimizedAffinity 16.9878578
REMARK minimizedRMSD -1
REMARK  0 active torsions:
REMARK  status: ('A' for Active; 'I' for Inactive)
ROOT
ATOM      1  C   UNL d   1      -5.217  -2.382   3.461  0.00  0.00     0.124 A 
ATOM      2  C1  UNL d   1      -4.585  -2.084   4.660  0.00  0.00     0.062 A 
ATOM      3  C2  UNL d   1      -3.770  -0.960   4.762  0.00  0.00     0.162 A 
ATOM      4  C3  UNL d   1      -3.584  -0.124   3.661  0.00  0.00    -0.034 A 
ATOM      5  C4  UNL d   1      -4.222  -0.430   2.458  0.00  0.00     0.162 A 
ATOM      6  C5  UNL d   1      -5.035  -1.555   2.361  0.00  0.00     0.062 A 
ATOM      7  F   UNL d   1      -5.645  -1.841   1.202  0.00  0.00    -0.097 F 
ATOM      8  F1  UNL d   1      -4.065   0.352   1.380  0.00  0.00    -0.096 F 
ATOM      9  I   UNL d   1      -2.366   1.558   3.809  0.00  0.00    -0.060 I 
ATOM     10  F2  UNL d   1      -3.172  -0.697   5.933  0.00  0.00    -0.096 F 
ATOM     11  F3  UNL d   1      -4.758  -2.882   5.724  0.00  0.00    -0.097 F 
ATOM     12  F4  UNL d   1      -5.999  -3.464   3.366  0.00  0.00    -0.092 F 
ENDROOT
TORSDOF 0
ENDMDL
