MODEL 1
REMARK minimizedAffinity 15.8032312
REMARK minimizedRMSD -1
REMARK  0 active torsions:
REMARK  status: ('A' for Active; 'I' for Inactive)
ROOT
ATOM      1  C   UNL d   1      -3.387   0.570   2.742  0.00  0.00     0.124 A 
ATOM      2  C1  UNL d   1      -2.059   0.222   2.538  0.00  0.00     0.062 A 
ATOM      3  C2  UNL d   1      -1.088   0.595   3.463  0.00  0.00     0.162 A 
ATOM      4  C3  UNL d   1      -1.441   1.318   4.601  0.00  0.00    -0.034 A 
ATOM      5  C4  UNL d   1      -2.779   1.665   4.799  0.00  0.00     0.162 A 
ATOM      6  C5  UNL d   1      -3.746   1.291   3.872  0.00  0.00     0.062 A 
ATOM      7  F   UNL d   1      -5.029   1.628   4.071  0.00  0.00    -0.097 F 
ATOM      8  F1  UNL d   1      -3.154   2.361   5.883  0.00  0.00    -0.096 F 
ATOM      9  I   UNL d   1       0.008   1.877   5.987  0.00  0.00    -0.060 I 
ATOM     10  F2  UNL d   1       0.188   0.245   3.240  0.00  0.00    -0.096 F 
ATOM     11  F3  UNL d   1      -1.710  -0.474   1.446  0.00  0.00    -0.097 F 
ATOM     12  F4  UNL d   1      -4.319   0.211   1.850  0.00  0.00    -0.092 F 
ENDROOT
TORSDOF 0
ENDMDL
