MODEL 1
REMARK minimizedAffinity 3.62673092
REMARK minimizedRMSD -1
REMARK  0 active torsions:
REMARK  status: ('A' for Active; 'I' for Inactive)
ROOT
ATOM      1  C   UNL d   1       3.607  -4.122  -1.094  0.00  0.00     0.124 A 
ATOM      2  C1  UNL d   1       2.823  -3.126  -1.660  0.00  0.00     0.062 A 
ATOM      3  C2  UNL d   1       2.702  -3.033  -3.043  0.00  0.00     0.162 A 
ATOM      4  C3  UNL d   1       3.366  -3.939  -3.871  0.00  0.00    -0.034 A 
ATOM      5  C4  UNL d   1       4.153  -4.937  -3.294  0.00  0.00     0.162 A 
ATOM      6  C5  UNL d   1       4.271  -5.026  -1.910  0.00  0.00     0.062 A 
ATOM      7  F   UNL d   1       5.028  -5.989  -1.365  0.00  0.00    -0.097 F 
ATOM      8  F1  UNL d   1       4.805  -5.824  -4.060  0.00  0.00    -0.096 F 
ATOM      9  I   UNL d   1       3.188  -3.802  -5.940  0.00  0.00    -0.060 I 
ATOM     10  F2  UNL d   1       1.938  -2.060  -3.563  0.00  0.00    -0.096 F 
ATOM     11  F3  UNL d   1       2.181  -2.251  -0.873  0.00  0.00    -0.097 F 
ATOM     12  F4  UNL d   1       3.722  -4.209   0.238  0.00  0.00    -0.092 F 
ENDROOT
TORSDOF 0
ENDMDL
