MODEL 1
REMARK minimizedAffinity 17.2703152
REMARK minimizedRMSD -1
REMARK  0 active torsions:
REMARK  status: ('A' for Active; 'I' for Inactive)
ROOT
ATOM      1  C   UNL d   1      -2.290   1.053   2.540  0.00  0.00     0.124 A 
ATOM      2  C1  UNL d   1      -2.665   1.497   3.801  0.00  0.00     0.062 A 
ATOM      3  C2  UNL d   1      -1.704   1.687   4.790  0.00  0.00     0.162 A 
ATOM      4  C3  UNL d   1      -0.359   1.434   4.523  0.00  0.00    -0.034 A 
ATOM      5  C4  UNL d   1       0.010   0.987   3.253  0.00  0.00     0.162 A 
ATOM      6  C5  UNL d   1      -0.954   0.799   2.267  0.00  0.00     0.062 A 
ATOM      7  F   UNL d   1      -0.590   0.370   1.050  0.00  0.00    -0.097 F 
ATOM      8  F1  UNL d   1       1.295   0.734   2.961  0.00  0.00    -0.096 F 
ATOM      9  I   UNL d   1       1.080   1.716   5.999  0.00  0.00    -0.060 I 
ATOM     10  F2  UNL d   1      -2.095   2.116   6.000  0.00  0.00    -0.096 F 
ATOM     11  F3  UNL d   1      -3.956   1.742   4.068  0.00  0.00    -0.097 F 
ATOM     12  F4  UNL d   1      -3.217   0.871   1.591  0.00  0.00    -0.092 F 
ENDROOT
TORSDOF 0
ENDMDL
