MODEL 1
REMARK minimizedAffinity 11.6286402
REMARK minimizedRMSD -1
REMARK  0 active torsions:
REMARK  status: ('A' for Active; 'I' for Inactive)
ROOT
ATOM      1  C   UNL d   1       3.261  -4.839  -2.665  0.00  0.00     0.124 A 
ATOM      2  C1  UNL d   1       2.566  -3.789  -3.247  0.00  0.00     0.062 A 
ATOM      3  C2  UNL d   1       2.167  -2.700  -2.477  0.00  0.00     0.162 A 
ATOM      4  C3  UNL d   1       2.464  -2.656  -1.115  0.00  0.00    -0.034 A 
ATOM      5  C4  UNL d   1       3.163  -3.716  -0.535  0.00  0.00     0.162 A 
ATOM      6  C5  UNL d   1       3.559  -4.802  -1.310  0.00  0.00     0.062 A 
ATOM      7  F   UNL d   1       4.231  -5.816  -0.745  0.00  0.00    -0.097 F 
ATOM      8  F1  UNL d   1       3.465  -3.706   0.771  0.00  0.00    -0.096 F 
ATOM      9  I   UNL d   1       1.870  -1.030   0.041  0.00  0.00    -0.060 I 
ATOM     10  F2  UNL d   1       1.496  -1.699  -3.066  0.00  0.00    -0.096 F 
ATOM     11  F3  UNL d   1       2.276  -3.823  -4.556  0.00  0.00    -0.097 F 
ATOM     12  F4  UNL d   1       3.643  -5.886  -3.408  0.00  0.00    -0.092 F 
ENDROOT
TORSDOF 0
ENDMDL
