MODEL 1
REMARK minimizedAffinity 3.83845568
REMARK minimizedRMSD -1
REMARK  0 active torsions:
REMARK  status: ('A' for Active; 'I' for Inactive)
ROOT
ATOM      1  C   UNL d   1       2.347  -2.229   0.437  0.00  0.00    -0.002 A 
ATOM      2  C1  UNL d   1       2.358  -1.380   1.535  0.00  0.00     0.010 A 
ATOM      3  C2  UNL d   1       2.314   0.005   1.363  0.00  0.00     0.041 A 
ATOM      4  C3  UNL d   1       2.255   0.528   0.056  0.00  0.00    -0.075 A 
ATOM      5  S   UNL d   1       2.193   2.190  -0.396  0.00  0.00     0.015 SA
ATOM      6  C4  UNL d   1       2.149   1.813  -2.058  0.00  0.00     0.022 A 
ATOM      7  C5  UNL d   1       2.181   0.457  -2.280  0.00  0.00     0.026 A 
ATOM      8  C6  UNL d   1       2.242  -0.306  -1.065  0.00  0.00    -0.082 A 
ATOM      9  C7  UNL d   1       2.289  -1.706  -0.858  0.00  0.00     0.045 A 
ENDROOT
TORSDOF 0
ENDMDL
