MODEL 1
REMARK minimizedAffinity 6.76937294
REMARK minimizedRMSD -1
REMARK  0 active torsions:
REMARK  status: ('A' for Active; 'I' for Inactive)
ROOT
ATOM      1  C   UNL d   1       1.385  -0.807   3.717  0.00  0.00    -0.002 A 
ATOM      2  C1  UNL d   1       0.027  -0.783   3.431  0.00  0.00     0.010 A 
ATOM      3  C2  UNL d   1      -0.423  -0.898   2.114  0.00  0.00     0.041 A 
ATOM      4  C3  UNL d   1       0.523  -1.042   1.080  0.00  0.00    -0.075 A 
ATOM      5  S   UNL d   1       0.204  -1.202  -0.607  0.00  0.00     0.015 SA
ATOM      6  C4  UNL d   1       1.862  -1.307  -0.987  0.00  0.00     0.022 A 
ATOM      7  C5  UNL d   1       2.654  -1.224   0.134  0.00  0.00     0.026 A 
ATOM      8  C6  UNL d   1       1.896  -1.070   1.344  0.00  0.00    -0.082 A 
ATOM      9  C7  UNL d   1       2.321  -0.950   2.689  0.00  0.00     0.045 A 
ENDROOT
TORSDOF 0
ENDMDL
