MODEL 1
REMARK minimizedAffinity 14.006216
REMARK minimizedRMSD -1
REMARK  0 active torsions:
REMARK  status: ('A' for Active; 'I' for Inactive)
ROOT
ATOM      1  C   UNL d   1      -1.390  -0.146   2.680  0.00  0.00    -0.002 A 
ATOM      2  C1  UNL d   1      -0.630  -0.824   3.623  0.00  0.00     0.010 A 
ATOM      3  C2  UNL d   1       0.569  -1.440   3.260  0.00  0.00     0.041 A 
ATOM      4  C3  UNL d   1       0.996  -1.362   1.919  0.00  0.00    -0.075 A 
ATOM      5  S   UNL d   1       2.430  -2.040   1.245  0.00  0.00     0.015 SA
ATOM      6  C4  UNL d   1       2.068  -1.446  -0.311  0.00  0.00     0.022 A 
ATOM      7  C5  UNL d   1       0.886  -0.746  -0.334  0.00  0.00     0.026 A 
ATOM      8  C6  UNL d   1       0.248  -0.685   0.952  0.00  0.00    -0.082 A 
ATOM      9  C7  UNL d   1      -0.963  -0.071   1.352  0.00  0.00     0.045 A 
ENDROOT
TORSDOF 0
ENDMDL
