MODEL 1
REMARK minimizedAffinity 13.6344395
REMARK minimizedRMSD -1
REMARK  0 active torsions:
REMARK  status: ('A' for Active; 'I' for Inactive)
ROOT
ATOM      1  C   UNL d   1       1.212  -0.721   3.858  0.00  0.00    -0.002 A 
ATOM      2  C1  UNL d   1      -0.026  -0.251   3.443  0.00  0.00     0.010 A 
ATOM      3  C2  UNL d   1      -0.367  -0.250   2.089  0.00  0.00     0.041 A 
ATOM      4  C3  UNL d   1       0.565  -0.734   1.150  0.00  0.00    -0.075 A 
ATOM      5  S   UNL d   1       0.365  -0.829  -0.559  0.00  0.00     0.015 SA
ATOM      6  C4  UNL d   1       1.918  -1.497  -0.779  0.00  0.00     0.022 A 
ATOM      7  C5  UNL d   1       2.586  -1.650   0.413  0.00  0.00     0.026 A 
ATOM      8  C6  UNL d   1       1.817  -1.214   1.544  0.00  0.00    -0.082 A 
ATOM      9  C7  UNL d   1       2.134  -1.202   2.924  0.00  0.00     0.045 A 
ENDROOT
TORSDOF 0
ENDMDL
