MODEL 1
REMARK minimizedAffinity 12.7218351
REMARK minimizedRMSD -1
REMARK  0 active torsions:
REMARK  status: ('A' for Active; 'I' for Inactive)
ROOT
ATOM      1  C   UNL d   1       2.623  -0.712   3.796  0.00  0.00    -0.002 A 
ATOM      2  C1  UNL d   1       2.774  -1.470   2.644  0.00  0.00     0.010 A 
ATOM      3  C2  UNL d   1       1.713  -1.624   1.750  0.00  0.00     0.041 A 
ATOM      4  C3  UNL d   1       0.485  -0.995   2.036  0.00  0.00    -0.075 A 
ATOM      5  S   UNL d   1      -0.953  -1.043   1.086  0.00  0.00     0.015 SA
ATOM      6  C4  UNL d   1      -1.803  -0.058   2.188  0.00  0.00     0.022 A 
ATOM      7  C5  UNL d   1      -1.023   0.307   3.260  0.00  0.00     0.026 A 
ATOM      8  C6  UNL d   1       0.308  -0.226   3.190  0.00  0.00    -0.082 A 
ATOM      9  C7  UNL d   1       1.403  -0.091   4.077  0.00  0.00     0.045 A 
ENDROOT
TORSDOF 0
ENDMDL
