MODEL 1
REMARK minimizedAffinity 6.0487318
REMARK minimizedRMSD -1
REMARK  0 active torsions:
REMARK  status: ('A' for Active; 'I' for Inactive)
ROOT
ATOM      1  C   UNL d   1       0.283  -0.886   3.024  0.00  0.00    -0.002 A 
ATOM      2  C1  UNL d   1      -0.068  -0.307   1.812  0.00  0.00     0.010 A 
ATOM      3  C2  UNL d   1       0.668  -0.575   0.657  0.00  0.00     0.041 A 
ATOM      4  C3  UNL d   1       1.772  -1.446   0.739  0.00  0.00    -0.075 A 
ATOM      5  S   UNL d   1       2.819  -1.921  -0.545  0.00  0.00     0.015 SA
ATOM      6  C4  UNL d   1       3.757  -2.905   0.483  0.00  0.00     0.022 A 
ATOM      7  C5  UNL d   1       3.296  -2.883   1.779  0.00  0.00     0.026 A 
ATOM      8  C6  UNL d   1       2.145  -2.042   1.947  0.00  0.00    -0.082 A 
ATOM      9  C7  UNL d   1       1.379  -1.749   3.101  0.00  0.00     0.045 A 
ENDROOT
TORSDOF 0
ENDMDL
