MODEL 1
REMARK minimizedAffinity -5.47395802
REMARK minimizedRMSD -1
REMARK  0 active torsions:
REMARK  status: ('A' for Active; 'I' for Inactive)
ROOT
ATOM      1  O1  BZF d   1       0.078   0.213  -1.502  0.00  0.00    -0.204 OA
ATOM      2  C2  BZF d   1       0.405  -0.812  -0.635  0.00  0.00     0.174 A 
ATOM      3  C3  BZF d   1       0.198  -0.440   0.645  0.00  0.00    -0.012 A 
ATOM      4  C3A BZF d   1      -0.375   0.868   0.568  0.00  0.00    -0.107 A 
ATOM      5  C4  BZF d   1      -0.814   1.757   1.507  0.00  0.00     0.055 A 
ATOM      6  C5  BZF d   1      -1.252   2.980   1.106  0.00  0.00    -0.016 A 
ATOM      7  C6  BZF d   1      -1.260   3.348  -0.223  0.00  0.00     0.022 A 
ATOM      8  C7  BZF d   1      -0.839   2.498  -1.192  0.00  0.00     0.029 A 
ATOM      9  C7A BZF d   1      -0.427   1.250  -0.792  0.00  0.00     0.058 A 
ENDROOT
TORSDOF 0
ENDMDL
