MODEL 1
REMARK minimizedAffinity -3.39286733
REMARK minimizedRMSD -1
REMARK  0 active torsions:
REMARK  status: ('A' for Active; 'I' for Inactive)
ROOT
ATOM      1  O1  BZF d   1       1.315  -0.543   0.288  0.00  0.00    -0.204 OA
ATOM      2  C2  BZF d   1       0.500  -0.928  -0.759  0.00  0.00     0.174 A 
ATOM      3  C3  BZF d   1      -0.681  -0.278  -0.711  0.00  0.00    -0.012 A 
ATOM      4  C3A BZF d   1      -0.563   0.634   0.385  0.00  0.00    -0.107 A 
ATOM      5  C4  BZF d   1      -1.403   1.566   0.925  0.00  0.00     0.055 A 
ATOM      6  C5  BZF d   1      -1.013   2.240   2.039  0.00  0.00    -0.016 A 
ATOM      7  C6  BZF d   1       0.205   2.004   2.641  0.00  0.00     0.022 A 
ATOM      8  C7  BZF d   1       1.074   1.093   2.139  0.00  0.00     0.029 A 
ATOM      9  C7A BZF d   1       0.697   0.434   0.995  0.00  0.00     0.058 A 
ENDROOT
TORSDOF 0
ENDMDL
