MODEL 1
REMARK minimizedAffinity -5.07383442
REMARK minimizedRMSD -1
REMARK  0 active torsions:
REMARK  status: ('A' for Active; 'I' for Inactive)
ROOT
ATOM      1  O1  BZF d   1      -0.031  -0.091  -1.228  0.00  0.00    -0.204 OA
ATOM      2  C2  BZF d   1       0.744  -1.192  -0.923  0.00  0.00     0.174 A 
ATOM      3  C3  BZF d   1       1.026  -1.228   0.396  0.00  0.00    -0.012 A 
ATOM      4  C3A BZF d   1       0.310  -0.127   0.964  0.00  0.00    -0.107 A 
ATOM      5  C4  BZF d   1       0.179   0.351   2.236  0.00  0.00     0.055 A 
ATOM      6  C5  BZF d   1      -0.534   1.489   2.444  0.00  0.00    -0.016 A 
ATOM      7  C6  BZF d   1      -1.124   2.176   1.403  0.00  0.00     0.022 A 
ATOM      8  C7  BZF d   1      -1.025   1.738   0.124  0.00  0.00     0.029 A 
ATOM      9  C7A BZF d   1      -0.333   0.570  -0.085  0.00  0.00     0.058 A 
ENDROOT
TORSDOF 0
ENDMDL
