MODEL 1
REMARK minimizedAffinity -5.47236156
REMARK minimizedRMSD -1
REMARK  0 active torsions:
REMARK  status: ('A' for Active; 'I' for Inactive)
ROOT
ATOM      1  O1  BZF d   1      -0.978  -0.084  -1.038  0.00  0.00    -0.204 OA
ATOM      2  C2  BZF d   1       0.016  -1.037  -1.143  0.00  0.00     0.174 A 
ATOM      3  C3  BZF d   1       0.846  -0.982  -0.082  0.00  0.00    -0.012 A 
ATOM      4  C3A BZF d   1       0.285   0.010   0.783  0.00  0.00    -0.107 A 
ATOM      5  C4  BZF d   1       0.647   0.506   2.003  0.00  0.00     0.055 A 
ATOM      6  C5  BZF d   1      -0.075   1.522   2.544  0.00  0.00    -0.016 A 
ATOM      7  C6  BZF d   1      -1.160   2.070   1.891  0.00  0.00     0.022 A 
ATOM      8  C7  BZF d   1      -1.560   1.608   0.681  0.00  0.00     0.029 A 
ATOM      9  C7A BZF d   1      -0.853   0.559   0.147  0.00  0.00     0.058 A 
ENDROOT
TORSDOF 0
ENDMDL
