MODEL 1
REMARK minimizedAffinity -0.269085407
REMARK minimizedRMSD -1
REMARK  0 active torsions:
REMARK  status: ('A' for Active; 'I' for Inactive)
ROOT
ATOM      1  O1  BZF d   1       0.065   2.150   1.409  0.00  0.00    -0.204 OA
ATOM      2  C2  BZF d   1       0.581   1.732   2.620  0.00  0.00     0.174 A 
ATOM      3  C3  BZF d   1       0.885   0.419   2.583  0.00  0.00    -0.012 A 
ATOM      4  C3A BZF d   1       0.623   0.010   1.237  0.00  0.00    -0.107 A 
ATOM      5  C4  BZF d   1       0.745  -1.179   0.576  0.00  0.00     0.055 A 
ATOM      6  C5  BZF d   1       0.335  -1.261  -0.716  0.00  0.00    -0.016 A 
ATOM      7  C6  BZF d   1      -0.207  -0.178  -1.377  0.00  0.00     0.022 A 
ATOM      8  C7  BZF d   1      -0.344   1.023  -0.764  0.00  0.00     0.029 A 
ATOM      9  C7A BZF d   1       0.100   1.118   0.532  0.00  0.00     0.058 A 
ENDROOT
TORSDOF 0
ENDMDL
