MODEL 1
REMARK minimizedAffinity -3.1875627
REMARK minimizedRMSD -1
REMARK  0 active torsions:
REMARK  status: ('A' for Active; 'I' for Inactive)
ROOT
ATOM      1  O1  BZF d   1      -0.797  -0.390  -0.773  0.00  0.00    -0.204 OA
ATOM      2  C2  BZF d   1       0.011  -1.507  -0.870  0.00  0.00     0.174 A 
ATOM      3  C3  BZF d   1       0.920  -1.528   0.126  0.00  0.00    -0.012 A 
ATOM      4  C3A BZF d   1       0.605  -0.399   0.947  0.00  0.00    -0.107 A 
ATOM      5  C4  BZF d   1       1.141   0.104   2.098  0.00  0.00     0.055 A 
ATOM      6  C5  BZF d   1       0.647   1.264   2.605  0.00  0.00    -0.016 A 
ATOM      7  C6  BZF d   1      -0.378   1.948   1.986  0.00  0.00     0.022 A 
ATOM      8  C7  BZF d   1      -0.946   1.486   0.845  0.00  0.00     0.029 A 
ATOM      9  C7A BZF d   1      -0.471   0.297   0.348  0.00  0.00     0.058 A 
ENDROOT
TORSDOF 0
ENDMDL
