MODEL 1
REMARK minimizedAffinity -2.98448849
REMARK minimizedRMSD -1
REMARK  0 active torsions:
REMARK  status: ('A' for Active; 'I' for Inactive)
ROOT
ATOM      1  O1  BZF d   1      -0.878   2.388   2.340  0.00  0.00    -0.204 OA
ATOM      2  C2  BZF d   1      -1.897   2.247   1.418  0.00  0.00     0.174 A 
ATOM      3  C3  BZF d   1      -1.676   1.183   0.620  0.00  0.00    -0.012 A 
ATOM      4  C3A BZF d   1      -0.489   0.569   1.131  0.00  0.00    -0.107 A 
ATOM      5  C4  BZF d   1       0.225  -0.538   0.771  0.00  0.00     0.055 A 
ATOM      6  C5  BZF d   1       1.379  -0.823   1.430  0.00  0.00    -0.016 A 
ATOM      7  C6  BZF d   1       1.850  -0.021   2.449  0.00  0.00     0.022 A 
ATOM      8  C7  BZF d   1       1.173   1.084   2.845  0.00  0.00     0.029 A 
ATOM      9  C7A BZF d   1      -0.010   1.356   2.203  0.00  0.00     0.058 A 
ENDROOT
TORSDOF 0
ENDMDL
