MODEL 1
REMARK minimizedAffinity -1.83903742
REMARK minimizedRMSD -1
REMARK  0 active torsions:
REMARK  status: ('A' for Active; 'I' for Inactive)
ROOT
ATOM      1  O1  BZF d   1       1.128  -0.184   0.413  0.00  0.00    -0.204 OA
ATOM      2  C2  BZF d   1       0.172   0.028   1.387  0.00  0.00     0.174 A 
ATOM      3  C3  BZF d   1      -0.923  -0.724   1.154  0.00  0.00    -0.012 A 
ATOM      4  C3A BZF d   1      -0.597  -1.520   0.011  0.00  0.00    -0.107 A 
ATOM      5  C4  BZF d   1      -1.273  -2.476  -0.691  0.00  0.00     0.055 A 
ATOM      6  C5  BZF d   1      -0.700  -3.009  -1.802  0.00  0.00    -0.016 A 
ATOM      7  C6  BZF d   1       0.544  -2.606  -2.242  0.00  0.00     0.022 A 
ATOM      8  C7  BZF d   1       1.256  -1.665  -1.575  0.00  0.00     0.029 A 
ATOM      9  C7A BZF d   1       0.693  -1.148  -0.433  0.00  0.00     0.058 A 
ENDROOT
TORSDOF 0
ENDMDL
