MODEL 1
REMARK minimizedAffinity -4.12829018
REMARK minimizedRMSD -1
REMARK  0 active torsions:
REMARK  status: ('A' for Active; 'I' for Inactive)
ROOT
ATOM      1  O1  BZF d   1       0.018   1.634  -1.531  0.00  0.00    -0.204 OA
ATOM      2  C2  BZF d   1       0.716   0.463  -1.758  0.00  0.00     0.174 A 
ATOM      3  C3  BZF d   1       0.999  -0.158  -0.594  0.00  0.00    -0.012 A 
ATOM      4  C3A BZF d   1       0.363   0.630   0.417  0.00  0.00    -0.107 A 
ATOM      5  C4  BZF d   1       0.269   0.516   1.775  0.00  0.00     0.055 A 
ATOM      6  C5  BZF d   1      -0.362   1.493   2.477  0.00  0.00    -0.016 A 
ATOM      7  C6  BZF d   1      -0.905   2.599   1.856  0.00  0.00     0.022 A 
ATOM      8  C7  BZF d   1      -0.842   2.753   0.511  0.00  0.00     0.029 A 
ATOM      9  C7A BZF d   1      -0.234   1.751  -0.205  0.00  0.00     0.058 A 
ENDROOT
TORSDOF 0
ENDMDL
