MODEL 1
REMARK minimizedAffinity -4.52092266
REMARK minimizedRMSD -1
REMARK  0 active torsions:
REMARK  status: ('A' for Active; 'I' for Inactive)
ROOT
ATOM      1  O1  BZF d   1       0.142   2.551   2.321  0.00  0.00    -0.204 OA
ATOM      2  C2  BZF d   1      -0.824   3.306   1.684  0.00  0.00     0.174 A 
ATOM      3  C3  BZF d   1      -1.280   2.671   0.585  0.00  0.00    -0.012 A 
ATOM      4  C3A BZF d   1      -0.620   1.401   0.584  0.00  0.00    -0.107 A 
ATOM      5  C4  BZF d   1      -0.671   0.318  -0.246  0.00  0.00     0.055 A 
ATOM      6  C5  BZF d   1       0.154  -0.736  -0.008  0.00  0.00    -0.016 A 
ATOM      7  C6  BZF d   1       1.044  -0.737   1.046  0.00  0.00     0.022 A 
ATOM      8  C7  BZF d   1       1.127   0.312   1.899  0.00  0.00     0.029 A 
ATOM      9  C7A BZF d   1       0.272   1.364   1.681  0.00  0.00     0.058 A 
ENDROOT
TORSDOF 0
ENDMDL
