MODEL 1
REMARK minimizedAffinity 6.60547352
REMARK minimizedRMSD -1
REMARK  0 active torsions:
REMARK  status: ('A' for Active; 'I' for Inactive)
ROOT
ATOM      1  O1  BZF d   1      -3.715   4.645  -2.688  0.00  0.00    -0.204 OA
ATOM      2  C2  BZF d   1      -4.654   4.620  -3.700  0.00  0.00     0.174 A 
ATOM      3  C3  BZF d   1      -5.149   3.376  -3.863  0.00  0.00    -0.012 A 
ATOM      4  C3A BZF d   1      -4.545   2.593  -2.830  0.00  0.00    -0.107 A 
ATOM      5  C4  BZF d   1      -4.651   1.282  -2.462  0.00  0.00     0.055 A 
ATOM      6  C5  BZF d   1      -3.869   0.814  -1.454  0.00  0.00    -0.016 A 
ATOM      7  C6  BZF d   1      -2.968   1.626  -0.796  0.00  0.00     0.022 A 
ATOM      8  C7  BZF d   1      -2.831   2.934  -1.122  0.00  0.00     0.029 A 
ATOM      9  C7A BZF d   1      -3.643   3.418  -2.119  0.00  0.00     0.058 A 
ENDROOT
TORSDOF 0
ENDMDL
