MODEL 1
REMARK minimizedAffinity 6.583848
REMARK minimizedRMSD -1
REMARK  0 active torsions:
REMARK  status: ('A' for Active; 'I' for Inactive)
ROOT
ATOM      1  O1  BZF d   1       3.300  -0.148  -0.782  0.00  0.00    -0.204 OA
ATOM      2  C2  BZF d   1       2.099  -0.679  -0.351  0.00  0.00     0.174 A 
ATOM      3  C3  BZF d   1       2.064  -2.011  -0.557  0.00  0.00    -0.012 A 
ATOM      4  C3A BZF d   1       3.356  -2.347  -1.070  0.00  0.00    -0.107 A 
ATOM      5  C4  BZF d   1       3.938  -3.522  -1.453  0.00  0.00     0.055 A 
ATOM      6  C5  BZF d   1       5.192  -3.498  -1.978  0.00  0.00    -0.016 A 
ATOM      7  C6  BZF d   1       5.889  -2.318  -2.139  0.00  0.00     0.022 A 
ATOM      8  C7  BZF d   1       5.355  -1.129  -1.768  0.00  0.00     0.029 A 
ATOM      9  C7A BZF d   1       4.102  -1.154  -1.207  0.00  0.00     0.058 A 
ENDROOT
TORSDOF 0
ENDMDL
