MODEL 1
REMARK minimizedAffinity -4.90650082
REMARK minimizedRMSD -1
REMARK  0 active torsions:
REMARK  status: ('A' for Active; 'I' for Inactive)
ROOT
ATOM      1  C   UNL d   1       2.612  -1.608  -0.080  0.00  0.00     0.077 C 
ATOM      2  C1  UNL d   1       1.272  -1.012   0.235  0.00  0.00    -0.074 A 
ATOM      3  C2  UNL d   1       0.785  -0.989   1.545  0.00  0.00    -0.005 A 
ATOM      4  C3  UNL d   1      -0.459  -0.423   1.824  0.00  0.00     0.006 A 
ATOM      5  C4  UNL d   1      -1.227   0.125   0.796  0.00  0.00    -0.005 A 
ATOM      6  C5  UNL d   1      -0.756   0.112  -0.521  0.00  0.00    -0.074 A 
ATOM      7  C6  UNL d   1      -1.565   0.706  -1.635  0.00  0.00     0.077 C 
ATOM      8  C7  UNL d   1       0.497  -0.452  -0.791  0.00  0.00    -0.001 A 
ENDROOT
TORSDOF 0
ENDMDL
