MODEL 1
REMARK minimizedAffinity -4.48197889
REMARK minimizedRMSD -1
REMARK  0 active torsions:
REMARK  status: ('A' for Active; 'I' for Inactive)
ROOT
ATOM      1  C   UNL d   1      -3.521   3.607  -2.558  0.00  0.00     0.077 C 
ATOM      2  C1  UNL d   1      -2.068   3.265  -2.404  0.00  0.00    -0.074 A 
ATOM      3  C2  UNL d   1      -1.075   4.082  -2.954  0.00  0.00    -0.005 A 
ATOM      4  C3  UNL d   1       0.272   3.756  -2.794  0.00  0.00     0.006 A 
ATOM      5  C4  UNL d   1       0.638   2.612  -2.084  0.00  0.00    -0.005 A 
ATOM      6  C5  UNL d   1      -0.341   1.784  -1.526  0.00  0.00    -0.074 A 
ATOM      7  C6  UNL d   1       0.036   0.556  -0.752  0.00  0.00     0.077 C 
ATOM      8  C7  UNL d   1      -1.692   2.122  -1.685  0.00  0.00    -0.001 A 
ENDROOT
TORSDOF 0
ENDMDL
