MODEL 1
REMARK minimizedAffinity -6.2307806
REMARK minimizedRMSD -1
REMARK  0 active torsions:
REMARK  status: ('A' for Active; 'I' for Inactive)
ROOT
ATOM      1  C   UNL d   1      -1.911  -0.024   2.019  0.00  0.00     0.077 C 
ATOM      2  C1  UNL d   1      -0.524  -0.340   1.544  0.00  0.00    -0.074 A 
ATOM      3  C2  UNL d   1       0.537  -0.452   2.447  0.00  0.00    -0.005 A 
ATOM      4  C3  UNL d   1       1.820  -0.755   1.991  0.00  0.00     0.006 A 
ATOM      5  C4  UNL d   1       2.054  -0.950   0.629  0.00  0.00    -0.005 A 
ATOM      6  C5  UNL d   1       1.004  -0.844  -0.289  0.00  0.00    -0.074 A 
ATOM      7  C6  UNL d   1       1.237  -1.060  -1.755  0.00  0.00     0.077 C 
ATOM      8  C7  UNL d   1      -0.283  -0.545   0.178  0.00  0.00    -0.001 A 
ENDROOT
TORSDOF 0
ENDMDL
