MODEL 1
REMARK minimizedAffinity -4.30596972
REMARK minimizedRMSD -1
REMARK  0 active torsions:
REMARK  status: ('A' for Active; 'I' for Inactive)
ROOT
ATOM      1  C   UNL d   1      -0.950   0.348  -1.082  0.00  0.00     0.077 C 
ATOM      2  C1  UNL d   1      -0.135  -0.200   0.052  0.00  0.00    -0.074 A 
ATOM      3  C2  UNL d   1      -0.632  -0.199   1.360  0.00  0.00    -0.005 A 
ATOM      4  C3  UNL d   1       0.133  -0.721   2.403  0.00  0.00     0.006 A 
ATOM      5  C4  UNL d   1       1.400  -1.248   2.150  0.00  0.00    -0.005 A 
ATOM      6  C5  UNL d   1       1.913  -1.259   0.849  0.00  0.00    -0.074 A 
ATOM      7  C6  UNL d   1       3.268  -1.830   0.558  0.00  0.00     0.077 C 
ATOM      8  C7  UNL d   1       1.135  -0.739  -0.195  0.00  0.00    -0.001 A 
ENDROOT
TORSDOF 0
ENDMDL
