MODEL 1
REMARK minimizedAffinity -4.9309926
REMARK minimizedRMSD -1
REMARK  0 active torsions:
REMARK  status: ('A' for Active; 'I' for Inactive)
ROOT
ATOM      1  C   UNL d   1       1.994  -3.341   0.822  0.00  0.00     0.077 C 
ATOM      2  C1  UNL d   1       1.651  -1.883   0.760  0.00  0.00    -0.074 A 
ATOM      3  C2  UNL d   1       2.092  -0.998   1.750  0.00  0.00    -0.005 A 
ATOM      4  C3  UNL d   1       1.774   0.357   1.675  0.00  0.00     0.006 A 
ATOM      5  C4  UNL d   1       1.012   0.842   0.611  0.00  0.00    -0.005 A 
ATOM      6  C5  UNL d   1       0.563  -0.027  -0.389  0.00  0.00    -0.074 A 
ATOM      7  C6  UNL d   1      -0.248   0.479  -1.544  0.00  0.00     0.077 C 
ATOM      8  C7  UNL d   1       0.893  -1.387  -0.310  0.00  0.00    -0.001 A 
ENDROOT
TORSDOF 0
ENDMDL
