MODEL 1
REMARK minimizedAffinity -4.21091843
REMARK minimizedRMSD -1
REMARK  0 active torsions:
REMARK  status: ('A' for Active; 'I' for Inactive)
ROOT
ATOM      1  C   UNL d   1      -0.295  -1.040   0.951  0.00  0.00     0.077 C 
ATOM      2  C1  UNL d   1       1.113  -0.931   1.457  0.00  0.00    -0.074 A 
ATOM      3  C2  UNL d   1       1.488  -1.514   2.672  0.00  0.00    -0.005 A 
ATOM      4  C3  UNL d   1       2.803  -1.411   3.124  0.00  0.00     0.006 A 
ATOM      5  C4  UNL d   1       3.755  -0.726   2.368  0.00  0.00    -0.005 A 
ATOM      6  C5  UNL d   1       3.399  -0.138   1.151  0.00  0.00    -0.074 A 
ATOM      7  C6  UNL d   1       4.412   0.593   0.321  0.00  0.00     0.077 C 
ATOM      8  C7  UNL d   1       2.077  -0.251   0.699  0.00  0.00    -0.001 A 
ENDROOT
TORSDOF 0
ENDMDL
