MODEL 1
REMARK minimizedAffinity -2.21342516
REMARK minimizedRMSD -1
REMARK  0 active torsions:
REMARK  status: ('A' for Active; 'I' for Inactive)
ROOT
ATOM      1  C   UNL d   1       2.813   2.969   1.490  0.00  0.00     0.077 C 
ATOM      2  C1  UNL d   1       2.172   1.788   0.824  0.00  0.00    -0.074 A 
ATOM      3  C2  UNL d   1       2.870   1.030  -0.122  0.00  0.00    -0.005 A 
ATOM      4  C3  UNL d   1       2.264  -0.071  -0.726  0.00  0.00     0.006 A 
ATOM      5  C4  UNL d   1       0.956  -0.425  -0.392  0.00  0.00    -0.005 A 
ATOM      6  C5  UNL d   1       0.243   0.321   0.552  0.00  0.00    -0.074 A 
ATOM      7  C6  UNL d   1      -1.160  -0.051   0.930  0.00  0.00     0.077 C 
ATOM      8  C7  UNL d   1       0.861   1.422   1.160  0.00  0.00    -0.001 A 
ENDROOT
TORSDOF 0
ENDMDL
