MODEL 1
REMARK minimizedAffinity -5.7886343
REMARK minimizedRMSD -1
REMARK  0 active torsions:
REMARK  status: ('A' for Active; 'I' for Inactive)
ROOT
ATOM      1  C   UNL d   1      -1.081  -1.887  -0.532  0.00  0.00     0.077 C 
ATOM      2  C1  UNL d   1       0.120  -1.000  -0.392  0.00  0.00    -0.074 A 
ATOM      3  C2  UNL d   1       1.381  -1.424  -0.824  0.00  0.00    -0.005 A 
ATOM      4  C3  UNL d   1       2.487  -0.584  -0.696  0.00  0.00     0.006 A 
ATOM      5  C4  UNL d   1       2.345   0.686  -0.136  0.00  0.00    -0.005 A 
ATOM      6  C5  UNL d   1       1.092   1.127   0.301  0.00  0.00    -0.074 A 
ATOM      7  C6  UNL d   1       0.919   2.493   0.896  0.00  0.00     0.077 C 
ATOM      8  C7  UNL d   1      -0.016   0.280   0.163  0.00  0.00    -0.001 A 
ENDROOT
TORSDOF 0
ENDMDL
