MODEL 1
REMARK minimizedAffinity -5.6458931
REMARK minimizedRMSD -1
REMARK  0 active torsions:
REMARK  status: ('A' for Active; 'I' for Inactive)
ROOT
ATOM      1  C   UNL d   1       0.966   2.912   0.518  0.00  0.00     0.077 C 
ATOM      2  C1  UNL d   1       1.119   1.553  -0.096  0.00  0.00    -0.074 A 
ATOM      3  C2  UNL d   1       2.343   1.138  -0.631  0.00  0.00    -0.005 A 
ATOM      4  C3  UNL d   1       2.472  -0.133  -1.190  0.00  0.00     0.006 A 
ATOM      5  C4  UNL d   1       1.380  -1.001  -1.221  0.00  0.00    -0.005 A 
ATOM      6  C5  UNL d   1       0.149  -0.605  -0.690  0.00  0.00    -0.074 A 
ATOM      7  C6  UNL d   1      -1.032  -1.530  -0.706  0.00  0.00     0.077 C 
ATOM      8  C7  UNL d   1       0.029   0.671  -0.123  0.00  0.00    -0.001 A 
ENDROOT
TORSDOF 0
ENDMDL
