MODEL 1
REMARK minimizedAffinity -3.3578465
REMARK minimizedRMSD -1
REMARK  0 active torsions:
REMARK  status: ('A' for Active; 'I' for Inactive)
ROOT
ATOM      1  C   UNL d   1       1.754  -1.239  -0.952  0.00  0.00     0.077 C 
ATOM      2  C1  UNL d   1       0.856  -0.328  -0.169  0.00  0.00    -0.074 A 
ATOM      3  C2  UNL d   1      -0.366  -0.784   0.335  0.00  0.00    -0.005 A 
ATOM      4  C3  UNL d   1      -1.187   0.072   1.070  0.00  0.00     0.006 A 
ATOM      5  C4  UNL d   1      -0.794   1.389   1.308  0.00  0.00    -0.005 A 
ATOM      6  C5  UNL d   1       0.426   1.862   0.813  0.00  0.00    -0.074 A 
ATOM      7  C6  UNL d   1       0.868   3.273   1.068  0.00  0.00     0.077 C 
ATOM      8  C7  UNL d   1       1.248   0.994   0.081  0.00  0.00    -0.001 A 
ENDROOT
TORSDOF 0
ENDMDL
