MODEL 1
REMARK minimizedAffinity -3.69449115
REMARK minimizedRMSD -1
REMARK  0 active torsions:
REMARK  status: ('A' for Active; 'I' for Inactive)
ROOT
ATOM      1  C   UNL d   1       2.189  -0.631  -1.148  0.00  0.00     0.077 C 
ATOM      2  C1  UNL d   1       1.348   0.252  -0.275  0.00  0.00    -0.074 A 
ATOM      3  C2  UNL d   1       1.551   1.635  -0.242  0.00  0.00    -0.005 A 
ATOM      4  C3  UNL d   1       0.755   2.444   0.568  0.00  0.00     0.006 A 
ATOM      5  C4  UNL d   1      -0.252   1.879   1.352  0.00  0.00    -0.005 A 
ATOM      6  C5  UNL d   1      -0.471   0.498   1.332  0.00  0.00    -0.074 A 
ATOM      7  C6  UNL d   1      -1.555  -0.124   2.161  0.00  0.00     0.077 C 
ATOM      8  C7  UNL d   1       0.329  -0.307   0.510  0.00  0.00    -0.001 A 
ENDROOT
TORSDOF 0
ENDMDL
