MODEL 1
REMARK minimizedAffinity -5.05985451
REMARK minimizedRMSD -1
REMARK  0 active torsions:
REMARK  status: ('A' for Active; 'I' for Inactive)
ROOT
ATOM      1  C   UNL d   1      -2.106  -0.538   2.423  0.00  0.00     0.077 C 
ATOM      2  C1  UNL d   1      -0.995  -0.209   1.471  0.00  0.00    -0.074 A 
ATOM      3  C2  UNL d   1      -0.379  -1.208   0.712  0.00  0.00    -0.005 A 
ATOM      4  C3  UNL d   1       0.647  -0.885  -0.177  0.00  0.00     0.006 A 
ATOM      5  C4  UNL d   1       1.066   0.439  -0.314  0.00  0.00    -0.005 A 
ATOM      6  C5  UNL d   1       0.461   1.452   0.436  0.00  0.00    -0.074 A 
ATOM      7  C6  UNL d   1       0.892   2.881   0.293  0.00  0.00     0.077 C 
ATOM      8  C7  UNL d   1      -0.574   1.120   1.321  0.00  0.00    -0.001 A 
ENDROOT
TORSDOF 0
ENDMDL
