MODEL 1
REMARK minimizedAffinity -4.94960976
REMARK minimizedRMSD -1
REMARK  0 active torsions:
REMARK  status: ('A' for Active; 'I' for Inactive)
ROOT
ATOM      1  C   UNL d   1       2.445  -1.157  -1.331  0.00  0.00     0.077 C 
ATOM      2  C1  UNL d   1       1.483  -0.396  -0.467  0.00  0.00    -0.074 A 
ATOM      3  C2  UNL d   1       0.286  -0.979  -0.039  0.00  0.00    -0.005 A 
ATOM      4  C3  UNL d   1      -0.594  -0.262   0.772  0.00  0.00     0.006 A 
ATOM      5  C4  UNL d   1      -0.287   1.042   1.162  0.00  0.00    -0.005 A 
ATOM      6  C5  UNL d   1       0.906   1.640   0.744  0.00  0.00    -0.074 A 
ATOM      7  C6  UNL d   1       1.256   3.037   1.162  0.00  0.00     0.077 C 
ATOM      8  C7  UNL d   1       1.789   0.911  -0.065  0.00  0.00    -0.001 A 
ENDROOT
TORSDOF 0
ENDMDL
