MODEL 1
REMARK minimizedAffinity -3.4957478
REMARK minimizedRMSD -1
REMARK  0 active torsions:
REMARK  status: ('A' for Active; 'I' for Inactive)
ROOT
ATOM      1  C   UNL d   1       1.025   3.180   1.201  0.00  0.00     0.077 C 
ATOM      2  C1  UNL d   1       0.573   1.778   0.922  0.00  0.00    -0.074 A 
ATOM      3  C2  UNL d   1      -0.534   1.234   1.583  0.00  0.00    -0.005 A 
ATOM      4  C3  UNL d   1      -0.948  -0.068   1.306  0.00  0.00     0.006 A 
ATOM      5  C4  UNL d   1      -0.263  -0.839   0.367  0.00  0.00    -0.005 A 
ATOM      6  C5  UNL d   1       0.845  -0.312  -0.305  0.00  0.00    -0.074 A 
ATOM      7  C6  UNL d   1       1.587  -1.124  -1.325  0.00  0.00     0.077 C 
ATOM      8  C7  UNL d   1       1.252   1.000  -0.026  0.00  0.00    -0.001 A 
ENDROOT
TORSDOF 0
ENDMDL
