MODEL 1
REMARK minimizedAffinity -5.01787424
REMARK minimizedRMSD -1
REMARK  0 active torsions:
REMARK  status: ('A' for Active; 'I' for Inactive)
ROOT
ATOM      1  C   UNL d   1       1.428  -1.414  -1.025  0.00  0.00     0.077 C 
ATOM      2  C1  UNL d   1       0.575  -0.518  -0.176  0.00  0.00    -0.074 A 
ATOM      3  C2  UNL d   1      -0.516  -1.028   0.535  0.00  0.00    -0.005 A 
ATOM      4  C3  UNL d   1      -1.294  -0.184   1.328  0.00  0.00     0.006 A 
ATOM      5  C4  UNL d   1      -0.989   1.174   1.418  0.00  0.00    -0.005 A 
ATOM      6  C5  UNL d   1       0.099   1.701   0.715  0.00  0.00    -0.074 A 
ATOM      7  C6  UNL d   1       0.446   3.157   0.809  0.00  0.00     0.077 C 
ATOM      8  C7  UNL d   1       0.880   0.846  -0.074  0.00  0.00    -0.001 A 
ENDROOT
TORSDOF 0
ENDMDL
