MODEL 1
REMARK minimizedAffinity -3.49582005
REMARK minimizedRMSD -1
REMARK  0 active torsions:
REMARK  status: ('A' for Active; 'I' for Inactive)
ROOT
ATOM      1  C   UNL d   1       0.638   1.474   3.740  0.00  0.00     0.077 C 
ATOM      2  C1  UNL d   1       0.706   1.424   2.243  0.00  0.00    -0.074 A 
ATOM      3  C2  UNL d   1       1.422   2.386   1.523  0.00  0.00    -0.005 A 
ATOM      4  C3  UNL d   1       1.484   2.321   0.131  0.00  0.00     0.006 A 
ATOM      5  C4  UNL d   1       0.832   1.295  -0.554  0.00  0.00    -0.005 A 
ATOM      6  C5  UNL d   1       0.112   0.324   0.148  0.00  0.00    -0.074 A 
ATOM      7  C6  UNL d   1      -0.587  -0.790  -0.572  0.00  0.00     0.077 C 
ATOM      8  C7  UNL d   1       0.060   0.392   1.547  0.00  0.00    -0.001 A 
ENDROOT
TORSDOF 0
ENDMDL
