MODEL 1
REMARK minimizedAffinity -5.1724844
REMARK minimizedRMSD -1
REMARK  0 active torsions:
REMARK  status: ('A' for Active; 'I' for Inactive)
ROOT
ATOM      1  C   UNL d   1       1.509   2.990   1.124  0.00  0.00     0.077 C 
ATOM      2  C1  UNL d   1       0.659   1.772   0.922  0.00  0.00    -0.074 A 
ATOM      3  C2  UNL d   1      -0.363   1.450   1.821  0.00  0.00    -0.005 A 
ATOM      4  C3  UNL d   1      -1.152   0.319   1.615  0.00  0.00     0.006 A 
ATOM      5  C4  UNL d   1      -0.927  -0.502   0.508  0.00  0.00    -0.005 A 
ATOM      6  C5  UNL d   1       0.089  -0.196  -0.402  0.00  0.00    -0.074 A 
ATOM      7  C6  UNL d   1       0.337  -1.062  -1.602  0.00  0.00     0.077 C 
ATOM      8  C7  UNL d   1       0.873   0.947  -0.192  0.00  0.00    -0.001 A 
ENDROOT
TORSDOF 0
ENDMDL
