MODEL 1
REMARK minimizedAffinity -3.75162172
REMARK minimizedRMSD -1
REMARK  0 active torsions:
REMARK  status: ('A' for Active; 'I' for Inactive)
ROOT
ATOM      1  C   UNL d   1       1.081   3.002   0.791  0.00  0.00     0.077 C 
ATOM      2  C1  UNL d   1       1.098   1.629   0.189  0.00  0.00    -0.074 A 
ATOM      3  C2  UNL d   1       2.302   1.018  -0.177  0.00  0.00    -0.005 A 
ATOM      4  C3  UNL d   1       2.302  -0.263  -0.726  0.00  0.00     0.006 A 
ATOM      5  C4  UNL d   1       1.100  -0.947  -0.915  0.00  0.00    -0.005 A 
ATOM      6  C5  UNL d   1      -0.114  -0.354  -0.554  0.00  0.00    -0.074 A 
ATOM      7  C6  UNL d   1      -1.413  -1.078  -0.742  0.00  0.00     0.077 C 
ATOM      8  C7  UNL d   1      -0.105   0.932   0.004  0.00  0.00    -0.001 A 
ENDROOT
TORSDOF 0
ENDMDL
