MODEL 1
REMARK minimizedAffinity -4.36244202
REMARK minimizedRMSD -1
REMARK  0 active torsions:
REMARK  status: ('A' for Active; 'I' for Inactive)
ROOT
ATOM      1  C   UNL d   1       1.462   3.284   1.138  0.00  0.00     0.077 C 
ATOM      2  C1  UNL d   1       0.798   2.016   0.691  0.00  0.00    -0.074 A 
ATOM      3  C2  UNL d   1       1.174   1.389  -0.501  0.00  0.00    -0.005 A 
ATOM      4  C3  UNL d   1       0.554   0.205  -0.899  0.00  0.00     0.006 A 
ATOM      5  C4  UNL d   1      -0.447  -0.364  -0.111  0.00  0.00    -0.005 A 
ATOM      6  C5  UNL d   1      -0.836   0.248   1.085  0.00  0.00    -0.074 A 
ATOM      7  C6  UNL d   1      -1.903  -0.355   1.950  0.00  0.00     0.077 C 
ATOM      8  C7  UNL d   1      -0.203   1.434   1.482  0.00  0.00    -0.001 A 
ENDROOT
TORSDOF 0
ENDMDL
