MODEL 1
REMARK minimizedAffinity -4.2000885
REMARK minimizedRMSD -1
REMARK  0 active torsions:
REMARK  status: ('A' for Active; 'I' for Inactive)
ROOT
ATOM      1  C   UNL d   1       2.091   3.201   1.297  0.00  0.00     0.077 C 
ATOM      2  C1  UNL d   1       1.238   2.038   0.888  0.00  0.00    -0.074 A 
ATOM      3  C2  UNL d   1       1.554   1.275  -0.241  0.00  0.00    -0.005 A 
ATOM      4  C3  UNL d   1       0.756   0.190  -0.603  0.00  0.00     0.006 A 
ATOM      5  C4  UNL d   1      -0.365  -0.143   0.158  0.00  0.00    -0.005 A 
ATOM      6  C5  UNL d   1      -0.696   0.607   1.291  0.00  0.00    -0.074 A 
ATOM      7  C6  UNL d   1      -1.892   0.257   2.126  0.00  0.00     0.077 C 
ATOM      8  C7  UNL d   1       0.115   1.692   1.653  0.00  0.00    -0.001 A 
ENDROOT
TORSDOF 0
ENDMDL
