MODEL 1
REMARK minimizedAffinity -2.97132373
REMARK minimizedRMSD -1
REMARK  0 active torsions:
REMARK  status: ('A' for Active; 'I' for Inactive)
ROOT
ATOM      1  C   UNL d   1       2.484   2.459   1.770  0.00  0.00     0.077 C 
ATOM      2  C1  UNL d   1       1.217   1.717   1.462  0.00  0.00    -0.074 A 
ATOM      3  C2  UNL d   1       0.008   2.076   2.067  0.00  0.00    -0.005 A 
ATOM      4  C3  UNL d   1      -1.163   1.383   1.763  0.00  0.00     0.006 A 
ATOM      5  C4  UNL d   1      -1.138   0.327   0.852  0.00  0.00    -0.005 A 
ATOM      6  C5  UNL d   1       0.061  -0.046   0.236  0.00  0.00    -0.074 A 
ATOM      7  C6  UNL d   1       0.103  -1.173  -0.753  0.00  0.00     0.077 C 
ATOM      8  C7  UNL d   1       1.233   0.660   0.542  0.00  0.00    -0.001 A 
ENDROOT
TORSDOF 0
ENDMDL
