MODEL 1
REMARK minimizedAffinity -5.23347855
REMARK minimizedRMSD -1
REMARK  0 active torsions:
REMARK  status: ('A' for Active; 'I' for Inactive)
ROOT
ATOM      1  C   UNL d   1       1.369   2.854   1.317  0.00  0.00     0.077 C 
ATOM      2  C1  UNL d   1       0.474   1.653   1.223  0.00  0.00    -0.074 A 
ATOM      3  C2  UNL d   1      -0.492   1.399   2.201  0.00  0.00    -0.005 A 
ATOM      4  C3  UNL d   1      -1.324   0.284   2.096  0.00  0.00     0.006 A 
ATOM      5  C4  UNL d   1      -1.198  -0.586   1.012  0.00  0.00    -0.005 A 
ATOM      6  C5  UNL d   1      -0.238  -0.348   0.024  0.00  0.00    -0.074 A 
ATOM      7  C6  UNL d   1      -0.095  -1.268  -1.152  0.00  0.00     0.077 C 
ATOM      8  C7  UNL d   1       0.589   0.779   0.133  0.00  0.00    -0.001 A 
ENDROOT
TORSDOF 0
ENDMDL
