MODEL 1
REMARK minimizedAffinity -0.754528284
REMARK minimizedRMSD -1
REMARK  0 active torsions:
REMARK  status: ('A' for Active; 'I' for Inactive)
ROOT
ATOM      1  C   UNL d   1       2.674  -0.247  -1.096  0.00  0.00     0.077 C 
ATOM      2  C1  UNL d   1       1.341  -0.193  -0.411  0.00  0.00    -0.074 A 
ATOM      3  C2  UNL d   1       0.354  -1.147  -0.682  0.00  0.00    -0.005 A 
ATOM      4  C3  UNL d   1      -0.878  -1.089  -0.030  0.00  0.00     0.006 A 
ATOM      5  C4  UNL d   1      -1.135  -0.079   0.898  0.00  0.00    -0.005 A 
ATOM      6  C5  UNL d   1      -0.160   0.882   1.183  0.00  0.00    -0.074 A 
ATOM      7  C6  UNL d   1      -0.417   1.968   2.185  0.00  0.00     0.077 C 
ATOM      8  C7  UNL d   1       1.077   0.813   0.529  0.00  0.00    -0.001 A 
ENDROOT
TORSDOF 0
ENDMDL
