MODEL 1
REMARK minimizedAffinity -1.83159709
REMARK minimizedRMSD -1
REMARK  0 active torsions:
REMARK  status: ('A' for Active; 'I' for Inactive)
ROOT
ATOM      1  C   UNL d   1      -0.572   0.242   2.739  0.00  0.00     0.124 A 
ATOM      2  C1  UNL d   1       0.692  -0.025   2.232  0.00  0.00     0.062 A 
ATOM      3  C2  UNL d   1       0.889  -0.124   0.857  0.00  0.00     0.162 A 
ATOM      4  C3  UNL d   1      -0.182   0.046  -0.021  0.00  0.00    -0.034 A 
ATOM      5  C4  UNL d   1      -1.451   0.314   0.497  0.00  0.00     0.162 A 
ATOM      6  C5  UNL d   1      -1.642   0.411   1.871  0.00  0.00     0.062 A 
ATOM      7  F   UNL d   1      -2.864   0.670   2.359  0.00  0.00    -0.097 F 
ATOM      8  F1  UNL d   1      -2.502   0.482  -0.319  0.00  0.00    -0.096 F 
ATOM      9  I   UNL d   1       0.108  -0.101  -2.076  0.00  0.00    -0.060 I 
ATOM     10  F2  UNL d   1       2.121  -0.383   0.395  0.00  0.00    -0.096 F 
ATOM     11  F3  UNL d   1       1.727  -0.190   3.068  0.00  0.00    -0.097 F 
ATOM     12  F4  UNL d   1      -0.758   0.336   4.062  0.00  0.00    -0.092 F 
ENDROOT
TORSDOF 0
ENDMDL
