MODEL 1
REMARK minimizedAffinity -3.60316372
REMARK minimizedRMSD -1
REMARK  0 active torsions:
REMARK  status: ('A' for Active; 'I' for Inactive)
ROOT
ATOM      1  C   UNL d   1       0.254   0.426   2.734  0.00  0.00     0.124 A 
ATOM      2  C1  UNL d   1       1.246  -0.397   2.219  0.00  0.00     0.062 A 
ATOM      3  C2  UNL d   1       1.293  -0.668   0.854  0.00  0.00     0.162 A 
ATOM      4  C3  UNL d   1       0.344  -0.114  -0.006  0.00  0.00    -0.034 A 
ATOM      5  C4  UNL d   1      -0.651   0.712   0.520  0.00  0.00     0.162 A 
ATOM      6  C5  UNL d   1      -0.694   0.979   1.884  0.00  0.00     0.062 A 
ATOM      7  F   UNL d   1      -1.653   1.774   2.380  0.00  0.00    -0.097 F 
ATOM      8  F1  UNL d   1      -1.579   1.260  -0.279  0.00  0.00    -0.096 F 
ATOM      9  I   UNL d   1       0.410  -0.517  -2.047  0.00  0.00    -0.060 I 
ATOM     10  F2  UNL d   1       2.262  -1.466   0.384  0.00  0.00    -0.096 F 
ATOM     11  F3  UNL d   1       2.162  -0.934   3.038  0.00  0.00    -0.097 F 
ATOM     12  F4  UNL d   1       0.211   0.684   4.047  0.00  0.00    -0.092 F 
ENDROOT
TORSDOF 0
ENDMDL
