MODEL 1
REMARK minimizedAffinity -0.638387859
REMARK minimizedRMSD -1
REMARK  0 active torsions:
REMARK  status: ('A' for Active; 'I' for Inactive)
ROOT
ATOM      1  C   UNL d   1      -1.075   0.392   1.282  0.00  0.00     0.124 A 
ATOM      2  C1  UNL d   1      -1.316  -0.460   0.213  0.00  0.00     0.062 A 
ATOM      3  C2  UNL d   1      -0.501  -0.416  -0.915  0.00  0.00     0.162 A 
ATOM      4  C3  UNL d   1       0.564   0.483  -0.979  0.00  0.00    -0.034 A 
ATOM      5  C4  UNL d   1       0.800   1.337   0.100  0.00  0.00     0.162 A 
ATOM      6  C5  UNL d   1      -0.018   1.289   1.225  0.00  0.00     0.062 A 
ATOM      7  F   UNL d   1       0.217   2.113   2.256  0.00  0.00    -0.097 F 
ATOM      8  F1  UNL d   1       1.815   2.213   0.071  0.00  0.00    -0.096 F 
ATOM      9  I   UNL d   1       1.784   0.551  -2.663  0.00  0.00    -0.060 I 
ATOM     10  F2  UNL d   1      -0.758  -1.250  -1.933  0.00  0.00    -0.096 F 
ATOM     11  F3  UNL d   1      -2.338  -1.326   0.265  0.00  0.00    -0.097 F 
ATOM     12  F4  UNL d   1      -1.861   0.349   2.365  0.00  0.00    -0.092 F 
ENDROOT
TORSDOF 0
ENDMDL
