MODEL 1
REMARK minimizedAffinity -3.77264786
REMARK minimizedRMSD -1
REMARK  0 active torsions:
REMARK  status: ('A' for Active; 'I' for Inactive)
ROOT
ATOM      1  C   UNL d   1      -0.377   0.866   2.986  0.00  0.00     0.124 A 
ATOM      2  C1  UNL d   1       0.959   0.566   2.758  0.00  0.00     0.062 A 
ATOM      3  C2  UNL d   1       1.358   0.033   1.537  0.00  0.00     0.162 A 
ATOM      4  C3  UNL d   1       0.420  -0.204   0.532  0.00  0.00    -0.034 A 
ATOM      5  C4  UNL d   1      -0.922   0.099   0.768  0.00  0.00     0.162 A 
ATOM      6  C5  UNL d   1      -1.316   0.632   1.991  0.00  0.00     0.062 A 
ATOM      7  F   UNL d   1      -2.607   0.921   2.209  0.00  0.00    -0.097 F 
ATOM      8  F1  UNL d   1      -1.850  -0.116  -0.176  0.00  0.00    -0.096 F 
ATOM      9  I   UNL d   1       1.013  -1.002  -1.297  0.00  0.00    -0.060 I 
ATOM     10  F2  UNL d   1       2.656  -0.248   1.344  0.00  0.00    -0.096 F 
ATOM     11  F3  UNL d   1       1.868   0.790   3.718  0.00  0.00    -0.097 F 
ATOM     12  F4  UNL d   1      -0.758   1.379   4.163  0.00  0.00    -0.092 F 
ENDROOT
TORSDOF 0
ENDMDL
