MODEL 1
REMARK minimizedAffinity -3.41507864
REMARK minimizedRMSD -1
REMARK  0 active torsions:
REMARK  status: ('A' for Active; 'I' for Inactive)
ROOT
ATOM      1  C   UNL d   1       1.329   0.432   3.226  0.00  0.00     0.124 A 
ATOM      2  C1  UNL d   1       1.684  -0.178   2.031  0.00  0.00     0.062 A 
ATOM      3  C2  UNL d   1       0.730  -0.383   1.039  0.00  0.00     0.162 A 
ATOM      4  C3  UNL d   1      -0.590   0.023   1.238  0.00  0.00    -0.034 A 
ATOM      5  C4  UNL d   1      -0.940   0.635   2.443  0.00  0.00     0.162 A 
ATOM      6  C5  UNL d   1       0.018   0.838   3.431  0.00  0.00     0.062 A 
ATOM      7  F   UNL d   1      -0.327   1.427   4.585  0.00  0.00    -0.097 F 
ATOM      8  F1  UNL d   1      -2.200   1.037   2.667  0.00  0.00    -0.096 F 
ATOM      9  I   UNL d   1      -2.021  -0.282  -0.243  0.00  0.00    -0.060 I 
ATOM     10  F2  UNL d   1       1.101  -0.975  -0.106  0.00  0.00    -0.096 F 
ATOM     11  F3  UNL d   1       2.950  -0.571   1.831  0.00  0.00    -0.097 F 
ATOM     12  F4  UNL d   1       2.250   0.628   4.179  0.00  0.00    -0.092 F 
ENDROOT
TORSDOF 0
ENDMDL
