MODEL 1
REMARK minimizedAffinity -4.03931189
REMARK minimizedRMSD -1
REMARK  0 active torsions:
REMARK  status: ('A' for Active; 'I' for Inactive)
ROOT
ATOM      1  C   UNL d   1       0.100   0.775   3.281  0.00  0.00     0.124 A 
ATOM      2  C1  UNL d   1       1.065  -0.159   2.931  0.00  0.00     0.062 A 
ATOM      3  C2  UNL d   1       1.215  -0.546   1.602  0.00  0.00     0.162 A 
ATOM      4  C3  UNL d   1       0.398   0.001   0.613  0.00  0.00    -0.034 A 
ATOM      5  C4  UNL d   1      -0.572   0.938   0.973  0.00  0.00     0.162 A 
ATOM      6  C5  UNL d   1      -0.717   1.322   2.302  0.00  0.00     0.062 A 
ATOM      7  F   UNL d   1      -1.651   2.224   2.639  0.00  0.00    -0.097 F 
ATOM      8  F1  UNL d   1      -1.374   1.484   0.048  0.00  0.00    -0.096 F 
ATOM      9  I   UNL d   1       0.619  -0.576  -1.374  0.00  0.00    -0.060 I 
ATOM     10  F2  UNL d   1       2.156  -1.451   1.293  0.00  0.00    -0.096 F 
ATOM     11  F3  UNL d   1       1.856  -0.690   3.875  0.00  0.00    -0.097 F 
ATOM     12  F4  UNL d   1      -0.043   1.145   4.560  0.00  0.00    -0.092 F 
ENDROOT
TORSDOF 0
ENDMDL
