MODEL 1
REMARK minimizedAffinity -2.82661343
REMARK minimizedRMSD -1
REMARK  0 active torsions:
REMARK  status: ('A' for Active; 'I' for Inactive)
ROOT
ATOM      1  C   UNL d   1       0.416   0.455   2.699  0.00  0.00     0.124 A 
ATOM      2  C1  UNL d   1       1.410  -0.353   2.164  0.00  0.00     0.062 A 
ATOM      3  C2  UNL d   1       1.372  -0.713   0.820  0.00  0.00     0.162 A 
ATOM      4  C3  UNL d   1       0.336  -0.264   0.001  0.00  0.00    -0.034 A 
ATOM      5  C4  UNL d   1      -0.661   0.547   0.546  0.00  0.00     0.162 A 
ATOM      6  C5  UNL d   1      -0.618   0.904   1.890  0.00  0.00     0.062 A 
ATOM      7  F   UNL d   1      -1.579   1.685   2.405  0.00  0.00    -0.097 F 
ATOM      8  F1  UNL d   1      -1.671   0.996  -0.214  0.00  0.00    -0.096 F 
ATOM      9  I   UNL d   1       0.275  -0.800  -2.010  0.00  0.00    -0.060 I 
ATOM     10  F2  UNL d   1       2.345  -1.494   0.330  0.00  0.00    -0.096 F 
ATOM     11  F3  UNL d   1       2.409  -0.789   2.944  0.00  0.00    -0.097 F 
ATOM     12  F4  UNL d   1       0.455   0.799   3.993  0.00  0.00    -0.092 F 
ENDROOT
TORSDOF 0
ENDMDL
