MODEL 1
REMARK minimizedAffinity -3.91818762
REMARK minimizedRMSD -1
REMARK  0 active torsions:
REMARK  status: ('A' for Active; 'I' for Inactive)
ROOT
ATOM      1  C   UNL d   1       0.966  -1.407  -0.591  0.00  0.00     0.124 A 
ATOM      2  C1  UNL d   1      -0.332  -0.922  -0.671  0.00  0.00     0.062 A 
ATOM      3  C2  UNL d   1      -0.786   0.016   0.251  0.00  0.00     0.162 A 
ATOM      4  C3  UNL d   1       0.059   0.477   1.261  0.00  0.00    -0.034 A 
ATOM      5  C4  UNL d   1       1.363  -0.016   1.335  0.00  0.00     0.162 A 
ATOM      6  C5  UNL d   1       1.812  -0.954   0.411  0.00  0.00     0.062 A 
ATOM      7  F   UNL d   1       3.067  -1.421   0.490  0.00  0.00    -0.097 F 
ATOM      8  F1  UNL d   1       2.201   0.406   2.293  0.00  0.00    -0.096 F 
ATOM      9  I   UNL d   1      -0.617   1.880   2.642  0.00  0.00    -0.060 I 
ATOM     10  F2  UNL d   1      -2.045   0.467   0.150  0.00  0.00    -0.096 F 
ATOM     11  F3  UNL d   1      -1.151  -1.359  -1.638  0.00  0.00    -0.097 F 
ATOM     12  F4  UNL d   1       1.401  -2.311  -1.479  0.00  0.00    -0.092 F 
ENDROOT
TORSDOF 0
ENDMDL
