MODEL 1
REMARK minimizedAffinity -4.66923952
REMARK minimizedRMSD -1
REMARK  0 active torsions:
REMARK  status: ('A' for Active; 'I' for Inactive)
ROOT
ATOM      1  C   UNL d   1      -2.039   2.092   1.434  0.00  0.00     0.078 C 
ATOM      2  C1  UNL d   1      -1.111   1.001   0.990  0.00  0.00    -0.077 A 
ATOM      3  C2  UNL d   1      -0.801  -0.071   1.835  0.00  0.00    -0.001 A 
ATOM      4  C3  UNL d   1       0.072  -1.074   1.411  0.00  0.00     0.003 A 
ATOM      5  C4  UNL d   1       0.643  -1.014   0.142  0.00  0.00    -0.005 A 
ATOM      6  C5  UNL d   1       0.343   0.050  -0.706  0.00  0.00     0.003 A 
ATOM      7  C6  UNL d   1      -0.530   1.054  -0.284  0.00  0.00    -0.001 A 
ENDROOT
TORSDOF 0
ENDMDL
