MODEL 1
REMARK minimizedAffinity -4.84903908
REMARK minimizedRMSD -1
REMARK  0 active torsions:
REMARK  status: ('A' for Active; 'I' for Inactive)
ROOT
ATOM      1  C   UNL d   1       0.003  -1.290  -0.624  0.00  0.00     0.078 C 
ATOM      2  C1  UNL d   1      -0.463  -0.097   0.157  0.00  0.00    -0.077 A 
ATOM      3  C2  UNL d   1      -0.326  -0.049   1.549  0.00  0.00    -0.001 A 
ATOM      4  C3  UNL d   1      -0.772   1.063   2.264  0.00  0.00     0.003 A 
ATOM      5  C4  UNL d   1      -1.360   2.135   1.595  0.00  0.00    -0.005 A 
ATOM      6  C5  UNL d   1      -1.503   2.095   0.210  0.00  0.00     0.003 A 
ATOM      7  C6  UNL d   1      -1.057   0.984  -0.507  0.00  0.00    -0.001 A 
ENDROOT
TORSDOF 0
ENDMDL
