MODEL 1
REMARK minimizedAffinity -4.22311497
REMARK minimizedRMSD -1
REMARK  0 active torsions:
REMARK  status: ('A' for Active; 'I' for Inactive)
ROOT
ATOM      1  C   UNL d   1       0.354  -0.375   0.022  0.00  0.00     0.078 C 
ATOM      2  C1  UNL d   1      -0.520   0.733   0.530  0.00  0.00    -0.077 A 
ATOM      3  C2  UNL d   1      -0.516   1.992  -0.083  0.00  0.00    -0.001 A 
ATOM      4  C3  UNL d   1      -1.327   3.017   0.407  0.00  0.00     0.003 A 
ATOM      5  C4  UNL d   1      -2.146   2.795   1.511  0.00  0.00    -0.005 A 
ATOM      6  C5  UNL d   1      -2.155   1.545   2.128  0.00  0.00     0.003 A 
ATOM      7  C6  UNL d   1      -1.345   0.519   1.641  0.00  0.00    -0.001 A 
ENDROOT
TORSDOF 0
ENDMDL
