MODEL 1
REMARK minimizedAffinity -4.50240898
REMARK minimizedRMSD -1
REMARK  0 active torsions:
REMARK  status: ('A' for Active; 'I' for Inactive)
ROOT
ATOM      1  C   UNL d   1      -0.135   0.330   0.696  0.00  0.00     0.078 C 
ATOM      2  C1  UNL d   1       0.038  -0.658  -0.419  0.00  0.00    -0.077 A 
ATOM      3  C2  UNL d   1      -1.022  -0.963  -1.282  0.00  0.00    -0.001 A 
ATOM      4  C3  UNL d   1      -0.850  -1.891  -2.310  0.00  0.00     0.003 A 
ATOM      5  C4  UNL d   1       0.380  -2.523  -2.484  0.00  0.00    -0.005 A 
ATOM      6  C5  UNL d   1       1.439  -2.228  -1.628  0.00  0.00     0.003 A 
ATOM      7  C6  UNL d   1       1.269  -1.299  -0.600  0.00  0.00    -0.001 A 
ENDROOT
TORSDOF 0
ENDMDL
