MODEL 1
REMARK minimizedAffinity -4.62168932
REMARK minimizedRMSD -1
REMARK  0 active torsions:
REMARK  status: ('A' for Active; 'I' for Inactive)
ROOT
ATOM      1  C   UNL d   1      -0.517  -0.474   1.129  0.00  0.00     0.078 C 
ATOM      2  C1  UNL d   1      -0.559   1.013   0.942  0.00  0.00    -0.077 A 
ATOM      3  C2  UNL d   1      -1.216   1.838   1.864  0.00  0.00    -0.001 A 
ATOM      4  C3  UNL d   1      -1.256   3.219   1.672  0.00  0.00     0.003 A 
ATOM      5  C4  UNL d   1      -0.642   3.789   0.558  0.00  0.00    -0.005 A 
ATOM      6  C5  UNL d   1       0.011   2.977  -0.366  0.00  0.00     0.003 A 
ATOM      7  C6  UNL d   1       0.052   1.595  -0.176  0.00  0.00    -0.001 A 
ENDROOT
TORSDOF 0
ENDMDL
