MODEL 1
REMARK minimizedAffinity -5.86930752
REMARK minimizedRMSD -1
REMARK  0 active torsions:
REMARK  status: ('A' for Active; 'I' for Inactive)
ROOT
ATOM      1  C   UNL d   1       0.850  -0.031  -0.611  0.00  0.00     0.078 C 
ATOM      2  C1  UNL d   1      -0.208   0.859  -0.030  0.00  0.00    -0.077 A 
ATOM      3  C2  UNL d   1      -0.944   0.466   1.094  0.00  0.00    -0.001 A 
ATOM      4  C3  UNL d   1      -1.933   1.300   1.618  0.00  0.00     0.003 A 
ATOM      5  C4  UNL d   1      -2.196   2.532   1.024  0.00  0.00    -0.005 A 
ATOM      6  C5  UNL d   1      -1.470   2.931  -0.097  0.00  0.00     0.003 A 
ATOM      7  C6  UNL d   1      -0.481   2.098  -0.622  0.00  0.00    -0.001 A 
ENDROOT
TORSDOF 0
ENDMDL
