MODEL 1
REMARK minimizedAffinity -5.24796438
REMARK minimizedRMSD -1
REMARK  0 active torsions:
REMARK  status: ('A' for Active; 'I' for Inactive)
ROOT
ATOM      1  C   UNL d   1       0.164  -0.048  -0.505  0.00  0.00     0.078 C 
ATOM      2  C1  UNL d   1      -0.366   1.270  -0.024  0.00  0.00    -0.077 A 
ATOM      3  C2  UNL d   1       0.012   2.468  -0.643  0.00  0.00    -0.001 A 
ATOM      4  C3  UNL d   1      -0.482   3.689  -0.179  0.00  0.00     0.003 A 
ATOM      5  C4  UNL d   1      -1.355   3.723   0.906  0.00  0.00    -0.005 A 
ATOM      6  C5  UNL d   1      -1.735   2.537   1.530  0.00  0.00     0.003 A 
ATOM      7  C6  UNL d   1      -1.243   1.315   1.067  0.00  0.00    -0.001 A 
ENDROOT
TORSDOF 0
ENDMDL
