MODEL 1
REMARK minimizedAffinity -4.12050581
REMARK minimizedRMSD -1
REMARK  0 active torsions:
REMARK  status: ('A' for Active; 'I' for Inactive)
ROOT
ATOM      1  C   UNL d   1      -0.137  -0.332  -0.181  0.00  0.00     0.078 C 
ATOM      2  C1  UNL d   1       0.190  -1.581  -0.943  0.00  0.00    -0.077 A 
ATOM      3  C2  UNL d   1      -0.798  -2.532  -1.226  0.00  0.00    -0.001 A 
ATOM      4  C3  UNL d   1      -0.477  -3.696  -1.928  0.00  0.00     0.003 A 
ATOM      5  C4  UNL d   1       0.832  -3.919  -2.351  0.00  0.00    -0.005 A 
ATOM      6  C5  UNL d   1       1.822  -2.979  -2.072  0.00  0.00     0.003 A 
ATOM      7  C6  UNL d   1       1.503  -1.815  -1.370  0.00  0.00    -0.001 A 
ENDROOT
TORSDOF 0
ENDMDL
