MODEL 1
REMARK minimizedAffinity -4.60964489
REMARK minimizedRMSD -1
REMARK  0 active torsions:
REMARK  status: ('A' for Active; 'I' for Inactive)
ROOT
ATOM      1  C   UNL d   1      -0.646   0.492   0.476  0.00  0.00     0.078 C 
ATOM      2  C1  UNL d   1      -0.270  -0.603  -0.477  0.00  0.00    -0.077 A 
ATOM      3  C2  UNL d   1      -1.082  -0.914  -1.575  0.00  0.00    -0.001 A 
ATOM      4  C3  UNL d   1      -0.724  -1.942  -2.449  0.00  0.00     0.003 A 
ATOM      5  C4  UNL d   1       0.445  -2.668  -2.233  0.00  0.00    -0.005 A 
ATOM      6  C5  UNL d   1       1.258  -2.368  -1.142  0.00  0.00     0.003 A 
ATOM      7  C6  UNL d   1       0.902  -1.340  -0.268  0.00  0.00    -0.001 A 
ENDROOT
TORSDOF 0
ENDMDL
