MODEL 1
REMARK minimizedAffinity -5.10610819
REMARK minimizedRMSD -1
REMARK  0 active torsions:
REMARK  status: ('A' for Active; 'I' for Inactive)
ROOT
ATOM      1  C   UNL d   1       0.467  -0.185  -0.585  0.00  0.00     0.078 C 
ATOM      2  C1  UNL d   1      -0.268   0.992  -0.018  0.00  0.00    -0.077 A 
ATOM      3  C2  UNL d   1      -0.091   2.277  -0.546  0.00  0.00    -0.001 A 
ATOM      4  C3  UNL d   1      -0.775   3.365  -0.001  0.00  0.00     0.003 A 
ATOM      5  C4  UNL d   1      -1.640   3.180   1.076  0.00  0.00    -0.005 A 
ATOM      6  C5  UNL d   1      -1.821   1.905   1.610  0.00  0.00     0.003 A 
ATOM      7  C6  UNL d   1      -1.138   0.816   1.066  0.00  0.00    -0.001 A 
ENDROOT
TORSDOF 0
ENDMDL
