MODEL 1
REMARK minimizedAffinity -5.70971823
REMARK minimizedRMSD -1
REMARK  0 active torsions:
REMARK  status: ('A' for Active; 'I' for Inactive)
ROOT
ATOM      1  C   UNL d   1      -0.641  -0.299   0.416  0.00  0.00     0.078 C 
ATOM      2  C1  UNL d   1      -0.764   1.195   0.365  0.00  0.00    -0.077 A 
ATOM      3  C2  UNL d   1      -0.011   1.950  -0.542  0.00  0.00    -0.001 A 
ATOM      4  C3  UNL d   1      -0.129   3.341  -0.571  0.00  0.00     0.003 A 
ATOM      5  C4  UNL d   1      -0.999   3.988   0.305  0.00  0.00    -0.005 A 
ATOM      6  C5  UNL d   1      -1.751   3.245   1.212  0.00  0.00     0.003 A 
ATOM      7  C6  UNL d   1      -1.634   1.854   1.243  0.00  0.00    -0.001 A 
ENDROOT
TORSDOF 0
ENDMDL
