MODEL 1
REMARK minimizedAffinity -4.69296598
REMARK minimizedRMSD -1
REMARK  0 active torsions:
REMARK  status: ('A' for Active; 'I' for Inactive)
ROOT
ATOM      1  C   UNL d   1      -1.520   2.183   1.205  0.00  0.00     0.078 C 
ATOM      2  C1  UNL d   1      -0.698   1.026   0.721  0.00  0.00    -0.077 A 
ATOM      3  C2  UNL d   1      -0.236   0.972  -0.599  0.00  0.00    -0.001 A 
ATOM      4  C3  UNL d   1       0.520  -0.116  -1.038  0.00  0.00     0.003 A 
ATOM      5  C4  UNL d   1       0.819  -1.159  -0.164  0.00  0.00    -0.005 A 
ATOM      6  C5  UNL d   1       0.361  -1.115   1.151  0.00  0.00     0.003 A 
ATOM      7  C6  UNL d   1      -0.395  -0.028   1.592  0.00  0.00    -0.001 A 
ENDROOT
TORSDOF 0
ENDMDL
