MODEL 1
REMARK minimizedAffinity -5.4935503
REMARK minimizedRMSD -1
REMARK  0 active torsions:
REMARK  status: ('A' for Active; 'I' for Inactive)
ROOT
ATOM      1  C   UNL d   1       0.414  -0.410  -0.587  0.00  0.00     0.078 C 
ATOM      2  C1  UNL d   1      -0.384   0.695   0.040  0.00  0.00    -0.077 A 
ATOM      3  C2  UNL d   1      -0.381   1.985  -0.503  0.00  0.00    -0.001 A 
ATOM      4  C3  UNL d   1      -1.120   3.006   0.097  0.00  0.00     0.003 A 
ATOM      5  C4  UNL d   1      -1.868   2.747   1.244  0.00  0.00    -0.005 A 
ATOM      6  C5  UNL d   1      -1.875   1.466   1.793  0.00  0.00     0.003 A 
ATOM      7  C6  UNL d   1      -1.137   0.444   1.194  0.00  0.00    -0.001 A 
ENDROOT
TORSDOF 0
ENDMDL
