MODEL 1
REMARK minimizedAffinity -5.65070248
REMARK minimizedRMSD -1
REMARK  0 active torsions:
REMARK  status: ('A' for Active; 'I' for Inactive)
ROOT
ATOM      1  C   UNL d   1       0.291   3.580  -1.313  0.00  0.00     0.078 C 
ATOM      2  C1  UNL d   1      -0.488   2.853  -0.257  0.00  0.00    -0.077 A 
ATOM      3  C2  UNL d   1      -0.436   1.458  -0.154  0.00  0.00    -0.001 A 
ATOM      4  C3  UNL d   1      -1.174   0.794   0.827  0.00  0.00     0.003 A 
ATOM      5  C4  UNL d   1      -1.971   1.518   1.712  0.00  0.00    -0.005 A 
ATOM      6  C5  UNL d   1      -2.031   2.906   1.616  0.00  0.00     0.003 A 
ATOM      7  C6  UNL d   1      -1.293   3.572   0.635  0.00  0.00    -0.001 A 
ENDROOT
TORSDOF 0
ENDMDL
