MODEL 1
REMARK minimizedAffinity -4.22260809
REMARK minimizedRMSD -1
REMARK  1 active torsions:
REMARK  status: ('A' for Active; 'I' for Inactive)
REMARK    1  A    between atoms: N_2  and  C1_3 
ROOT
ATOM      1  C1  UNL d   1      -0.454  -0.465  -5.197  0.00  0.00     0.143 A 
ATOM      2  C2  UNL d   1       0.727   0.173  -5.593  0.00  0.00    -0.057 A 
ATOM      3  C3  UNL d   1       1.801   0.327  -4.708  0.00  0.00     0.033 A 
ATOM      4  C4  UNL d   1       1.701  -0.130  -3.397  0.00  0.00    -0.042 A 
ATOM      5  C5  UNL d   1       0.528  -0.744  -2.975  0.00  0.00     0.033 A 
ATOM      6  C6  UNL d   1      -0.539  -0.901  -3.865  0.00  0.00    -0.057 A 
ENDROOT
BRANCH   1   7
ATOM      7  N   UNL d   1      -1.593  -0.561  -6.000  0.00  0.00    -0.732 N 
ATOM      8  C   UNL d   1      -2.397  -1.764  -5.998  0.00  0.00     0.284 C 
ATOM      9  H3  UNL d   1      -2.134   0.301  -6.011  0.00  0.00     0.395 HD
ENDBRANCH   1   7
TORSDOF 1
ENDMDL
