MODEL 1
REMARK minimizedAffinity -0.928970039
REMARK minimizedRMSD -1
REMARK  1 active torsions:
REMARK  status: ('A' for Active; 'I' for Inactive)
REMARK    1  A    between atoms: N_2  and  C1_3 
ROOT
ATOM      1  C1  UNL d   1      -0.665   0.004   0.743  0.00  0.00     0.143 A 
ATOM      2  C2  UNL d   1      -1.080  -0.549  -0.474  0.00  0.00    -0.057 A 
ATOM      3  C3  UNL d   1      -0.157  -1.076  -1.385  0.00  0.00     0.033 A 
ATOM      4  C4  UNL d   1       1.205  -1.033  -1.107  0.00  0.00    -0.042 A 
ATOM      5  C5  UNL d   1       1.643  -0.467   0.085  0.00  0.00     0.033 A 
ATOM      6  C6  UNL d   1       0.715   0.052   0.994  0.00  0.00    -0.057 A 
ENDROOT
BRANCH   1   7
ATOM      7  N   UNL d   1      -1.526   0.632   1.645  0.00  0.00    -0.732 N 
ATOM      8  C   UNL d   1      -1.185   0.721   3.049  0.00  0.00     0.284 C 
ATOM      9  H3  UNL d   1      -1.938   1.480   1.263  0.00  0.00     0.395 HD
ENDBRANCH   1   7
TORSDOF 1
ENDMDL
