MODEL 1
REMARK minimizedAffinity -1.48370802
REMARK minimizedRMSD -1
REMARK  1 active torsions:
REMARK  status: ('A' for Active; 'I' for Inactive)
REMARK    1  A    between atoms: N_2  and  C1_3 
ROOT
ATOM      1  C1  UNL d   1      -0.418   0.281   1.761  0.00  0.00     0.143 A 
ATOM      2  C2  UNL d   1      -0.461   0.223   3.158  0.00  0.00    -0.057 A 
ATOM      3  C3  UNL d   1       0.679  -0.092   3.907  0.00  0.00     0.033 A 
ATOM      4  C4  UNL d   1       1.879  -0.384   3.269  0.00  0.00    -0.042 A 
ATOM      5  C5  UNL d   1       1.940  -0.356   1.880  0.00  0.00     0.033 A 
ATOM      6  C6  UNL d   1       0.799  -0.035   1.137  0.00  0.00    -0.057 A 
ENDROOT
BRANCH   1   7
ATOM      7  N   UNL d   1      -1.540   0.491   0.956  0.00  0.00    -0.732 N 
ATOM      8  C   UNL d   1      -1.661  -0.167  -0.327  0.00  0.00     0.284 C 
ATOM      9  H3  UNL d   1      -2.404   0.517   1.493  0.00  0.00     0.395 HD
ENDBRANCH   1   7
TORSDOF 1
ENDMDL
