MODEL 1
REMARK minimizedAffinity -2.93060398
REMARK minimizedRMSD -1
REMARK  1 active torsions:
REMARK  status: ('A' for Active; 'I' for Inactive)
REMARK    1  A    between atoms: N_2  and  C1_3 
ROOT
ATOM      1  C1  UNL d   1      -1.467   0.467   1.023  0.00  0.00     0.143 A 
ATOM      2  C2  UNL d   1      -0.562   0.582   2.084  0.00  0.00    -0.057 A 
ATOM      3  C3  UNL d   1       0.767   0.163   1.952  0.00  0.00     0.033 A 
ATOM      4  C4  UNL d   1       1.209  -0.407   0.763  0.00  0.00    -0.042 A 
ATOM      5  C5  UNL d   1       0.321  -0.553  -0.297  0.00  0.00     0.033 A 
ATOM      6  C6  UNL d   1      -1.004  -0.127  -0.162  0.00  0.00    -0.057 A 
ENDROOT
BRANCH   1   7
ATOM      7  N   UNL d   1      -2.826   0.774   1.123  0.00  0.00    -0.732 N 
ATOM      8  C   UNL d   1      -3.712   0.574  -0.004  0.00  0.00     0.284 C 
ATOM      9  H3  UNL d   1      -3.222   0.496   2.018  0.00  0.00     0.395 HD
ENDBRANCH   1   7
TORSDOF 1
ENDMDL
