MODEL 1
REMARK minimizedAffinity 5.75156832
REMARK minimizedRMSD -1
REMARK  0 active torsions:
REMARK  status: ('A' for Active; 'I' for Inactive)
ROOT
ATOM      1  C   UNL d   1       1.442  -2.979  -0.343  0.00  0.00     0.077 C 
ATOM      2  C1  UNL d   1       2.020  -1.599  -0.450  0.00  0.00    -0.074 A 
ATOM      3  C2  UNL d   1       1.636  -0.737  -1.482  0.00  0.00    -0.005 A 
ATOM      4  C3  UNL d   1       2.175   0.547  -1.563  0.00  0.00     0.006 A 
ATOM      5  C4  UNL d   1       3.102   0.981  -0.615  0.00  0.00    -0.005 A 
ATOM      6  C5  UNL d   1       3.498   0.133   0.424  0.00  0.00    -0.074 A 
ATOM      7  C6  UNL d   1       4.486   0.587   1.457  0.00  0.00     0.077 C 
ATOM      8  C7  UNL d   1       2.946  -1.153   0.503  0.00  0.00    -0.001 A 
ENDROOT
TORSDOF 0
ENDMDL
