MODEL 1
REMARK minimizedAffinity 14.4693136
REMARK minimizedRMSD -1
REMARK  0 active torsions:
REMARK  status: ('A' for Active; 'I' for Inactive)
ROOT
ATOM      1  C   UNL d   1      -4.916   2.795   2.406  0.00  0.00     0.077 C 
ATOM      2  C1  UNL d   1      -4.845   3.838   3.482  0.00  0.00    -0.074 A 
ATOM      3  C2  UNL d   1      -5.999   4.266   4.145  0.00  0.00    -0.005 A 
ATOM      4  C3  UNL d   1      -5.916   5.230   5.150  0.00  0.00     0.006 A 
ATOM      5  C4  UNL d   1      -4.681   5.775   5.500  0.00  0.00    -0.005 A 
ATOM      6  C5  UNL d   1      -3.515   5.359   4.848  0.00  0.00    -0.074 A 
ATOM      7  C6  UNL d   1      -2.178   5.927   5.220  0.00  0.00     0.077 C 
ATOM      8  C7  UNL d   1      -3.606   4.385   3.845  0.00  0.00    -0.001 A 
ENDROOT
TORSDOF 0
ENDMDL
