MODEL 1
REMARK minimizedAffinity 3.14521837
REMARK minimizedRMSD -1
REMARK  0 active torsions:
REMARK  status: ('A' for Active; 'I' for Inactive)
ROOT
ATOM      1  C   UNL d   1      -5.733   3.564   2.672  0.00  0.00     0.077 C 
ATOM      2  C1  UNL d   1      -5.187   4.418   3.777  0.00  0.00    -0.074 A 
ATOM      3  C2  UNL d   1      -6.000   4.827   4.840  0.00  0.00    -0.005 A 
ATOM      4  C3  UNL d   1      -5.475   5.613   5.865  0.00  0.00     0.006 A 
ATOM      5  C4  UNL d   1      -4.134   5.999   5.838  0.00  0.00    -0.005 A 
ATOM      6  C5  UNL d   1      -3.306   5.600   4.784  0.00  0.00    -0.074 A 
ATOM      7  C6  UNL d   1      -1.860   5.998   4.745  0.00  0.00     0.077 C 
ATOM      8  C7  UNL d   1      -3.839   4.804   3.761  0.00  0.00    -0.001 A 
ENDROOT
TORSDOF 0
ENDMDL
