MODEL 1
REMARK minimizedAffinity 11.7104511
REMARK minimizedRMSD -1
REMARK  0 active torsions:
REMARK  status: ('A' for Active; 'I' for Inactive)
ROOT
ATOM      1  C   UNL d   1       1.142  -0.760  -1.499  0.00  0.00     0.077 C 
ATOM      2  C1  UNL d   1       2.293   0.045  -0.976  0.00  0.00    -0.074 A 
ATOM      3  C2  UNL d   1       2.537   0.143   0.397  0.00  0.00    -0.005 A 
ATOM      4  C3  UNL d   1       3.618   0.889   0.868  0.00  0.00     0.006 A 
ATOM      5  C4  UNL d   1       4.465   1.542  -0.028  0.00  0.00    -0.005 A 
ATOM      6  C5  UNL d   1       4.237   1.455  -1.405  0.00  0.00    -0.074 A 
ATOM      7  C6  UNL d   1       5.143   2.143  -2.382  0.00  0.00     0.077 C 
ATOM      8  C7  UNL d   1       3.153   0.698  -1.871  0.00  0.00    -0.001 A 
ENDROOT
TORSDOF 0
ENDMDL
