MODEL 1
REMARK minimizedAffinity 8.00196743
REMARK minimizedRMSD -1
REMARK  0 active torsions:
REMARK  status: ('A' for Active; 'I' for Inactive)
ROOT
ATOM      1  C   UNL d   1      -5.041   3.089   1.862  0.00  0.00     0.077 C 
ATOM      2  C1  UNL d   1      -4.851   4.101   2.952  0.00  0.00    -0.074 A 
ATOM      3  C2  UNL d   1      -5.941   4.579   3.687  0.00  0.00    -0.005 A 
ATOM      4  C3  UNL d   1      -5.747   5.514   4.704  0.00  0.00     0.006 A 
ATOM      5  C4  UNL d   1      -4.465   5.979   4.996  0.00  0.00    -0.005 A 
ATOM      6  C5  UNL d   1      -3.363   5.512   4.273  0.00  0.00    -0.074 A 
ATOM      7  C6  UNL d   1      -1.977   5.995   4.580  0.00  0.00     0.077 C 
ATOM      8  C7  UNL d   1      -3.565   4.568   3.257  0.00  0.00    -0.001 A 
ENDROOT
TORSDOF 0
ENDMDL
