MODEL 1
REMARK minimizedAffinity 6.30128908
REMARK minimizedRMSD -1
REMARK  0 active torsions:
REMARK  status: ('A' for Active; 'I' for Inactive)
ROOT
ATOM      1  C   UNL d   1       4.494   1.855   0.542  0.00  0.00     0.077 C 
ATOM      2  C1  UNL d   1       3.593   0.663   0.417  0.00  0.00    -0.074 A 
ATOM      3  C2  UNL d   1       3.674  -0.399   1.324  0.00  0.00    -0.005 A 
ATOM      4  C3  UNL d   1       2.822  -1.496   1.201  0.00  0.00     0.006 A 
ATOM      5  C4  UNL d   1       1.882  -1.544   0.171  0.00  0.00    -0.005 A 
ATOM      6  C5  UNL d   1       1.786  -0.492  -0.745  0.00  0.00    -0.074 A 
ATOM      7  C6  UNL d   1       0.774  -0.522  -1.853  0.00  0.00     0.077 C 
ATOM      8  C7  UNL d   1       2.640   0.611  -0.611  0.00  0.00    -0.001 A 
ENDROOT
TORSDOF 0
ENDMDL
