MODEL 1
REMARK minimizedAffinity 6.70277214
REMARK minimizedRMSD -1
REMARK  0 active torsions:
REMARK  status: ('A' for Active; 'I' for Inactive)
ROOT
ATOM      1  C   UNL d   1       3.735   3.237   1.976  0.00  0.00     0.077 C 
ATOM      2  C1  UNL d   1       3.072   2.309   1.003  0.00  0.00    -0.074 A 
ATOM      3  C2  UNL d   1       3.527   0.997   0.836  0.00  0.00    -0.005 A 
ATOM      4  C3  UNL d   1       2.894   0.142  -0.066  0.00  0.00     0.006 A 
ATOM      5  C4  UNL d   1       1.801   0.590  -0.809  0.00  0.00    -0.005 A 
ATOM      6  C5  UNL d   1       1.331   1.898  -0.655  0.00  0.00    -0.074 A 
ATOM      7  C6  UNL d   1       0.152   2.392  -1.439  0.00  0.00     0.077 C 
ATOM      8  C7  UNL d   1       1.968   2.749   0.258  0.00  0.00    -0.001 A 
ENDROOT
TORSDOF 0
ENDMDL
