MODEL 1
REMARK minimizedAffinity 10.2925863
REMARK minimizedRMSD -1
REMARK  0 active torsions:
REMARK  status: ('A' for Active; 'I' for Inactive)
ROOT
ATOM      1  N1  IND d   1      -2.591  -0.874  -0.756  0.00  0.00    -0.196 N 
ATOM      2  C2  IND d   1      -1.853  -0.809   0.392  0.00  0.00     0.054 A 
ATOM      3  C3  IND d   1      -2.564  -1.291   1.437  0.00  0.00    -0.031 A 
ATOM      4  C4  IND d   1      -4.918  -2.332   1.471  0.00  0.00     0.051 A 
ATOM      5  C5  IND d   1      -6.000  -2.576   0.672  0.00  0.00    -0.031 A 
ATOM      6  C6  IND d   1      -6.000  -2.261  -0.671  0.00  0.00     0.015 A 
ATOM      7  C7  IND d   1      -4.909  -1.699  -1.271  0.00  0.00    -0.016 A 
ATOM      8  C8  IND d   1      -3.811  -1.443  -0.461  0.00  0.00    -0.047 A 
ATOM      9  C9  IND d   1      -3.821  -1.721   0.912  0.00  0.00    -0.096 A 
ATOM     10  HN1 IND d   1      -2.337  -0.605  -1.532  0.00  0.00     0.298 HD
ENDROOT
TORSDOF 0
ENDMDL
