MODEL 1
REMARK minimizedAffinity 14.1918383
REMARK minimizedRMSD -1
REMARK  0 active torsions:
REMARK  status: ('A' for Active; 'I' for Inactive)
ROOT
ATOM      1  N1  IND d   1       5.989   5.432   3.545  0.00  0.00    -0.196 N 
ATOM      2  C2  IND d   1       5.136   4.718   4.340  0.00  0.00     0.054 A 
ATOM      3  C3  IND d   1       4.099   4.245   3.613  0.00  0.00    -0.031 A 
ATOM      4  C4  IND d   1       3.654   4.436   1.084  0.00  0.00     0.051 A 
ATOM      5  C5  IND d   1       4.133   5.025  -0.052  0.00  0.00    -0.031 A 
ATOM      6  C6  IND d   1       5.280   5.792  -0.049  0.00  0.00     0.015 A 
ATOM      7  C7  IND d   1       6.000   5.991   1.095  0.00  0.00    -0.016 A 
ATOM      8  C8  IND d   1       5.512   5.401   2.253  0.00  0.00    -0.047 A 
ATOM      9  C9  IND d   1       4.326   4.656   2.263  0.00  0.00    -0.096 A 
ATOM     10  HN1 IND d   1       6.703   5.833   3.808  0.00  0.00     0.298 HD
ENDROOT
TORSDOF 0
ENDMDL
