MODEL 1
REMARK minimizedAffinity 12.1714821
REMARK minimizedRMSD -1
REMARK  0 active torsions:
REMARK  status: ('A' for Active; 'I' for Inactive)
ROOT
ATOM      1  N1  IND d   1      -1.873   3.019   3.741  0.00  0.00    -0.196 N 
ATOM      2  C2  IND d   1      -2.608   2.342   2.808  0.00  0.00     0.054 A 
ATOM      3  C3  IND d   1      -3.817   2.925   2.649  0.00  0.00    -0.031 A 
ATOM      4  C4  IND d   1      -4.762   5.056   3.741  0.00  0.00     0.051 A 
ATOM      5  C5  IND d   1      -4.475   6.000   4.687  0.00  0.00    -0.031 A 
ATOM      6  C6  IND d   1      -3.280   6.000   5.378  0.00  0.00     0.015 A 
ATOM      7  C7  IND d   1      -2.319   5.058   5.139  0.00  0.00    -0.016 A 
ATOM      8  C8  IND d   1      -2.611   4.094   4.185  0.00  0.00    -0.047 A 
ATOM      9  C9  IND d   1      -3.838   4.064   3.511  0.00  0.00    -0.096 A 
ATOM     10  HN1 IND d   1      -1.082   2.808   4.006  0.00  0.00     0.298 HD
ENDROOT
TORSDOF 0
ENDMDL
