MODEL 1
REMARK minimizedAffinity -3.41939759
REMARK minimizedRMSD -1
REMARK  0 active torsions:
REMARK  status: ('A' for Active; 'I' for Inactive)
ROOT
ATOM      1  N1  IND d   1       6.000  -1.298   5.993  0.00  0.00    -0.196 N 
ATOM      2  C2  IND d   1       5.959  -0.224   5.148  0.00  0.00     0.054 A 
ATOM      3  C3  IND d   1       5.119  -0.469   4.117  0.00  0.00    -0.031 A 
ATOM      4  C4  IND d   1       3.631  -2.522   3.672  0.00  0.00     0.051 A 
ATOM      5  C5  IND d   1       3.352  -3.774   4.145  0.00  0.00    -0.031 A 
ATOM      6  C6  IND d   1       3.952  -4.273   5.283  0.00  0.00     0.015 A 
ATOM      7  C7  IND d   1       4.849  -3.531   6.000  0.00  0.00    -0.016 A 
ATOM      8  C8  IND d   1       5.139  -2.263   5.518  0.00  0.00    -0.047 A 
ATOM      9  C9  IND d   1       4.565  -1.767   4.340  0.00  0.00    -0.096 A 
ATOM     10  HN1 IND d   1       6.482  -1.360   6.702  0.00  0.00     0.298 HD
ENDROOT
TORSDOF 0
ENDMDL
