MODEL 1
REMARK minimizedAffinity 2.33556724
REMARK minimizedRMSD -1
REMARK  0 active torsions:
REMARK  status: ('A' for Active; 'I' for Inactive)
ROOT
ATOM      1  N1  IND d   1      -4.689   6.000   5.050  0.00  0.00    -0.196 N 
ATOM      2  C2  IND d   1      -3.666   5.988   5.957  0.00  0.00     0.054 A 
ATOM      3  C3  IND d   1      -2.653   5.209   5.513  0.00  0.00    -0.031 A 
ATOM      4  C4  IND d   1      -2.420   3.943   3.284  0.00  0.00     0.051 A 
ATOM      5  C5  IND d   1      -3.111   3.624   2.148  0.00  0.00    -0.031 A 
ATOM      6  C6  IND d   1      -4.388   4.093   1.916  0.00  0.00     0.015 A 
ATOM      7  C7  IND d   1      -5.020   4.911   2.810  0.00  0.00    -0.016 A 
ATOM      8  C8  IND d   1      -4.324   5.230   3.967  0.00  0.00    -0.047 A 
ATOM      9  C9  IND d   1      -3.045   4.723   4.228  0.00  0.00    -0.096 A 
ATOM     10  HN1 IND d   1      -5.435   6.418   5.141  0.00  0.00     0.298 HD
ENDROOT
TORSDOF 0
ENDMDL
