MODEL 1
REMARK minimizedAffinity 9.98036671
REMARK minimizedRMSD -1
REMARK  0 active torsions:
REMARK  status: ('A' for Active; 'I' for Inactive)
ROOT
ATOM      1  N1  IND d   1      -3.631   5.999   5.449  0.00  0.00    -0.196 N 
ATOM      2  C2  IND d   1      -2.388   5.820   5.990  0.00  0.00     0.054 A 
ATOM      3  C3  IND d   1      -1.735   4.826   5.347  0.00  0.00    -0.031 A 
ATOM      4  C4  IND d   1      -2.473   3.430   3.314  0.00  0.00     0.051 A 
ATOM      5  C5  IND d   1      -3.542   3.206   2.492  0.00  0.00    -0.031 A 
ATOM      6  C6  IND d   1      -4.717   3.918   2.614  0.00  0.00     0.015 A 
ATOM      7  C7  IND d   1      -4.865   4.893   3.560  0.00  0.00    -0.016 A 
ATOM      8  C8  IND d   1      -3.784   5.118   4.401  0.00  0.00    -0.047 A 
ATOM      9  C9  IND d   1      -2.604   4.369   4.309  0.00  0.00    -0.096 A 
ATOM     10  HN1 IND d   1      -4.218   6.568   5.717  0.00  0.00     0.298 HD
ENDROOT
TORSDOF 0
ENDMDL
