MODEL 1
REMARK minimizedAffinity 12.0667343
REMARK minimizedRMSD -1
REMARK  0 active torsions:
REMARK  status: ('A' for Active; 'I' for Inactive)
ROOT
ATOM      1  N1  IND d   1      -4.391   5.654   5.218  0.00  0.00    -0.196 N 
ATOM      2  C2  IND d   1      -3.125   5.196   5.456  0.00  0.00     0.054 A 
ATOM      3  C3  IND d   1      -2.658   4.525   4.379  0.00  0.00    -0.031 A 
ATOM      4  C4  IND d   1      -3.761   4.145   2.084  0.00  0.00     0.051 A 
ATOM      5  C5  IND d   1      -4.930   4.344   1.404  0.00  0.00    -0.031 A 
ATOM      6  C6  IND d   1      -6.000   5.006   1.972  0.00  0.00     0.015 A 
ATOM      7  C7  IND d   1      -5.936   5.506   3.242  0.00  0.00    -0.016 A 
ATOM      8  C8  IND d   1      -4.753   5.299   3.937  0.00  0.00    -0.047 A 
ATOM      9  C9  IND d   1      -3.679   4.591   3.382  0.00  0.00    -0.096 A 
ATOM     10  HN1 IND d   1      -4.879   6.091   5.775  0.00  0.00     0.298 HD
ENDROOT
TORSDOF 0
ENDMDL
