MODEL 1
REMARK minimizedAffinity -1.31638634
REMARK minimizedRMSD -1
REMARK  0 active torsions:
REMARK  status: ('A' for Active; 'I' for Inactive)
ROOT
ATOM      1  N1  IND d   1      -4.668   5.996   4.937  0.00  0.00    -0.196 N 
ATOM      2  C2  IND d   1      -3.441   5.954   5.538  0.00  0.00     0.054 A 
ATOM      3  C3  IND d   1      -2.504   5.522   4.665  0.00  0.00    -0.031 A 
ATOM      4  C4  IND d   1      -2.741   4.926   2.172  0.00  0.00     0.051 A 
ATOM      5  C5  IND d   1      -3.674   4.776   1.185  0.00  0.00    -0.031 A 
ATOM      6  C6  IND d   1      -5.013   5.033   1.401  0.00  0.00     0.015 A 
ATOM      7  C7  IND d   1      -5.469   5.462   2.615  0.00  0.00    -0.016 A 
ATOM      8  C8  IND d   1      -4.525   5.609   3.622  0.00  0.00    -0.047 A 
ATOM      9  C9  IND d   1      -3.172   5.309   3.421  0.00  0.00    -0.096 A 
ATOM     10  HN1 IND d   1      -5.405   6.226   5.315  0.00  0.00     0.298 HD
ENDROOT
TORSDOF 0
ENDMDL
