MODEL 1
REMARK minimizedAffinity 11.7148151
REMARK minimizedRMSD -1
REMARK  0 active torsions:
REMARK  status: ('A' for Active; 'I' for Inactive)
ROOT
ATOM      1  N1  IND d   1       4.137  -1.871   4.087  0.00  0.00    -0.196 N 
ATOM      2  C2  IND d   1       5.136  -1.043   4.519  0.00  0.00     0.054 A 
ATOM      3  C3  IND d   1       5.986  -1.715   5.328  0.00  0.00    -0.031 A 
ATOM      4  C4  IND d   1       5.986  -4.200   5.999  0.00  0.00     0.051 A 
ATOM      5  C5  IND d   1       5.252  -5.347   5.883  0.00  0.00    -0.031 A 
ATOM      6  C6  IND d   1       4.086  -5.396   5.145  0.00  0.00     0.015 A 
ATOM      7  C7  IND d   1       3.616  -4.297   4.484  0.00  0.00    -0.016 A 
ATOM      8  C8  IND d   1       4.355  -3.128   4.605  0.00  0.00    -0.047 A 
ATOM      9  C9  IND d   1       5.516  -3.062   5.387  0.00  0.00    -0.096 A 
ATOM     10  HN1 IND d   1       3.483  -1.643   3.578  0.00  0.00     0.298 HD
ENDROOT
TORSDOF 0
ENDMDL
