MODEL 1
REMARK minimizedAffinity 4.21625137
REMARK minimizedRMSD -1
REMARK  0 active torsions:
REMARK  status: ('A' for Active; 'I' for Inactive)
ROOT
ATOM      1  N1  IND d   1      -1.734   3.477   4.123  0.00  0.00    -0.196 N 
ATOM      2  C2  IND d   1      -2.276   2.898   3.010  0.00  0.00     0.054 A 
ATOM      3  C3  IND d   1      -3.518   3.382   2.785  0.00  0.00    -0.031 A 
ATOM      4  C4  IND d   1      -4.819   5.203   4.058  0.00  0.00     0.051 A 
ATOM      5  C5  IND d   1      -4.752   5.999   5.166  0.00  0.00    -0.031 A 
ATOM      6  C6  IND d   1      -3.652   5.998   5.999  0.00  0.00     0.015 A 
ATOM      7  C7  IND d   1      -2.569   5.204   5.747  0.00  0.00    -0.016 A 
ATOM      8  C8  IND d   1      -2.636   4.389   4.626  0.00  0.00    -0.047 A 
ATOM      9  C9  IND d   1      -3.768   4.355   3.801  0.00  0.00    -0.096 A 
ATOM     10  HN1 IND d   1      -0.961   3.301   4.454  0.00  0.00     0.298 HD
ENDROOT
TORSDOF 0
ENDMDL
