MODEL 1
REMARK minimizedAffinity 13.3908806
REMARK minimizedRMSD -1
REMARK  0 active torsions:
REMARK  status: ('A' for Active; 'I' for Inactive)
ROOT
ATOM      1  N1  IND d   1      -1.943   1.216   2.372  0.00  0.00    -0.196 N 
ATOM      2  C2  IND d   1      -2.766   0.888   3.413  0.00  0.00     0.054 A 
ATOM      3  C3  IND d   1      -3.471  -0.228   3.123  0.00  0.00    -0.031 A 
ATOM      4  C4  IND d   1      -3.358  -1.737   1.040  0.00  0.00     0.051 A 
ATOM      5  C5  IND d   1      -2.782  -1.826  -0.196  0.00  0.00    -0.031 A 
ATOM      6  C6  IND d   1      -1.876  -0.888  -0.647  0.00  0.00     0.015 A 
ATOM      7  C7  IND d   1      -1.503   0.172   0.129  0.00  0.00    -0.016 A 
ATOM      8  C8  IND d   1      -2.091   0.270   1.382  0.00  0.00    -0.047 A 
ATOM      9  C9  IND d   1      -3.043  -0.656   1.828  0.00  0.00    -0.096 A 
ATOM     10  HN1 IND d   1      -1.421   1.898   2.340  0.00  0.00     0.298 HD
ENDROOT
TORSDOF 0
ENDMDL
