MODEL 1
REMARK minimizedAffinity 16.8099251
REMARK minimizedRMSD -1
REMARK  0 active torsions:
REMARK  status: ('A' for Active; 'I' for Inactive)
ROOT
ATOM      1  N1  IND d   1       0.081   0.774  -3.300  0.00  0.00    -0.196 N 
ATOM      2  C2  IND d   1       0.945   1.803  -3.051  0.00  0.00     0.054 A 
ATOM      3  C3  IND d   1       1.944   1.393  -2.238  0.00  0.00    -0.031 A 
ATOM      4  C4  IND d   1       2.414  -0.949  -1.278  0.00  0.00     0.051 A 
ATOM      5  C5  IND d   1       1.884  -2.206  -1.197  0.00  0.00    -0.031 A 
ATOM      6  C6  IND d   1       0.704  -2.542  -1.828  0.00  0.00     0.015 A 
ATOM      7  C7  IND d   1       0.012  -1.632  -2.576  0.00  0.00    -0.016 A 
ATOM      8  C8  IND d   1       0.543  -0.352  -2.655  0.00  0.00    -0.047 A 
ATOM      9  C9  IND d   1       1.718   0.006  -1.982  0.00  0.00    -0.096 A 
ATOM     10  HN1 IND d   1      -0.632   0.821  -3.779  0.00  0.00     0.298 HD
ENDROOT
TORSDOF 0
ENDMDL
