MODEL 1
REMARK minimizedAffinity 13.8392429
REMARK minimizedRMSD -1
REMARK  0 active torsions:
REMARK  status: ('A' for Active; 'I' for Inactive)
ROOT
ATOM      1  N1  IND d   1       0.303   0.851  -4.725  0.00  0.00    -0.196 N 
ATOM      2  C2  IND d   1       0.780   1.948  -5.386  0.00  0.00     0.054 A 
ATOM      3  C3  IND d   1       1.767   2.535  -4.672  0.00  0.00    -0.031 A 
ATOM      4  C4  IND d   1       2.830   1.804  -2.444  0.00  0.00     0.051 A 
ATOM      5  C5  IND d   1       2.705   0.884  -1.442  0.00  0.00    -0.031 A 
ATOM      6  C6  IND d   1       1.755  -0.117  -1.485  0.00  0.00     0.015 A 
ATOM      7  C7  IND d   1       0.899  -0.241  -2.542  0.00  0.00    -0.016 A 
ATOM      8  C8  IND d   1       1.018   0.696  -3.558  0.00  0.00    -0.047 A 
ATOM      9  C9  IND d   1       1.952   1.739  -3.500  0.00  0.00    -0.096 A 
ATOM     10  HN1 IND d   1      -0.337   0.343  -4.994  0.00  0.00     0.298 HD
ENDROOT
TORSDOF 0
ENDMDL
