MODEL 1
REMARK minimizedAffinity 11.5213785
REMARK minimizedRMSD -1
REMARK  0 active torsions:
REMARK  status: ('A' for Active; 'I' for Inactive)
ROOT
ATOM      1  N1  IND d   1       1.735  -2.056  -2.224  0.00  0.00    -0.196 N 
ATOM      2  C2  IND d   1       2.198  -1.570  -1.033  0.00  0.00     0.054 A 
ATOM      3  C3  IND d   1       2.388  -0.234  -1.112  0.00  0.00    -0.031 A 
ATOM      4  C4  IND d   1       1.909   1.373  -3.066  0.00  0.00     0.051 A 
ATOM      5  C5  IND d   1       1.513   1.391  -4.374  0.00  0.00    -0.031 A 
ATOM      6  C6  IND d   1       1.161   0.238  -5.045  0.00  0.00     0.015 A 
ATOM      7  C7  IND d   1       1.182  -0.980  -4.426  0.00  0.00    -0.016 A 
ATOM      8  C8  IND d   1       1.590  -1.003  -3.100  0.00  0.00    -0.047 A 
ATOM      9  C9  IND d   1       1.988   0.159  -2.427  0.00  0.00    -0.096 A 
ATOM     10  HN1 IND d   1       1.564  -2.881  -2.396  0.00  0.00     0.298 HD
ENDROOT
TORSDOF 0
ENDMDL
