MODEL 1
REMARK minimizedAffinity 3.21420527
REMARK minimizedRMSD -1
REMARK  0 active torsions:
REMARK  status: ('A' for Active; 'I' for Inactive)
ROOT
ATOM      1  N1  IND d   1      -2.887   4.021   4.671  0.00  0.00    -0.196 N 
ATOM      2  C2  IND d   1      -3.835   4.825   5.240  0.00  0.00     0.054 A 
ATOM      3  C3  IND d   1      -5.058   4.259   5.129  0.00  0.00    -0.031 A 
ATOM      4  C4  IND d   1      -5.720   1.974   4.144  0.00  0.00     0.051 A 
ATOM      5  C5  IND d   1      -5.205   0.900   3.474  0.00  0.00    -0.031 A 
ATOM      6  C6  IND d   1      -3.864   0.808   3.165  0.00  0.00     0.015 A 
ATOM      7  C7  IND d   1      -2.981   1.787   3.526  0.00  0.00    -0.016 A 
ATOM      8  C8  IND d   1      -3.501   2.882   4.200  0.00  0.00    -0.047 A 
ATOM      9  C9  IND d   1      -4.869   3.000   4.480  0.00  0.00    -0.096 A 
ATOM     10  HN1 IND d   1      -2.047   4.198   4.616  0.00  0.00     0.298 HD
ENDROOT
TORSDOF 0
ENDMDL
