MODEL 1
REMARK minimizedAffinity 5.94674158
REMARK minimizedRMSD -1
REMARK  0 active torsions:
REMARK  status: ('A' for Active; 'I' for Inactive)
ROOT
ATOM      1  N1  IND d   1       2.096   2.038  -3.697  0.00  0.00    -0.196 N 
ATOM      2  C2  IND d   1       1.376   1.081  -3.038  0.00  0.00     0.054 A 
ATOM      3  C3  IND d   1       1.311   1.367  -1.718  0.00  0.00    -0.031 A 
ATOM      4  C4  IND d   1       2.228   3.404  -0.438  0.00  0.00     0.051 A 
ATOM      5  C5  IND d   1       2.988   4.528  -0.604  0.00  0.00    -0.031 A 
ATOM      6  C6  IND d   1       3.498   4.888  -1.835  0.00  0.00     0.015 A 
ATOM      7  C7  IND d   1       3.256   4.140  -2.953  0.00  0.00    -0.016 A 
ATOM      8  C8  IND d   1       2.490   2.995  -2.787  0.00  0.00    -0.047 A 
ATOM      9  C9  IND d   1       2.006   2.601  -1.532  0.00  0.00    -0.096 A 
ATOM     10  HN1 IND d   1       2.274   2.042  -4.538  0.00  0.00     0.298 HD
ENDROOT
TORSDOF 0
ENDMDL
