MODEL 1
REMARK minimizedAffinity 7.47252989
REMARK minimizedRMSD -1
REMARK  0 active torsions:
REMARK  status: ('A' for Active; 'I' for Inactive)
ROOT
ATOM      1  N1  IND d   1       0.878  -2.181  -4.410  0.00  0.00    -0.196 N 
ATOM      2  C2  IND d   1       1.309  -3.314  -3.779  0.00  0.00     0.054 A 
ATOM      3  C3  IND d   1       1.992  -2.997  -2.657  0.00  0.00    -0.031 A 
ATOM      4  C4  IND d   1       2.436  -0.687  -1.611  0.00  0.00     0.051 A 
ATOM      5  C5  IND d   1       2.271   0.650  -1.842  0.00  0.00    -0.031 A 
ATOM      6  C6  IND d   1       1.618   1.121  -2.962  0.00  0.00     0.015 A 
ATOM      7  C7  IND d   1       1.092   0.268  -3.892  0.00  0.00    -0.016 A 
ATOM      8  C8  IND d   1       1.264  -1.090  -3.664  0.00  0.00    -0.047 A 
ATOM      9  C9  IND d   1       1.963  -1.572  -2.550  0.00  0.00    -0.096 A 
ATOM     10  HN1 IND d   1       0.439  -2.154  -5.149  0.00  0.00     0.298 HD
ENDROOT
TORSDOF 0
ENDMDL
