MODEL 1
REMARK minimizedAffinity 11.0098658
REMARK minimizedRMSD -1
REMARK  0 active torsions:
REMARK  status: ('A' for Active; 'I' for Inactive)
ROOT
ATOM      1  N1  IND d   1       2.598   0.333  -1.862  0.00  0.00    -0.196 N 
ATOM      2  C2  IND d   1       2.268   0.233  -0.539  0.00  0.00     0.054 A 
ATOM      3  C3  IND d   1       3.190   0.863   0.224  0.00  0.00    -0.031 A 
ATOM      4  C4  IND d   1       5.262   2.211  -0.494  0.00  0.00     0.051 A 
ATOM      5  C5  IND d   1       5.996   2.554  -1.595  0.00  0.00    -0.031 A 
ATOM      6  C6  IND d   1       5.626   2.168  -2.867  0.00  0.00     0.015 A 
ATOM      7  C7  IND d   1       4.497   1.432  -3.088  0.00  0.00    -0.016 A 
ATOM      8  C8  IND d   1       3.753   1.076  -1.972  0.00  0.00    -0.047 A 
ATOM      9  C9  IND d   1       4.146   1.429  -0.674  0.00  0.00    -0.096 A 
ATOM     10  HN1 IND d   1       2.157  -0.010  -2.516  0.00  0.00     0.298 HD
ENDROOT
TORSDOF 0
ENDMDL
