MODEL 1
REMARK minimizedAffinity 7.32839108
REMARK minimizedRMSD -1
REMARK  0 active torsions:
REMARK  status: ('A' for Active; 'I' for Inactive)
ROOT
ATOM      1  N1  IND d   1       2.764  -0.289  -1.420  0.00  0.00    -0.196 N 
ATOM      2  C2  IND d   1       2.516  -0.453  -0.086  0.00  0.00     0.054 A 
ATOM      3  C3  IND d   1       3.429   0.222   0.648  0.00  0.00    -0.031 A 
ATOM      4  C4  IND d   1       5.353   1.743  -0.131  0.00  0.00     0.051 A 
ATOM      5  C5  IND d   1       5.999   2.173  -1.257  0.00  0.00    -0.031 A 
ATOM      6  C6  IND d   1       5.589   1.798  -2.520  0.00  0.00     0.015 A 
ATOM      7  C7  IND d   1       4.506   0.986  -2.706  0.00  0.00    -0.016 A 
ATOM      8  C8  IND d   1       3.853   0.542  -1.565  0.00  0.00    -0.047 A 
ATOM      9  C9  IND d   1       4.290   0.884  -0.279  0.00  0.00    -0.096 A 
ATOM     10  HN1 IND d   1       2.315  -0.645  -2.061  0.00  0.00     0.298 HD
ENDROOT
TORSDOF 0
ENDMDL
