MODEL 1
REMARK minimizedAffinity 9.40927792
REMARK minimizedRMSD -1
REMARK  0 active torsions:
REMARK  status: ('A' for Active; 'I' for Inactive)
ROOT
ATOM      1  N1  IND d   1      -1.315  -4.598  -3.299  0.00  0.00    -0.196 N 
ATOM      2  C2  IND d   1      -1.849  -5.834  -3.066  0.00  0.00     0.054 A 
ATOM      3  C3  IND d   1      -2.984  -5.999  -3.782  0.00  0.00    -0.031 A 
ATOM      4  C4  IND d   1      -4.093  -4.412  -5.478  0.00  0.00     0.051 A 
ATOM      5  C5  IND d   1      -3.993  -3.153  -6.000  0.00  0.00    -0.031 A 
ATOM      6  C6  IND d   1      -2.974  -2.294  -5.642  0.00  0.00     0.015 A 
ATOM      7  C7  IND d   1      -2.005  -2.669  -4.755  0.00  0.00    -0.016 A 
ATOM      8  C8  IND d   1      -2.107  -3.945  -4.218  0.00  0.00    -0.047 A 
ATOM      9  C9  IND d   1      -3.163  -4.805  -4.545  0.00  0.00    -0.096 A 
ATOM     10  HN1 IND d   1      -0.604  -4.281  -2.933  0.00  0.00     0.298 HD
ENDROOT
TORSDOF 0
ENDMDL
