MODEL 1
REMARK minimizedAffinity 4.31328869
REMARK minimizedRMSD -1
REMARK  0 active torsions:
REMARK  status: ('A' for Active; 'I' for Inactive)
ROOT
ATOM      1  N1  IND d   1       4.213   5.835   1.866  0.00  0.00    -0.196 N 
ATOM      2  C2  IND d   1       5.108   5.266   2.730  0.00  0.00     0.054 A 
ATOM      3  C3  IND d   1       4.459   4.697   3.770  0.00  0.00    -0.031 A 
ATOM      4  C4  IND d   1       1.931   4.491   4.207  0.00  0.00     0.051 A 
ATOM      5  C5  IND d   1       0.717   4.886   3.718  0.00  0.00    -0.031 A 
ATOM      6  C6  IND d   1       0.605   5.631   2.562  0.00  0.00     0.015 A 
ATOM      7  C7  IND d   1       1.706   6.000   1.843  0.00  0.00    -0.016 A 
ATOM      8  C8  IND d   1       2.940   5.606   2.340  0.00  0.00    -0.047 A 
ATOM      9  C9  IND d   1       3.063   4.887   3.536  0.00  0.00    -0.096 A 
ATOM     10  HN1 IND d   1       4.413   6.264   1.148  0.00  0.00     0.298 HD
ENDROOT
TORSDOF 0
ENDMDL
