MODEL 1
REMARK minimizedAffinity 11.7108831
REMARK minimizedRMSD -1
REMARK  0 active torsions:
REMARK  status: ('A' for Active; 'I' for Inactive)
ROOT
ATOM      1  N1  IND d   1       2.609  -0.133  -1.866  0.00  0.00    -0.196 N 
ATOM      2  C2  IND d   1       2.204  -0.531  -0.623  0.00  0.00     0.054 A 
ATOM      3  C3  IND d   1       3.081  -0.109   0.315  0.00  0.00    -0.031 A 
ATOM      4  C4  IND d   1       5.196   1.333   0.045  0.00  0.00     0.051 A 
ATOM      5  C5  IND d   1       5.994   1.909  -0.904  0.00  0.00    -0.031 A 
ATOM      6  C6  IND d   1       5.696   1.833  -2.249  0.00  0.00     0.015 A 
ATOM      7  C7  IND d   1       4.579   1.187  -2.697  0.00  0.00    -0.016 A 
ATOM      8  C8  IND d   1       3.771   0.595  -1.736  0.00  0.00    -0.047 A 
ATOM      9  C9  IND d   1       4.090   0.632  -0.373  0.00  0.00    -0.096 A 
ATOM     10  HN1 IND d   1       2.206  -0.309  -2.605  0.00  0.00     0.298 HD
ENDROOT
TORSDOF 0
ENDMDL
