MODEL 1
REMARK minimizedAffinity 12.7401571
REMARK minimizedRMSD -1
REMARK  0 active torsions:
REMARK  status: ('A' for Active; 'I' for Inactive)
ROOT
ATOM      1  N1  IND d   1       4.773   5.836   1.892  0.00  0.00    -0.196 N 
ATOM      2  C2  IND d   1       5.620   5.699   2.957  0.00  0.00     0.054 A 
ATOM      3  C3  IND d   1       4.919   5.656   4.113  0.00  0.00    -0.031 A 
ATOM      4  C4  IND d   1       2.371   5.690   4.483  0.00  0.00     0.051 A 
ATOM      5  C5  IND d   1       1.188   5.841   3.816  0.00  0.00    -0.031 A 
ATOM      6  C6  IND d   1       1.138   5.998   2.446  0.00  0.00     0.015 A 
ATOM      7  C7  IND d   1       2.274   5.999   1.687  0.00  0.00    -0.016 A 
ATOM      8  C8  IND d   1       3.478   5.853   2.361  0.00  0.00    -0.047 A 
ATOM      9  C9  IND d   1       3.538   5.736   3.756  0.00  0.00    -0.096 A 
ATOM     10  HN1 IND d   1       5.010   5.900   1.068  0.00  0.00     0.298 HD
ENDROOT
TORSDOF 0
ENDMDL
