MODEL 1
REMARK minimizedAffinity 1.10128546
REMARK minimizedRMSD -1
REMARK  0 active torsions:
REMARK  status: ('A' for Active; 'I' for Inactive)
ROOT
ATOM      1  N1  IND d   1      -2.228  -1.057  -4.005  0.00  0.00    -0.196 N 
ATOM      2  C2  IND d   1      -3.200  -1.010  -4.965  0.00  0.00     0.054 A 
ATOM      3  C3  IND d   1      -3.535  -2.260  -5.356  0.00  0.00    -0.031 A 
ATOM      4  C4  IND d   1      -2.689  -4.529  -4.482  0.00  0.00     0.051 A 
ATOM      5  C5  IND d   1      -1.773  -5.082  -3.632  0.00  0.00    -0.031 A 
ATOM      6  C6  IND d   1      -0.946  -4.306  -2.845  0.00  0.00     0.015 A 
ATOM      7  C7  IND d   1      -1.014  -2.942  -2.871  0.00  0.00    -0.016 A 
ATOM      8  C8  IND d   1      -1.938  -2.377  -3.738  0.00  0.00    -0.047 A 
ATOM      9  C9  IND d   1      -2.750  -3.158  -4.570  0.00  0.00    -0.096 A 
ATOM     10  HN1 IND d   1      -1.859  -0.376  -3.631  0.00  0.00     0.298 HD
ENDROOT
TORSDOF 0
ENDMDL
