MODEL 1
REMARK minimizedAffinity 1.42048383
REMARK minimizedRMSD -1
REMARK  0 active torsions:
REMARK  status: ('A' for Active; 'I' for Inactive)
ROOT
ATOM      1  N1  IND d   1       4.617   1.501  -2.602  0.00  0.00    -0.196 N 
ATOM      2  C2  IND d   1       5.726   2.285  -2.450  0.00  0.00     0.054 A 
ATOM      3  C3  IND d   1       6.000   2.465  -1.139  0.00  0.00    -0.031 A 
ATOM      4  C4  IND d   1       4.821   1.482   0.928  0.00  0.00     0.051 A 
ATOM      5  C5  IND d   1       3.736   0.737   1.296  0.00  0.00    -0.031 A 
ATOM      6  C6  IND d   1       2.873   0.195   0.365  0.00  0.00     0.015 A 
ATOM      7  C7  IND d   1       3.071   0.370  -0.975  0.00  0.00    -0.016 A 
ATOM      8  C8  IND d   1       4.167   1.132  -1.353  0.00  0.00    -0.047 A 
ATOM      9  C9  IND d   1       5.022   1.719  -0.411  0.00  0.00    -0.096 A 
ATOM     10  HN1 IND d   1       4.259   1.277  -3.351  0.00  0.00     0.298 HD
ENDROOT
TORSDOF 0
ENDMDL
