MODEL 1
REMARK minimizedAffinity 12.3710928
REMARK minimizedRMSD -1
REMARK  0 active torsions:
REMARK  status: ('A' for Active; 'I' for Inactive)
ROOT
ATOM      1  N1  IND d   1      -5.751   0.317  -0.011  0.00  0.00    -0.196 N 
ATOM      2  C2  IND d   1      -5.999  -0.793  -0.769  0.00  0.00     0.054 A 
ATOM      3  C3  IND d   1      -4.914  -1.109  -1.511  0.00  0.00    -0.031 A 
ATOM      4  C4  IND d   1      -2.590  -0.002  -1.563  0.00  0.00     0.051 A 
ATOM      5  C5  IND d   1      -1.895   1.066  -1.071  0.00  0.00    -0.031 A 
ATOM      6  C6  IND d   1      -2.459   1.956  -0.180  0.00  0.00     0.015 A 
ATOM      7  C7  IND d   1      -3.743   1.803   0.262  0.00  0.00    -0.016 A 
ATOM      8  C8  IND d   1      -4.455   0.723  -0.241  0.00  0.00    -0.047 A 
ATOM      9  C9  IND d   1      -3.901  -0.159  -1.178  0.00  0.00    -0.096 A 
ATOM     10  HN1 IND d   1      -6.310   0.697   0.520  0.00  0.00     0.298 HD
ENDROOT
TORSDOF 0
ENDMDL
