MODEL 1
REMARK minimizedAffinity 8.61388588
REMARK minimizedRMSD -1
REMARK  0 active torsions:
REMARK  status: ('A' for Active; 'I' for Inactive)
ROOT
ATOM      1  N1  IND d   1       4.521   1.765  -2.338  0.00  0.00    -0.196 N 
ATOM      2  C2  IND d   1       5.687   2.440  -2.105  0.00  0.00     0.054 A 
ATOM      3  C3  IND d   1       6.000   2.397  -0.790  0.00  0.00    -0.031 A 
ATOM      4  C4  IND d   1       4.796   1.190   1.139  0.00  0.00     0.051 A 
ATOM      5  C5  IND d   1       3.668   0.472   1.424  0.00  0.00    -0.031 A 
ATOM      6  C6  IND d   1       2.750   0.140   0.449  0.00  0.00     0.015 A 
ATOM      7  C7  IND d   1       2.932   0.504  -0.855  0.00  0.00    -0.016 A 
ATOM      8  C8  IND d   1       4.072   1.239  -1.147  0.00  0.00    -0.047 A 
ATOM      9  C9  IND d   1       4.986   1.616  -0.154  0.00  0.00    -0.096 A 
ATOM     10  HN1 IND d   1       4.133   1.683  -3.101  0.00  0.00     0.298 HD
ENDROOT
TORSDOF 0
ENDMDL
