MODEL 1
REMARK minimizedAffinity 18.5924168
REMARK minimizedRMSD -1
REMARK  2 active torsions:
REMARK  status: ('A' for Active; 'I' for Inactive)
REMARK    1  A    between atoms: C2'_3  and  C1'_4 
REMARK    2  A    between atoms: C1'_4  and  C1_5 
ROOT
ATOM      1  C1  I4B d   1      -1.784  -4.331   4.393  0.00  0.00    -0.075 A 
ATOM      2  C2  I4B d   1      -2.234  -3.960   5.636  0.00  0.00     0.003 A 
ATOM      3  C3  I4B d   1      -2.278  -2.592   5.999  0.00  0.00     0.002 A 
ATOM      4  C4  I4B d   1      -1.818  -1.639   5.114  0.00  0.00    -0.004 A 
ATOM      5  C5  I4B d   1      -1.384  -2.015   3.846  0.00  0.00     0.002 A 
ATOM      6  C6  I4B d   1      -1.378  -3.368   3.478  0.00  0.00     0.003 A 
ENDROOT
BRANCH   1   7
ATOM      7  C1' I4B d   1      -1.720  -5.787   4.055  0.00  0.00     0.060 C 
BRANCH   7   8
ATOM      8  C2' I4B d   1      -0.560  -5.994   3.102  0.00  0.00    -0.013 C 
ATOM      9  C4' I4B d   1      -0.526  -4.923   2.044  0.00  0.00     0.013 C 
ATOM     10  C3' I4B d   1       0.705  -6.000   3.907  0.00  0.00     0.013 C 
ENDBRANCH   7   8
ENDBRANCH   1   7
TORSDOF 2
ENDMDL
