MODEL 1
REMARK minimizedAffinity 17.4860229
REMARK minimizedRMSD -1
REMARK  2 active torsions:
REMARK  status: ('A' for Active; 'I' for Inactive)
REMARK    1  A    between atoms: C2'_3  and  C1'_4 
REMARK    2  A    between atoms: C1'_4  and  C1_5 
ROOT
ATOM      1  C1  I4B d   1       4.464   4.484   3.732  0.00  0.00    -0.075 A 
ATOM      2  C2  I4B d   1       5.216   5.632   3.723  0.00  0.00     0.003 A 
ATOM      3  C3  I4B d   1       5.973   5.997   4.863  0.00  0.00     0.002 A 
ATOM      4  C4  I4B d   1       5.909   5.217   5.999  0.00  0.00    -0.004 A 
ATOM      5  C5  I4B d   1       5.164   4.042   5.999  0.00  0.00     0.002 A 
ATOM      6  C6  I4B d   1       4.446   3.666   4.855  0.00  0.00     0.003 A 
ENDROOT
BRANCH   1   7
ATOM      7  C1' I4B d   1       3.650   4.146   2.523  0.00  0.00     0.060 C 
BRANCH   7   8
ATOM      8  C2' I4B d   1       4.601   3.705   1.429  0.00  0.00    -0.013 C 
ATOM      9  C4' I4B d   1       5.201   2.358   1.738  0.00  0.00     0.013 C 
ATOM     10  C3' I4B d   1       3.840   3.675   0.138  0.00  0.00     0.013 C 
ENDBRANCH   7   8
ENDBRANCH   1   7
TORSDOF 2
ENDMDL
