MODEL 1
REMARK minimizedAffinity 18.6454086
REMARK minimizedRMSD -1
REMARK  2 active torsions:
REMARK  status: ('A' for Active; 'I' for Inactive)
REMARK    1  A    between atoms: C2'_3  and  C1'_4 
REMARK    2  A    between atoms: C1'_4  and  C1_5 
ROOT
ATOM      1  C1  I4B d   1       5.191   3.705   5.031  0.00  0.00    -0.075 A 
ATOM      2  C2  I4B d   1       5.837   4.855   5.407  0.00  0.00     0.003 A 
ATOM      3  C3  I4B d   1       5.099   5.963   5.890  0.00  0.00     0.002 A 
ATOM      4  C4  I4B d   1       3.721   5.895   5.932  0.00  0.00    -0.004 A 
ATOM      5  C5  I4B d   1       3.069   4.719   5.572  0.00  0.00     0.002 A 
ATOM      6  C6  I4B d   1       3.808   3.613   5.130  0.00  0.00     0.003 A 
ENDROOT
BRANCH   1   7
ATOM      7  C1' I4B d   1       5.999   2.566   4.494  0.00  0.00     0.060 C 
BRANCH   7   8
ATOM      8  C2' I4B d   1       5.155   1.837   3.469  0.00  0.00    -0.013 C 
ATOM      9  C4' I4B d   1       5.535   2.234   2.067  0.00  0.00     0.013 C 
ATOM     10  C3' I4B d   1       5.337   0.364   3.683  0.00  0.00     0.013 C 
ENDBRANCH   7   8
ENDBRANCH   1   7
TORSDOF 2
ENDMDL
