MODEL 1
REMARK minimizedAffinity 24.0810757
REMARK minimizedRMSD -1
REMARK  2 active torsions:
REMARK  status: ('A' for Active; 'I' for Inactive)
REMARK    1  A    between atoms: C2'_3  and  C1'_4 
REMARK    2  A    between atoms: C1'_4  and  C1_5 
ROOT
ATOM      1  C1  I4B d   1       4.429   2.210   5.073  0.00  0.00    -0.075 A 
ATOM      2  C2  I4B d   1       4.787   1.302   4.108  0.00  0.00     0.003 A 
ATOM      3  C3  I4B d   1       4.152   0.037   4.050  0.00  0.00     0.002 A 
ATOM      4  C4  I4B d   1       3.207  -0.293   4.999  0.00  0.00    -0.004 A 
ATOM      5  C5  I4B d   1       2.829   0.638   5.962  0.00  0.00     0.002 A 
ATOM      6  C6  I4B d   1       3.435   1.902   5.992  0.00  0.00     0.003 A 
ENDROOT
BRANCH   1   7
ATOM      7  C1' I4B d   1       5.143   3.524   5.126  0.00  0.00     0.060 C 
BRANCH   7   8
ATOM      8  C2' I4B d   1       4.241   4.517   5.830  0.00  0.00    -0.013 C 
ATOM      9  C4' I4B d   1       4.917   5.855   5.981  0.00  0.00     0.013 C 
ATOM     10  C3' I4B d   1       2.975   4.636   5.036  0.00  0.00     0.013 C 
ENDBRANCH   7   8
ENDBRANCH   1   7
TORSDOF 2
ENDMDL
