MODEL 1
REMARK minimizedAffinity 17.2113419
REMARK minimizedRMSD -1
REMARK  2 active torsions:
REMARK  status: ('A' for Active; 'I' for Inactive)
REMARK    1  A    between atoms: C2'_3  and  C1'_4 
REMARK    2  A    between atoms: C1'_4  and  C1_5 
ROOT
ATOM      1  C1  I4B d   1       4.653   2.937   3.590  0.00  0.00    -0.075 A 
ATOM      2  C2  I4B d   1       5.857   3.495   3.942  0.00  0.00     0.003 A 
ATOM      3  C3  I4B d   1       5.994   4.175   5.176  0.00  0.00     0.002 A 
ATOM      4  C4  I4B d   1       4.896   4.316   6.000  0.00  0.00    -0.004 A 
ATOM      5  C5  I4B d   1       3.682   3.730   5.652  0.00  0.00     0.002 A 
ATOM      6  C6  I4B d   1       3.562   3.025   4.446  0.00  0.00     0.003 A 
ENDROOT
BRANCH   1   7
ATOM      7  C1' I4B d   1       4.535   2.255   2.264  0.00  0.00     0.060 C 
BRANCH   7   8
ATOM      8  C2' I4B d   1       3.881   3.222   1.298  0.00  0.00    -0.013 C 
ATOM      9  C4' I4B d   1       4.912   4.028   0.552  0.00  0.00     0.013 C 
ATOM     10  C3' I4B d   1       3.028   2.429   0.354  0.00  0.00     0.013 C 
ENDBRANCH   7   8
ENDBRANCH   1   7
TORSDOF 2
ENDMDL
