MODEL 1
REMARK minimizedAffinity 21.8568993
REMARK minimizedRMSD -1
REMARK  2 active torsions:
REMARK  status: ('A' for Active; 'I' for Inactive)
REMARK    1  A    between atoms: C2'_3  and  C1'_4 
REMARK    2  A    between atoms: C1'_4  and  C1_5 
ROOT
ATOM      1  C1  I4B d   1      -1.300  -1.426   3.578  0.00  0.00    -0.075 A 
ATOM      2  C2  I4B d   1      -1.395  -0.259   2.861  0.00  0.00     0.003 A 
ATOM      3  C3  I4B d   1      -0.908  -0.198   1.533  0.00  0.00     0.002 A 
ATOM      4  C4  I4B d   1      -0.291  -1.303   0.983  0.00  0.00    -0.004 A 
ATOM      5  C5  I4B d   1      -0.216  -2.491   1.704  0.00  0.00     0.002 A 
ATOM      6  C6  I4B d   1      -0.735  -2.557   3.005  0.00  0.00     0.003 A 
ENDROOT
BRANCH   1   7
ATOM      7  C1' I4B d   1      -1.796  -1.446   4.990  0.00  0.00     0.060 C 
BRANCH   7   8
ATOM      8  C2' I4B d   1      -2.726  -2.633   5.141  0.00  0.00    -0.013 C 
ATOM      9  C4' I4B d   1      -2.078  -3.736   5.936  0.00  0.00     0.013 C 
ATOM     10  C3' I4B d   1      -3.983  -2.154   5.803  0.00  0.00     0.013 C 
ENDBRANCH   7   8
ENDBRANCH   1   7
TORSDOF 2
ENDMDL
