MODEL 1
REMARK minimizedAffinity 18.3928947
REMARK minimizedRMSD -1
REMARK  2 active torsions:
REMARK  status: ('A' for Active; 'I' for Inactive)
REMARK    1  A    between atoms: C2'_3  and  C1'_4 
REMARK    2  A    between atoms: C1'_4  and  C1_5 
ROOT
ATOM      1  C1  I4B d   1       4.015   1.218  -2.183  0.00  0.00    -0.075 A 
ATOM      2  C2  I4B d   1       5.245   1.489  -2.728  0.00  0.00     0.003 A 
ATOM      3  C3  I4B d   1       6.000   0.456  -3.334  0.00  0.00     0.002 A 
ATOM      4  C4  I4B d   1       5.512  -0.835  -3.328  0.00  0.00    -0.004 A 
ATOM      5  C5  I4B d   1       4.255  -1.104  -2.795  0.00  0.00     0.002 A 
ATOM      6  C6  I4B d   1       3.496  -0.069  -2.230  0.00  0.00     0.003 A 
ENDROOT
BRANCH   1   7
ATOM      7  C1' I4B d   1       3.259   2.326  -1.521  0.00  0.00     0.060 C 
BRANCH   7   8
ATOM      8  C2' I4B d   1       4.125   2.883  -0.409  0.00  0.00    -0.013 C 
ATOM      9  C4' I4B d   1       4.782   4.173  -0.823  0.00  0.00     0.013 C 
ATOM     10  C3' I4B d   1       3.258   3.080   0.798  0.00  0.00     0.013 C 
ENDBRANCH   7   8
ENDBRANCH   1   7
TORSDOF 2
ENDMDL
