MODEL 1
REMARK minimizedAffinity 15.8014622
REMARK minimizedRMSD -1
REMARK  2 active torsions:
REMARK  status: ('A' for Active; 'I' for Inactive)
REMARK    1  A    between atoms: C2'_3  and  C1'_4 
REMARK    2  A    between atoms: C1'_4  and  C1_5 
ROOT
ATOM      1  C1  I4B d   1       5.178   3.470   4.844  0.00  0.00    -0.075 A 
ATOM      2  C2  I4B d   1       3.923   3.513   5.400  0.00  0.00     0.003 A 
ATOM      3  C3  I4B d   1       3.435   4.716   5.964  0.00  0.00     0.002 A 
ATOM      4  C4  I4B d   1       4.248   5.831   5.997  0.00  0.00    -0.004 A 
ATOM      5  C5  I4B d   1       5.511   5.792   5.412  0.00  0.00     0.002 A 
ATOM      6  C6  I4B d   1       5.974   4.607   4.821  0.00  0.00     0.003 A 
ENDROOT
BRANCH   1   7
ATOM      7  C1' I4B d   1       5.674   2.174   4.286  0.00  0.00     0.060 C 
BRANCH   7   8
ATOM      8  C2' I4B d   1       4.899   1.884   3.017  0.00  0.00    -0.013 C 
ATOM      9  C4' I4B d   1       4.392   3.154   2.385  0.00  0.00     0.013 C 
ATOM     10  C3' I4B d   1       5.802   1.137   2.082  0.00  0.00     0.013 C 
ENDBRANCH   7   8
ENDBRANCH   1   7
TORSDOF 2
ENDMDL
