MODEL 1
REMARK minimizedAffinity 18.470789
REMARK minimizedRMSD -1
REMARK  2 active torsions:
REMARK  status: ('A' for Active; 'I' for Inactive)
REMARK    1  A    between atoms: C2'_3  and  C1'_4 
REMARK    2  A    between atoms: C1'_4  and  C1_5 
ROOT
ATOM      1  C1  I4B d   1      -2.910  -2.487  -0.257  0.00  0.00    -0.075 A 
ATOM      2  C2  I4B d   1      -2.995  -1.308  -0.954  0.00  0.00     0.003 A 
ATOM      3  C3  I4B d   1      -2.295  -1.149  -2.174  0.00  0.00     0.002 A 
ATOM      4  C4  I4B d   1      -1.487  -2.169  -2.632  0.00  0.00    -0.004 A 
ATOM      5  C5  I4B d   1      -1.419  -3.373  -1.936  0.00  0.00     0.002 A 
ATOM      6  C6  I4B d   1      -2.145  -3.538  -0.747  0.00  0.00     0.003 A 
ENDROOT
BRANCH   1   7
ATOM      7  C1' I4B d   1      -3.636  -2.609   1.046  0.00  0.00     0.060 C 
BRANCH   7   8
ATOM      8  C2' I4B d   1      -5.041  -3.095   0.753  0.00  0.00    -0.013 C 
ATOM      9  C4' I4B d   1      -5.209  -4.542   1.138  0.00  0.00     0.013 C 
ATOM     10  C3' I4B d   1      -5.999  -2.220   1.504  0.00  0.00     0.013 C 
ENDBRANCH   7   8
ENDBRANCH   1   7
TORSDOF 2
ENDMDL
