MODEL 1
REMARK minimizedAffinity 12.8978529
REMARK minimizedRMSD -1
REMARK  2 active torsions:
REMARK  status: ('A' for Active; 'I' for Inactive)
REMARK    1  A    between atoms: C2'_3  and  C1'_4 
REMARK    2  A    between atoms: C1'_4  and  C1_5 
ROOT
ATOM      1  C1  I4B d   1      -1.235  -1.978   2.346  0.00  0.00    -0.075 A 
ATOM      2  C2  I4B d   1      -2.116  -1.193   1.645  0.00  0.00     0.003 A 
ATOM      3  C3  I4B d   1      -2.482  -1.539   0.322  0.00  0.00     0.002 A 
ATOM      4  C4  I4B d   1      -1.909  -2.643  -0.276  0.00  0.00    -0.004 A 
ATOM      5  C5  I4B d   1      -1.033  -3.450   0.444  0.00  0.00     0.002 A 
ATOM      6  C6  I4B d   1      -0.703  -3.123   1.768  0.00  0.00     0.003 A 
ENDROOT
BRANCH   1   7
ATOM      7  C1' I4B d   1      -0.845  -1.565   3.730  0.00  0.00     0.060 C 
BRANCH   7   8
ATOM      8  C2' I4B d   1      -2.048  -1.755   4.630  0.00  0.00    -0.013 C 
ATOM      9  C4' I4B d   1      -1.964  -3.055   5.386  0.00  0.00     0.013 C 
ATOM     10  C3' I4B d   1      -2.113  -0.587   5.569  0.00  0.00     0.013 C 
ENDBRANCH   7   8
ENDBRANCH   1   7
TORSDOF 2
ENDMDL
