MODEL 1
REMARK minimizedAffinity 13.9767084
REMARK minimizedRMSD -1
REMARK  2 active torsions:
REMARK  status: ('A' for Active; 'I' for Inactive)
REMARK    1  A    between atoms: C2'_3  and  C1'_4 
REMARK    2  A    between atoms: C1'_4  and  C1_5 
ROOT
ATOM      1  C1  I4B d   1       5.124   2.758   3.357  0.00  0.00    -0.075 A 
ATOM      2  C2  I4B d   1       4.162   3.431   2.647  0.00  0.00     0.003 A 
ATOM      3  C3  I4B d   1       4.049   3.248   1.247  0.00  0.00     0.002 A 
ATOM      4  C4  I4B d   1       4.945   2.426   0.595  0.00  0.00    -0.004 A 
ATOM      5  C5  I4B d   1       5.906   1.726   1.320  0.00  0.00     0.002 A 
ATOM      6  C6  I4B d   1       5.988   1.883   2.711  0.00  0.00     0.003 A 
ENDROOT
BRANCH   1   7
ATOM      7  C1' I4B d   1       5.236   3.000   4.828  0.00  0.00     0.060 C 
BRANCH   7   8
ATOM      8  C2' I4B d   1       4.731   4.400   5.111  0.00  0.00    -0.013 C 
ATOM      9  C4' I4B d   1       3.492   4.371   5.965  0.00  0.00     0.013 C 
ATOM     10  C3' I4B d   1       5.834   5.164   5.782  0.00  0.00     0.013 C 
ENDBRANCH   7   8
ENDBRANCH   1   7
TORSDOF 2
ENDMDL
