MODEL 1
REMARK minimizedAffinity 14.473711
REMARK minimizedRMSD -1
REMARK  2 active torsions:
REMARK  status: ('A' for Active; 'I' for Inactive)
REMARK    1  A    between atoms: C2'_3  and  C1'_4 
REMARK    2  A    between atoms: C1'_4  and  C1_5 
ROOT
ATOM      1  C1  I4B d   1       0.097   0.815  -3.746  0.00  0.00    -0.075 A 
ATOM      2  C2  I4B d   1      -1.261   0.617  -3.762  0.00  0.00     0.003 A 
ATOM      3  C3  I4B d   1      -2.103   1.510  -4.467  0.00  0.00     0.002 A 
ATOM      4  C4  I4B d   1      -1.554   2.608  -5.096  0.00  0.00    -0.004 A 
ATOM      5  C5  I4B d   1      -0.175   2.795  -5.099  0.00  0.00     0.002 A 
ATOM      6  C6  I4B d   1       0.658   1.886  -4.430  0.00  0.00     0.003 A 
ENDROOT
BRANCH   1   7
ATOM      7  C1' I4B d   1       0.954  -0.130  -2.964  0.00  0.00     0.060 C 
BRANCH   7   8
ATOM      8  C2' I4B d   1       2.252   0.580  -2.637  0.00  0.00    -0.013 C 
ATOM      9  C4' I4B d   1       2.223   1.156  -1.245  0.00  0.00     0.013 C 
ATOM     10  C3' I4B d   1       3.371  -0.406  -2.792  0.00  0.00     0.013 C 
ENDBRANCH   7   8
ENDBRANCH   1   7
TORSDOF 2
ENDMDL
