MODEL 1
REMARK minimizedAffinity -4.23631525
REMARK minimizedRMSD -1
REMARK  0 active torsions:
REMARK  status: ('A' for Active; 'I' for Inactive)
ROOT
ATOM      1  N1  IND d   1      -0.252  -0.268  -1.447  0.00  0.00    -0.196 N 
ATOM      2  C2  IND d   1       0.941  -0.835  -1.797  0.00  0.00     0.054 A 
ATOM      3  C3  IND d   1       1.751  -0.931  -0.718  0.00  0.00    -0.031 A 
ATOM      4  C4  IND d   1       1.284  -0.314   1.737  0.00  0.00     0.051 A 
ATOM      5  C5  IND d   1       0.347   0.272   2.541  0.00  0.00    -0.031 A 
ATOM      6  C6  IND d   1      -0.863   0.714   2.048  0.00  0.00     0.015 A 
ATOM      7  C7  IND d   1      -1.188   0.576   0.728  0.00  0.00    -0.016 A 
ATOM      8  C8  IND d   1      -0.236  -0.012  -0.093  0.00  0.00    -0.047 A 
ATOM      9  C9  IND d   1       1.012  -0.424   0.394  0.00  0.00    -0.096 A 
ATOM     10  HN1 IND d   1      -0.904  -0.100  -1.982  0.00  0.00     0.298 HD
ENDROOT
TORSDOF 0
ENDMDL
