MODEL 1
REMARK minimizedAffinity -3.85931158
REMARK minimizedRMSD -1
REMARK  0 active torsions:
REMARK  status: ('A' for Active; 'I' for Inactive)
ROOT
ATOM      1  N1  IND d   1       1.085  -0.325  -1.221  0.00  0.00    -0.196 N 
ATOM      2  C2  IND d   1      -0.031  -0.000  -1.941  0.00  0.00     0.054 A 
ATOM      3  C3  IND d   1      -1.105   0.096  -1.125  0.00  0.00    -0.031 A 
ATOM      4  C4  IND d   1      -1.240  -0.137   1.435  0.00  0.00     0.051 A 
ATOM      5  C5  IND d   1      -0.489  -0.464   2.528  0.00  0.00    -0.031 A 
ATOM      6  C6  IND d   1       0.854  -0.766   2.426  0.00  0.00     0.015 A 
ATOM      7  C7  IND d   1       1.500  -0.740   1.222  0.00  0.00    -0.016 A 
ATOM      8  C8  IND d   1       0.738  -0.414   0.109  0.00  0.00    -0.047 A 
ATOM      9  C9  IND d   1      -0.634  -0.148   0.201  0.00  0.00    -0.096 A 
ATOM     10  HN1 IND d   1       1.872  -0.451  -1.545  0.00  0.00     0.298 HD
ENDROOT
TORSDOF 0
ENDMDL
