MODEL 1
REMARK minimizedAffinity -5.13452673
REMARK minimizedRMSD -1
REMARK  0 active torsions:
REMARK  status: ('A' for Active; 'I' for Inactive)
ROOT
ATOM      1  N1  IND d   1       0.354  -0.287  -1.154  0.00  0.00    -0.196 N 
ATOM      2  C2  IND d   1      -0.884   0.248  -0.931  0.00  0.00     0.054 A 
ATOM      3  C3  IND d   1      -1.261   0.043   0.351  0.00  0.00    -0.031 A 
ATOM      4  C4  IND d   1       0.039  -1.057   2.282  0.00  0.00     0.051 A 
ATOM      5  C5  IND d   1       1.197  -1.730   2.556  0.00  0.00    -0.031 A 
ATOM      6  C6  IND d   1       2.154  -1.958   1.588  0.00  0.00     0.015 A 
ATOM      7  C7  IND d   1       1.993  -1.510   0.307  0.00  0.00    -0.016 A 
ATOM      8  C8  IND d   1       0.815  -0.833   0.024  0.00  0.00    -0.047 A 
ATOM      9  C9  IND d   1      -0.179  -0.636   0.992  0.00  0.00    -0.096 A 
ATOM     10  HN1 IND d   1       0.775  -0.283  -1.904  0.00  0.00     0.298 HD
ENDROOT
TORSDOF 0
ENDMDL
