MODEL 1
REMARK minimizedAffinity -2.12950277
REMARK minimizedRMSD -1
REMARK  0 active torsions:
REMARK  status: ('A' for Active; 'I' for Inactive)
ROOT
ATOM      1  N1  IND d   1       1.664  -1.545  -1.445  0.00  0.00    -0.196 N 
ATOM      2  C2  IND d   1       0.882  -1.365  -2.552  0.00  0.00     0.054 A 
ATOM      3  C3  IND d   1      -0.194  -0.604  -2.249  0.00  0.00    -0.031 A 
ATOM      4  C4  IND d   1      -0.817   0.536  -0.026  0.00  0.00     0.051 A 
ATOM      5  C5  IND d   1      -0.429   0.633   1.280  0.00  0.00    -0.031 A 
ATOM      6  C6  IND d   1       0.701  -0.002   1.755  0.00  0.00     0.015 A 
ATOM      7  C7  IND d   1       1.495  -0.751   0.933  0.00  0.00    -0.016 A 
ATOM      8  C8  IND d   1       1.100  -0.857  -0.393  0.00  0.00    -0.047 A 
ATOM      9  C9  IND d   1      -0.069  -0.250  -0.870  0.00  0.00    -0.096 A 
ATOM     10  HN1 IND d   1       2.387  -2.009  -1.412  0.00  0.00     0.298 HD
ENDROOT
TORSDOF 0
ENDMDL
