MODEL 1
REMARK minimizedAffinity -3.45311141
REMARK minimizedRMSD -1
REMARK  0 active torsions:
REMARK  status: ('A' for Active; 'I' for Inactive)
ROOT
ATOM      1  N1  IND d   1       1.716  -0.591   2.634  0.00  0.00    -0.196 N 
ATOM      2  C2  IND d   1       0.995  -1.281   3.569  0.00  0.00     0.054 A 
ATOM      3  C3  IND d   1      -0.246  -1.547   3.104  0.00  0.00    -0.031 A 
ATOM      4  C4  IND d   1      -1.275  -1.032   0.801  0.00  0.00     0.051 A 
ATOM      5  C5  IND d   1      -1.016  -0.385  -0.374  0.00  0.00    -0.031 A 
ATOM      6  C6  IND d   1       0.193   0.238  -0.612  0.00  0.00     0.015 A 
ATOM      7  C7  IND d   1       1.195   0.226   0.315  0.00  0.00    -0.016 A 
ATOM      8  C8  IND d   1       0.933  -0.425   1.513  0.00  0.00    -0.047 A 
ATOM      9  C9  IND d   1      -0.306  -1.022   1.777  0.00  0.00    -0.096 A 
ATOM     10  HN1 IND d   1       2.522  -0.307   2.731  0.00  0.00     0.298 HD
ENDROOT
TORSDOF 0
ENDMDL
