MODEL 1
REMARK minimizedAffinity -2.34169054
REMARK minimizedRMSD -1
REMARK  0 active torsions:
REMARK  status: ('A' for Active; 'I' for Inactive)
ROOT
ATOM      1  N1  IND d   1       0.653   0.980  -1.968  0.00  0.00    -0.196 N 
ATOM      2  C2  IND d   1      -0.479   1.611  -2.401  0.00  0.00     0.054 A 
ATOM      3  C3  IND d   1      -1.501   1.384  -1.544  0.00  0.00    -0.031 A 
ATOM      4  C4  IND d   1      -1.512   0.092   0.682  0.00  0.00     0.051 A 
ATOM      5  C5  IND d   1      -0.722  -0.690   1.477  0.00  0.00    -0.031 A 
ATOM      6  C6  IND d   1       0.594  -0.959   1.160  0.00  0.00     0.015 A 
ATOM      7  C7  IND d   1       1.175  -0.444   0.036  0.00  0.00    -0.016 A 
ATOM      8  C8  IND d   1       0.374   0.345  -0.778  0.00  0.00    -0.047 A 
ATOM      9  C9  IND d   1      -0.974   0.587  -0.483  0.00  0.00    -0.096 A 
ATOM     10  HN1 IND d   1       1.413   0.980  -2.371  0.00  0.00     0.298 HD
ENDROOT
TORSDOF 0
ENDMDL
