MODEL 1
REMARK minimizedAffinity -1.351735
REMARK minimizedRMSD -1
REMARK  0 active torsions:
REMARK  status: ('A' for Active; 'I' for Inactive)
ROOT
ATOM      1  N1  IND d   1       0.994  -0.562  -0.911  0.00  0.00    -0.196 N 
ATOM      2  C2  IND d   1      -0.046  -0.155  -1.699  0.00  0.00     0.054 A 
ATOM      3  C3  IND d   1      -1.155   0.040  -0.951  0.00  0.00    -0.031 A 
ATOM      4  C4  IND d   1      -1.462  -0.150   1.598  0.00  0.00     0.051 A 
ATOM      5  C5  IND d   1      -0.807  -0.526   2.737  0.00  0.00    -0.031 A 
ATOM      6  C6  IND d   1       0.510  -0.939   2.718  0.00  0.00     0.015 A 
ATOM      7  C7  IND d   1       1.226  -0.981   1.556  0.00  0.00    -0.016 A 
ATOM      8  C8  IND d   1       0.562  -0.607   0.396  0.00  0.00    -0.047 A 
ATOM      9  C9  IND d   1      -0.786  -0.227   0.403  0.00  0.00    -0.096 A 
ATOM     10  HN1 IND d   1       1.785  -0.758  -1.186  0.00  0.00     0.298 HD
ENDROOT
TORSDOF 0
ENDMDL
