MODEL 1
REMARK minimizedAffinity -5.64018106
REMARK minimizedRMSD -1
REMARK  1 active torsions:
REMARK  status: ('A' for Active; 'I' for Inactive)
REMARK    1  A    between atoms: C3_4  and  O_7 
ROOT
ATOM      1  C   UNL d   1       1.079   0.681  -0.236  0.00  0.00    -0.033 A 
ATOM      2  C1  UNL d   1       2.373   0.218   0.009  0.00  0.00     0.039 A 
ATOM      3  C2  UNL d   1       2.579  -1.100   0.420  0.00  0.00    -0.080 A 
ATOM      4  C3  UNL d   1       1.484  -1.945   0.581  0.00  0.00     0.150 A 
ATOM      5  C4  UNL d   1       0.192  -1.492   0.334  0.00  0.00    -0.007 A 
ATOM      6  C5  UNL d   1      -0.011  -0.175  -0.076  0.00  0.00     0.039 A 
ENDROOT
BRANCH   4   7
ATOM      7  O   UNL d   1       1.635  -3.238   0.984  0.00  0.00    -0.526 OA
ATOM      8  H5  UNL d   1       2.579  -3.402   1.145  0.00  0.00     0.418 HD
ENDBRANCH   4   7
TORSDOF 1
ENDMDL
