MODEL 1
REMARK minimizedAffinity -3.82881975
REMARK minimizedRMSD -1
REMARK  1 active torsions:
REMARK  status: ('A' for Active; 'I' for Inactive)
REMARK    1  A    between atoms: C3_4  and  O_7 
ROOT
ATOM      1  C   UNL d   1       0.197   0.340  -0.020  0.00  0.00    -0.033 A 
ATOM      2  C1  UNL d   1      -0.693  -0.598   0.507  0.00  0.00     0.039 A 
ATOM      3  C2  UNL d   1      -0.228  -1.843   0.933  0.00  0.00    -0.080 A 
ATOM      4  C3  UNL d   1       1.129  -2.138   0.828  0.00  0.00     0.150 A 
ATOM      5  C4  UNL d   1       2.022  -1.207   0.308  0.00  0.00    -0.007 A 
ATOM      6  C5  UNL d   1       1.555   0.036  -0.118  0.00  0.00     0.039 A 
ENDROOT
BRANCH   4   7
ATOM      7  O   UNL d   1       1.630  -3.342   1.226  0.00  0.00    -0.526 OA
ATOM      8  H5  UNL d   1       0.893  -3.894   1.537  0.00  0.00     0.418 HD
ENDBRANCH   4   7
TORSDOF 1
ENDMDL
