MODEL 1
REMARK minimizedAffinity -3.80516386
REMARK minimizedRMSD -1
REMARK  1 active torsions:
REMARK  status: ('A' for Active; 'I' for Inactive)
REMARK    1  A    between atoms: C3_4  and  O_7 
ROOT
ATOM      1  C   UNL d   1       1.050  -0.490  -0.249  0.00  0.00    -0.033 A 
ATOM      2  C1  UNL d   1       1.097  -1.439   0.774  0.00  0.00     0.039 A 
ATOM      3  C2  UNL d   1       0.078  -1.491   1.728  0.00  0.00    -0.080 A 
ATOM      4  C3  UNL d   1      -0.980  -0.590   1.647  0.00  0.00     0.150 A 
ATOM      5  C4  UNL d   1      -1.035   0.356   0.628  0.00  0.00    -0.007 A 
ATOM      6  C5  UNL d   1      -0.016   0.407  -0.322  0.00  0.00     0.039 A 
ENDROOT
BRANCH   4   7
ATOM      7  O   UNL d   1      -1.995  -0.599   2.557  0.00  0.00    -0.526 OA
ATOM      8  H5  UNL d   1      -1.809  -1.286   3.219  0.00  0.00     0.418 HD
ENDBRANCH   4   7
TORSDOF 1
ENDMDL
