MODEL 1
REMARK minimizedAffinity -5.63263178
REMARK minimizedRMSD -1
REMARK  1 active torsions:
REMARK  status: ('A' for Active; 'I' for Inactive)
REMARK    1  A    between atoms: C3_4  and  O_7 
ROOT
ATOM      1  C   UNL d   1       0.059   1.109  -0.196  0.00  0.00    -0.033 A 
ATOM      2  C1  UNL d   1      -0.844   0.258   0.445  0.00  0.00     0.039 A 
ATOM      3  C2  UNL d   1      -0.472  -1.051   0.757  0.00  0.00    -0.080 A 
ATOM      4  C3  UNL d   1       0.804  -1.497   0.423  0.00  0.00     0.150 A 
ATOM      5  C4  UNL d   1       1.710  -0.654  -0.212  0.00  0.00    -0.007 A 
ATOM      6  C5  UNL d   1       1.337   0.653  -0.524  0.00  0.00     0.039 A 
ENDROOT
BRANCH   4   7
ATOM      7  O   UNL d   1       1.211  -2.768   0.703  0.00  0.00    -0.526 OA
ATOM      8  H5  UNL d   1       0.471  -3.243   1.116  0.00  0.00     0.418 HD
ENDBRANCH   4   7
TORSDOF 1
ENDMDL
