MODEL 1
REMARK minimizedAffinity -4.5930562
REMARK minimizedRMSD -1
REMARK  1 active torsions:
REMARK  status: ('A' for Active; 'I' for Inactive)
REMARK    1  A    between atoms: C3_4  and  O_7 
ROOT
ATOM      1  C   UNL d   1      -0.006   0.730   0.013  0.00  0.00    -0.033 A 
ATOM      2  C1  UNL d   1      -0.807  -0.211   0.662  0.00  0.00     0.039 A 
ATOM      3  C2  UNL d   1      -0.326  -1.502   0.889  0.00  0.00    -0.080 A 
ATOM      4  C3  UNL d   1       0.956  -1.838   0.463  0.00  0.00     0.150 A 
ATOM      5  C4  UNL d   1       1.761  -0.904  -0.181  0.00  0.00    -0.007 A 
ATOM      6  C5  UNL d   1       1.279   0.384  -0.408  0.00  0.00     0.039 A 
ENDROOT
BRANCH   4   7
ATOM      7  O   UNL d   1       1.468  -3.087   0.658  0.00  0.00    -0.526 OA
ATOM      8  H5  UNL d   1       0.789  -3.633   1.089  0.00  0.00     0.418 HD
ENDBRANCH   4   7
TORSDOF 1
ENDMDL
