MODEL 1
REMARK minimizedAffinity -4.35838556
REMARK minimizedRMSD -1
REMARK  1 active torsions:
REMARK  status: ('A' for Active; 'I' for Inactive)
REMARK    1  A    between atoms: C3_4  and  O_7 
ROOT
ATOM      1  C   UNL d   1       0.082   0.442  -0.094  0.00  0.00    -0.033 A 
ATOM      2  C1  UNL d   1       1.433   0.116  -0.226  0.00  0.00     0.039 A 
ATOM      3  C2  UNL d   1       1.879  -1.167   0.098  0.00  0.00    -0.080 A 
ATOM      4  C3  UNL d   1       0.965  -2.114   0.550  0.00  0.00     0.150 A 
ATOM      5  C4  UNL d   1      -0.384  -1.798   0.680  0.00  0.00    -0.007 A 
ATOM      6  C5  UNL d   1      -0.827  -0.516   0.358  0.00  0.00     0.039 A 
ENDROOT
BRANCH   4   7
ATOM      7  O   UNL d   1       1.353  -3.377   0.883  0.00  0.00    -0.526 OA
ATOM      8  H5  UNL d   1       2.316  -3.443   0.771  0.00  0.00     0.418 HD
ENDBRANCH   4   7
TORSDOF 1
ENDMDL
