MODEL 1
REMARK minimizedAffinity -4.49057388
REMARK minimizedRMSD -1
REMARK  1 active torsions:
REMARK  status: ('A' for Active; 'I' for Inactive)
REMARK    1  A    between atoms: C3_4  and  O_7 
ROOT
ATOM      1  C   UNL d   1       0.799  -2.699   1.846  0.00  0.00    -0.033 A 
ATOM      2  C1  UNL d   1      -0.251  -1.886   2.276  0.00  0.00     0.039 A 
ATOM      3  C2  UNL d   1      -0.625  -0.770   1.525  0.00  0.00    -0.080 A 
ATOM      4  C3  UNL d   1       0.056  -0.480   0.346  0.00  0.00     0.150 A 
ATOM      5  C4  UNL d   1       1.101  -1.289  -0.091  0.00  0.00    -0.007 A 
ATOM      6  C5  UNL d   1       1.474  -2.402   0.662  0.00  0.00     0.039 A 
ENDROOT
BRANCH   4   7
ATOM      7  O   UNL d   1      -0.270   0.600  -0.418  0.00  0.00    -0.526 OA
ATOM      8  H5  UNL d   1      -0.990   1.082   0.022  0.00  0.00     0.418 HD
ENDBRANCH   4   7
TORSDOF 1
ENDMDL
