MODEL 1
REMARK minimizedAffinity -4.47495985
REMARK minimizedRMSD -1
REMARK  1 active torsions:
REMARK  status: ('A' for Active; 'I' for Inactive)
REMARK    1  A    between atoms: C3_4  and  O_7 
ROOT
ATOM      1  C   UNL d   1      -1.011  -0.607   0.944  0.00  0.00    -0.033 A 
ATOM      2  C1  UNL d   1       0.052  -0.486   0.047  0.00  0.00     0.039 A 
ATOM      3  C2  UNL d   1       1.163  -1.324   0.161  0.00  0.00    -0.080 A 
ATOM      4  C3  UNL d   1       1.197  -2.279   1.174  0.00  0.00     0.150 A 
ATOM      5  C4  UNL d   1       0.140  -2.407   2.069  0.00  0.00    -0.007 A 
ATOM      6  C5  UNL d   1      -0.968  -1.568   1.954  0.00  0.00     0.039 A 
ENDROOT
BRANCH   4   7
ATOM      7  O   UNL d   1       2.262  -3.116   1.328  0.00  0.00    -0.526 OA
ATOM      8  H5  UNL d   1       2.929  -2.893   0.657  0.00  0.00     0.418 HD
ENDBRANCH   4   7
TORSDOF 1
ENDMDL
