MODEL 1
REMARK minimizedAffinity -4.33233404
REMARK minimizedRMSD -1
REMARK  1 active torsions:
REMARK  status: ('A' for Active; 'I' for Inactive)
REMARK    1  A    between atoms: C3_4  and  O_7 
ROOT
ATOM      1  C   UNL d   1      -0.036   0.777  -0.386  0.00  0.00    -0.033 A 
ATOM      2  C1  UNL d   1      -0.857  -0.207   0.169  0.00  0.00     0.039 A 
ATOM      3  C2  UNL d   1      -0.302  -1.401   0.634  0.00  0.00    -0.080 A 
ATOM      4  C3  UNL d   1       1.072  -1.599   0.538  0.00  0.00     0.150 A 
ATOM      5  C4  UNL d   1       1.897  -0.622  -0.010  0.00  0.00    -0.007 A 
ATOM      6  C5  UNL d   1       1.341   0.570  -0.474  0.00  0.00     0.039 A 
ENDROOT
BRANCH   4   7
ATOM      7  O   UNL d   1       1.658  -2.750   0.974  0.00  0.00    -0.526 OA
ATOM      8  H5  UNL d   1       0.963  -3.345   1.301  0.00  0.00     0.418 HD
ENDBRANCH   4   7
TORSDOF 1
ENDMDL
