MODEL 1
REMARK minimizedAffinity -4.34090757
REMARK minimizedRMSD -1
REMARK  1 active torsions:
REMARK  status: ('A' for Active; 'I' for Inactive)
REMARK    1  A    between atoms: C3_4  and  O_7 
ROOT
ATOM      1  C   UNL d   1       0.781  -3.387   1.971  0.00  0.00    -0.033 A 
ATOM      2  C1  UNL d   1      -0.203  -2.558   2.514  0.00  0.00     0.039 A 
ATOM      3  C2  UNL d   1      -0.548  -1.368   1.872  0.00  0.00    -0.080 A 
ATOM      4  C3  UNL d   1       0.097  -1.018   0.688  0.00  0.00     0.150 A 
ATOM      5  C4  UNL d   1       1.075  -1.841   0.139  0.00  0.00    -0.007 A 
ATOM      6  C5  UNL d   1       1.419  -3.029   0.783  0.00  0.00     0.039 A 
ENDROOT
BRANCH   4   7
ATOM      7  O   UNL d   1      -0.202   0.136   0.028  0.00  0.00    -0.526 OA
ATOM      8  H5  UNL d   1      -0.875   0.617   0.538  0.00  0.00     0.418 HD
ENDBRANCH   4   7
TORSDOF 1
ENDMDL
