MODEL 1
REMARK minimizedAffinity -3.88025475
REMARK minimizedRMSD -1
REMARK  1 active torsions:
REMARK  status: ('A' for Active; 'I' for Inactive)
REMARK    1  A    between atoms: C3_4  and  O_7 
ROOT
ATOM      1  C   UNL d   1      -1.166  -0.675   1.061  0.00  0.00    -0.033 A 
ATOM      2  C1  UNL d   1      -0.162  -0.552   0.098  0.00  0.00     0.039 A 
ATOM      3  C2  UNL d   1       0.981  -1.350   0.173  0.00  0.00    -0.080 A 
ATOM      4  C3  UNL d   1       1.108  -2.267   1.213  0.00  0.00     0.150 A 
ATOM      5  C4  UNL d   1       0.110  -2.397   2.173  0.00  0.00    -0.007 A 
ATOM      6  C5  UNL d   1      -1.031  -1.599   2.098  0.00  0.00     0.039 A 
ENDROOT
BRANCH   4   7
ATOM      7  O   UNL d   1       2.207  -3.064   1.331  0.00  0.00    -0.526 OA
ATOM      8  H5  UNL d   1       2.825  -2.843   0.614  0.00  0.00     0.418 HD
ENDBRANCH   4   7
TORSDOF 1
ENDMDL
