MODEL 1
REMARK minimizedAffinity -4.64215851
REMARK minimizedRMSD -1
REMARK  1 active torsions:
REMARK  status: ('A' for Active; 'I' for Inactive)
REMARK    1  A    between atoms: C3_4  and  O_7 
ROOT
ATOM      1  C   UNL d   1      -0.905  -0.794   1.550  0.00  0.00    -0.033 A 
ATOM      2  C1  UNL d   1       0.037  -0.658   0.529  0.00  0.00     0.039 A 
ATOM      3  C2  UNL d   1       1.081  -1.577   0.413  0.00  0.00    -0.080 A 
ATOM      4  C3  UNL d   1       1.172  -2.626   1.324  0.00  0.00     0.150 A 
ATOM      5  C4  UNL d   1       0.235  -2.770   2.342  0.00  0.00    -0.007 A 
ATOM      6  C5  UNL d   1      -0.807  -1.851   2.456  0.00  0.00     0.039 A 
ENDROOT
BRANCH   4   7
ATOM      7  O   UNL d   1       2.177  -3.545   1.254  0.00  0.00    -0.526 OA
ATOM      8  H5  UNL d   1       2.765  -3.303   0.520  0.00  0.00     0.418 HD
ENDBRANCH   4   7
TORSDOF 1
ENDMDL
