MODEL 1
REMARK minimizedAffinity 17.9010811
REMARK minimizedRMSD -1
REMARK  0 active torsions:
REMARK  status: ('A' for Active; 'I' for Inactive)
ROOT
ATOM      1  C   UNL d   1       5.046  -2.267  -0.247  0.00  0.00     0.078 C 
ATOM      2  C1  UNL d   1       4.413  -0.946  -0.568  0.00  0.00    -0.077 A 
ATOM      3  C2  UNL d   1       3.122  -0.877  -1.106  0.00  0.00    -0.001 A 
ATOM      4  C3  UNL d   1       2.548   0.359  -1.409  0.00  0.00     0.003 A 
ATOM      5  C4  UNL d   1       3.259   1.535  -1.178  0.00  0.00    -0.005 A 
ATOM      6  C5  UNL d   1       4.545   1.476  -0.645  0.00  0.00     0.003 A 
ATOM      7  C6  UNL d   1       5.120   0.241  -0.342  0.00  0.00    -0.001 A 
ENDROOT
TORSDOF 0
ENDMDL
