MODEL 1
REMARK minimizedAffinity -0.672927082
REMARK minimizedRMSD -1
REMARK  0 active torsions:
REMARK  status: ('A' for Active; 'I' for Inactive)
ROOT
ATOM      1  C   UNL d   1      -6.000  -5.261   1.221  0.00  0.00     0.078 C 
ATOM      2  C1  UNL d   1      -5.473  -4.474   2.384  0.00  0.00    -0.077 A 
ATOM      3  C2  UNL d   1      -5.990  -3.211   2.694  0.00  0.00    -0.001 A 
ATOM      4  C3  UNL d   1      -5.483  -2.486   3.774  0.00  0.00     0.003 A 
ATOM      5  C4  UNL d   1      -4.456  -3.015   4.552  0.00  0.00    -0.005 A 
ATOM      6  C5  UNL d   1      -3.933  -4.271   4.250  0.00  0.00     0.003 A 
ATOM      7  C6  UNL d   1      -4.439  -4.998   3.171  0.00  0.00    -0.001 A 
ENDROOT
TORSDOF 0
ENDMDL
