MODEL 1
REMARK minimizedAffinity 0.492029548
REMARK minimizedRMSD -1
REMARK  0 active torsions:
REMARK  status: ('A' for Active; 'I' for Inactive)
ROOT
ATOM      1  C   UNL d   1       1.496  -2.250  -0.057  0.00  0.00     0.078 C 
ATOM      2  C1  UNL d   1       1.906  -2.898  -1.347  0.00  0.00    -0.077 A 
ATOM      3  C2  UNL d   1       2.792  -3.982  -1.360  0.00  0.00    -0.001 A 
ATOM      4  C3  UNL d   1       3.172  -4.568  -2.568  0.00  0.00     0.003 A 
ATOM      5  C4  UNL d   1       2.672  -4.077  -3.772  0.00  0.00    -0.005 A 
ATOM      6  C5  UNL d   1       1.791  -2.997  -3.769  0.00  0.00     0.003 A 
ATOM      7  C6  UNL d   1       1.410  -2.409  -2.562  0.00  0.00    -0.001 A 
ENDROOT
TORSDOF 0
ENDMDL
