MODEL 1
REMARK minimizedAffinity -2.40818453
REMARK minimizedRMSD -1
REMARK  0 active torsions:
REMARK  status: ('A' for Active; 'I' for Inactive)
ROOT
ATOM      1  C   UNL d   1       3.531  -4.321  -0.254  0.00  0.00     0.078 C 
ATOM      2  C1  UNL d   1       3.154  -3.877  -1.636  0.00  0.00    -0.077 A 
ATOM      3  C2  UNL d   1       3.912  -4.261  -2.749  0.00  0.00    -0.001 A 
ATOM      4  C3  UNL d   1       3.554  -3.833  -4.028  0.00  0.00     0.003 A 
ATOM      5  C4  UNL d   1       2.439  -3.016  -4.206  0.00  0.00    -0.005 A 
ATOM      6  C5  UNL d   1       1.681  -2.626  -3.105  0.00  0.00     0.003 A 
ATOM      7  C6  UNL d   1       2.037  -3.054  -1.825  0.00  0.00    -0.001 A 
ENDROOT
TORSDOF 0
ENDMDL
