MODEL 1
REMARK minimizedAffinity 0.106219336
REMARK minimizedRMSD -1
REMARK  0 active torsions:
REMARK  status: ('A' for Active; 'I' for Inactive)
ROOT
ATOM      1  C   UNL d   1       3.044  -3.731  -0.205  0.00  0.00     0.078 C 
ATOM      2  C1  UNL d   1       2.923  -4.031  -1.669  0.00  0.00    -0.077 A 
ATOM      3  C2  UNL d   1       3.120  -5.328  -2.159  0.00  0.00    -0.001 A 
ATOM      4  C3  UNL d   1       3.014  -5.591  -3.525  0.00  0.00     0.003 A 
ATOM      5  C4  UNL d   1       2.711  -4.561  -4.414  0.00  0.00    -0.005 A 
ATOM      6  C5  UNL d   1       2.515  -3.267  -3.937  0.00  0.00     0.003 A 
ATOM      7  C6  UNL d   1       2.621  -3.002  -2.571  0.00  0.00    -0.001 A 
ENDROOT
TORSDOF 0
ENDMDL
