MODEL 1
REMARK minimizedAffinity 5.50689745
REMARK minimizedRMSD -1
REMARK  0 active torsions:
REMARK  status: ('A' for Active; 'I' for Inactive)
ROOT
ATOM      1  C   UNL d   1       4.859  -5.016  -0.609  0.00  0.00     0.078 C 
ATOM      2  C1  UNL d   1       4.011  -4.692  -1.803  0.00  0.00    -0.077 A 
ATOM      3  C2  UNL d   1       4.382  -5.113  -3.086  0.00  0.00    -0.001 A 
ATOM      4  C3  UNL d   1       3.588  -4.796  -4.190  0.00  0.00     0.003 A 
ATOM      5  C4  UNL d   1       2.420  -4.055  -4.022  0.00  0.00    -0.005 A 
ATOM      6  C5  UNL d   1       2.045  -3.630  -2.749  0.00  0.00     0.003 A 
ATOM      7  C6  UNL d   1       2.837  -3.946  -1.645  0.00  0.00    -0.001 A 
ENDROOT
TORSDOF 0
ENDMDL
