MODEL 1
REMARK minimizedAffinity 9.1641531
REMARK minimizedRMSD -1
REMARK  0 active torsions:
REMARK  status: ('A' for Active; 'I' for Inactive)
ROOT
ATOM      1  C   UNL d   1       5.817  -4.571  -4.059  0.00  0.00     0.078 C 
ATOM      2  C1  UNL d   1       4.467  -4.264  -3.484  0.00  0.00    -0.077 A 
ATOM      3  C2  UNL d   1       3.460  -3.693  -4.273  0.00  0.00    -0.001 A 
ATOM      4  C3  UNL d   1       2.211  -3.404  -3.722  0.00  0.00     0.003 A 
ATOM      5  C4  UNL d   1       1.957  -3.681  -2.380  0.00  0.00    -0.005 A 
ATOM      6  C5  UNL d   1       2.953  -4.248  -1.587  0.00  0.00     0.003 A 
ATOM      7  C6  UNL d   1       4.203  -4.538  -2.136  0.00  0.00    -0.001 A 
ENDROOT
TORSDOF 0
ENDMDL
