MODEL 1
REMARK minimizedAffinity 10.6097231
REMARK minimizedRMSD -1
REMARK  0 active torsions:
REMARK  status: ('A' for Active; 'I' for Inactive)
ROOT
ATOM      1  C   UNL d   1      -3.034   1.455   6.000  0.00  0.00     0.078 C 
ATOM      2  C1  UNL d   1      -3.399   0.352   5.052  0.00  0.00    -0.077 A 
ATOM      3  C2  UNL d   1      -3.647   0.617   3.699  0.00  0.00    -0.001 A 
ATOM      4  C3  UNL d   1      -3.996  -0.419   2.830  0.00  0.00     0.003 A 
ATOM      5  C4  UNL d   1      -4.100  -1.725   3.304  0.00  0.00    -0.005 A 
ATOM      6  C5  UNL d   1      -3.857  -1.997   4.649  0.00  0.00     0.003 A 
ATOM      7  C6  UNL d   1      -3.509  -0.963   5.520  0.00  0.00    -0.001 A 
ENDROOT
TORSDOF 0
ENDMDL
