MODEL 1
REMARK minimizedAffinity 14.862154
REMARK minimizedRMSD -1
REMARK  0 active torsions:
REMARK  status: ('A' for Active; 'I' for Inactive)
ROOT
ATOM      1  C   UNL d   1       1.212  -0.299  -3.649  0.00  0.00     0.078 C 
ATOM      2  C1  UNL d   1       2.080   0.142  -2.509  0.00  0.00    -0.077 A 
ATOM      3  C2  UNL d   1       2.218   1.499  -2.190  0.00  0.00    -0.001 A 
ATOM      4  C3  UNL d   1       3.037   1.896  -1.132  0.00  0.00     0.003 A 
ATOM      5  C4  UNL d   1       3.725   0.943  -0.384  0.00  0.00    -0.005 A 
ATOM      6  C5  UNL d   1       3.596  -0.409  -0.695  0.00  0.00     0.003 A 
ATOM      7  C6  UNL d   1       2.778  -0.808  -1.753  0.00  0.00    -0.001 A 
ENDROOT
TORSDOF 0
ENDMDL
