MODEL 1
REMARK minimizedAffinity 12.5829306
REMARK minimizedRMSD -1
REMARK  0 active torsions:
REMARK  status: ('A' for Active; 'I' for Inactive)
ROOT
ATOM      1  C   UNL d   1      -1.925   6.000  -4.868  0.00  0.00     0.078 C 
ATOM      2  C1  UNL d   1      -2.585   4.671  -5.085  0.00  0.00    -0.077 A 
ATOM      3  C2  UNL d   1      -2.001   3.490  -4.613  0.00  0.00    -0.001 A 
ATOM      4  C3  UNL d   1      -2.622   2.259  -4.831  0.00  0.00     0.003 A 
ATOM      5  C4  UNL d   1      -3.830   2.197  -5.523  0.00  0.00    -0.005 A 
ATOM      6  C5  UNL d   1      -4.418   3.368  -5.998  0.00  0.00     0.003 A 
ATOM      7  C6  UNL d   1      -3.798   4.599  -5.781  0.00  0.00    -0.001 A 
ENDROOT
TORSDOF 0
ENDMDL
