MODEL 1
REMARK minimizedAffinity 13.051157
REMARK minimizedRMSD -1
REMARK  0 active torsions:
REMARK  status: ('A' for Active; 'I' for Inactive)
ROOT
ATOM      1  C   UNL d   1       0.737   1.086   1.897  0.00  0.00     0.078 C 
ATOM      2  C1  UNL d   1       0.688   1.537   3.327  0.00  0.00    -0.077 A 
ATOM      3  C2  UNL d   1      -0.249   2.486   3.751  0.00  0.00    -0.001 A 
ATOM      4  C3  UNL d   1      -0.277   2.905   5.083  0.00  0.00     0.003 A 
ATOM      5  C4  UNL d   1       0.631   2.380   6.000  0.00  0.00    -0.005 A 
ATOM      6  C5  UNL d   1       1.569   1.437   5.586  0.00  0.00     0.003 A 
ATOM      7  C6  UNL d   1       1.599   1.017   4.255  0.00  0.00    -0.001 A 
ENDROOT
TORSDOF 0
ENDMDL
