MODEL 1
REMARK minimizedAffinity 14.9854355
REMARK minimizedRMSD -1
REMARK  0 active torsions:
REMARK  status: ('A' for Active; 'I' for Inactive)
ROOT
ATOM      1  C   UNL d   1      -4.436  -0.674   3.738  0.00  0.00     0.078 C 
ATOM      2  C1  UNL d   1      -4.489   0.651   4.436  0.00  0.00    -0.077 A 
ATOM      3  C2  UNL d   1      -3.495   1.026   5.349  0.00  0.00    -0.001 A 
ATOM      4  C3  UNL d   1      -3.563   2.260   5.999  0.00  0.00     0.003 A 
ATOM      5  C4  UNL d   1      -4.622   3.128   5.744  0.00  0.00    -0.005 A 
ATOM      6  C5  UNL d   1      -5.617   2.763   4.839  0.00  0.00     0.003 A 
ATOM      7  C6  UNL d   1      -5.551   1.530   4.189  0.00  0.00    -0.001 A 
ENDROOT
TORSDOF 0
ENDMDL
