MODEL 1
REMARK minimizedAffinity 13.5627489
REMARK minimizedRMSD -1
REMARK  0 active torsions:
REMARK  status: ('A' for Active; 'I' for Inactive)
ROOT
ATOM      1  C   UNL d   1      -4.271  -0.472   4.098  0.00  0.00     0.078 C 
ATOM      2  C1  UNL d   1      -4.489   0.930   4.582  0.00  0.00    -0.077 A 
ATOM      3  C2  UNL d   1      -3.650   1.498   5.549  0.00  0.00    -0.001 A 
ATOM      4  C3  UNL d   1      -3.871   2.801   5.998  0.00  0.00     0.003 A 
ATOM      5  C4  UNL d   1      -4.931   3.547   5.487  0.00  0.00    -0.005 A 
ATOM      6  C5  UNL d   1      -5.772   2.990   4.526  0.00  0.00     0.003 A 
ATOM      7  C6  UNL d   1      -5.553   1.688   4.075  0.00  0.00    -0.001 A 
ENDROOT
TORSDOF 0
ENDMDL
