MODEL 1
REMARK minimizedAffinity 8.78969097
REMARK minimizedRMSD -1
REMARK  0 active torsions:
REMARK  status: ('A' for Active; 'I' for Inactive)
ROOT
ATOM      1  C   UNL d   1      -0.330  -3.962  -3.003  0.00  0.00     0.078 C 
ATOM      2  C1  UNL d   1       0.589  -3.124  -2.165  0.00  0.00    -0.077 A 
ATOM      3  C2  UNL d   1       1.408  -3.706  -1.190  0.00  0.00    -0.001 A 
ATOM      4  C3  UNL d   1       2.250  -2.913  -0.410  0.00  0.00     0.003 A 
ATOM      5  C4  UNL d   1       2.282  -1.532  -0.597  0.00  0.00    -0.005 A 
ATOM      6  C5  UNL d   1       1.469  -0.943  -1.563  0.00  0.00     0.003 A 
ATOM      7  C6  UNL d   1       0.625  -1.735  -2.344  0.00  0.00    -0.001 A 
ENDROOT
TORSDOF 0
ENDMDL
