MODEL 1
REMARK minimizedAffinity 14.9135389
REMARK minimizedRMSD -1
REMARK  0 active torsions:
REMARK  status: ('A' for Active; 'I' for Inactive)
ROOT
ATOM      1  C   UNL d   1      -3.755  -1.741   5.329  0.00  0.00     0.078 C 
ATOM      2  C1  UNL d   1      -3.922  -0.289   4.994  0.00  0.00    -0.077 A 
ATOM      3  C2  UNL d   1      -4.178   0.122   3.680  0.00  0.00    -0.001 A 
ATOM      4  C3  UNL d   1      -4.322   1.478   3.380  0.00  0.00     0.003 A 
ATOM      5  C4  UNL d   1      -4.210   2.433   4.388  0.00  0.00    -0.005 A 
ATOM      6  C5  UNL d   1      -3.953   2.034   5.698  0.00  0.00     0.003 A 
ATOM      7  C6  UNL d   1      -3.810   0.678   6.000  0.00  0.00    -0.001 A 
ENDROOT
TORSDOF 0
ENDMDL
