MODEL 1
REMARK minimizedAffinity 0.925493538
REMARK minimizedRMSD -1
REMARK  2 active torsions:
REMARK  status: ('A' for Active; 'I' for Inactive)
REMARK    1  A    between atoms: C1_2  and  C2_3 
REMARK    2  A    between atoms: C2_3  and  C3_4 
ROOT
ATOM      1  C3  UNL d   1       5.247   2.891   3.500  0.00  0.00    -0.075 A 
ATOM      2  C4  UNL d   1       4.491   2.254   4.495  0.00  0.00     0.002 A 
ATOM      3  C5  UNL d   1       4.296   2.864   5.735  0.00  0.00     0.002 A 
ATOM      4  C6  UNL d   1       4.861   4.109   5.999  0.00  0.00    -0.004 A 
ATOM      5  C7  UNL d   1       5.628   4.743   5.024  0.00  0.00     0.002 A 
ATOM      6  C8  UNL d   1       5.822   4.138   3.781  0.00  0.00     0.002 A 
ENDROOT
BRANCH   1   7
ATOM      7  C2  UNL d   1       5.438   2.250   2.146  0.00  0.00     0.056 C 
BRANCH   7   8
ATOM      8  C1  UNL d   1       4.368   2.634   1.119  0.00  0.00     0.007 C 
ATOM      9  C   UNL d   1       4.145   1.565   0.057  0.00  0.00     0.009 C 
ENDBRANCH   7   8
ENDBRANCH   1   7
TORSDOF 2
ENDMDL
