MODEL 1
REMARK minimizedAffinity -0.230428278
REMARK minimizedRMSD -1
REMARK  2 active torsions:
REMARK  status: ('A' for Active; 'I' for Inactive)
REMARK    1  A    between atoms: C1_2  and  C2_3 
REMARK    2  A    between atoms: C2_3  and  C3_4 
ROOT
ATOM      1  C3  UNL d   1       4.354   3.078   3.405  0.00  0.00    -0.075 A 
ATOM      2  C4  UNL d   1       3.344   2.289   3.975  0.00  0.00     0.002 A 
ATOM      3  C5  UNL d   1       2.878   2.556   5.262  0.00  0.00     0.002 A 
ATOM      4  C6  UNL d   1       3.421   3.606   5.999  0.00  0.00    -0.004 A 
ATOM      5  C7  UNL d   1       4.436   4.386   5.450  0.00  0.00     0.002 A 
ATOM      6  C8  UNL d   1       4.902   4.124   4.160  0.00  0.00     0.002 A 
ENDROOT
BRANCH   1   7
ATOM      7  C2  UNL d   1       4.842   2.813   2.001  0.00  0.00     0.056 C 
BRANCH   7   8
ATOM      8  C1  UNL d   1       4.044   1.739   1.256  0.00  0.00     0.007 C 
ATOM      9  C   UNL d   1       4.399   1.644  -0.222  0.00  0.00     0.009 C 
ENDBRANCH   7   8
ENDBRANCH   1   7
TORSDOF 2
ENDMDL
