MODEL 1
REMARK minimizedAffinity -0.987372577
REMARK minimizedRMSD -1
REMARK  2 active torsions:
REMARK  status: ('A' for Active; 'I' for Inactive)
REMARK    1  A    between atoms: C1_2  and  C2_3 
REMARK    2  A    between atoms: C2_3  and  C3_4 
ROOT
ATOM      1  C3  UNL d   1       3.700   3.339   5.256  0.00  0.00    -0.075 A 
ATOM      2  C4  UNL d   1       3.723   4.530   5.997  0.00  0.00     0.002 A 
ATOM      3  C5  UNL d   1       4.858   5.341   6.000  0.00  0.00     0.002 A 
ATOM      4  C6  UNL d   1       5.985   4.969   5.272  0.00  0.00    -0.004 A 
ATOM      5  C7  UNL d   1       5.980   3.780   4.545  0.00  0.00     0.002 A 
ATOM      6  C8  UNL d   1       4.844   2.968   4.538  0.00  0.00     0.002 A 
ENDROOT
BRANCH   1   7
ATOM      7  C2  UNL d   1       2.465   2.471   5.226  0.00  0.00     0.056 C 
BRANCH   7   8
ATOM      8  C1  UNL d   1       2.638   1.114   5.916  0.00  0.00     0.007 C 
ATOM      9  C   UNL d   1       1.838  -0.001   5.257  0.00  0.00     0.009 C 
ENDBRANCH   7   8
ENDBRANCH   1   7
TORSDOF 2
ENDMDL
