MODEL 1
REMARK minimizedAffinity -5.03995609
REMARK minimizedRMSD -1
REMARK  2 active torsions:
REMARK  status: ('A' for Active; 'I' for Inactive)
REMARK    1  A    between atoms: C1_2  and  C2_3 
REMARK    2  A    between atoms: C2_3  and  C3_4 
ROOT
ATOM      1  C3  UNL d   1       4.139   3.064   5.014  0.00  0.00    -0.075 A 
ATOM      2  C4  UNL d   1       4.095   1.999   5.925  0.00  0.00     0.002 A 
ATOM      3  C5  UNL d   1       2.972   1.174   5.997  0.00  0.00     0.002 A 
ATOM      4  C6  UNL d   1       1.877   1.409   5.169  0.00  0.00    -0.004 A 
ATOM      5  C7  UNL d   1       1.903   2.475   4.272  0.00  0.00     0.002 A 
ATOM      6  C8  UNL d   1       3.027   3.299   4.194  0.00  0.00     0.002 A 
ENDROOT
BRANCH   1   7
ATOM      7  C2  UNL d   1       5.363   3.942   4.910  0.00  0.00     0.056 C 
BRANCH   7   8
ATOM      8  C1  UNL d   1       5.453   5.018   5.998  0.00  0.00     0.007 C 
ATOM      9  C   UNL d   1       4.268   5.975   5.996  0.00  0.00     0.009 C 
ENDBRANCH   7   8
ENDBRANCH   1   7
TORSDOF 2
ENDMDL
