MODEL 1
REMARK minimizedAffinity -2.51191068
REMARK minimizedRMSD -1
REMARK  2 active torsions:
REMARK  status: ('A' for Active; 'I' for Inactive)
REMARK    1  A    between atoms: C1_2  and  C2_3 
REMARK    2  A    between atoms: C2_3  and  C3_4 
ROOT
ATOM      1  C3  UNL d   1       4.827   3.376   4.963  0.00  0.00    -0.075 A 
ATOM      2  C4  UNL d   1       4.116   3.731   3.807  0.00  0.00     0.002 A 
ATOM      3  C5  UNL d   1       3.016   2.979   3.393  0.00  0.00     0.002 A 
ATOM      4  C6  UNL d   1       2.620   1.860   4.121  0.00  0.00    -0.004 A 
ATOM      5  C7  UNL d   1       3.329   1.488   5.262  0.00  0.00     0.002 A 
ATOM      6  C8  UNL d   1       4.427   2.241   5.681  0.00  0.00     0.002 A 
ENDROOT
BRANCH   1   7
ATOM      7  C2  UNL d   1       6.000   4.202   5.433  0.00  0.00     0.056 C 
BRANCH   7   8
ATOM      8  C1  UNL d   1       5.612   5.576   5.991  0.00  0.00     0.007 C 
ATOM      9  C   UNL d   1       4.199   6.000   5.613  0.00  0.00     0.009 C 
ENDBRANCH   7   8
ENDBRANCH   1   7
TORSDOF 2
ENDMDL
