MODEL 1
REMARK minimizedAffinity -3.28009272
REMARK minimizedRMSD -1
REMARK  2 active torsions:
REMARK  status: ('A' for Active; 'I' for Inactive)
REMARK    1  A    between atoms: C1_2  and  C2_3 
REMARK    2  A    between atoms: C2_3  and  C3_4 
ROOT
ATOM      1  C3  UNL d   1       3.585   4.072   5.141  0.00  0.00    -0.075 A 
ATOM      2  C4  UNL d   1       3.890   4.226   3.781  0.00  0.00     0.002 A 
ATOM      3  C5  UNL d   1       3.196   5.150   2.999  0.00  0.00     0.002 A 
ATOM      4  C6  UNL d   1       2.184   5.923   3.564  0.00  0.00    -0.004 A 
ATOM      5  C7  UNL d   1       1.862   5.767   4.910  0.00  0.00     0.002 A 
ATOM      6  C8  UNL d   1       2.557   4.846   5.695  0.00  0.00     0.002 A 
ENDROOT
BRANCH   1   7
ATOM      7  C2  UNL d   1       4.352   3.094   5.999  0.00  0.00     0.056 C 
BRANCH   7   8
ATOM      8  C1  UNL d   1       4.491   1.698   5.382  0.00  0.00     0.007 C 
ATOM      9  C   UNL d   1       3.546   0.674   5.997  0.00  0.00     0.009 C 
ENDBRANCH   7   8
ENDBRANCH   1   7
TORSDOF 2
ENDMDL
