MODEL 1
REMARK minimizedAffinity 1.51994276
REMARK minimizedRMSD -1
REMARK  1 active torsions:
REMARK  status: ('A' for Active; 'I' for Inactive)
REMARK    1  A    between atoms: C1_2  and  C2_3 
ROOT
ATOM      1  C2  UNL d   1      -3.343   1.690   3.556  0.00  0.00    -0.076 A 
ATOM      2  C3  UNL d   1      -2.564   2.839   3.332  0.00  0.00     0.004 A 
ATOM      3  C4  UNL d   1      -1.390   2.775   2.584  0.00  0.00    -0.003 A 
ATOM      4  C5  UNL d   1      -0.976   1.562   2.046  0.00  0.00     0.000 A 
ATOM      5  C6  UNL d   1      -1.745   0.415   2.243  0.00  0.00     0.000 A 
ATOM      6  C7  UNL d   1      -2.940   0.465   2.981  0.00  0.00    -0.073 A 
ATOM      7  C8  UNL d   1      -3.727  -0.803   3.168  0.00  0.00     0.078 C 
ENDROOT
BRANCH   1   8
ATOM      8  C1  UNL d   1      -4.592   1.814   4.399  0.00  0.00     0.053 C 
ATOM      9  C   UNL d   1      -4.343   2.555   5.704  0.00  0.00     0.018 C 
ENDBRANCH   1   8
TORSDOF 1
ENDMDL
