MODEL 1
REMARK minimizedAffinity 0.977741301
REMARK minimizedRMSD -1
REMARK  1 active torsions:
REMARK  status: ('A' for Active; 'I' for Inactive)
REMARK    1  A    between atoms: C1_2  and  C2_3 
ROOT
ATOM      1  C2  UNL d   1      -1.169   0.973   1.856  0.00  0.00    -0.076 A 
ATOM      2  C3  UNL d   1      -1.887  -0.212   2.093  0.00  0.00     0.004 A 
ATOM      3  C4  UNL d   1      -3.079  -0.196   2.815  0.00  0.00    -0.003 A 
ATOM      4  C5  UNL d   1      -3.573   1.005   3.311  0.00  0.00     0.000 A 
ATOM      5  C6  UNL d   1      -2.883   2.193   3.070  0.00  0.00     0.000 A 
ATOM      6  C7  UNL d   1      -1.688   2.196   2.330  0.00  0.00    -0.073 A 
ATOM      7  C8  UNL d   1      -0.982   3.505   2.105  0.00  0.00     0.078 C 
ENDROOT
BRANCH   1   8
ATOM      8  C1  UNL d   1       0.132   0.890   1.090  0.00  0.00     0.053 C 
ATOM      9  C   UNL d   1       1.161   0.010   1.782  0.00  0.00     0.018 C 
ENDBRANCH   1   8
TORSDOF 1
ENDMDL
