MODEL 1
REMARK minimizedAffinity 4.19438267
REMARK minimizedRMSD -1
REMARK  1 active torsions:
REMARK  status: ('A' for Active; 'I' for Inactive)
REMARK    1  A    between atoms: C1_2  and  C2_3 
ROOT
ATOM      1  C2  UNL d   1      -0.039   1.307   1.164  0.00  0.00    -0.076 A 
ATOM      2  C3  UNL d   1       0.944   1.821   0.300  0.00  0.00     0.004 A 
ATOM      3  C4  UNL d   1       2.030   1.042  -0.097  0.00  0.00    -0.003 A 
ATOM      4  C5  UNL d   1       2.150  -0.265   0.363  0.00  0.00     0.000 A 
ATOM      5  C6  UNL d   1       1.175  -0.797   1.206  0.00  0.00     0.000 A 
ATOM      6  C7  UNL d   1       0.066  -0.031   1.603  0.00  0.00    -0.073 A 
ATOM      7  C8  UNL d   1      -0.952  -0.653   2.518  0.00  0.00     0.078 C 
ENDROOT
BRANCH   1   8
ATOM      8  C1  UNL d   1      -1.179   2.207   1.581  0.00  0.00     0.053 C 
ATOM      9  C   UNL d   1      -1.397   2.212   3.087  0.00  0.00     0.018 C 
ENDBRANCH   1   8
TORSDOF 1
ENDMDL
