MODEL 1
REMARK minimizedAffinity -1.82625163
REMARK minimizedRMSD -1
REMARK  1 active torsions:
REMARK  status: ('A' for Active; 'I' for Inactive)
REMARK    1  A    between atoms: C1_2  and  C2_3 
ROOT
ATOM      1  C2  UNL d   1      -1.572   0.844   2.383  0.00  0.00    -0.076 A 
ATOM      2  C3  UNL d   1      -1.278   2.138   1.917  0.00  0.00     0.004 A 
ATOM      3  C4  UNL d   1      -0.120   2.390   1.183  0.00  0.00    -0.003 A 
ATOM      4  C5  UNL d   1       0.762   1.353   0.902  0.00  0.00     0.000 A 
ATOM      5  C6  UNL d   1       0.477   0.060   1.340  0.00  0.00     0.000 A 
ATOM      6  C7  UNL d   1      -0.694  -0.214   2.068  0.00  0.00    -0.073 A 
ATOM      7  C8  UNL d   1      -0.948  -1.626   2.521  0.00  0.00     0.078 C 
ENDROOT
BRANCH   1   8
ATOM      8  C1  UNL d   1      -2.829   0.636   3.198  0.00  0.00     0.053 C 
ATOM      9  C   UNL d   1      -3.352   1.930   3.801  0.00  0.00     0.018 C 
ENDBRANCH   1   8
TORSDOF 1
ENDMDL
