MODEL 1
REMARK minimizedAffinity 2.69214344
REMARK minimizedRMSD -1
REMARK  1 active torsions:
REMARK  status: ('A' for Active; 'I' for Inactive)
REMARK    1  A    between atoms: C1_2  and  C2_3 
ROOT
ATOM      1  C2  UNL d   1      -3.117   1.509   3.037  0.00  0.00    -0.076 A 
ATOM      2  C3  UNL d   1      -2.554   2.770   2.771  0.00  0.00     0.004 A 
ATOM      3  C4  UNL d   1      -1.388   2.890   2.017  0.00  0.00    -0.003 A 
ATOM      4  C5  UNL d   1      -0.767   1.752   1.515  0.00  0.00     0.000 A 
ATOM      5  C6  UNL d   1      -1.321   0.495   1.753  0.00  0.00     0.000 A 
ATOM      6  C7  UNL d   1      -2.504   0.357   2.499  0.00  0.00    -0.073 A 
ATOM      7  C8  UNL d   1      -3.055  -1.023   2.731  0.00  0.00     0.078 C 
ENDROOT
BRANCH   1   8
ATOM      8  C1  UNL d   1      -4.367   1.438   3.884  0.00  0.00     0.053 C 
ATOM      9  C   UNL d   1      -4.446   2.566   4.902  0.00  0.00     0.018 C 
ENDBRANCH   1   8
TORSDOF 1
ENDMDL
