MODEL 1
REMARK minimizedAffinity -3.14176273
REMARK minimizedRMSD -1
REMARK  1 active torsions:
REMARK  status: ('A' for Active; 'I' for Inactive)
REMARK    1  A    between atoms: C1_2  and  C2_3 
ROOT
ATOM      1  C2  UNL d   1      -1.861  -4.689   0.644  0.00  0.00    -0.076 A 
ATOM      2  C3  UNL d   1      -1.078  -4.559   1.805  0.00  0.00     0.004 A 
ATOM      3  C4  UNL d   1      -1.175  -3.428   2.613  0.00  0.00    -0.003 A 
ATOM      4  C5  UNL d   1      -2.058  -2.408   2.274  0.00  0.00     0.000 A 
ATOM      5  C6  UNL d   1      -2.855  -2.528   1.137  0.00  0.00     0.000 A 
ATOM      6  C7  UNL d   1      -2.781  -3.669   0.320  0.00  0.00    -0.073 A 
ATOM      7  C8  UNL d   1      -3.659  -3.743  -0.899  0.00  0.00     0.078 C 
ENDROOT
BRANCH   1   8
ATOM      8  C1  UNL d   1      -1.692  -5.926  -0.208  0.00  0.00     0.053 C 
ATOM      9  C   UNL d   1      -0.334  -5.984  -0.890  0.00  0.00     0.018 C 
ENDBRANCH   1   8
TORSDOF 1
ENDMDL
