MODEL 1
REMARK minimizedAffinity 1.23889732
REMARK minimizedRMSD -1
REMARK  1 active torsions:
REMARK  status: ('A' for Active; 'I' for Inactive)
REMARK    1  A    between atoms: C1_2  and  C2_3 
ROOT
ATOM      1  C2  UNL d   1      -0.944   1.120   1.411  0.00  0.00    -0.076 A 
ATOM      2  C3  UNL d   1       0.381   1.378   1.020  0.00  0.00     0.004 A 
ATOM      3  C4  UNL d   1       1.307   0.343   0.895  0.00  0.00    -0.003 A 
ATOM      4  C5  UNL d   1       0.921  -0.967   1.158  0.00  0.00     0.000 A 
ATOM      5  C6  UNL d   1      -0.394  -1.243   1.530  0.00  0.00     0.000 A 
ATOM      6  C7  UNL d   1      -1.344  -0.213   1.645  0.00  0.00    -0.073 A 
ATOM      7  C8  UNL d   1      -2.747  -0.567   2.054  0.00  0.00     0.078 C 
ENDROOT
BRANCH   1   8
ATOM      8  C1  UNL d   1      -1.896   2.286   1.556  0.00  0.00     0.053 C 
ATOM      9  C   UNL d   1      -2.077   2.714   3.004  0.00  0.00     0.018 C 
ENDBRANCH   1   8
TORSDOF 1
ENDMDL
