MODEL 1
REMARK minimizedAffinity 0.45903033
REMARK minimizedRMSD -1
REMARK  1 active torsions:
REMARK  status: ('A' for Active; 'I' for Inactive)
REMARK    1  A    between atoms: C1_2  and  C2_3 
ROOT
ATOM      1  C2  UNL d   1      -0.821   1.148   1.596  0.00  0.00    -0.076 A 
ATOM      2  C3  UNL d   1      -1.042   2.443   2.097  0.00  0.00     0.004 A 
ATOM      3  C4  UNL d   1      -2.125   2.714   2.931  0.00  0.00    -0.003 A 
ATOM      4  C5  UNL d   1      -3.005   1.695   3.278  0.00  0.00     0.000 A 
ATOM      5  C6  UNL d   1      -2.791   0.401   2.805  0.00  0.00     0.000 A 
ATOM      6  C7  UNL d   1      -1.695   0.107   1.976  0.00  0.00    -0.073 A 
ATOM      7  C8  UNL d   1      -1.516  -1.305   1.489  0.00  0.00     0.078 C 
ENDROOT
BRANCH   1   8
ATOM      8  C1  UNL d   1       0.355   0.919   0.673  0.00  0.00     0.053 C 
ATOM      9  C   UNL d   1       1.271  -0.193   1.162  0.00  0.00     0.018 C 
ENDBRANCH   1   8
TORSDOF 1
ENDMDL
