MODEL 1
REMARK minimizedAffinity 9.55677319
REMARK minimizedRMSD -1
REMARK  1 active torsions:
REMARK  status: ('A' for Active; 'I' for Inactive)
REMARK    1  A    between atoms: C1_2  and  C2_3 
ROOT
ATOM      1  C2  UNL d   1      -0.554   1.294   1.934  0.00  0.00    -0.076 A 
ATOM      2  C3  UNL d   1      -1.119   0.293   2.742  0.00  0.00     0.004 A 
ATOM      3  C4  UNL d   1      -0.642  -1.016   2.702  0.00  0.00    -0.003 A 
ATOM      4  C5  UNL d   1       0.409  -1.345   1.854  0.00  0.00     0.000 A 
ATOM      5  C6  UNL d   1       0.994  -0.360   1.058  0.00  0.00     0.000 A 
ATOM      6  C7  UNL d   1       0.535   0.967   1.098  0.00  0.00    -0.073 A 
ATOM      7  C8  UNL d   1       1.199   1.987   0.213  0.00  0.00     0.078 C 
ENDROOT
BRANCH   1   8
ATOM      8  C1  UNL d   1      -1.131   2.690   1.999  0.00  0.00     0.053 C 
ATOM      9  C   UNL d   1      -1.986   2.909   3.238  0.00  0.00     0.018 C 
ENDBRANCH   1   8
TORSDOF 1
ENDMDL
