MODEL 1
REMARK minimizedAffinity -0.546492696
REMARK minimizedRMSD -1
REMARK  1 active torsions:
REMARK  status: ('A' for Active; 'I' for Inactive)
REMARK    1  A    between atoms: C1_2  and  C2_3 
ROOT
ATOM      1  C2  UNL d   1      -1.331   1.446   1.932  0.00  0.00    -0.076 A 
ATOM      2  C3  UNL d   1      -0.100   1.925   1.450  0.00  0.00     0.004 A 
ATOM      3  C4  UNL d   1       0.939   1.049   1.141  0.00  0.00    -0.003 A 
ATOM      4  C5  UNL d   1       0.764  -0.321   1.309  0.00  0.00     0.000 A 
ATOM      5  C6  UNL d   1      -0.456  -0.814   1.769  0.00  0.00     0.000 A 
ATOM      6  C7  UNL d   1      -1.520   0.054   2.070  0.00  0.00    -0.073 A 
ATOM      7  C8  UNL d   1      -2.812  -0.532   2.569  0.00  0.00     0.078 C 
ENDROOT
BRANCH   1   8
ATOM      8  C1  UNL d   1      -2.412   2.446   2.276  0.00  0.00     0.053 C 
ATOM      9  C   UNL d   1      -3.183   2.062   3.530  0.00  0.00     0.018 C 
ENDBRANCH   1   8
TORSDOF 1
ENDMDL
