MODEL 1
REMARK minimizedAffinity -0.979217589
REMARK minimizedRMSD -1
REMARK  1 active torsions:
REMARK  status: ('A' for Active; 'I' for Inactive)
REMARK    1  A    between atoms: C1_2  and  C2_3 
ROOT
ATOM      1  C2  UNL d   1      -1.756   1.825   2.271  0.00  0.00    -0.076 A 
ATOM      2  C3  UNL d   1      -0.644   2.339   1.582  0.00  0.00     0.004 A 
ATOM      3  C4  UNL d   1       0.293   1.489   0.997  0.00  0.00    -0.003 A 
ATOM      4  C5  UNL d   1       0.133   0.111   1.090  0.00  0.00     0.000 A 
ATOM      5  C6  UNL d   1      -0.973  -0.416   1.755  0.00  0.00     0.000 A 
ATOM      6  C7  UNL d   1      -1.936   0.426   2.336  0.00  0.00    -0.073 A 
ATOM      7  C8  UNL d   1      -3.107  -0.197   3.046  0.00  0.00     0.078 C 
ENDROOT
BRANCH   1   8
ATOM      8  C1  UNL d   1      -2.724   2.795   2.909  0.00  0.00     0.053 C 
ATOM      9  C   UNL d   1      -3.614   2.131   3.949  0.00  0.00     0.018 C 
ENDBRANCH   1   8
TORSDOF 1
ENDMDL
