MODEL 1
REMARK minimizedAffinity 2.16237593
REMARK minimizedRMSD -1
REMARK  1 active torsions:
REMARK  status: ('A' for Active; 'I' for Inactive)
REMARK    1  A    between atoms: C1_2  and  C2_3 
ROOT
ATOM      1  C2  UNL d   1      -0.901   1.166   0.323  0.00  0.00    -0.081 A 
ATOM      2  C3  UNL d   1      -1.534   2.280  -0.242  0.00  0.00     0.006 A 
ATOM      3  C4  UNL d   1      -2.928   2.341  -0.314  0.00  0.00     0.002 A 
ATOM      4  C5  UNL d   1      -3.711   1.295   0.185  0.00  0.00    -0.080 A 
ATOM      5  C6  UNL d   1      -5.209   1.362   0.141  0.00  0.00     0.076 C 
ATOM      6  C7  UNL d   1      -3.078   0.175   0.734  0.00  0.00     0.002 A 
ATOM      7  C8  UNL d   1      -1.684   0.113   0.806  0.00  0.00     0.006 A 
ENDROOT
BRANCH   1   8
ATOM      8  C1  UNL d   1       0.600   1.126   0.461  0.00  0.00     0.054 C 
ATOM      9  C   UNL d   1       1.063   1.890   1.693  0.00  0.00     0.018 C 
ENDBRANCH   1   8
TORSDOF 1
ENDMDL
