MODEL 1
REMARK minimizedAffinity -4.98023605
REMARK minimizedRMSD -1
REMARK  1 active torsions:
REMARK  status: ('A' for Active; 'I' for Inactive)
REMARK    1  A    between atoms: C1_2  and  C2_3 
ROOT
ATOM      1  C2  UNL d   1      -1.300   1.268   0.283  0.00  0.00    -0.081 A 
ATOM      2  C3  UNL d   1      -1.723   2.439  -0.359  0.00  0.00     0.006 A 
ATOM      3  C4  UNL d   1      -3.080   2.766  -0.413  0.00  0.00     0.002 A 
ATOM      4  C5  UNL d   1      -4.035   1.933   0.180  0.00  0.00    -0.080 A 
ATOM      5  C6  UNL d   1      -5.492   2.289   0.155  0.00  0.00     0.076 C 
ATOM      6  C7  UNL d   1      -3.614   0.755   0.805  0.00  0.00     0.002 A 
ATOM      7  C8  UNL d   1      -2.258   0.427   0.859  0.00  0.00     0.006 A 
ENDROOT
BRANCH   1   8
ATOM      8  C1  UNL d   1       0.168   0.945   0.399  0.00  0.00     0.054 C 
ATOM      9  C   UNL d   1       1.006   1.848  -0.495  0.00  0.00     0.018 C 
ENDBRANCH   1   8
TORSDOF 1
ENDMDL
