MODEL 1
REMARK minimizedAffinity 4.21087217
REMARK minimizedRMSD -1
REMARK  1 active torsions:
REMARK  status: ('A' for Active; 'I' for Inactive)
REMARK    1  A    between atoms: C1_2  and  C2_3 
ROOT
ATOM      1  C2  UNL d   1       4.556   5.287   2.340  0.00  0.00    -0.081 A 
ATOM      2  C3  UNL d   1       4.827   3.913   2.349  0.00  0.00     0.006 A 
ATOM      3  C4  UNL d   1       5.248   3.266   1.184  0.00  0.00     0.002 A 
ATOM      4  C5  UNL d   1       5.414   3.983  -0.005  0.00  0.00    -0.080 A 
ATOM      5  C6  UNL d   1       5.894   3.307  -1.255  0.00  0.00     0.076 C 
ATOM      6  C7  UNL d   1       5.126   5.352  -0.019  0.00  0.00     0.002 A 
ATOM      7  C8  UNL d   1       4.704   5.999   1.145  0.00  0.00     0.006 A 
ENDROOT
BRANCH   1   8
ATOM      8  C1  UNL d   1       4.164   5.999   3.609  0.00  0.00     0.054 C 
ATOM      9  C   UNL d   1       5.302   5.996   4.619  0.00  0.00     0.018 C 
ENDBRANCH   1   8
TORSDOF 1
ENDMDL
