MODEL 1
REMARK minimizedAffinity 6.81106758
REMARK minimizedRMSD -1
REMARK  1 active torsions:
REMARK  status: ('A' for Active; 'I' for Inactive)
REMARK    1  A    between atoms: C1_2  and  C2_3 
ROOT
ATOM      1  C2  UNL d   1       1.412   1.053   0.596  0.00  0.00    -0.081 A 
ATOM      2  C3  UNL d   1       0.094   0.723   0.935  0.00  0.00     0.006 A 
ATOM      3  C4  UNL d   1      -0.631   1.524   1.821  0.00  0.00     0.002 A 
ATOM      4  C5  UNL d   1      -0.053   2.670   2.377  0.00  0.00    -0.080 A 
ATOM      5  C6  UNL d   1      -0.829   3.555   3.306  0.00  0.00     0.076 C 
ATOM      6  C7  UNL d   1       1.270   2.990   2.052  0.00  0.00     0.002 A 
ATOM      7  C8  UNL d   1       1.995   2.189   1.166  0.00  0.00     0.006 A 
ENDROOT
BRANCH   1   8
ATOM      8  C1  UNL d   1       2.173   0.227  -0.409  0.00  0.00     0.054 C 
ATOM      9  C   UNL d   1       1.918   0.712  -1.830  0.00  0.00     0.018 C 
ENDBRANCH   1   8
TORSDOF 1
ENDMDL
