MODEL 1
REMARK minimizedAffinity 1.84884548
REMARK minimizedRMSD -1
REMARK  1 active torsions:
REMARK  status: ('A' for Active; 'I' for Inactive)
REMARK    1  A    between atoms: C1_2  and  C2_3 
ROOT
ATOM      1  C2  UNL d   1      -1.791  -3.809   1.503  0.00  0.00    -0.081 A 
ATOM      2  C3  UNL d   1      -1.535  -5.175   1.334  0.00  0.00     0.006 A 
ATOM      3  C4  UNL d   1      -0.771  -5.873   2.273  0.00  0.00     0.002 A 
ATOM      4  C5  UNL d   1      -0.258  -5.220   3.398  0.00  0.00    -0.080 A 
ATOM      5  C6  UNL d   1       0.537  -5.964   4.429  0.00  0.00     0.076 C 
ATOM      6  C7  UNL d   1      -0.499  -3.851   3.558  0.00  0.00     0.002 A 
ATOM      7  C8  UNL d   1      -1.262  -3.152   2.619  0.00  0.00     0.006 A 
ENDROOT
BRANCH   1   8
ATOM      8  C1  UNL d   1      -2.668  -3.067   0.526  0.00  0.00     0.054 C 
ATOM      9  C   UNL d   1      -2.792  -1.597   0.900  0.00  0.00     0.018 C 
ENDBRANCH   1   8
TORSDOF 1
ENDMDL
