MODEL 1
REMARK minimizedAffinity 4.46619129
REMARK minimizedRMSD -1
REMARK  1 active torsions:
REMARK  status: ('A' for Active; 'I' for Inactive)
REMARK    1  A    between atoms: C1_2  and  C2_3 
ROOT
ATOM      1  C2  UNL d   1       2.035   2.301   2.066  0.00  0.00    -0.081 A 
ATOM      2  C3  UNL d   1       1.789   3.020   3.242  0.00  0.00     0.006 A 
ATOM      3  C4  UNL d   1       0.480   3.310   3.634  0.00  0.00     0.002 A 
ATOM      4  C5  UNL d   1      -0.604   2.881   2.862  0.00  0.00    -0.080 A 
ATOM      5  C6  UNL d   1      -2.015   3.160   3.287  0.00  0.00     0.076 C 
ATOM      6  C7  UNL d   1      -0.358   2.178   1.677  0.00  0.00     0.002 A 
ATOM      7  C8  UNL d   1       0.950   1.888   1.284  0.00  0.00     0.006 A 
ENDROOT
BRANCH   1   8
ATOM      8  C1  UNL d   1       3.442   1.930   1.674  0.00  0.00     0.054 C 
ATOM      9  C   UNL d   1       4.391   3.109   1.837  0.00  0.00     0.018 C 
ENDBRANCH   1   8
TORSDOF 1
ENDMDL
