MODEL 1
REMARK minimizedAffinity 3.73375273
REMARK minimizedRMSD -1
REMARK  1 active torsions:
REMARK  status: ('A' for Active; 'I' for Inactive)
REMARK    1  A    between atoms: C1_2  and  C2_3 
ROOT
ATOM      1  C2  UNL d   1       2.256   5.116   2.412  0.00  0.00    -0.081 A 
ATOM      2  C3  UNL d   1       1.902   4.609   3.669  0.00  0.00     0.006 A 
ATOM      3  C4  UNL d   1       0.816   3.742   3.803  0.00  0.00     0.002 A 
ATOM      4  C5  UNL d   1       0.069   3.361   2.683  0.00  0.00    -0.080 A 
ATOM      5  C6  UNL d   1      -1.081   2.406   2.809  0.00  0.00     0.076 C 
ATOM      6  C7  UNL d   1       0.411   3.880   1.430  0.00  0.00     0.002 A 
ATOM      7  C8  UNL d   1       1.497   4.748   1.295  0.00  0.00     0.006 A 
ENDROOT
BRANCH   1   8
ATOM      8  C1  UNL d   1       3.466   6.000   2.255  0.00  0.00     0.054 C 
ATOM      9  C   UNL d   1       3.968   6.000   0.818  0.00  0.00     0.018 C 
ENDBRANCH   1   8
TORSDOF 1
ENDMDL
