MODEL 1
REMARK minimizedAffinity 7.27557755
REMARK minimizedRMSD -1
REMARK  1 active torsions:
REMARK  status: ('A' for Active; 'I' for Inactive)
REMARK    1  A    between atoms: C1_2  and  C2_3 
ROOT
ATOM      1  C2  UNL d   1       0.196   1.320   0.327  0.00  0.00    -0.081 A 
ATOM      2  C3  UNL d   1      -0.456   1.885  -0.776  0.00  0.00     0.006 A 
ATOM      3  C4  UNL d   1       0.216   2.048  -1.990  0.00  0.00     0.002 A 
ATOM      4  C5  UNL d   1       1.549   1.642  -2.123  0.00  0.00    -0.080 A 
ATOM      5  C6  UNL d   1       2.273   1.784  -3.428  0.00  0.00     0.076 C 
ATOM      6  C7  UNL d   1       2.206   1.094  -1.016  0.00  0.00     0.002 A 
ATOM      7  C8  UNL d   1       1.534   0.931   0.198  0.00  0.00     0.006 A 
ENDROOT
BRANCH   1   8
ATOM      8  C1  UNL d   1      -0.546   1.083   1.617  0.00  0.00     0.054 C 
ATOM      9  C   UNL d   1      -1.810   0.267   1.387  0.00  0.00     0.018 C 
ENDBRANCH   1   8
TORSDOF 1
ENDMDL
