MODEL 1
REMARK minimizedAffinity 3.54530907
REMARK minimizedRMSD -1
REMARK  1 active torsions:
REMARK  status: ('A' for Active; 'I' for Inactive)
REMARK    1  A    between atoms: C1_2  and  C2_3 
ROOT
ATOM      1  C2  UNL d   1      -1.249   0.856   0.961  0.00  0.00    -0.081 A 
ATOM      2  C3  UNL d   1      -1.539   1.817   1.937  0.00  0.00     0.006 A 
ATOM      3  C4  UNL d   1      -0.518   2.591   2.494  0.00  0.00     0.002 A 
ATOM      4  C5  UNL d   1       0.807   2.423   2.079  0.00  0.00    -0.080 A 
ATOM      5  C6  UNL d   1       1.908   3.269   2.646  0.00  0.00     0.076 C 
ATOM      6  C7  UNL d   1       1.100   1.451   1.116  0.00  0.00     0.002 A 
ATOM      7  C8  UNL d   1       0.080   0.676   0.560  0.00  0.00     0.006 A 
ENDROOT
BRANCH   1   8
ATOM      8  C1  UNL d   1      -2.355   0.064   0.312  0.00  0.00     0.054 C 
ATOM      9  C   UNL d   1      -2.827  -1.068   1.213  0.00  0.00     0.018 C 
ENDBRANCH   1   8
TORSDOF 1
ENDMDL
