MODEL 1
REMARK minimizedAffinity 0.0129395342
REMARK minimizedRMSD -1
REMARK  1 active torsions:
REMARK  status: ('A' for Active; 'I' for Inactive)
REMARK    1  A    between atoms: C1_2  and  C2_3 
ROOT
ATOM      1  C2  UNL d   1       3.093   2.100   1.609  0.00  0.00    -0.081 A 
ATOM      2  C3  UNL d   1       2.805   3.080   2.567  0.00  0.00     0.006 A 
ATOM      3  C4  UNL d   1       1.504   3.234   3.053  0.00  0.00     0.002 A 
ATOM      4  C5  UNL d   1       0.473   2.408   2.595  0.00  0.00    -0.080 A 
ATOM      5  C6  UNL d   1      -0.922   2.543   3.131  0.00  0.00     0.076 C 
ATOM      6  C7  UNL d   1       0.757   1.441   1.625  0.00  0.00     0.002 A 
ATOM      7  C8  UNL d   1       2.057   1.286   1.138  0.00  0.00     0.006 A 
ENDROOT
BRANCH   1   8
ATOM      8  C1  UNL d   1       4.507   1.888   1.131  0.00  0.00     0.054 C 
ATOM      9  C   UNL d   1       5.396   3.069   1.492  0.00  0.00     0.018 C 
ENDBRANCH   1   8
TORSDOF 1
ENDMDL
