MODEL 1
REMARK minimizedAffinity 11.6586857
REMARK minimizedRMSD -1
REMARK  1 active torsions:
REMARK  status: ('A' for Active; 'I' for Inactive)
REMARK    1  A    between atoms: C1_2  and  C2_3 
ROOT
ATOM      1  C2  UNL d   1       1.638   0.694   1.065  0.00  0.00    -0.081 A 
ATOM      2  C3  UNL d   1       1.947   1.604   2.084  0.00  0.00     0.006 A 
ATOM      3  C4  UNL d   1       0.955   2.424   2.626  0.00  0.00     0.002 A 
ATOM      4  C5  UNL d   1      -0.363   2.344   2.165  0.00  0.00    -0.080 A 
ATOM      5  C6  UNL d   1      -1.443   3.198   2.759  0.00  0.00     0.076 C 
ATOM      6  C7  UNL d   1      -0.668   1.448   1.135  0.00  0.00     0.002 A 
ATOM      7  C8  UNL d   1       0.323   0.628   0.592  0.00  0.00     0.006 A 
ENDROOT
BRANCH   1   8
ATOM      8  C1  UNL d   1       2.692  -0.237   0.524  0.00  0.00     0.054 C 
ATOM      9  C   UNL d   1       2.933   0.003  -0.960  0.00  0.00     0.018 C 
ENDBRANCH   1   8
TORSDOF 1
ENDMDL
