MODEL 1
REMARK minimizedAffinity 2.41516471
REMARK minimizedRMSD -1
REMARK  1 active torsions:
REMARK  status: ('A' for Active; 'I' for Inactive)
REMARK    1  A    between atoms: C1_2  and  C2_3 
ROOT
ATOM      1  C2  UNL d   1       1.552   1.384  -0.078  0.00  0.00    -0.081 A 
ATOM      2  C3  UNL d   1       0.158   1.302  -0.182  0.00  0.00     0.006 A 
ATOM      3  C4  UNL d   1      -0.656   1.715   0.874  0.00  0.00     0.002 A 
ATOM      4  C5  UNL d   1      -0.091   2.224   2.049  0.00  0.00    -0.080 A 
ATOM      5  C6  UNL d   1      -0.955   2.699   3.179  0.00  0.00     0.076 C 
ATOM      6  C7  UNL d   1       1.302   2.289   2.160  0.00  0.00     0.002 A 
ATOM      7  C8  UNL d   1       2.117   1.876   1.104  0.00  0.00     0.006 A 
ENDROOT
BRANCH   1   8
ATOM      8  C1  UNL d   1       2.432   1.000  -1.240  0.00  0.00     0.054 C 
ATOM      9  C   UNL d   1       1.901   1.570  -2.548  0.00  0.00     0.018 C 
ENDBRANCH   1   8
TORSDOF 1
ENDMDL
