MODEL 1
REMARK minimizedAffinity 1.52700758
REMARK minimizedRMSD -1
REMARK  0 active torsions:
REMARK  status: ('A' for Active; 'I' for Inactive)
ROOT
ATOM      1  C   UNL d   1      -5.270  -2.457  -4.487  0.00  0.00     0.172 C 
ATOM      2  N   UNL d   1      -5.252  -3.840  -4.901  0.00  0.00    -0.070 N 
ATOM      3  C1  UNL d   1      -5.992  -4.378  -5.920  0.00  0.00    -0.004 A 
ATOM      4  C2  UNL d   1      -5.692  -5.721  -5.996  0.00  0.00    -0.047 A 
ATOM      5  C3  UNL d   1      -4.739  -6.000  -4.987  0.00  0.00    -0.047 A 
ATOM      6  C4  UNL d   1      -4.485  -4.818  -4.325  0.00  0.00    -0.004 A 
ENDROOT
TORSDOF 0
ENDMDL
