MODEL 1
REMARK minimizedAffinity 6.47381258
REMARK minimizedRMSD -1
REMARK  0 active torsions:
REMARK  status: ('A' for Active; 'I' for Inactive)
ROOT
ATOM      1  C   UNL d   1       1.647  -4.794   1.982  0.00  0.00     0.172 C 
ATOM      2  N   UNL d   1       1.126  -3.915   3.003  0.00  0.00    -0.070 N 
ATOM      3  C1  UNL d   1       0.823  -4.277   4.289  0.00  0.00    -0.004 A 
ATOM      4  C2  UNL d   1       0.356  -3.158   4.943  0.00  0.00    -0.047 A 
ATOM      5  C3  UNL d   1       0.378  -2.087   4.019  0.00  0.00    -0.047 A 
ATOM      6  C4  UNL d   1       0.859  -2.584   2.826  0.00  0.00    -0.004 A 
ENDROOT
TORSDOF 0
ENDMDL
