MODEL 1
REMARK minimizedAffinity -2.30962229
REMARK minimizedRMSD -1
REMARK  0 active torsions:
REMARK  status: ('A' for Active; 'I' for Inactive)
ROOT
ATOM      1  C   UNL d   1       5.985   5.832  -5.973  0.00  0.00     0.172 C 
ATOM      2  N   UNL d   1       5.191   5.450  -4.829  0.00  0.00    -0.070 N 
ATOM      3  C1  UNL d   1       4.205   4.499  -4.824  0.00  0.00    -0.004 A 
ATOM      4  C2  UNL d   1       3.691   4.431  -3.547  0.00  0.00    -0.047 A 
ATOM      5  C3  UNL d   1       4.391   5.375  -2.758  0.00  0.00    -0.047 A 
ATOM      6  C4  UNL d   1       5.313   5.991  -3.577  0.00  0.00    -0.004 A 
ENDROOT
TORSDOF 0
ENDMDL
