MODEL 1
REMARK minimizedAffinity 5.79781914
REMARK minimizedRMSD -1
REMARK  0 active torsions:
REMARK  status: ('A' for Active; 'I' for Inactive)
ROOT
ATOM      1  C   UNL d   1      -2.568   3.373   1.216  0.00  0.00     0.172 C 
ATOM      2  N   UNL d   1      -3.964   3.740   1.164  0.00  0.00    -0.070 N 
ATOM      3  C1  UNL d   1      -4.729   4.126   2.233  0.00  0.00    -0.004 A 
ATOM      4  C2  UNL d   1      -5.999   4.390   1.769  0.00  0.00    -0.047 A 
ATOM      5  C3  UNL d   1      -5.999   4.154   0.373  0.00  0.00    -0.047 A 
ATOM      6  C4  UNL d   1      -4.726   3.753   0.026  0.00  0.00    -0.004 A 
ENDROOT
TORSDOF 0
ENDMDL
