MODEL 1
REMARK minimizedAffinity 0.0226239562
REMARK minimizedRMSD -1
REMARK  0 active torsions:
REMARK  status: ('A' for Active; 'I' for Inactive)
ROOT
ATOM      1  C   UNL d   1       4.865   6.000  -2.466  0.00  0.00     0.172 C 
ATOM      2  N   UNL d   1       4.906   5.795  -3.895  0.00  0.00    -0.070 N 
ATOM      3  C1  UNL d   1       5.994   6.000  -4.701  0.00  0.00    -0.004 A 
ATOM      4  C2  UNL d   1       5.626   5.693  -5.993  0.00  0.00    -0.047 A 
ATOM      5  C3  UNL d   1       4.270   5.290  -5.963  0.00  0.00    -0.047 A 
ATOM      6  C4  UNL d   1       3.849   5.363  -4.652  0.00  0.00    -0.004 A 
ENDROOT
TORSDOF 0
ENDMDL
