MODEL 1
REMARK minimizedAffinity 6.92335176
REMARK minimizedRMSD -1
REMARK  0 active torsions:
REMARK  status: ('A' for Active; 'I' for Inactive)
ROOT
ATOM      1  C   UNL d   1       3.999   5.063  -2.511  0.00  0.00     0.172 C 
ATOM      2  N   UNL d   1       4.559   5.366  -3.807  0.00  0.00    -0.070 N 
ATOM      3  C1  UNL d   1       3.904   5.255  -5.005  0.00  0.00    -0.004 A 
ATOM      4  C2  UNL d   1       4.778   5.637  -6.000  0.00  0.00    -0.047 A 
ATOM      5  C3  UNL d   1       6.000   5.989  -5.378  0.00  0.00    -0.047 A 
ATOM      6  C4  UNL d   1       5.836   5.812  -4.021  0.00  0.00    -0.004 A 
ENDROOT
TORSDOF 0
ENDMDL
