MODEL 1
REMARK minimizedAffinity 0.331660628
REMARK minimizedRMSD -1
REMARK  0 active torsions:
REMARK  status: ('A' for Active; 'I' for Inactive)
ROOT
ATOM      1  C   UNL d   1       0.382  -2.260   3.360  0.00  0.00     0.172 C 
ATOM      2  N   UNL d   1       1.116  -1.044   3.098  0.00  0.00    -0.070 N 
ATOM      3  C1  UNL d   1       1.779  -0.746   1.938  0.00  0.00    -0.004 A 
ATOM      4  C2  UNL d   1       2.347   0.501   2.085  0.00  0.00    -0.047 A 
ATOM      5  C3  UNL d   1       2.015   0.968   3.378  0.00  0.00    -0.047 A 
ATOM      6  C4  UNL d   1       1.252  -0.009   3.984  0.00  0.00    -0.004 A 
ENDROOT
TORSDOF 0
ENDMDL
