MODEL 1
REMARK minimizedAffinity 3.13407183
REMARK minimizedRMSD -1
REMARK  0 active torsions:
REMARK  status: ('A' for Active; 'I' for Inactive)
ROOT
ATOM      1  C   UNL d   1       2.231  -0.227   1.565  0.00  0.00     0.172 C 
ATOM      2  N   UNL d   1       1.745  -1.205   2.510  0.00  0.00    -0.070 N 
ATOM      3  C1  UNL d   1       1.495  -2.523   2.237  0.00  0.00    -0.004 A 
ATOM      4  C2  UNL d   1       1.047  -3.117   3.398  0.00  0.00    -0.047 A 
ATOM      5  C3  UNL d   1       1.026  -2.120   4.402  0.00  0.00    -0.047 A 
ATOM      6  C4  UNL d   1       1.463  -0.946   3.826  0.00  0.00    -0.004 A 
ENDROOT
TORSDOF 0
ENDMDL
