MODEL 1
REMARK minimizedAffinity -1.77819419
REMARK minimizedRMSD -1
REMARK  0 active torsions:
REMARK  status: ('A' for Active; 'I' for Inactive)
ROOT
ATOM      1  C   UNL d   1       5.990   5.917  -5.999  0.00  0.00     0.172 C 
ATOM      2  N   UNL d   1       5.345   5.620  -4.742  0.00  0.00    -0.070 N 
ATOM      3  C1  UNL d   1       5.793   6.000  -3.505  0.00  0.00    -0.004 A 
ATOM      4  C2  UNL d   1       4.901   5.524  -2.569  0.00  0.00    -0.047 A 
ATOM      5  C3  UNL d   1       3.882   4.834  -3.267  0.00  0.00    -0.047 A 
ATOM      6  C4  UNL d   1       4.182   4.909  -4.611  0.00  0.00    -0.004 A 
ENDROOT
TORSDOF 0
ENDMDL
