MODEL 1
REMARK minimizedAffinity -1.72624874
REMARK minimizedRMSD -1
REMARK  0 active torsions:
REMARK  status: ('A' for Active; 'I' for Inactive)
ROOT
ATOM      1  C   UNL d   1       5.996   5.946  -5.735  0.00  0.00     0.172 C 
ATOM      2  N   UNL d   1       5.279   5.628  -4.523  0.00  0.00    -0.070 N 
ATOM      3  C1  UNL d   1       5.647   5.999  -3.257  0.00  0.00    -0.004 A 
ATOM      4  C2  UNL d   1       4.706   5.503  -2.381  0.00  0.00    -0.047 A 
ATOM      5  C3  UNL d   1       3.739   4.809  -3.147  0.00  0.00    -0.047 A 
ATOM      6  C4  UNL d   1       4.119   4.902  -4.469  0.00  0.00    -0.004 A 
ENDROOT
TORSDOF 0
ENDMDL
