MODEL 1
REMARK minimizedAffinity 5.24175835
REMARK minimizedRMSD -1
REMARK  0 active torsions:
REMARK  status: ('A' for Active; 'I' for Inactive)
ROOT
ATOM      1  C   UNL d   1       2.937   2.820  -0.980  0.00  0.00     0.172 C 
ATOM      2  N   UNL d   1       3.057   1.592  -0.230  0.00  0.00    -0.070 N 
ATOM      3  C1  UNL d   1       3.772   0.489  -0.613  0.00  0.00    -0.004 A 
ATOM      4  C2  UNL d   1       3.635  -0.466   0.371  0.00  0.00    -0.047 A 
ATOM      5  C3  UNL d   1       2.808   0.082   1.380  0.00  0.00    -0.047 A 
ATOM      6  C4  UNL d   1       2.464   1.357   0.982  0.00  0.00    -0.004 A 
ENDROOT
TORSDOF 0
ENDMDL
