MODEL 1
REMARK minimizedAffinity 6.13362646
REMARK minimizedRMSD -1
REMARK  0 active torsions:
REMARK  status: ('A' for Active; 'I' for Inactive)
ROOT
ATOM      1  C   UNL d   1      -2.546  -3.508   0.147  0.00  0.00    -0.002 A 
ATOM      2  C1  UNL d   1      -2.916  -2.314   0.751  0.00  0.00     0.010 A 
ATOM      3  C2  UNL d   1      -2.620  -1.091   0.147  0.00  0.00     0.041 A 
ATOM      4  C3  UNL d   1      -1.941  -1.087  -1.087  0.00  0.00    -0.075 A 
ATOM      5  S   UNL d   1      -1.473   0.291  -2.011  0.00  0.00     0.015 SA
ATOM      6  C4  UNL d   1      -0.772  -0.671  -3.231  0.00  0.00     0.022 A 
ATOM      7  C5  UNL d   1      -0.883  -2.014  -2.955  0.00  0.00     0.026 A 
ATOM      8  C6  UNL d   1      -1.558  -2.275  -1.715  0.00  0.00    -0.082 A 
ATOM      9  C7  UNL d   1      -1.873  -3.499  -1.077  0.00  0.00     0.045 A 
ENDROOT
TORSDOF 0
ENDMDL
