MODEL 1
REMARK minimizedAffinity 5.68345451
REMARK minimizedRMSD -1
REMARK  0 active torsions:
REMARK  status: ('A' for Active; 'I' for Inactive)
ROOT
ATOM      1  C   UNL d   1      -1.774  -3.656   0.051  0.00  0.00    -0.002 A 
ATOM      2  C1  UNL d   1      -2.128  -3.899  -1.268  0.00  0.00     0.010 A 
ATOM      3  C2  UNL d   1      -1.945  -2.918  -2.245  0.00  0.00     0.041 A 
ATOM      4  C3  UNL d   1      -1.394  -1.677  -1.869  0.00  0.00    -0.075 A 
ATOM      5  S   UNL d   1      -1.078  -0.327  -2.894  0.00  0.00     0.015 SA
ATOM      6  C4  UNL d   1      -0.465   0.603  -1.604  0.00  0.00     0.022 A 
ATOM      7  C5  UNL d   1      -0.493  -0.083  -0.414  0.00  0.00     0.026 A 
ATOM      8  C6  UNL d   1      -1.028  -1.409  -0.547  0.00  0.00    -0.082 A 
ATOM      9  C7  UNL d   1      -1.227  -2.424   0.420  0.00  0.00     0.045 A 
ENDROOT
TORSDOF 0
ENDMDL
