MODEL 1
REMARK minimizedAffinity 5.63370466
REMARK minimizedRMSD -1
REMARK  0 active torsions:
REMARK  status: ('A' for Active; 'I' for Inactive)
ROOT
ATOM      1  C   UNL d   1      -3.402  -3.358  -0.142  0.00  0.00    -0.002 A 
ATOM      2  C1  UNL d   1      -2.549  -3.827  -1.131  0.00  0.00     0.010 A 
ATOM      3  C2  UNL d   1      -1.444  -3.074  -1.532  0.00  0.00     0.041 A 
ATOM      4  C3  UNL d   1      -1.207  -1.830  -0.915  0.00  0.00    -0.075 A 
ATOM      5  S   UNL d   1       0.085  -0.736  -1.243  0.00  0.00     0.015 SA
ATOM      6  C4  UNL d   1      -0.465   0.380  -0.078  0.00  0.00     0.022 A 
ATOM      7  C5  UNL d   1      -1.605  -0.055   0.555  0.00  0.00     0.026 A 
ATOM      8  C6  UNL d   1      -2.051  -1.336   0.084  0.00  0.00    -0.082 A 
ATOM      9  C7  UNL d   1      -3.164  -2.123   0.467  0.00  0.00     0.045 A 
ENDROOT
TORSDOF 0
ENDMDL
