MODEL 1
REMARK minimizedAffinity 6.7955761
REMARK minimizedRMSD -1
REMARK  0 active torsions:
REMARK  status: ('A' for Active; 'I' for Inactive)
ROOT
ATOM      1  C   UNL d   1      -3.316  -2.641  -0.803  0.00  0.00    -0.002 A 
ATOM      2  C1  UNL d   1      -3.641  -1.920   0.337  0.00  0.00     0.010 A 
ATOM      3  C2  UNL d   1      -2.803  -0.902   0.796  0.00  0.00     0.041 A 
ATOM      4  C3  UNL d   1      -1.622  -0.617   0.083  0.00  0.00    -0.075 A 
ATOM      5  S   UNL d   1      -0.446   0.586   0.458  0.00  0.00     0.015 SA
ATOM      6  C4  UNL d   1       0.516   0.172  -0.887  0.00  0.00     0.022 A 
ATOM      7  C5  UNL d   1      -0.032  -0.857  -1.615  0.00  0.00     0.026 A 
ATOM      8  C6  UNL d   1      -1.274  -1.329  -1.069  0.00  0.00    -0.082 A 
ATOM      9  C7  UNL d   1      -2.143  -2.355  -1.509  0.00  0.00     0.045 A 
ENDROOT
TORSDOF 0
ENDMDL
