MODEL 1
REMARK minimizedAffinity -3.75535011
REMARK minimizedRMSD -1
REMARK  0 active torsions:
REMARK  status: ('A' for Active; 'I' for Inactive)
ROOT
ATOM      1  C   UNL d   1      -4.574   1.739   4.847  0.00  0.00    -0.002 A 
ATOM      2  C1  UNL d   1      -5.104   2.301   5.999  0.00  0.00     0.010 A 
ATOM      3  C2  UNL d   1      -5.567   3.618   6.000  0.00  0.00     0.041 A 
ATOM      4  C3  UNL d   1      -5.490   4.367   4.809  0.00  0.00    -0.075 A 
ATOM      5  S   UNL d   1      -5.998   5.998   4.574  0.00  0.00     0.015 SA
ATOM      6  C4  UNL d   1      -5.523   5.988   2.937  0.00  0.00     0.022 A 
ATOM      7  C5  UNL d   1      -4.989   4.778   2.562  0.00  0.00     0.026 A 
ATOM      8  C6  UNL d   1      -4.961   3.824   3.635  0.00  0.00    -0.082 A 
ATOM      9  C7  UNL d   1      -4.499   2.486   3.668  0.00  0.00     0.045 A 
ENDROOT
TORSDOF 0
ENDMDL
