MODEL 1
REMARK minimizedAffinity -3.5923121
REMARK minimizedRMSD -1
REMARK  0 active torsions:
REMARK  status: ('A' for Active; 'I' for Inactive)
ROOT
ATOM      1  C   UNL d   1      -5.819   3.621   5.904  0.00  0.00    -0.002 A 
ATOM      2  C1  UNL d   1      -5.998   4.993   6.000  0.00  0.00     0.010 A 
ATOM      3  C2  UNL d   1      -5.954   5.797   4.859  0.00  0.00     0.041 A 
ATOM      4  C3  UNL d   1      -5.727   5.191   3.607  0.00  0.00    -0.075 A 
ATOM      5  S   UNL d   1      -5.633   5.975   2.075  0.00  0.00     0.015 SA
ATOM      6  C4  UNL d   1      -5.354   4.507   1.257  0.00  0.00     0.022 A 
ATOM      7  C5  UNL d   1      -5.330   3.434   2.116  0.00  0.00     0.026 A 
ATOM      8  C6  UNL d   1      -5.544   3.811   3.485  0.00  0.00    -0.082 A 
ATOM      9  C7  UNL d   1      -5.594   3.024   4.661  0.00  0.00     0.045 A 
ENDROOT
TORSDOF 0
ENDMDL
