MODEL 1
REMARK minimizedAffinity -2.15049624
REMARK minimizedRMSD -1
REMARK  0 active torsions:
REMARK  status: ('A' for Active; 'I' for Inactive)
ROOT
ATOM      1  C   UNL d   1      -4.887   4.960   1.565  0.00  0.00    -0.002 A 
ATOM      2  C1  UNL d   1      -5.604   5.998   2.144  0.00  0.00     0.010 A 
ATOM      3  C2  UNL d   1      -5.872   5.998   3.514  0.00  0.00     0.041 A 
ATOM      4  C3  UNL d   1      -5.400   4.929   4.301  0.00  0.00    -0.075 A 
ATOM      5  S   UNL d   1      -5.607   4.719   6.000  0.00  0.00     0.015 SA
ATOM      6  C4  UNL d   1      -4.748   3.247   5.998  0.00  0.00     0.022 A 
ATOM      7  C5  UNL d   1      -4.307   2.909   4.740  0.00  0.00     0.026 A 
ATOM      8  C6  UNL d   1      -4.675   3.873   3.742  0.00  0.00    -0.082 A 
ATOM      9  C7  UNL d   1      -4.421   3.901   2.349  0.00  0.00     0.045 A 
ENDROOT
TORSDOF 0
ENDMDL
