MODEL 1
REMARK minimizedAffinity -1.01467133
REMARK minimizedRMSD -1
REMARK  0 active torsions:
REMARK  status: ('A' for Active; 'I' for Inactive)
ROOT
ATOM      1  C   UNL d   1      -5.275   4.296   1.278  0.00  0.00    -0.002 A 
ATOM      2  C1  UNL d   1      -5.749   5.573   1.543  0.00  0.00     0.010 A 
ATOM      3  C2  UNL d   1      -6.000   5.979   2.856  0.00  0.00     0.041 A 
ATOM      4  C3  UNL d   1      -5.763   5.071   3.907  0.00  0.00    -0.075 A 
ATOM      5  S   UNL d   1      -5.998   5.348   5.592  0.00  0.00     0.015 SA
ATOM      6  C4  UNL d   1      -5.475   3.778   5.999  0.00  0.00     0.022 A 
ATOM      7  C5  UNL d   1      -5.126   3.047   4.889  0.00  0.00     0.026 A 
ATOM      8  C6  UNL d   1      -5.286   3.780   3.664  0.00  0.00    -0.082 A 
ATOM      9  C7  UNL d   1      -5.042   3.398   2.323  0.00  0.00     0.045 A 
ENDROOT
TORSDOF 0
ENDMDL
