MODEL 1
REMARK minimizedAffinity 0.0632866994
REMARK minimizedRMSD -1
REMARK  0 active torsions:
REMARK  status: ('A' for Active; 'I' for Inactive)
ROOT
ATOM      1  C   UNL d   1      -5.915   5.448   1.341  0.00  0.00    -0.002 A 
ATOM      2  C1  UNL d   1      -5.919   4.075   1.141  0.00  0.00     0.010 A 
ATOM      3  C2  UNL d   1      -5.940   3.199   2.228  0.00  0.00     0.041 A 
ATOM      4  C3  UNL d   1      -5.960   3.731   3.532  0.00  0.00    -0.075 A 
ATOM      5  S   UNL d   1      -5.990   2.850   5.014  0.00  0.00     0.015 SA
ATOM      6  C4  UNL d   1      -6.000   4.275   5.948  0.00  0.00     0.022 A 
ATOM      7  C5  UNL d   1      -5.981   5.405   5.164  0.00  0.00     0.026 A 
ATOM      8  C6  UNL d   1      -5.959   5.110   3.759  0.00  0.00    -0.082 A 
ATOM      9  C7  UNL d   1      -5.936   5.972   2.637  0.00  0.00     0.045 A 
ENDROOT
TORSDOF 0
ENDMDL
