MODEL 1
REMARK minimizedAffinity 2.46572304
REMARK minimizedRMSD -1
REMARK  0 active torsions:
REMARK  status: ('A' for Active; 'I' for Inactive)
ROOT
ATOM      1  C   UNL d   1      -4.884   2.344   4.841  0.00  0.00    -0.002 A 
ATOM      2  C1  UNL d   1      -5.624   3.323   5.489  0.00  0.00     0.010 A 
ATOM      3  C2  UNL d   1      -6.000   4.489   4.819  0.00  0.00     0.041 A 
ATOM      4  C3  UNL d   1      -5.618   4.655   3.473  0.00  0.00    -0.075 A 
ATOM      5  S   UNL d   1      -5.966   6.000   2.452  0.00  0.00     0.015 SA
ATOM      6  C4  UNL d   1      -5.142   5.306   1.131  0.00  0.00     0.022 A 
ATOM      7  C5  UNL d   1      -4.608   4.078   1.445  0.00  0.00     0.026 A 
ATOM      8  C6  UNL d   1      -4.874   3.683   2.799  0.00  0.00    -0.082 A 
ATOM      9  C7  UNL d   1      -4.507   2.512   3.506  0.00  0.00     0.045 A 
ENDROOT
TORSDOF 0
ENDMDL
