MODEL 1
REMARK minimizedAffinity -2.23396969
REMARK minimizedRMSD -1
REMARK  0 active torsions:
REMARK  status: ('A' for Active; 'I' for Inactive)
ROOT
ATOM      1  C   UNL d   1      -5.751   3.809   5.846  0.00  0.00    -0.002 A 
ATOM      2  C1  UNL d   1      -5.994   5.175   5.883  0.00  0.00     0.010 A 
ATOM      3  C2  UNL d   1      -5.991   5.928   4.707  0.00  0.00     0.041 A 
ATOM      4  C3  UNL d   1      -5.740   5.280   3.482  0.00  0.00    -0.075 A 
ATOM      5  S   UNL d   1      -5.688   6.000   1.917  0.00  0.00     0.015 SA
ATOM      6  C4  UNL d   1      -5.344   4.511   1.162  0.00  0.00     0.022 A 
ATOM      7  C5  UNL d   1      -5.266   3.480   2.067  0.00  0.00     0.026 A 
ATOM      8  C6  UNL d   1      -5.494   3.906   3.420  0.00  0.00    -0.082 A 
ATOM      9  C7  UNL d   1      -5.502   3.169   4.629  0.00  0.00     0.045 A 
ENDROOT
TORSDOF 0
ENDMDL
