MODEL 1
REMARK minimizedAffinity -3.37148023
REMARK minimizedRMSD -1
REMARK  0 active torsions:
REMARK  status: ('A' for Active; 'I' for Inactive)
ROOT
ATOM      1  C   UNL d   1      -5.966   3.731   5.917  0.00  0.00    -0.002 A 
ATOM      2  C1  UNL d   1      -6.000   5.117   5.994  0.00  0.00     0.010 A 
ATOM      3  C2  UNL d   1      -5.859   5.895   4.843  0.00  0.00     0.041 A 
ATOM      4  C3  UNL d   1      -5.683   5.251   3.602  0.00  0.00    -0.075 A 
ATOM      5  S   UNL d   1      -5.491   6.000   2.061  0.00  0.00     0.015 SA
ATOM      6  C4  UNL d   1      -5.360   4.498   1.265  0.00  0.00     0.022 A 
ATOM      7  C5  UNL d   1      -5.458   3.441   2.139  0.00  0.00     0.026 A 
ATOM      8  C6  UNL d   1      -5.647   3.858   3.500  0.00  0.00    -0.082 A 
ATOM      9  C7  UNL d   1      -5.792   3.097   4.685  0.00  0.00     0.045 A 
ENDROOT
TORSDOF 0
ENDMDL
