MODEL 1
REMARK minimizedAffinity 13.8748436
REMARK minimizedRMSD -1
REMARK  0 active torsions:
REMARK  status: ('A' for Active; 'I' for Inactive)
ROOT
ATOM      1  C   UNL d   1       6.000   1.962   1.124  0.00  0.00     0.020 A 
ATOM      2  C1  UNL d   1       5.996   2.368  -0.210  0.00  0.00     0.020 A 
ATOM      3  C2  UNL d   1       5.992   1.414  -1.230  0.00  0.00     0.034 A 
ATOM      4  C3  UNL d   1       5.992   0.050  -0.918  0.00  0.00     0.017 A 
ATOM      5  C4  UNL d   1       5.995  -0.356   0.421  0.00  0.00     0.017 A 
ATOM      6  C5  UNL d   1       5.999   0.603   1.438  0.00  0.00     0.034 A 
ATOM      7 Cl   UNL d   1       5.995  -2.022   0.884  0.00  0.00    -0.070 Cl
ATOM      8 Cl1  UNL d   1       5.986  -1.074  -2.230  0.00  0.00    -0.070 Cl
ENDROOT
TORSDOF 0
ENDMDL
