MODEL 1
REMARK minimizedAffinity 8.25343704
REMARK minimizedRMSD -1
REMARK  0 active torsions:
REMARK  status: ('A' for Active; 'I' for Inactive)
ROOT
ATOM      1  C   UNL d   1      -0.891  -0.713   2.528  0.00  0.00     0.020 A 
ATOM      2  C1  UNL d   1      -0.284  -1.555   3.459  0.00  0.00     0.020 A 
ATOM      3  C2  UNL d   1       0.685  -2.471   3.045  0.00  0.00     0.034 A 
ATOM      4  C3  UNL d   1       1.050  -2.547   1.696  0.00  0.00     0.017 A 
ATOM      5  C4  UNL d   1       0.440  -1.702   0.762  0.00  0.00     0.017 A 
ATOM      6  C5  UNL d   1      -0.529  -0.787   1.182  0.00  0.00     0.034 A 
ATOM      7 Cl   UNL d   1       0.838  -1.738  -0.920  0.00  0.00    -0.070 Cl
ATOM      8 Cl1  UNL d   1       2.256  -3.703   1.254  0.00  0.00    -0.070 Cl
ENDROOT
TORSDOF 0
ENDMDL
