MODEL 1
REMARK minimizedAffinity 0.350858927
REMARK minimizedRMSD -1
REMARK  0 active torsions:
REMARK  status: ('A' for Active; 'I' for Inactive)
ROOT
ATOM      1  C   UNL d   1      -0.192  -1.318   3.404  0.00  0.00     0.020 A 
ATOM      2  C1  UNL d   1      -0.756  -0.413   2.506  0.00  0.00     0.020 A 
ATOM      3  C2  UNL d   1      -0.460  -0.505   1.144  0.00  0.00     0.034 A 
ATOM      4  C3  UNL d   1       0.403  -1.503   0.677  0.00  0.00     0.017 A 
ATOM      5  C4  UNL d   1       0.968  -2.411   1.579  0.00  0.00     0.017 A 
ATOM      6  C5  UNL d   1       0.669  -2.315   2.942  0.00  0.00     0.034 A 
ATOM      7 Cl   UNL d   1       2.041  -3.670   1.078  0.00  0.00    -0.070 Cl
ATOM      8 Cl1  UNL d   1       0.724  -1.557  -1.020  0.00  0.00    -0.070 Cl
ENDROOT
TORSDOF 0
ENDMDL
