MODEL 1
REMARK minimizedAffinity 1.70571721
REMARK minimizedRMSD -1
REMARK  0 active torsions:
REMARK  status: ('A' for Active; 'I' for Inactive)
ROOT
ATOM      1  C   UNL d   1       5.998   2.082   1.066  0.00  0.00     0.020 A 
ATOM      2  C1  UNL d   1       5.997   1.364   2.261  0.00  0.00     0.020 A 
ATOM      3  C2  UNL d   1       5.998  -0.032   2.237  0.00  0.00     0.034 A 
ATOM      4  C3  UNL d   1       5.998  -0.715   1.015  0.00  0.00     0.017 A 
ATOM      5  C4  UNL d   1       5.999   0.007  -0.184  0.00  0.00     0.017 A 
ATOM      6  C5  UNL d   1       5.999   1.405  -0.154  0.00  0.00     0.034 A 
ATOM      7 Cl   UNL d   1       6.000  -0.765  -1.731  0.00  0.00    -0.070 Cl
ATOM      8 Cl1  UNL d   1       5.999  -2.442   1.060  0.00  0.00    -0.070 Cl
ENDROOT
TORSDOF 0
ENDMDL
