MODEL 1
REMARK minimizedAffinity 14.3853502
REMARK minimizedRMSD -1
REMARK  0 active torsions:
REMARK  status: ('A' for Active; 'I' for Inactive)
ROOT
ATOM      1  C1  DEN d   1      -3.067   3.135   3.625  0.00  0.00     0.130 A 
ATOM      2  C2  DEN d   1      -2.315   3.494   4.824  0.00  0.00    -0.031 A 
ATOM      3  C3  DEN d   1      -2.914   2.778   5.969  0.00  0.00     0.027 A 
ATOM      4  C4  DEN d   1      -4.918   1.154   5.999  0.00  0.00     0.027 A 
ATOM      5  C5  DEN d   1      -5.884   0.550   5.226  0.00  0.00    -0.003 A 
ATOM      6  C6  DEN d   1      -6.000   0.789   3.882  0.00  0.00     0.001 A 
ATOM      7  C7  DEN d   1      -5.106   1.620   3.261  0.00  0.00     0.017 A 
ATOM      8  C8  DEN d   1      -4.133   2.240   4.035  0.00  0.00    -0.094 A 
ATOM      9  C9  DEN d   1      -4.025   1.975   5.390  0.00  0.00    -0.072 A 
ENDROOT
TORSDOF 0
ENDMDL
