MODEL 1
REMARK minimizedAffinity 7.86878681
REMARK minimizedRMSD -1
REMARK  0 active torsions:
REMARK  status: ('A' for Active; 'I' for Inactive)
ROOT
ATOM      1  C1  DEN d   1       3.648  -1.028   0.743  0.00  0.00     0.130 A 
ATOM      2  C2  DEN d   1       4.850  -1.855   0.679  0.00  0.00    -0.031 A 
ATOM      3  C3  DEN d   1       4.429  -3.269   0.618  0.00  0.00     0.027 A 
ATOM      4  C4  DEN d   1       2.044  -4.253   0.613  0.00  0.00     0.027 A 
ATOM      5  C5  DEN d   1       0.703  -3.945   0.666  0.00  0.00    -0.003 A 
ATOM      6  C6  DEN d   1       0.253  -2.657   0.781  0.00  0.00     0.001 A 
ATOM      7  C7  DEN d   1       1.153  -1.624   0.803  0.00  0.00     0.017 A 
ATOM      8  C8  DEN d   1       2.507  -1.926   0.757  0.00  0.00    -0.094 A 
ATOM      9  C9  DEN d   1       2.941  -3.235   0.628  0.00  0.00    -0.072 A 
ENDROOT
TORSDOF 0
ENDMDL
