MODEL 1
REMARK minimizedAffinity 16.6472588
REMARK minimizedRMSD -1
REMARK  0 active torsions:
REMARK  status: ('A' for Active; 'I' for Inactive)
ROOT
ATOM      1  C1  DEN d   1       3.229  -2.626   0.875  0.00  0.00     0.130 A 
ATOM      2  C2  DEN d   1       2.707  -3.818   0.213  0.00  0.00    -0.031 A 
ATOM      3  C3  DEN d   1       1.256  -3.888   0.476  0.00  0.00     0.027 A 
ATOM      4  C4  DEN d   1      -0.226  -2.272   1.835  0.00  0.00     0.027 A 
ATOM      5  C5  DEN d   1      -0.231  -1.123   2.594  0.00  0.00    -0.003 A 
ATOM      6  C6  DEN d   1       0.913  -0.419   2.860  0.00  0.00     0.001 A 
ATOM      7  C7  DEN d   1       2.105  -0.833   2.325  0.00  0.00     0.017 A 
ATOM      8  C8  DEN d   1       2.118  -1.994   1.564  0.00  0.00    -0.094 A 
ATOM      9  C9  DEN d   1       0.949  -2.685   1.296  0.00  0.00    -0.072 A 
ENDROOT
TORSDOF 0
ENDMDL
