MODEL 1
REMARK minimizedAffinity 13.976306
REMARK minimizedRMSD -1
REMARK  0 active torsions:
REMARK  status: ('A' for Active; 'I' for Inactive)
ROOT
ATOM      1  C1  DEN d   1       2.451  -4.646   5.705  0.00  0.00     0.130 A 
ATOM      2  C2  DEN d   1       3.026  -5.964   5.962  0.00  0.00    -0.031 A 
ATOM      3  C3  DEN d   1       4.495  -5.823   5.991  0.00  0.00     0.027 A 
ATOM      4  C4  DEN d   1       5.929  -3.704   5.670  0.00  0.00     0.027 A 
ATOM      5  C5  DEN d   1       5.891  -2.351   5.415  0.00  0.00    -0.003 A 
ATOM      6  C6  DEN d   1       4.715  -1.680   5.206  0.00  0.00     0.001 A 
ATOM      7  C7  DEN d   1       3.525  -2.353   5.294  0.00  0.00     0.017 A 
ATOM      8  C8  DEN d   1       3.556  -3.718   5.544  0.00  0.00    -0.094 A 
ATOM      9  C9  DEN d   1       4.754  -4.376   5.764  0.00  0.00    -0.072 A 
ENDROOT
TORSDOF 0
ENDMDL
