MODEL 1
REMARK minimizedAffinity 14.8311462
REMARK minimizedRMSD -1
REMARK  0 active torsions:
REMARK  status: ('A' for Active; 'I' for Inactive)
ROOT
ATOM      1  C1  DEN d   1       3.238  -2.269   5.430  0.00  0.00     0.130 A 
ATOM      2  C2  DEN d   1       4.356  -1.333   5.518  0.00  0.00    -0.031 A 
ATOM      3  C3  DEN d   1       5.587  -2.114   5.754  0.00  0.00     0.027 A 
ATOM      4  C4  DEN d   1       5.871  -4.667   5.986  0.00  0.00     0.027 A 
ATOM      5  C5  DEN d   1       5.207  -5.873   5.996  0.00  0.00    -0.003 A 
ATOM      6  C6  DEN d   1       3.848  -5.960   5.853  0.00  0.00     0.001 A 
ATOM      7  C7  DEN d   1       3.113  -4.822   5.649  0.00  0.00     0.017 A 
ATOM      8  C8  DEN d   1       3.774  -3.601   5.645  0.00  0.00    -0.094 A 
ATOM      9  C9  DEN d   1       5.150  -3.535   5.779  0.00  0.00    -0.072 A 
ENDROOT
TORSDOF 0
ENDMDL
