MODEL 1
REMARK minimizedAffinity -5.4010067
REMARK minimizedRMSD -1
REMARK  1 active torsions:
REMARK  status: ('A' for Active; 'I' for Inactive)
REMARK    1  A    between atoms: C3_4  and  O_7 
ROOT
ATOM      1  C   UNL d   1       1.113  -0.595  -0.545  0.00  0.00    -0.033 A 
ATOM      2  C1  UNL d   1       0.217   0.247   0.117  0.00  0.00     0.039 A 
ATOM      3  C2  UNL d   1       0.164   0.254   1.512  0.00  0.00    -0.080 A 
ATOM      4  C3  UNL d   1       1.012  -0.584   2.232  0.00  0.00     0.150 A 
ATOM      5  C4  UNL d   1       1.909  -1.422   1.579  0.00  0.00    -0.007 A 
ATOM      6  C5  UNL d   1       1.960  -1.428   0.186  0.00  0.00     0.039 A 
ENDROOT
BRANCH   4   7
ATOM      7  O   UNL d   1       0.993  -0.615   3.595  0.00  0.00    -0.526 OA
ATOM      8  H5  UNL d   1       0.304  -0.005   3.907  0.00  0.00     0.418 HD
ENDBRANCH   4   7
TORSDOF 1
ENDMDL
