MODEL 1
REMARK minimizedAffinity 0.139323011
REMARK minimizedRMSD -1
REMARK  1 active torsions:
REMARK  status: ('A' for Active; 'I' for Inactive)
REMARK    1  A    between atoms: C3_4  and  O_7 
ROOT
ATOM      1  C   UNL d   1      -0.405   0.041   2.434  0.00  0.00    -0.033 A 
ATOM      2  C1  UNL d   1      -0.432   0.807   1.267  0.00  0.00     0.039 A 
ATOM      3  C2  UNL d   1       0.264   0.381   0.134  0.00  0.00    -0.080 A 
ATOM      4  C3  UNL d   1       0.981  -0.811   0.180  0.00  0.00     0.150 A 
ATOM      5  C4  UNL d   1       1.009  -1.582   1.338  0.00  0.00    -0.007 A 
ATOM      6  C5  UNL d   1       0.314  -1.154   2.469  0.00  0.00     0.039 A 
ENDROOT
BRANCH   4   7
ATOM      7  O   UNL d   1       1.680  -1.265  -0.899  0.00  0.00    -0.526 OA
ATOM      8  H5  UNL d   1       1.593  -0.616  -1.617  0.00  0.00     0.418 HD
ENDBRANCH   4   7
TORSDOF 1
ENDMDL
