MODEL 1
REMARK minimizedAffinity -2.69249344
REMARK minimizedRMSD -1
REMARK  1 active torsions:
REMARK  status: ('A' for Active; 'I' for Inactive)
REMARK    1  A    between atoms: C3_4  and  O_7 
ROOT
ATOM      1  C   UNL d   1      -0.148   0.702  -1.399  0.00  0.00    -0.033 A 
ATOM      2  C1  UNL d   1      -0.561   1.452  -0.297  0.00  0.00     0.039 A 
ATOM      3  C2  UNL d   1      -0.385   0.954   0.995  0.00  0.00    -0.080 A 
ATOM      4  C3  UNL d   1       0.206  -0.295   1.171  0.00  0.00     0.150 A 
ATOM      5  C4  UNL d   1       0.624  -1.046   0.078  0.00  0.00    -0.007 A 
ATOM      6  C5  UNL d   1       0.446  -0.547  -1.212  0.00  0.00     0.039 A 
ENDROOT
BRANCH   4   7
ATOM      7  O   UNL d   1       0.395  -0.825   2.413  0.00  0.00    -0.526 OA
ATOM      8  H5  UNL d   1       0.033  -0.207   3.070  0.00  0.00     0.418 HD
ENDBRANCH   4   7
TORSDOF 1
ENDMDL
