MODEL 1
REMARK minimizedAffinity -4.43610382
REMARK minimizedRMSD -1
REMARK  1 active torsions:
REMARK  status: ('A' for Active; 'I' for Inactive)
REMARK    1  A    between atoms: C3_4  and  O_7 
ROOT
ATOM      1  C   UNL d   1      -0.738   0.386   0.196  0.00  0.00    -0.033 A 
ATOM      2  C1  UNL d   1      -1.368  -0.355   1.198  0.00  0.00     0.039 A 
ATOM      3  C2  UNL d   1      -0.613  -0.934   2.220  0.00  0.00    -0.080 A 
ATOM      4  C3  UNL d   1       0.769  -0.764   2.229  0.00  0.00     0.150 A 
ATOM      5  C4  UNL d   1       1.402  -0.023   1.236  0.00  0.00    -0.007 A 
ATOM      6  C5  UNL d   1       0.647   0.553   0.216  0.00  0.00     0.039 A 
ENDROOT
BRANCH   4   7
ATOM      7  O   UNL d   1       1.548  -1.314   3.203  0.00  0.00    -0.526 OA
ATOM      8  H5  UNL d   1       0.977  -1.821   3.804  0.00  0.00     0.418 HD
ENDBRANCH   4   7
TORSDOF 1
ENDMDL
