MODEL 1
REMARK minimizedAffinity -2.01455021
REMARK minimizedRMSD -1
REMARK  1 active torsions:
REMARK  status: ('A' for Active; 'I' for Inactive)
REMARK    1  A    between atoms: C3_4  and  O_7 
ROOT
ATOM      1  C   UNL d   1       0.387  -0.978   2.487  0.00  0.00    -0.033 A 
ATOM      2  C1  UNL d   1      -0.852  -0.403   2.199  0.00  0.00     0.039 A 
ATOM      3  C2  UNL d   1      -1.088   0.158   0.942  0.00  0.00    -0.080 A 
ATOM      4  C3  UNL d   1      -0.079   0.137  -0.016  0.00  0.00     0.150 A 
ATOM      5  C4  UNL d   1       1.157  -0.438   0.263  0.00  0.00    -0.007 A 
ATOM      6  C5  UNL d   1       1.391  -0.997   1.519  0.00  0.00     0.039 A 
ENDROOT
BRANCH   4   7
ATOM      7  O   UNL d   1      -0.261   0.676  -1.255  0.00  0.00    -0.526 OA
ATOM      8  H5  UNL d   1      -1.152   1.062  -1.295  0.00  0.00     0.418 HD
ENDBRANCH   4   7
TORSDOF 1
ENDMDL
