MODEL 1
REMARK minimizedAffinity -4.75206566
REMARK minimizedRMSD -1
REMARK  1 active torsions:
REMARK  status: ('A' for Active; 'I' for Inactive)
REMARK    1  A    between atoms: C3_4  and  O_7 
ROOT
ATOM      1  C   UNL d   1      -0.279  -0.573  -0.575  0.00  0.00    -0.033 A 
ATOM      2  C1  UNL d   1       1.103  -0.773  -0.551  0.00  0.00     0.039 A 
ATOM      3  C2  UNL d   1       1.783  -0.807   0.668  0.00  0.00    -0.080 A 
ATOM      4  C3  UNL d   1       1.071  -0.642   1.853  0.00  0.00     0.150 A 
ATOM      5  C4  UNL d   1      -0.306  -0.447   1.836  0.00  0.00    -0.007 A 
ATOM      6  C5  UNL d   1      -0.984  -0.412   0.618  0.00  0.00     0.039 A 
ENDROOT
BRANCH   4   7
ATOM      7  O   UNL d   1       1.693  -0.664   3.066  0.00  0.00    -0.526 OA
ATOM      8  H5  UNL d   1       2.647  -0.778   2.921  0.00  0.00     0.418 HD
ENDBRANCH   4   7
TORSDOF 1
ENDMDL
