MODEL 1
REMARK minimizedAffinity 0.298720986
REMARK minimizedRMSD -1
REMARK  1 active torsions:
REMARK  status: ('A' for Active; 'I' for Inactive)
REMARK    1  A    between atoms: C1_2  and  C2_3 
ROOT
ATOM      1  C2  UNL d   1       2.273   1.067  -0.904  0.00  0.00    -0.081 A 
ATOM      2  C3  UNL d   1       1.211   0.891  -0.009  0.00  0.00     0.006 A 
ATOM      3  C4  UNL d   1       0.193  -0.024  -0.290  0.00  0.00     0.002 A 
ATOM      4  C5  UNL d   1       0.225  -0.783  -1.464  0.00  0.00    -0.080 A 
ATOM      5  C6  UNL d   1      -0.845  -1.790  -1.763  0.00  0.00     0.076 C 
ATOM      6  C7  UNL d   1       1.277  -0.594  -2.366  0.00  0.00     0.002 A 
ATOM      7  C8  UNL d   1       2.295   0.321  -2.087  0.00  0.00     0.006 A 
ENDROOT
BRANCH   1   8
ATOM      8  C1  UNL d   1       3.406   2.006  -0.574  0.00  0.00     0.054 C 
ATOM      9  C   UNL d   1       4.747   1.287  -0.602  0.00  0.00     0.018 C 
ENDBRANCH   1   8
TORSDOF 1
ENDMDL
