MODEL 1
REMARK minimizedAffinity -3.69421482
REMARK minimizedRMSD -1
REMARK  1 active torsions:
REMARK  status: ('A' for Active; 'I' for Inactive)
REMARK    1  A    between atoms: C1_2  and  C2_3 
ROOT
ATOM      1  C2  UNL d   1      -1.230   0.100   0.356  0.00  0.00    -0.081 A 
ATOM      2  C3  UNL d   1      -0.091   0.587   1.009  0.00  0.00     0.006 A 
ATOM      3  C4  UNL d   1       1.128   0.677   0.333  0.00  0.00     0.002 A 
ATOM      4  C5  UNL d   1       1.227   0.290  -1.007  0.00  0.00    -0.080 A 
ATOM      5  C6  UNL d   1       2.523   0.410  -1.753  0.00  0.00     0.076 C 
ATOM      6  C7  UNL d   1       0.093  -0.212  -1.655  0.00  0.00     0.002 A 
ATOM      7  C8  UNL d   1      -1.126  -0.303  -0.979  0.00  0.00     0.006 A 
ENDROOT
BRANCH   1   8
ATOM      8  C1  UNL d   1      -2.561   0.063   1.063  0.00  0.00     0.054 C 
ATOM      9  C   UNL d   1      -2.848  -1.320   1.630  0.00  0.00     0.018 C 
ENDBRANCH   1   8
TORSDOF 1
ENDMDL
