MODEL 1
REMARK minimizedAffinity -2.64668274
REMARK minimizedRMSD -1
REMARK  1 active torsions:
REMARK  status: ('A' for Active; 'I' for Inactive)
REMARK    1  A    between atoms: C1_2  and  C2_3 
ROOT
ATOM      1  C2  UNL d   1      -1.043  -0.669   0.810  0.00  0.00    -0.081 A 
ATOM      2  C3  UNL d   1      -0.612   0.583   0.354  0.00  0.00     0.006 A 
ATOM      3  C4  UNL d   1       0.337   0.677  -0.666  0.00  0.00     0.002 A 
ATOM      4  C5  UNL d   1       0.865  -0.478  -1.252  0.00  0.00    -0.080 A 
ATOM      5  C6  UNL d   1       1.862  -0.391  -2.369  0.00  0.00     0.076 C 
ATOM      6  C7  UNL d   1       0.448  -1.729  -0.785  0.00  0.00     0.002 A 
ATOM      7  C8  UNL d   1      -0.501  -1.823   0.235  0.00  0.00     0.006 A 
ENDROOT
BRANCH   1   8
ATOM      8  C1  UNL d   1      -2.115  -0.773   1.866  0.00  0.00     0.054 C 
ATOM      9  C   UNL d   1      -3.154   0.328   1.710  0.00  0.00     0.018 C 
ENDBRANCH   1   8
TORSDOF 1
ENDMDL
