MODEL 1
REMARK minimizedAffinity -1.7345041
REMARK minimizedRMSD -1
REMARK  1 active torsions:
REMARK  status: ('A' for Active; 'I' for Inactive)
REMARK    1  A    between atoms: C1_2  and  C2_3 
ROOT
ATOM      1  C2  UNL d   1      -1.551   0.333   1.505  0.00  0.00    -0.081 A 
ATOM      2  C3  UNL d   1      -2.889   0.668   1.263  0.00  0.00     0.006 A 
ATOM      3  C4  UNL d   1      -3.596   1.460   2.171  0.00  0.00     0.002 A 
ATOM      4  C5  UNL d   1      -2.975   1.938   3.330  0.00  0.00    -0.080 A 
ATOM      5  C6  UNL d   1      -3.713   2.815   4.297  0.00  0.00     0.076 C 
ATOM      6  C7  UNL d   1      -1.643   1.589   3.580  0.00  0.00     0.002 A 
ATOM      7  C8  UNL d   1      -0.936   0.796   2.673  0.00  0.00     0.006 A 
ENDROOT
BRANCH   1   8
ATOM      8  C1  UNL d   1      -0.767  -0.467   0.496  0.00  0.00     0.054 C 
ATOM      9  C   UNL d   1      -0.718  -1.940   0.877  0.00  0.00     0.018 C 
ENDBRANCH   1   8
TORSDOF 1
ENDMDL
