MODEL 1
REMARK minimizedAffinity 1.86425126
REMARK minimizedRMSD -1
REMARK  1 active torsions:
REMARK  status: ('A' for Active; 'I' for Inactive)
REMARK    1  A    between atoms: C1_2  and  C2_3 
ROOT
ATOM      1  C2  UNL d   1      -0.105   0.466   1.552  0.00  0.00    -0.081 A 
ATOM      2  C3  UNL d   1       0.051   0.515   2.943  0.00  0.00     0.006 A 
ATOM      3  C4  UNL d   1       1.005   1.357   3.519  0.00  0.00     0.002 A 
ATOM      4  C5  UNL d   1       1.813   2.168   2.716  0.00  0.00    -0.080 A 
ATOM      5  C6  UNL d   1       2.820   3.099   3.324  0.00  0.00     0.076 C 
ATOM      6  C7  UNL d   1       1.670   2.106   1.326  0.00  0.00     0.002 A 
ATOM      7  C8  UNL d   1       0.717   1.264   0.749  0.00  0.00     0.006 A 
ENDROOT
BRANCH   1   8
ATOM      8  C1  UNL d   1      -1.177  -0.393   0.931  0.00  0.00     0.054 C 
ATOM      9  C   UNL d   1      -0.580  -1.620   0.256  0.00  0.00     0.018 C 
ENDBRANCH   1   8
TORSDOF 1
ENDMDL
