MODEL 1
REMARK minimizedAffinity -5.50497198
REMARK minimizedRMSD -1
REMARK  1 active torsions:
REMARK  status: ('A' for Active; 'I' for Inactive)
REMARK    1  A    between atoms: C1_2  and  C2_3 
ROOT
ATOM      1  C2  UNL d   1       0.164   0.870   2.952  0.00  0.00    -0.081 A 
ATOM      2  C3  UNL d   1      -0.253   0.055   1.892  0.00  0.00     0.006 A 
ATOM      3  C4  UNL d   1      -1.601  -0.005   1.533  0.00  0.00     0.002 A 
ATOM      4  C5  UNL d   1      -2.554   0.754   2.222  0.00  0.00    -0.080 A 
ATOM      5  C6  UNL d   1      -4.000   0.722   1.827  0.00  0.00     0.076 C 
ATOM      6  C7  UNL d   1      -2.140   1.555   3.292  0.00  0.00     0.002 A 
ATOM      7  C8  UNL d   1      -0.791   1.615   3.651  0.00  0.00     0.006 A 
ENDROOT
BRANCH   1   8
ATOM      8  C1  UNL d   1       1.626   0.987   3.299  0.00  0.00     0.054 C 
ATOM      9  C   UNL d   1       2.015   2.431   3.580  0.00  0.00     0.018 C 
ENDBRANCH   1   8
TORSDOF 1
ENDMDL
