MODEL 1
REMARK minimizedAffinity -2.02891564
REMARK minimizedRMSD -1
REMARK  1 active torsions:
REMARK  status: ('A' for Active; 'I' for Inactive)
REMARK    1  A    between atoms: C1_2  and  C2_3 
ROOT
ATOM      1  C2  UNL d   1      -2.096   0.459   1.884  0.00  0.00    -0.081 A 
ATOM      2  C3  UNL d   1      -1.827   1.080   3.110  0.00  0.00     0.006 A 
ATOM      3  C4  UNL d   1      -0.510   1.316   3.511  0.00  0.00     0.002 A 
ATOM      4  C5  UNL d   1       0.560   0.942   2.690  0.00  0.00    -0.080 A 
ATOM      5  C6  UNL d   1       1.977   1.217   3.095  0.00  0.00     0.076 C 
ATOM      6  C7  UNL d   1       0.292   0.306   1.473  0.00  0.00     0.002 A 
ATOM      7  C8  UNL d   1      -1.025   0.070   1.072  0.00  0.00     0.006 A 
ENDROOT
BRANCH   1   8
ATOM      8  C1  UNL d   1      -3.516   0.262   1.420  0.00  0.00     0.054 C 
ATOM      9  C   UNL d   1      -4.390   1.452   1.792  0.00  0.00     0.018 C 
ENDBRANCH   1   8
TORSDOF 1
ENDMDL
