MODEL 1
REMARK minimizedAffinity -4.79129839
REMARK minimizedRMSD -1
REMARK  1 active torsions:
REMARK  status: ('A' for Active; 'I' for Inactive)
REMARK    1  A    between atoms: C1_2  and  C2_3 
ROOT
ATOM      1  C2  UNL d   1       0.307   0.749   1.092  0.00  0.00    -0.081 A 
ATOM      2  C3  UNL d   1       0.329   0.777   2.492  0.00  0.00     0.006 A 
ATOM      3  C4  UNL d   1       1.147   1.685   3.169  0.00  0.00     0.002 A 
ATOM      4  C5  UNL d   1       1.949   2.584   2.459  0.00  0.00    -0.080 A 
ATOM      5  C6  UNL d   1       2.809   3.584   3.173  0.00  0.00     0.076 C 
ATOM      6  C7  UNL d   1       1.940   2.544   1.060  0.00  0.00     0.002 A 
ATOM      7  C8  UNL d   1       1.123   1.636   0.383  0.00  0.00     0.006 A 
ENDROOT
BRANCH   1   8
ATOM      8  C1  UNL d   1      -0.622  -0.185   0.359  0.00  0.00     0.054 C 
ATOM      9  C   UNL d   1      -0.142  -0.441  -1.062  0.00  0.00     0.018 C 
ENDBRANCH   1   8
TORSDOF 1
ENDMDL
