MODEL 1
REMARK minimizedAffinity 14.7578344
REMARK minimizedRMSD -1
REMARK  0 active torsions:
REMARK  status: ('A' for Active; 'I' for Inactive)
ROOT
ATOM      1  C1  DEN d   1       3.402  -0.819   0.444  0.00  0.00     0.130 A 
ATOM      2  C2  DEN d   1       2.264  -1.206  -0.385  0.00  0.00    -0.031 A 
ATOM      3  C3  DEN d   1       2.241  -0.325  -1.569  0.00  0.00     0.027 A 
ATOM      4  C4  DEN d   1       3.853   1.588  -2.200  0.00  0.00     0.027 A 
ATOM      5  C5  DEN d   1       4.965   2.296  -1.801  0.00  0.00    -0.003 A 
ATOM      6  C6  DEN d   1       5.609   2.040  -0.620  0.00  0.00     0.001 A 
ATOM      7  C7  DEN d   1       5.172   1.020   0.184  0.00  0.00     0.017 A 
ATOM      8  C8  DEN d   1       4.047   0.307  -0.207  0.00  0.00    -0.094 A 
ATOM      9  C9  DEN d   1       3.417   0.573  -1.411  0.00  0.00    -0.072 A 
ENDROOT
TORSDOF 0
ENDMDL
