MODEL 1
REMARK minimizedAffinity 12.6796007
REMARK minimizedRMSD -1
REMARK  0 active torsions:
REMARK  status: ('A' for Active; 'I' for Inactive)
ROOT
ATOM      1  C1  DEN d   1      -0.004   1.243   4.980  0.00  0.00     0.130 A 
ATOM      2  C2  DEN d   1       0.751   0.136   4.399  0.00  0.00    -0.031 A 
ATOM      3  C3  DEN d   1       1.614   0.683   3.332  0.00  0.00     0.027 A 
ATOM      4  C4  DEN d   1       1.856   3.123   2.531  0.00  0.00     0.027 A 
ATOM      5  C5  DEN d   1       1.412   4.414   2.715  0.00  0.00    -0.003 A 
ATOM      6  C6  DEN d   1       0.448   4.730   3.635  0.00  0.00     0.001 A 
ATOM      7  C7  DEN d   1      -0.071   3.750   4.439  0.00  0.00     0.017 A 
ATOM      8  C8  DEN d   1       0.366   2.445   4.255  0.00  0.00    -0.094 A 
ATOM      9  C9  DEN d   1       1.350   2.147   3.328  0.00  0.00    -0.072 A 
ENDROOT
TORSDOF 0
ENDMDL
