MODEL 1
REMARK minimizedAffinity 2.02758169
REMARK minimizedRMSD -1
REMARK  0 active torsions:
REMARK  status: ('A' for Active; 'I' for Inactive)
ROOT
ATOM      1  C1  DEN d   1      -0.475  -5.750   5.949  0.00  0.00     0.130 A 
ATOM      2  C2  DEN d   1      -1.693  -5.810   5.146  0.00  0.00    -0.031 A 
ATOM      3  C3  DEN d   1      -1.683  -4.665   4.214  0.00  0.00     0.027 A 
ATOM      4  C4  DEN d   1       0.095  -2.818   3.933  0.00  0.00     0.027 A 
ATOM      5  C5  DEN d   1       1.300  -2.339   4.399  0.00  0.00    -0.003 A 
ATOM      6  C6  DEN d   1       1.976  -2.940   5.428  0.00  0.00     0.001 A 
ATOM      7  C7  DEN d   1       1.473  -4.080   5.996  0.00  0.00     0.017 A 
ATOM      8  C8  DEN d   1       0.255  -4.565   5.537  0.00  0.00    -0.094 A 
ATOM      9  C9  DEN d   1      -0.407  -3.950   4.487  0.00  0.00    -0.072 A 
ENDROOT
TORSDOF 0
ENDMDL
