MODEL 1
REMARK minimizedAffinity 3.15952706
REMARK minimizedRMSD -1
REMARK  0 active torsions:
REMARK  status: ('A' for Active; 'I' for Inactive)
ROOT
ATOM      1  C1  DEN d   1       1.467  -2.134   4.761  0.00  0.00     0.130 A 
ATOM      2  C2  DEN d   1       0.418  -1.255   4.251  0.00  0.00    -0.031 A 
ATOM      3  C3  DEN d   1      -0.870  -1.969   4.362  0.00  0.00     0.027 A 
ATOM      4  C4  DEN d   1      -1.340  -4.336   5.272  0.00  0.00     0.027 A 
ATOM      5  C5  DEN d   1      -0.765  -5.468   5.806  0.00  0.00    -0.003 A 
ATOM      6  C6  DEN d   1       0.587  -5.580   5.996  0.00  0.00     0.001 A 
ATOM      7  C7  DEN d   1       1.405  -4.524   5.691  0.00  0.00     0.017 A 
ATOM      8  C8  DEN d   1       0.834  -3.382   5.145  0.00  0.00    -0.094 A 
ATOM      9  C9  DEN d   1      -0.537  -3.284   4.972  0.00  0.00    -0.072 A 
ENDROOT
TORSDOF 0
ENDMDL
