MODEL 1
REMARK minimizedAffinity 6.18960476
REMARK minimizedRMSD -1
REMARK  0 active torsions:
REMARK  status: ('A' for Active; 'I' for Inactive)
ROOT
ATOM      1  C1  DEN d   1      -3.621   5.997   0.312  0.00  0.00     0.130 A 
ATOM      2  C2  DEN d   1      -4.921   5.956  -0.352  0.00  0.00    -0.031 A 
ATOM      3  C3  DEN d   1      -5.966   5.939   0.691  0.00  0.00     0.027 A 
ATOM      4  C4  DEN d   1      -5.699   5.975   3.257  0.00  0.00     0.027 A 
ATOM      5  C5  DEN d   1      -4.788   5.997   4.290  0.00  0.00    -0.003 A 
ATOM      6  C6  DEN d   1      -3.436   5.987   4.072  0.00  0.00     0.001 A 
ATOM      7  C7  DEN d   1      -2.955   5.999   2.790  0.00  0.00     0.017 A 
ATOM      8  C8  DEN d   1      -3.867   5.969   1.743  0.00  0.00    -0.094 A 
ATOM      9  C9  DEN d   1      -5.230   5.992   1.983  0.00  0.00    -0.072 A 
ENDROOT
TORSDOF 0
ENDMDL
