MODEL 1
REMARK minimizedAffinity 5.8054409
REMARK minimizedRMSD -1
REMARK  0 active torsions:
REMARK  status: ('A' for Active; 'I' for Inactive)
ROOT
ATOM      1  C1  DEN d   1      -3.383   5.828   1.066  0.00  0.00     0.130 A 
ATOM      2  C2  DEN d   1      -4.527   5.845   0.157  0.00  0.00    -0.031 A 
ATOM      3  C3  DEN d   1      -5.756   5.912   0.972  0.00  0.00     0.027 A 
ATOM      4  C4  DEN d   1      -5.999   5.996   3.539  0.00  0.00     0.027 A 
ATOM      5  C5  DEN d   1      -5.311   5.993   4.732  0.00  0.00    -0.003 A 
ATOM      6  C6  DEN d   1      -3.946   5.901   4.788  0.00  0.00     0.001 A 
ATOM      7  C7  DEN d   1      -3.221   5.854   3.626  0.00  0.00     0.017 A 
ATOM      8  C8  DEN d   1      -3.908   5.849   2.419  0.00  0.00    -0.094 A 
ATOM      9  C9  DEN d   1      -5.288   5.955   2.384  0.00  0.00    -0.072 A 
ENDROOT
TORSDOF 0
ENDMDL
