MODEL 1
REMARK minimizedAffinity 3.4318347
REMARK minimizedRMSD -1
REMARK  0 active torsions:
REMARK  status: ('A' for Active; 'I' for Inactive)
ROOT
ATOM      1  C1  DEN d   1      -4.688  -0.240  -1.183  0.00  0.00     0.130 A 
ATOM      2  C2  DEN d   1      -5.753   0.577  -0.607  0.00  0.00    -0.031 A 
ATOM      3  C3  DEN d   1      -5.990   1.721  -1.510  0.00  0.00     0.027 A 
ATOM      4  C4  DEN d   1      -4.821   2.302  -3.735  0.00  0.00     0.027 A 
ATOM      5  C5  DEN d   1      -3.845   1.912  -4.625  0.00  0.00    -0.003 A 
ATOM      6  C6  DEN d   1      -3.065   0.805  -4.415  0.00  0.00     0.001 A 
ATOM      7  C7  DEN d   1      -3.278   0.024  -3.310  0.00  0.00     0.017 A 
ATOM      8  C8  DEN d   1      -4.256   0.415  -2.404  0.00  0.00    -0.094 A 
ATOM      9  C9  DEN d   1      -5.042   1.530  -2.640  0.00  0.00    -0.072 A 
ENDROOT
TORSDOF 0
ENDMDL
