MODEL 1
REMARK minimizedAffinity 3.45848274
REMARK minimizedRMSD -1
REMARK  0 active torsions:
REMARK  status: ('A' for Active; 'I' for Inactive)
ROOT
ATOM      1  C1  DEN d   1       3.639   1.876  -0.749  0.00  0.00     0.130 A 
ATOM      2  C2  DEN d   1       4.889   2.533  -1.125  0.00  0.00    -0.031 A 
ATOM      3  C3  DEN d   1       5.996   1.828  -0.449  0.00  0.00     0.027 A 
ATOM      4  C4  DEN d   1       5.898  -0.209   1.131  0.00  0.00     0.027 A 
ATOM      5  C5  DEN d   1       5.060  -1.106   1.756  0.00  0.00    -0.003 A 
ATOM      6  C6  DEN d   1       3.699  -1.051   1.617  0.00  0.00     0.001 A 
ATOM      7  C7  DEN d   1       3.137  -0.107   0.799  0.00  0.00     0.017 A 
ATOM      8  C8  DEN d   1       3.975   0.806   0.172  0.00  0.00    -0.094 A 
ATOM      9  C9  DEN d   1       5.350   0.727   0.315  0.00  0.00    -0.072 A 
ENDROOT
TORSDOF 0
ENDMDL
