MODEL 1
REMARK minimizedAffinity -4.76822424
REMARK minimizedRMSD -1
REMARK  1 active torsions:
REMARK  status: ('A' for Active; 'I' for Inactive)
REMARK    1  A    between atoms: C3_4  and  O_7 
ROOT
ATOM      1  C   UNL d   1      -0.345   0.256  -0.398  0.00  0.00    -0.033 A 
ATOM      2  C1  UNL d   1       0.312   0.803   0.706  0.00  0.00     0.039 A 
ATOM      3  C2  UNL d   1       1.398   0.136   1.276  0.00  0.00    -0.080 A 
ATOM      4  C3  UNL d   1       1.818  -1.075   0.732  0.00  0.00     0.150 A 
ATOM      5  C4  UNL d   1       1.171  -1.624  -0.370  0.00  0.00    -0.007 A 
ATOM      6  C5  UNL d   1       0.086  -0.957  -0.937  0.00  0.00     0.039 A 
ENDROOT
BRANCH   4   7
ATOM      7  O   UNL d   1       2.871  -1.764   1.257  0.00  0.00    -0.526 OA
ATOM      8  H5  UNL d   1       3.201  -1.279   2.031  0.00  0.00     0.418 HD
ENDBRANCH   4   7
TORSDOF 1
ENDMDL
