MODEL 1
REMARK minimizedAffinity -5.0740242
REMARK minimizedRMSD -1
REMARK  1 active torsions:
REMARK  status: ('A' for Active; 'I' for Inactive)
REMARK    1  A    between atoms: C3_4  and  O_7 
ROOT
ATOM      1  C   UNL d   1       0.015  -0.059  -0.455  0.00  0.00    -0.033 A 
ATOM      2  C1  UNL d   1       0.306   0.388   0.835  0.00  0.00     0.039 A 
ATOM      3  C2  UNL d   1       1.441  -0.081   1.499  0.00  0.00    -0.080 A 
ATOM      4  C3  UNL d   1       2.277  -0.994   0.863  0.00  0.00     0.150 A 
ATOM      5  C4  UNL d   1       1.995  -1.441  -0.424  0.00  0.00    -0.007 A 
ATOM      6  C5  UNL d   1       0.861  -0.973  -1.085  0.00  0.00     0.039 A 
ENDROOT
BRANCH   4   7
ATOM      7  O   UNL d   1       3.393  -1.483   1.473  0.00  0.00    -0.526 OA
ATOM      8  H5  UNL d   1       3.445  -1.108   2.368  0.00  0.00     0.418 HD
ENDBRANCH   4   7
TORSDOF 1
ENDMDL
