MODEL 1
REMARK minimizedAffinity -3.4518764
REMARK minimizedRMSD -1
REMARK  1 active torsions:
REMARK  status: ('A' for Active; 'I' for Inactive)
REMARK    1  A    between atoms: C3_4  and  O_7 
ROOT
ATOM      1  C   UNL d   1      -2.869   1.138   1.232  0.00  0.00    -0.033 A 
ATOM      2  C1  UNL d   1      -3.724   0.407   2.059  0.00  0.00     0.039 A 
ATOM      3  C2  UNL d   1      -4.784  -0.315   1.507  0.00  0.00    -0.080 A 
ATOM      4  C3  UNL d   1      -4.976  -0.299   0.128  0.00  0.00     0.150 A 
ATOM      5  C4  UNL d   1      -4.126   0.424  -0.702  0.00  0.00    -0.007 A 
ATOM      6  C5  UNL d   1      -3.069   1.145  -0.148  0.00  0.00     0.039 A 
ENDROOT
BRANCH   4   7
ATOM      7  O   UNL d   1      -5.999  -0.985  -0.457  0.00  0.00    -0.526 OA
ATOM      8  H5  UNL d   1      -6.521  -1.414   0.242  0.00  0.00     0.418 HD
ENDBRANCH   4   7
TORSDOF 1
ENDMDL
