MODEL 1
REMARK minimizedAffinity -4.44977045
REMARK minimizedRMSD -1
REMARK  1 active torsions:
REMARK  status: ('A' for Active; 'I' for Inactive)
REMARK    1  A    between atoms: C3_4  and  O_7 
ROOT
ATOM      1  C   UNL d   1       1.354  -1.363   0.328  0.00  0.00    -0.033 A 
ATOM      2  C1  UNL d   1       2.705  -1.715   0.310  0.00  0.00     0.039 A 
ATOM      3  C2  UNL d   1       3.673  -0.759  -0.005  0.00  0.00    -0.080 A 
ATOM      4  C3  UNL d   1       3.278   0.543  -0.298  0.00  0.00     0.150 A 
ATOM      5  C4  UNL d   1       1.934   0.902  -0.279  0.00  0.00    -0.007 A 
ATOM      6  C5  UNL d   1       0.968  -0.054   0.035  0.00  0.00     0.039 A 
ENDROOT
BRANCH   4   7
ATOM      7  O   UNL d   1       4.186   1.509  -0.616  0.00  0.00    -0.526 OA
ATOM      8  H5  UNL d   1       5.072   1.109  -0.618  0.00  0.00     0.418 HD
ENDBRANCH   4   7
TORSDOF 1
ENDMDL
