MODEL 1
REMARK minimizedAffinity 6.46641779
REMARK minimizedRMSD -1
REMARK  1 active torsions:
REMARK  status: ('A' for Active; 'I' for Inactive)
REMARK    1  A    between atoms: C1_2  and  C2_3 
ROOT
ATOM      1  C2  UNL d   1       0.207  -0.736   3.492  0.00  0.00    -0.081 A 
ATOM      2  C3  UNL d   1      -0.112   0.601   3.758  0.00  0.00     0.006 A 
ATOM      3  C4  UNL d   1      -1.261   1.177   3.210  0.00  0.00     0.002 A 
ATOM      4  C5  UNL d   1      -2.113   0.424   2.395  0.00  0.00    -0.080 A 
ATOM      5  C6  UNL d   1      -3.365   1.022   1.825  0.00  0.00     0.076 C 
ATOM      6  C7  UNL d   1      -1.784  -0.906   2.115  0.00  0.00     0.002 A 
ATOM      7  C8  UNL d   1      -0.635  -1.483   2.662  0.00  0.00     0.006 A 
ENDROOT
BRANCH   1   8
ATOM      8  C1  UNL d   1       1.410  -1.379   4.134  0.00  0.00     0.054 C 
ATOM      9  C   UNL d   1       1.025  -2.641   4.891  0.00  0.00     0.018 C 
ENDBRANCH   1   8
TORSDOF 1
ENDMDL
