MODEL 1
REMARK minimizedAffinity 15.4926195
REMARK minimizedRMSD -1
REMARK  1 active torsions:
REMARK  status: ('A' for Active; 'I' for Inactive)
REMARK    1  A    between atoms: C1_2  and  C2_3 
ROOT
ATOM      1  C2  UNL d   1       0.154  -3.882  -5.577  0.00  0.00    -0.081 A 
ATOM      2  C3  UNL d   1       1.519  -3.582  -5.504  0.00  0.00     0.006 A 
ATOM      3  C4  UNL d   1       1.945  -2.319  -5.086  0.00  0.00     0.002 A 
ATOM      4  C5  UNL d   1       1.014  -1.339  -4.726  0.00  0.00    -0.080 A 
ATOM      5  C6  UNL d   1       1.459   0.011  -4.246  0.00  0.00     0.076 C 
ATOM      6  C7  UNL d   1      -0.350  -1.633  -4.815  0.00  0.00     0.002 A 
ATOM      7  C8  UNL d   1      -0.777  -2.895  -5.234  0.00  0.00     0.006 A 
ENDROOT
BRANCH   1   8
ATOM      8  C1  UNL d   1      -0.308  -5.263  -5.965  0.00  0.00     0.054 C 
ATOM      9  C   UNL d   1      -1.786  -5.458  -5.663  0.00  0.00     0.018 C 
ENDBRANCH   1   8
TORSDOF 1
ENDMDL
