MODEL 1
REMARK minimizedAffinity 9.37203979
REMARK minimizedRMSD -1
REMARK  1 active torsions:
REMARK  status: ('A' for Active; 'I' for Inactive)
REMARK    1  A    between atoms: C1_2  and  C2_3 
ROOT
ATOM      1  C2  UNL d   1       0.358  -0.357   2.928  0.00  0.00    -0.081 A 
ATOM      2  C3  UNL d   1       1.431  -0.398   3.826  0.00  0.00     0.006 A 
ATOM      3  C4  UNL d   1       1.566   0.580   4.814  0.00  0.00     0.002 A 
ATOM      4  C5  UNL d   1       0.627   1.611   4.925  0.00  0.00    -0.080 A 
ATOM      5  C6  UNL d   1       0.744   2.651   5.999  0.00  0.00     0.076 C 
ATOM      6  C7  UNL d   1      -0.435   1.663   4.016  0.00  0.00     0.002 A 
ATOM      7  C8  UNL d   1      -0.571   0.685   3.028  0.00  0.00     0.006 A 
ENDROOT
BRANCH   1   8
ATOM      8  C1  UNL d   1       0.173  -1.446   1.903  0.00  0.00     0.054 C 
ATOM      9  C   UNL d   1       1.097  -1.246   0.710  0.00  0.00     0.018 C 
ENDBRANCH   1   8
TORSDOF 1
ENDMDL
