MODEL 1
REMARK minimizedAffinity 11.1828165
REMARK minimizedRMSD -1
REMARK  1 active torsions:
REMARK  status: ('A' for Active; 'I' for Inactive)
REMARK    1  A    between atoms: C1_2  and  C2_3 
ROOT
ATOM      1  C2  UNL d   1       1.207  -1.974   4.595  0.00  0.00    -0.081 A 
ATOM      2  C3  UNL d   1       0.398  -2.151   3.466  0.00  0.00     0.006 A 
ATOM      3  C4  UNL d   1       0.344  -1.170   2.472  0.00  0.00     0.002 A 
ATOM      4  C5  UNL d   1       1.104  -0.001   2.587  0.00  0.00    -0.080 A 
ATOM      5  C6  UNL d   1       1.078   1.046   1.514  0.00  0.00     0.076 C 
ATOM      6  C7  UNL d   1       1.899   0.184   3.723  0.00  0.00     0.002 A 
ATOM      7  C8  UNL d   1       1.953  -0.796   4.717  0.00  0.00     0.006 A 
ENDROOT
BRANCH   1   8
ATOM      8  C1  UNL d   1       1.318  -3.058   5.636  0.00  0.00     0.054 C 
ATOM      9  C   UNL d   1       2.771  -3.334   5.996  0.00  0.00     0.018 C 
ENDBRANCH   1   8
TORSDOF 1
ENDMDL
