MODEL 1
REMARK minimizedAffinity 9.54064941
REMARK minimizedRMSD -1
REMARK  1 active torsions:
REMARK  status: ('A' for Active; 'I' for Inactive)
REMARK    1  A    between atoms: C1_2  and  C2_3 
ROOT
ATOM      1  C2  UNL d   1       0.756   0.756   4.678  0.00  0.00    -0.081 A 
ATOM      2  C3  UNL d   1      -0.222   1.092   3.735  0.00  0.00     0.006 A 
ATOM      3  C4  UNL d   1      -0.330   0.376   2.540  0.00  0.00     0.002 A 
ATOM      4  C5  UNL d   1       0.533  -0.692   2.272  0.00  0.00    -0.080 A 
ATOM      5  C6  UNL d   1       0.409  -1.488   1.007  0.00  0.00     0.076 C 
ATOM      6  C7  UNL d   1       1.522  -1.016   3.207  0.00  0.00     0.002 A 
ATOM      7  C8  UNL d   1       1.631  -0.301   4.401  0.00  0.00     0.006 A 
ENDROOT
BRANCH   1   8
ATOM      8  C1  UNL d   1       0.833   1.484   5.996  0.00  0.00     0.054 C 
ATOM      9  C   UNL d   1      -0.054   2.721   5.997  0.00  0.00     0.018 C 
ENDBRANCH   1   8
TORSDOF 1
ENDMDL
