MODEL 1
REMARK minimizedAffinity 8.79872608
REMARK minimizedRMSD -1
REMARK  1 active torsions:
REMARK  status: ('A' for Active; 'I' for Inactive)
REMARK    1  A    between atoms: C1_2  and  C2_3 
ROOT
ATOM      1  C2  UNL d   1       4.474  -4.237   5.035  0.00  0.00    -0.073 A 
ATOM      2  C3  UNL d   1       4.806  -3.278   5.999  0.00  0.00    -0.002 A 
ATOM      3  C4  UNL d   1       4.633  -1.920   5.729  0.00  0.00     0.004 A 
ATOM      4  C5  UNL d   1       4.121  -1.508   4.499  0.00  0.00    -0.004 A 
ATOM      5  C6  UNL d   1       3.772  -2.452   3.528  0.00  0.00    -0.075 A 
ATOM      6  C7  UNL d   1       3.222  -2.025   2.199  0.00  0.00     0.076 C 
ATOM      7  C8  UNL d   1       3.951  -3.814   3.805  0.00  0.00     0.001 A 
ENDROOT
BRANCH   1   8
ATOM      8  C1  UNL d   1       4.653  -5.706   5.324  0.00  0.00     0.053 C 
ATOM      9  C   UNL d   1       5.987  -5.996   5.995  0.00  0.00     0.018 C 
ENDBRANCH   1   8
TORSDOF 1
ENDMDL
