MODEL 1
REMARK minimizedAffinity 6.70886898
REMARK minimizedRMSD -1
REMARK  1 active torsions:
REMARK  status: ('A' for Active; 'I' for Inactive)
REMARK    1  A    between atoms: C1_2  and  C2_3 
ROOT
ATOM      1  C2  UNL d   1       3.551  -2.606   2.679  0.00  0.00    -0.073 A 
ATOM      2  C3  UNL d   1       3.857  -3.800   2.016  0.00  0.00    -0.002 A 
ATOM      3  C4  UNL d   1       3.224  -4.122   0.815  0.00  0.00     0.004 A 
ATOM      4  C5  UNL d   1       2.284  -3.252   0.262  0.00  0.00    -0.004 A 
ATOM      5  C6  UNL d   1       1.973  -2.049   0.903  0.00  0.00    -0.075 A 
ATOM      6  C7  UNL d   1       0.962  -1.104   0.322  0.00  0.00     0.076 C 
ATOM      7  C8  UNL d   1       2.611  -1.734   2.110  0.00  0.00     0.001 A 
ENDROOT
BRANCH   1   8
ATOM      8  C1  UNL d   1       4.237  -2.251   3.972  0.00  0.00     0.053 C 
ATOM      9  C   UNL d   1       4.862  -3.466   4.638  0.00  0.00     0.018 C 
ENDBRANCH   1   8
TORSDOF 1
ENDMDL
