MODEL 1
REMARK minimizedAffinity 8.49331188
REMARK minimizedRMSD -1
REMARK  1 active torsions:
REMARK  status: ('A' for Active; 'I' for Inactive)
REMARK    1  A    between atoms: C1_2  and  C2_3 
ROOT
ATOM      1  C2  UNL d   1       0.248  -1.983   1.541  0.00  0.00    -0.073 A 
ATOM      2  C3  UNL d   1       1.260  -1.037   1.743  0.00  0.00    -0.002 A 
ATOM      3  C4  UNL d   1       2.594  -1.370   1.506  0.00  0.00     0.004 A 
ATOM      4  C5  UNL d   1       2.930  -2.648   1.059  0.00  0.00    -0.004 A 
ATOM      5  C6  UNL d   1       1.932  -3.603   0.839  0.00  0.00    -0.075 A 
ATOM      6  C7  UNL d   1       2.277  -4.983   0.360  0.00  0.00     0.076 C 
ATOM      7  C8  UNL d   1       0.595  -3.262   1.082  0.00  0.00     0.001 A 
ENDROOT
BRANCH   1   8
ATOM      8  C1  UNL d   1      -1.194  -1.626   1.789  0.00  0.00     0.053 C 
ATOM      9  C   UNL d   1      -1.952  -2.755   2.469  0.00  0.00     0.018 C 
ENDBRANCH   1   8
TORSDOF 1
ENDMDL
