MODEL 1
REMARK minimizedAffinity 10.6528234
REMARK minimizedRMSD -1
REMARK  1 active torsions:
REMARK  status: ('A' for Active; 'I' for Inactive)
REMARK    1  A    between atoms: C1_2  and  C2_3 
ROOT
ATOM      1  C2  UNL d   1       2.027  -3.407   0.393  0.00  0.00    -0.073 A 
ATOM      2  C3  UNL d   1       2.977  -2.566   0.984  0.00  0.00    -0.002 A 
ATOM      3  C4  UNL d   1       2.574  -1.417   1.667  0.00  0.00     0.004 A 
ATOM      4  C5  UNL d   1       1.219  -1.103   1.773  0.00  0.00    -0.004 A 
ATOM      5  C6  UNL d   1       0.254  -1.938   1.200  0.00  0.00    -0.075 A 
ATOM      6  C7  UNL d   1      -1.207  -1.612   1.303  0.00  0.00     0.076 C 
ATOM      7  C8  UNL d   1       0.667  -3.087   0.513  0.00  0.00     0.001 A 
ENDROOT
BRANCH   1   8
ATOM      8  C1  UNL d   1       2.458  -4.651  -0.340  0.00  0.00     0.053 C 
ATOM      9  C   UNL d   1       2.338  -5.894   0.528  0.00  0.00     0.018 C 
ENDBRANCH   1   8
TORSDOF 1
ENDMDL
