MODEL 1
REMARK minimizedAffinity 15.9720612
REMARK minimizedRMSD -1
REMARK  1 active torsions:
REMARK  status: ('A' for Active; 'I' for Inactive)
REMARK    1  A    between atoms: C1_2  and  C2_3 
ROOT
ATOM      1  C2  UNL d   1       3.804  -2.251   4.614  0.00  0.00    -0.073 A 
ATOM      2  C3  UNL d   1       4.932  -1.513   4.992  0.00  0.00    -0.002 A 
ATOM      3  C4  UNL d   1       5.977  -2.129   5.682  0.00  0.00     0.004 A 
ATOM      4  C5  UNL d   1       5.909  -3.486   5.995  0.00  0.00    -0.004 A 
ATOM      5  C6  UNL d   1       4.795  -4.243   5.615  0.00  0.00    -0.075 A 
ATOM      6  C7  UNL d   1       4.706  -5.703   5.945  0.00  0.00     0.076 C 
ATOM      7  C8  UNL d   1       3.749  -3.617   4.924  0.00  0.00     0.001 A 
ENDROOT
BRANCH   1   8
ATOM      8  C1  UNL d   1       2.675  -1.592   3.863  0.00  0.00     0.053 C 
ATOM      9  C   UNL d   1       2.665  -1.982   2.393  0.00  0.00     0.018 C 
ENDBRANCH   1   8
TORSDOF 1
ENDMDL
