MODEL 1
REMARK minimizedAffinity 4.73584938
REMARK minimizedRMSD -1
REMARK  1 active torsions:
REMARK  status: ('A' for Active; 'I' for Inactive)
REMARK    1  A    between atoms: C1_2  and  C2_3 
ROOT
ATOM      1  C2  UNL d   1       0.173  -2.244   1.354  0.00  0.00    -0.073 A 
ATOM      2  C3  UNL d   1       1.235  -1.395   1.684  0.00  0.00    -0.002 A 
ATOM      3  C4  UNL d   1       2.554  -1.809   1.493  0.00  0.00     0.004 A 
ATOM      4  C5  UNL d   1       2.824  -3.070   0.963  0.00  0.00    -0.004 A 
ATOM      5  C6  UNL d   1       1.776  -3.929   0.616  0.00  0.00    -0.075 A 
ATOM      6  C7  UNL d   1       2.049  -5.290   0.047  0.00  0.00     0.076 C 
ATOM      7  C8  UNL d   1       0.454  -3.507   0.814  0.00  0.00     0.001 A 
ENDROOT
BRANCH   1   8
ATOM      8  C1  UNL d   1      -1.253  -1.799   1.553  0.00  0.00     0.053 C 
ATOM      9  C   UNL d   1      -2.123  -2.910   2.120  0.00  0.00     0.018 C 
ENDBRANCH   1   8
TORSDOF 1
ENDMDL
