MODEL 1
REMARK minimizedAffinity 16.5747032
REMARK minimizedRMSD -1
REMARK  1 active torsions:
REMARK  status: ('A' for Active; 'I' for Inactive)
REMARK    1  A    between atoms: C1_2  and  C2_3 
ROOT
ATOM      1  C2  UNL d   1       4.912   3.198  -5.316  0.00  0.00    -0.073 A 
ATOM      2  C3  UNL d   1       5.996   3.918  -5.829  0.00  0.00    -0.002 A 
ATOM      3  C4  UNL d   1       5.911   5.302  -5.988  0.00  0.00     0.004 A 
ATOM      4  C5  UNL d   1       4.746   5.979  -5.630  0.00  0.00    -0.004 A 
ATOM      5  C6  UNL d   1       3.656   5.279  -5.105  0.00  0.00    -0.075 A 
ATOM      6  C7  UNL d   1       2.394   5.993  -4.717  0.00  0.00     0.076 C 
ATOM      7  C8  UNL d   1       3.748   3.889  -4.951  0.00  0.00     0.001 A 
ENDROOT
BRANCH   1   8
ATOM      8  C1  UNL d   1       5.001   1.704  -5.136  0.00  0.00     0.053 C 
ATOM      9  C   UNL d   1       4.076   1.206  -4.037  0.00  0.00     0.018 C 
ENDBRANCH   1   8
TORSDOF 1
ENDMDL
