MODEL 1
REMARK minimizedAffinity 6.1522851
REMARK minimizedRMSD -1
REMARK  1 active torsions:
REMARK  status: ('A' for Active; 'I' for Inactive)
REMARK    1  A    between atoms: C1_2  and  C2_3 
ROOT
ATOM      1  C2  UNL d   1       0.664   4.153  -4.389  0.00  0.00    -0.073 A 
ATOM      2  C3  UNL d   1       0.045   5.147  -5.155  0.00  0.00    -0.002 A 
ATOM      3  C4  UNL d   1       0.808   6.000  -5.953  0.00  0.00     0.004 A 
ATOM      4  C5  UNL d   1       2.195   5.863  -6.000  0.00  0.00    -0.004 A 
ATOM      5  C6  UNL d   1       2.832   4.868  -5.252  0.00  0.00    -0.075 A 
ATOM      6  C7  UNL d   1       4.323   4.709  -5.289  0.00  0.00     0.076 C 
ATOM      7  C8  UNL d   1       2.059   4.017  -4.450  0.00  0.00     0.001 A 
ENDROOT
BRANCH   1   8
ATOM      8  C1  UNL d   1      -0.156   3.225  -3.531  0.00  0.00     0.053 C 
ATOM      9  C   UNL d   1      -1.648   3.394  -3.773  0.00  0.00     0.018 C 
ENDBRANCH   1   8
TORSDOF 1
ENDMDL
