MODEL 1
REMARK minimizedAffinity 16.0162506
REMARK minimizedRMSD -1
REMARK  1 active torsions:
REMARK  status: ('A' for Active; 'I' for Inactive)
REMARK    1  A    between atoms: C1_2  and  C2_3 
ROOT
ATOM      1  C2  UNL d   1      -3.570   2.679  -3.921  0.00  0.00    -0.073 A 
ATOM      2  C3  UNL d   1      -4.127   3.837  -4.477  0.00  0.00    -0.002 A 
ATOM      3  C4  UNL d   1      -5.280   3.758  -5.260  0.00  0.00     0.004 A 
ATOM      4  C5  UNL d   1      -5.891   2.525  -5.488  0.00  0.00    -0.004 A 
ATOM      5  C6  UNL d   1      -5.356   1.359  -4.931  0.00  0.00    -0.075 A 
ATOM      6  C7  UNL d   1      -6.000   0.024  -5.169  0.00  0.00     0.076 C 
ATOM      7  C8  UNL d   1      -4.197   1.446  -4.149  0.00  0.00     0.001 A 
ENDROOT
BRANCH   1   8
ATOM      8  C1  UNL d   1      -2.329   2.760  -3.070  0.00  0.00     0.053 C 
ATOM      9  C   UNL d   1      -2.291   1.667  -2.014  0.00  0.00     0.018 C 
ENDBRANCH   1   8
TORSDOF 1
ENDMDL
