MODEL 1
REMARK minimizedAffinity 3.08833241
REMARK minimizedRMSD -1
REMARK  0 active torsions:
REMARK  status: ('A' for Active; 'I' for Inactive)
ROOT
ATOM      1  C1  BNZ d   1       2.993  -5.648  -1.912  0.00  0.00     0.000 A 
ATOM      2  C2  BNZ d   1       4.066  -5.158  -2.608  0.00  0.00     0.000 A 
ATOM      3  C3  BNZ d   1       4.629  -3.959  -2.273  0.00  0.00     0.000 A 
ATOM      4  C4  BNZ d   1       4.095  -3.232  -1.270  0.00  0.00     0.000 A 
ATOM      5  C5  BNZ d   1       3.007  -3.708  -0.565  0.00  0.00     0.000 A 
ATOM      6  C6  BNZ d   1       2.467  -4.934  -0.879  0.00  0.00     0.000 A 
ENDROOT
TORSDOF 0
ENDMDL
