MODEL 1
REMARK minimizedAffinity 2.97663116
REMARK minimizedRMSD -1
REMARK  0 active torsions:
REMARK  status: ('A' for Active; 'I' for Inactive)
ROOT
ATOM      1  C1  BNZ d   1      -0.568   2.178  -1.089  0.00  0.00     0.000 A 
ATOM      2  C2  BNZ d   1      -0.701   3.468  -1.528  0.00  0.00     0.000 A 
ATOM      3  C3  BNZ d   1      -0.483   4.521  -0.683  0.00  0.00     0.000 A 
ATOM      4  C4  BNZ d   1      -0.171   4.281   0.607  0.00  0.00     0.000 A 
ATOM      5  C5  BNZ d   1      -0.042   2.986   1.067  0.00  0.00     0.000 A 
ATOM      6  C6  BNZ d   1      -0.225   1.929   0.204  0.00  0.00     0.000 A 
ENDROOT
TORSDOF 0
ENDMDL
