MODEL 1
REMARK minimizedAffinity 1.00868618
REMARK minimizedRMSD -1
REMARK  0 active torsions:
REMARK  status: ('A' for Active; 'I' for Inactive)
ROOT
ATOM      1  C1  BNZ d   1       3.628  -1.766  -0.386  0.00  0.00     0.000 A 
ATOM      2  C2  BNZ d   1       4.614  -1.003  -0.953  0.00  0.00     0.000 A 
ATOM      3  C3  BNZ d   1       5.759  -1.578  -1.427  0.00  0.00     0.000 A 
ATOM      4  C4  BNZ d   1       5.935  -2.909  -1.297  0.00  0.00     0.000 A 
ATOM      5  C5  BNZ d   1       4.954  -3.691  -0.719  0.00  0.00     0.000 A 
ATOM      6  C6  BNZ d   1       3.786  -3.113  -0.279  0.00  0.00     0.000 A 
ENDROOT
TORSDOF 0
ENDMDL
