MODEL 1
REMARK minimizedAffinity 5.51996851
REMARK minimizedRMSD -1
REMARK  0 active torsions:
REMARK  status: ('A' for Active; 'I' for Inactive)
ROOT
ATOM      1  C1  BNZ d   1      -1.110  -1.470  -1.880  0.00  0.00     0.000 A 
ATOM      2  C2  BNZ d   1      -2.452  -1.559  -1.622  0.00  0.00     0.000 A 
ATOM      3  C3  BNZ d   1      -3.144  -0.483  -1.140  0.00  0.00     0.000 A 
ATOM      4  C4  BNZ d   1      -2.487   0.665  -0.879  0.00  0.00     0.000 A 
ATOM      5  C5  BNZ d   1      -1.133   0.767  -1.125  0.00  0.00     0.000 A 
ATOM      6  C6  BNZ d   1      -0.446  -0.305  -1.647  0.00  0.00     0.000 A 
ENDROOT
TORSDOF 0
ENDMDL
