MODEL 1
REMARK minimizedAffinity 0.0536344983
REMARK minimizedRMSD -1
REMARK  0 active torsions:
REMARK  status: ('A' for Active; 'I' for Inactive)
ROOT
ATOM      1  C1  BNZ d   1      -0.533   2.464  -0.144  0.00  0.00     0.000 A 
ATOM      2  C2  BNZ d   1      -0.479   2.068   1.166  0.00  0.00     0.000 A 
ATOM      3  C3  BNZ d   1       0.331   2.713   2.059  0.00  0.00     0.000 A 
ATOM      4  C4  BNZ d   1       1.115   3.724   1.633  0.00  0.00     0.000 A 
ATOM      5  C5  BNZ d   1       1.079   4.129   0.313  0.00  0.00     0.000 A 
ATOM      6  C6  BNZ d   1       0.233   3.503  -0.574  0.00  0.00     0.000 A 
ENDROOT
TORSDOF 0
ENDMDL
