MODEL 1
REMARK minimizedAffinity 3.89357281
REMARK minimizedRMSD -1
REMARK  0 active torsions:
REMARK  status: ('A' for Active; 'I' for Inactive)
ROOT
ATOM      1  C1  BNZ d   1       5.273  -3.798  -1.313  0.00  0.00     0.000 A 
ATOM      2  C2  BNZ d   1       5.877  -2.653  -1.759  0.00  0.00     0.000 A 
ATOM      3  C3  BNZ d   1       5.370  -1.425  -1.441  0.00  0.00     0.000 A 
ATOM      4  C4  BNZ d   1       4.238  -1.343  -0.712  0.00  0.00     0.000 A 
ATOM      5  C5  BNZ d   1       3.611  -2.489  -0.264  0.00  0.00     0.000 A 
ATOM      6  C6  BNZ d   1       4.147  -3.723  -0.553  0.00  0.00     0.000 A 
ENDROOT
TORSDOF 0
ENDMDL
