MODEL 1
REMARK minimizedAffinity 8.37049389
REMARK minimizedRMSD -1
REMARK  0 active torsions:
REMARK  status: ('A' for Active; 'I' for Inactive)
ROOT
ATOM      1  C1  BNZ d   1      -1.497  -0.497  -1.057  0.00  0.00     0.000 A 
ATOM      2  C2  BNZ d   1      -0.563   0.504  -1.006  0.00  0.00     0.000 A 
ATOM      3  C3  BNZ d   1      -0.931   1.811  -1.156  0.00  0.00     0.000 A 
ATOM      4  C4  BNZ d   1      -2.223   2.114  -1.398  0.00  0.00     0.000 A 
ATOM      5  C5  BNZ d   1      -3.174   1.115  -1.462  0.00  0.00     0.000 A 
ATOM      6  C6  BNZ d   1      -2.807  -0.197  -1.270  0.00  0.00     0.000 A 
ENDROOT
TORSDOF 0
ENDMDL
