MODEL 1
REMARK minimizedAffinity 10.8645086
REMARK minimizedRMSD -1
REMARK  2 active torsions:
REMARK  status: ('A' for Active; 'I' for Inactive)
REMARK    1  A    between atoms: C2'_3  and  C1'_4 
REMARK    2  A    between atoms: C1'_4  and  C1_5 
ROOT
ATOM      1  C1  I4B d   1       1.692  -0.831   2.234  0.00  0.00    -0.075 A 
ATOM      2  C2  I4B d   1       1.522  -1.302   3.512  0.00  0.00     0.003 A 
ATOM      3  C3  I4B d   1       0.787  -2.490   3.743  0.00  0.00     0.002 A 
ATOM      4  C4  I4B d   1       0.201  -3.144   2.678  0.00  0.00    -0.004 A 
ATOM      5  C5  I4B d   1       0.394  -2.678   1.380  0.00  0.00     0.002 A 
ATOM      6  C6  I4B d   1       1.154  -1.521   1.155  0.00  0.00     0.003 A 
ENDROOT
BRANCH   1   7
ATOM      7  C1' I4B d   1       2.446   0.445   2.030  0.00  0.00     0.060 C 
BRANCH   7   8
ATOM      8  C2' I4B d   1       1.901   1.469   3.004  0.00  0.00    -0.013 C 
ATOM      9  C4' I4B d   1       2.975   2.430   3.442  0.00  0.00     0.013 C 
ATOM     10  C3' I4B d   1       0.770   2.191   2.333  0.00  0.00     0.013 C 
ENDBRANCH   7   8
ENDBRANCH   1   7
TORSDOF 2
ENDMDL
