MODEL 1
REMARK minimizedAffinity 5.27520418
REMARK minimizedRMSD -1
REMARK  2 active torsions:
REMARK  status: ('A' for Active; 'I' for Inactive)
REMARK    1  A    between atoms: C2'_3  and  C1'_4 
REMARK    2  A    between atoms: C1'_4  and  C1_5 
ROOT
ATOM      1  C1  I4B d   1       3.634  -3.489   3.896  0.00  0.00    -0.075 A 
ATOM      2  C2  I4B d   1       3.640  -3.295   5.255  0.00  0.00     0.003 A 
ATOM      3  C3  I4B d   1       4.833  -2.910   5.914  0.00  0.00     0.002 A 
ATOM      4  C4  I4B d   1       6.000  -2.782   5.188  0.00  0.00    -0.004 A 
ATOM      5  C5  I4B d   1       5.986  -2.957   3.808  0.00  0.00     0.002 A 
ATOM      6  C6  I4B d   1       4.793  -3.301   3.155  0.00  0.00     0.003 A 
ENDROOT
BRANCH   1   7
ATOM      7  C1' I4B d   1       2.364  -3.927   3.237  0.00  0.00     0.060 C 
BRANCH   7   8
ATOM      8  C2' I4B d   1       1.272  -2.955   3.637  0.00  0.00    -0.013 C 
ATOM      9  C4' I4B d   1       1.102  -1.871   2.605  0.00  0.00     0.013 C 
ATOM     10  C3' I4B d   1       0.003  -3.734   3.818  0.00  0.00     0.013 C 
ENDBRANCH   7   8
ENDBRANCH   1   7
TORSDOF 2
ENDMDL
