MODEL 1
REMARK minimizedAffinity 11.8793669
REMARK minimizedRMSD -1
REMARK  2 active torsions:
REMARK  status: ('A' for Active; 'I' for Inactive)
REMARK    1  A    between atoms: C2'_3  and  C1'_4 
REMARK    2  A    between atoms: C1'_4  and  C1_5 
ROOT
ATOM      1  C1  I4B d   1       4.081  -1.608  -3.428  0.00  0.00    -0.075 A 
ATOM      2  C2  I4B d   1       3.015  -0.745  -3.376  0.00  0.00     0.003 A 
ATOM      3  C3  I4B d   1       1.750  -1.201  -2.932  0.00  0.00     0.002 A 
ATOM      4  C4  I4B d   1       1.586  -2.530  -2.598  0.00  0.00    -0.004 A 
ATOM      5  C5  I4B d   1       2.673  -3.398  -2.629  0.00  0.00     0.002 A 
ATOM      6  C6  I4B d   1       3.932  -2.932  -3.034  0.00  0.00     0.003 A 
ENDROOT
BRANCH   1   7
ATOM      7  C1' I4B d   1       5.395  -1.101  -3.934  0.00  0.00     0.060 C 
BRANCH   7   8
ATOM      8  C2' I4B d   1       5.327  -1.060  -5.447  0.00  0.00    -0.013 C 
ATOM      9  C4' I4B d   1       5.983   0.183  -5.988  0.00  0.00     0.013 C 
ATOM     10  C3' I4B d   1       5.993  -2.297  -5.973  0.00  0.00     0.013 C 
ENDBRANCH   7   8
ENDBRANCH   1   7
TORSDOF 2
ENDMDL
