MODEL 1
REMARK minimizedAffinity 0.60040164
REMARK minimizedRMSD -1
REMARK  2 active torsions:
REMARK  status: ('A' for Active; 'I' for Inactive)
REMARK    1  A    between atoms: C2'_3  and  C1'_4 
REMARK    2  A    between atoms: C1'_4  and  C1_5 
ROOT
ATOM      1  C1  I4B d   1       3.775   1.125  -4.900  0.00  0.00    -0.075 A 
ATOM      2  C2  I4B d   1       3.712   2.484  -5.083  0.00  0.00     0.003 A 
ATOM      3  C3  I4B d   1       4.802   3.176  -5.665  0.00  0.00     0.002 A 
ATOM      4  C4  I4B d   1       5.947   2.482  -6.000  0.00  0.00    -0.004 A 
ATOM      5  C5  I4B d   1       6.000   1.101  -5.834  0.00  0.00     0.002 A 
ATOM      6  C6  I4B d   1       4.903   0.416  -5.292  0.00  0.00     0.003 A 
ENDROOT
BRANCH   1   7
ATOM      7  C1' I4B d   1       2.619   0.431  -4.252  0.00  0.00     0.060 C 
BRANCH   7   8
ATOM      8  C2' I4B d   1       3.120  -0.882  -3.687  0.00  0.00    -0.013 C 
ATOM      9  C4' I4B d   1       4.317  -0.672  -2.798  0.00  0.00     0.013 C 
ATOM     10  C3' I4B d   1       1.992  -1.523  -2.934  0.00  0.00     0.013 C 
ENDBRANCH   7   8
ENDBRANCH   1   7
TORSDOF 2
ENDMDL
