MODEL 1
REMARK minimizedAffinity 0.830341756
REMARK minimizedRMSD -1
REMARK  2 active torsions:
REMARK  status: ('A' for Active; 'I' for Inactive)
REMARK    1  A    between atoms: C2'_3  and  C1'_4 
REMARK    2  A    between atoms: C1'_4  and  C1_5 
ROOT
ATOM      1  C1  I4B d   1       2.633  -3.071   3.763  0.00  0.00    -0.075 A 
ATOM      2  C2  I4B d   1       1.535  -3.895   3.744  0.00  0.00     0.003 A 
ATOM      3  C3  I4B d   1       0.412  -3.568   2.946  0.00  0.00     0.002 A 
ATOM      4  C4  I4B d   1       0.410  -2.391   2.226  0.00  0.00    -0.004 A 
ATOM      5  C5  I4B d   1       1.533  -1.569   2.227  0.00  0.00     0.002 A 
ATOM      6  C6  I4B d   1       2.657  -1.917   2.991  0.00  0.00     0.003 A 
ENDROOT
BRANCH   1   7
ATOM      7  C1' I4B d   1       3.788  -3.430   4.642  0.00  0.00     0.060 C 
BRANCH   7   8
ATOM      8  C2' I4B d   1       4.999  -2.657   4.161  0.00  0.00    -0.013 C 
ATOM      9  C4' I4B d   1       5.999  -2.463   5.271  0.00  0.00     0.013 C 
ATOM     10  C3' I4B d   1       5.603  -3.410   3.014  0.00  0.00     0.013 C 
ENDBRANCH   7   8
ENDBRANCH   1   7
TORSDOF 2
ENDMDL
