MODEL 1
REMARK minimizedAffinity 4.41496229
REMARK minimizedRMSD -1
REMARK  2 active torsions:
REMARK  status: ('A' for Active; 'I' for Inactive)
REMARK    1  A    between atoms: C2'_3  and  C1'_4 
REMARK    2  A    between atoms: C1'_4  and  C1_5 
ROOT
ATOM      1  C1  I4B d   1       2.758  -3.070   3.442  0.00  0.00    -0.075 A 
ATOM      2  C2  I4B d   1       2.871  -1.875   2.777  0.00  0.00     0.003 A 
ATOM      3  C3  I4B d   1       1.723  -1.252   2.230  0.00  0.00     0.002 A 
ATOM      4  C4  I4B d   1       0.498  -1.880   2.328  0.00  0.00    -0.004 A 
ATOM      5  C5  I4B d   1       0.382  -3.080   3.023  0.00  0.00     0.002 A 
ATOM      6  C6  I4B d   1       1.517  -3.673   3.594  0.00  0.00     0.003 A 
ENDROOT
BRANCH   1   7
ATOM      7  C1' I4B d   1       3.996  -3.716   3.978  0.00  0.00     0.060 C 
BRANCH   7   8
ATOM      8  C2' I4B d   1       5.173  -2.823   3.640  0.00  0.00    -0.013 C 
ATOM      9  C4' I4B d   1       6.000  -2.525   4.863  0.00  0.00     0.013 C 
ATOM     10  C3' I4B d   1       5.990  -3.512   2.589  0.00  0.00     0.013 C 
ENDBRANCH   7   8
ENDBRANCH   1   7
TORSDOF 2
ENDMDL
