MODEL 1
REMARK minimizedAffinity 11.5495071
REMARK minimizedRMSD -1
REMARK  2 active torsions:
REMARK  status: ('A' for Active; 'I' for Inactive)
REMARK    1  A    between atoms: C1_2  and  C2_3 
REMARK    2  A    between atoms: C2_3  and  C3_4 
ROOT
ATOM      1  C3  UNL d   1      -0.340   1.887   0.092  0.00  0.00    -0.075 A 
ATOM      2  C4  UNL d   1       0.534   0.990  -0.539  0.00  0.00     0.002 A 
ATOM      3  C5  UNL d   1       0.037  -0.087  -1.274  0.00  0.00     0.002 A 
ATOM      4  C6  UNL d   1      -1.338  -0.287  -1.378  0.00  0.00    -0.004 A 
ATOM      5  C7  UNL d   1      -2.216   0.588  -0.741  0.00  0.00     0.002 A 
ATOM      6  C8  UNL d   1      -1.721   1.669  -0.009  0.00  0.00     0.002 A 
ENDROOT
BRANCH   1   7
ATOM      7  C2  UNL d   1       0.191   3.071   0.864  0.00  0.00     0.056 C 
BRANCH   7   8
ATOM      8  C1  UNL d   1       0.888   4.121  -0.008  0.00  0.00     0.007 C 
ATOM      9  C   UNL d   1      -0.031   5.264  -0.420  0.00  0.00     0.009 C 
ENDBRANCH   7   8
ENDBRANCH   1   7
TORSDOF 2
ENDMDL
