MODEL 1
REMARK minimizedAffinity 10.0398531
REMARK minimizedRMSD -1
REMARK  2 active torsions:
REMARK  status: ('A' for Active; 'I' for Inactive)
REMARK    1  A    between atoms: C1_2  and  C2_3 
REMARK    2  A    between atoms: C2_3  and  C3_4 
ROOT
ATOM      1  C3  UNL d   1      -0.102   1.656   0.176  0.00  0.00    -0.075 A 
ATOM      2  C4  UNL d   1       0.750   0.710  -0.413  0.00  0.00     0.002 A 
ATOM      3  C5  UNL d   1       0.233  -0.468  -0.953  0.00  0.00     0.002 A 
ATOM      4  C6  UNL d   1      -1.136  -0.720  -0.902  0.00  0.00    -0.004 A 
ATOM      5  C7  UNL d   1      -1.989   0.205  -0.305  0.00  0.00     0.002 A 
ATOM      6  C8  UNL d   1      -1.476   1.387   0.232  0.00  0.00     0.002 A 
ENDROOT
BRANCH   1   7
ATOM      7  C2  UNL d   1       0.447   2.947   0.735  0.00  0.00     0.056 C 
BRANCH   7   8
ATOM      8  C1  UNL d   1      -0.152   4.207   0.101  0.00  0.00     0.007 C 
ATOM      9  C   UNL d   1       0.841   4.975  -0.761  0.00  0.00     0.009 C 
ENDBRANCH   7   8
ENDBRANCH   1   7
TORSDOF 2
ENDMDL
