MODEL 1
REMARK minimizedAffinity 9.19671059
REMARK minimizedRMSD -1
REMARK  2 active torsions:
REMARK  status: ('A' for Active; 'I' for Inactive)
REMARK    1  A    between atoms: C1_2  and  C2_3 
REMARK    2  A    between atoms: C2_3  and  C3_4 
ROOT
ATOM      1  C3  UNL d   1       4.562  -3.679  -2.491  0.00  0.00    -0.075 A 
ATOM      2  C4  UNL d   1       5.088  -4.614  -1.587  0.00  0.00     0.002 A 
ATOM      3  C5  UNL d   1       5.700  -4.191  -0.407  0.00  0.00     0.002 A 
ATOM      4  C6  UNL d   1       5.803  -2.831  -0.120  0.00  0.00    -0.004 A 
ATOM      5  C7  UNL d   1       5.299  -1.894  -1.019  0.00  0.00     0.002 A 
ATOM      6  C8  UNL d   1       4.682  -2.314  -2.198  0.00  0.00     0.002 A 
ENDROOT
BRANCH   1   7
ATOM      7  C2  UNL d   1       3.872  -4.131  -3.756  0.00  0.00     0.056 C 
BRANCH   7   8
ATOM      8  C1  UNL d   1       4.833  -4.529  -4.882  0.00  0.00     0.007 C 
ATOM      9  C   UNL d   1       4.732  -6.000  -5.265  0.00  0.00     0.009 C 
ENDBRANCH   7   8
ENDBRANCH   1   7
TORSDOF 2
ENDMDL
