MODEL 1
REMARK minimizedAffinity 10.2134552
REMARK minimizedRMSD -1
REMARK  2 active torsions:
REMARK  status: ('A' for Active; 'I' for Inactive)
REMARK    1  A    between atoms: C1_2  and  C2_3 
REMARK    2  A    between atoms: C2_3  and  C3_4 
ROOT
ATOM      1  C3  UNL d   1      -0.138   2.105  -0.179  0.00  0.00    -0.075 A 
ATOM      2  C4  UNL d   1       0.648   1.050  -0.665  0.00  0.00     0.002 A 
ATOM      3  C5  UNL d   1       0.050  -0.096  -1.190  0.00  0.00     0.002 A 
ATOM      4  C6  UNL d   1      -1.338  -0.205  -1.227  0.00  0.00    -0.004 A 
ATOM      5  C7  UNL d   1      -2.129   0.830  -0.733  0.00  0.00     0.002 A 
ATOM      6  C8  UNL d   1      -1.533   1.979  -0.211  0.00  0.00     0.002 A 
ENDROOT
BRANCH   1   7
ATOM      7  C2  UNL d   1       0.503   3.360   0.363  0.00  0.00     0.056 C 
BRANCH   7   8
ATOM      8  C1  UNL d   1      -0.191   4.654  -0.074  0.00  0.00     0.007 C 
ATOM      9  C   UNL d   1       0.380   5.236  -1.361  0.00  0.00     0.009 C 
ENDBRANCH   7   8
ENDBRANCH   1   7
TORSDOF 2
ENDMDL
