MODEL 1
REMARK minimizedAffinity 12.6184988
REMARK minimizedRMSD -1
REMARK  2 active torsions:
REMARK  status: ('A' for Active; 'I' for Inactive)
REMARK    1  A    between atoms: C1_2  and  C2_3 
REMARK    2  A    between atoms: C2_3  and  C3_4 
ROOT
ATOM      1  C3  UNL d   1       4.053  -1.768  -0.242  0.00  0.00    -0.075 A 
ATOM      2  C4  UNL d   1       4.935  -1.643  -1.325  0.00  0.00     0.002 A 
ATOM      3  C5  UNL d   1       5.899  -2.621  -1.571  0.00  0.00     0.002 A 
ATOM      4  C6  UNL d   1       6.000  -3.730  -0.734  0.00  0.00    -0.004 A 
ATOM      5  C7  UNL d   1       5.140  -3.856   0.355  0.00  0.00     0.002 A 
ATOM      6  C8  UNL d   1       4.172  -2.881   0.601  0.00  0.00     0.002 A 
ENDROOT
BRANCH   1   7
ATOM      7  C2  UNL d   1       2.989  -0.728   0.012  0.00  0.00     0.056 C 
BRANCH   7   8
ATOM      8  C1  UNL d   1       2.292  -0.225  -1.256  0.00  0.00     0.007 C 
ATOM      9  C   UNL d   1       0.774  -0.315  -1.184  0.00  0.00     0.009 C 
ENDBRANCH   7   8
ENDBRANCH   1   7
TORSDOF 2
ENDMDL
