MODEL 1
REMARK minimizedAffinity 11.2017851
REMARK minimizedRMSD -1
REMARK  2 active torsions:
REMARK  status: ('A' for Active; 'I' for Inactive)
REMARK    1  A    between atoms: C1_2  and  C2_3 
REMARK    2  A    between atoms: C2_3  and  C3_4 
ROOT
ATOM      1  C3  UNL d   1       4.615  -3.997  -0.628  0.00  0.00    -0.075 A 
ATOM      2  C4  UNL d   1       3.922  -3.783   0.573  0.00  0.00     0.002 A 
ATOM      3  C5  UNL d   1       3.989  -2.548   1.219  0.00  0.00     0.002 A 
ATOM      4  C6  UNL d   1       4.756  -1.518   0.680  0.00  0.00    -0.004 A 
ATOM      5  C7  UNL d   1       5.462  -1.725  -0.504  0.00  0.00     0.002 A 
ATOM      6  C8  UNL d   1       5.392  -2.958  -1.155  0.00  0.00     0.002 A 
ENDROOT
BRANCH   1   7
ATOM      7  C2  UNL d   1       4.522  -5.322  -1.347  0.00  0.00     0.056 C 
BRANCH   7   8
ATOM      8  C1  UNL d   1       3.740  -5.263  -2.663  0.00  0.00     0.007 C 
ATOM      9  C   UNL d   1       2.387  -5.959  -2.589  0.00  0.00     0.009 C 
ENDBRANCH   7   8
ENDBRANCH   1   7
TORSDOF 2
ENDMDL
