MODEL 1
REMARK minimizedAffinity 3.42071676
REMARK minimizedRMSD -1
REMARK  2 active torsions:
REMARK  status: ('A' for Active; 'I' for Inactive)
REMARK    1  A    between atoms: C1_2  and  C2_3 
REMARK    2  A    between atoms: C2_3  and  C3_4 
ROOT
ATOM      1  C3  UNL d   1       0.061   3.783   0.241  0.00  0.00    -0.075 A 
ATOM      2  C4  UNL d   1      -0.885   3.995  -0.772  0.00  0.00     0.002 A 
ATOM      3  C5  UNL d   1      -0.777   5.094  -1.625  0.00  0.00     0.002 A 
ATOM      4  C6  UNL d   1       0.271   5.999  -1.470  0.00  0.00    -0.004 A 
ATOM      5  C7  UNL d   1       1.208   5.807  -0.456  0.00  0.00     0.002 A 
ATOM      6  C8  UNL d   1       1.104   4.706   0.395  0.00  0.00     0.002 A 
ENDROOT
BRANCH   1   7
ATOM      7  C2  UNL d   1      -0.034   2.580   1.148  0.00  0.00     0.056 C 
BRANCH   7   8
ATOM      8  C1  UNL d   1       0.346   2.865   2.604  0.00  0.00     0.007 C 
ATOM      9  C   UNL d   1      -0.083   1.764   3.564  0.00  0.00     0.009 C 
ENDBRANCH   7   8
ENDBRANCH   1   7
TORSDOF 2
ENDMDL
