MODEL 1
REMARK minimizedAffinity 7.2802124
REMARK minimizedRMSD -1
REMARK  2 active torsions:
REMARK  status: ('A' for Active; 'I' for Inactive)
REMARK    1  A    between atoms: C1_2  and  C2_3 
REMARK    2  A    between atoms: C2_3  and  C3_4 
ROOT
ATOM      1  C3  UNL d   1       0.315   1.704   3.184  0.00  0.00    -0.075 A 
ATOM      2  C4  UNL d   1       1.525   1.021   2.991  0.00  0.00     0.002 A 
ATOM      3  C5  UNL d   1       1.805  -0.142   3.709  0.00  0.00     0.002 A 
ATOM      4  C6  UNL d   1       0.885  -0.630   4.635  0.00  0.00    -0.004 A 
ATOM      5  C7  UNL d   1      -0.313   0.048   4.846  0.00  0.00     0.002 A 
ATOM      6  C8  UNL d   1      -0.597   1.210   4.126  0.00  0.00     0.002 A 
ENDROOT
BRANCH   1   7
ATOM      7  C2  UNL d   1      -0.006   2.946   2.388  0.00  0.00     0.056 C 
BRANCH   7   8
ATOM      8  C1  UNL d   1       0.367   2.851   0.905  0.00  0.00     0.007 C 
ATOM      9  C   UNL d   1       0.281   4.186   0.178  0.00  0.00     0.009 C 
ENDBRANCH   7   8
ENDBRANCH   1   7
TORSDOF 2
ENDMDL
