MODEL 1
REMARK minimizedAffinity 13.0171595
REMARK minimizedRMSD -1
REMARK  2 active torsions:
REMARK  status: ('A' for Active; 'I' for Inactive)
REMARK    1  A    between atoms: C1_2  and  C2_3 
REMARK    2  A    between atoms: C2_3  and  C3_4 
ROOT
ATOM      1  C3  UNL d   1      -0.337   1.498  -0.619  0.00  0.00    -0.075 A 
ATOM      2  C4  UNL d   1       0.580   0.554  -1.106  0.00  0.00     0.002 A 
ATOM      3  C5  UNL d   1       0.143  -0.695  -1.548  0.00  0.00     0.002 A 
ATOM      4  C6  UNL d   1      -1.211  -1.020  -1.500  0.00  0.00    -0.004 A 
ATOM      5  C7  UNL d   1      -2.128  -0.097  -1.003  0.00  0.00     0.002 A 
ATOM      6  C8  UNL d   1      -1.694   1.155  -0.564  0.00  0.00     0.002 A 
ENDROOT
BRANCH   1   7
ATOM      7  C2  UNL d   1       0.126   2.862  -0.167  0.00  0.00     0.056 C 
BRANCH   7   8
ATOM      8  C1  UNL d   1      -0.226   3.189   1.288  0.00  0.00     0.007 C 
ATOM      9  C   UNL d   1       0.802   2.670   2.285  0.00  0.00     0.009 C 
ENDBRANCH   7   8
ENDBRANCH   1   7
TORSDOF 2
ENDMDL
