MODEL 1
REMARK minimizedAffinity -3.21413755
REMARK minimizedRMSD -1
REMARK  0 active torsions:
REMARK  status: ('A' for Active; 'I' for Inactive)
ROOT
ATOM      1  C   UNL d   1      -0.197   1.609  -0.988  0.00  0.00     0.023 A 
ATOM      2  C1  UNL d   1      -0.565   1.271   0.315  0.00  0.00     0.003 A 
ATOM      3  C2  UNL d   1      -0.556  -0.065   0.720  0.00  0.00     0.048 A 
ATOM      4  C3  UNL d   1      -0.177  -1.059  -0.182  0.00  0.00     0.023 A 
ATOM      5  C4  UNL d   1       0.192  -0.726  -1.486  0.00  0.00     0.048 A 
ATOM      6  C5  UNL d   1       0.181   0.611  -1.887  0.00  0.00     0.003 A 
ATOM      7  I   UNL d   1      -0.163  -3.048   0.419  0.00  0.00    -0.146 I 
ENDROOT
TORSDOF 0
ENDMDL
