MODEL 1
REMARK minimizedAffinity -3.22121382
REMARK minimizedRMSD -1
REMARK  0 active torsions:
REMARK  status: ('A' for Active; 'I' for Inactive)
ROOT
ATOM      1  C   UNL d   1       0.187  -3.376   0.621  0.00  0.00     0.023 A 
ATOM      2  C1  UNL d   1      -0.757  -2.437   1.038  0.00  0.00     0.003 A 
ATOM      3  C2  UNL d   1      -0.707  -1.130   0.548  0.00  0.00     0.048 A 
ATOM      4  C3  UNL d   1       0.289  -0.769  -0.359  0.00  0.00     0.023 A 
ATOM      5  C4  UNL d   1       1.235  -1.706  -0.779  0.00  0.00     0.048 A 
ATOM      6  C5  UNL d   1       1.182  -3.011  -0.286  0.00  0.00     0.003 A 
ATOM      7  I   UNL d   1       0.365   1.175  -1.089  0.00  0.00    -0.146 I 
ENDROOT
TORSDOF 0
ENDMDL
