MODEL 1
REMARK minimizedAffinity -3.710181
REMARK minimizedRMSD -1
REMARK  0 active torsions:
REMARK  status: ('A' for Active; 'I' for Inactive)
ROOT
ATOM      1  C   UNL d   1      -0.527  -2.610   0.339  0.00  0.00     0.023 A 
ATOM      2  C1  UNL d   1       0.465  -2.191  -0.548  0.00  0.00     0.003 A 
ATOM      3  C2  UNL d   1       0.836  -0.846  -0.597  0.00  0.00     0.048 A 
ATOM      4  C3  UNL d   1       0.212   0.075   0.245  0.00  0.00     0.023 A 
ATOM      5  C4  UNL d   1      -0.779  -0.341   1.135  0.00  0.00     0.048 A 
ATOM      6  C5  UNL d   1      -1.148  -1.686   1.180  0.00  0.00     0.003 A 
ATOM      7  I   UNL d   1       0.763   2.078   0.174  0.00  0.00    -0.146 I 
ENDROOT
TORSDOF 0
ENDMDL
