MODEL 1
REMARK minimizedAffinity -3.24073577
REMARK minimizedRMSD -1
REMARK  0 active torsions:
REMARK  status: ('A' for Active; 'I' for Inactive)
ROOT
ATOM      1  C   UNL d   1       1.235   3.376   0.030  0.00  0.00     0.023 A 
ATOM      2  C1  UNL d   1       0.074   2.888  -0.569  0.00  0.00     0.003 A 
ATOM      3  C2  UNL d   1      -0.296   1.553  -0.393  0.00  0.00     0.048 A 
ATOM      4  C3  UNL d   1       0.500   0.712   0.383  0.00  0.00     0.023 A 
ATOM      5  C4  UNL d   1       1.663   1.196   0.986  0.00  0.00     0.048 A 
ATOM      6  C5  UNL d   1       2.028   2.532   0.807  0.00  0.00     0.003 A 
ATOM      7  I   UNL d   1      -0.048  -1.276   0.646  0.00  0.00    -0.146 I 
ENDROOT
TORSDOF 0
ENDMDL
