MODEL 1
REMARK minimizedAffinity -2.00984573
REMARK minimizedRMSD -1
REMARK  0 active torsions:
REMARK  status: ('A' for Active; 'I' for Inactive)
ROOT
ATOM      1  C   UNL d   1      -1.322  -2.028   0.762  0.00  0.00     0.023 A 
ATOM      2  C1  UNL d   1      -1.850  -0.857   1.307  0.00  0.00     0.003 A 
ATOM      3  C2  UNL d   1      -1.251   0.374   1.034  0.00  0.00     0.048 A 
ATOM      4  C3  UNL d   1      -0.123   0.427   0.215  0.00  0.00     0.023 A 
ATOM      5  C4  UNL d   1       0.408  -0.742  -0.333  0.00  0.00     0.048 A 
ATOM      6  C5  UNL d   1      -0.194  -1.971  -0.056  0.00  0.00     0.003 A 
ATOM      7  I   UNL d   1       0.771   2.258  -0.193  0.00  0.00    -0.146 I 
ENDROOT
TORSDOF 0
ENDMDL
