MODEL 1
REMARK minimizedAffinity -2.77023578
REMARK minimizedRMSD -1
REMARK  0 active torsions:
REMARK  status: ('A' for Active; 'I' for Inactive)
ROOT
ATOM      1  C   UNL d   1      -0.738  -2.958   0.230  0.00  0.00     0.023 A 
ATOM      2  C1  UNL d   1       0.338  -2.493  -0.527  0.00  0.00     0.003 A 
ATOM      3  C2  UNL d   1       0.663  -1.135  -0.520  0.00  0.00     0.048 A 
ATOM      4  C3  UNL d   1      -0.091  -0.248   0.247  0.00  0.00     0.023 A 
ATOM      5  C4  UNL d   1      -1.168  -0.709   1.007  0.00  0.00     0.048 A 
ATOM      6  C5  UNL d   1      -1.490  -2.067   0.996  0.00  0.00     0.003 A 
ATOM      7  I   UNL d   1       0.391   1.774   0.260  0.00  0.00    -0.146 I 
ENDROOT
TORSDOF 0
ENDMDL
