MODEL 1
REMARK minimizedAffinity -2.92278552
REMARK minimizedRMSD -1
REMARK  0 active torsions:
REMARK  status: ('A' for Active; 'I' for Inactive)
ROOT
ATOM      1  C   UNL d   1       0.011  -3.330   0.755  0.00  0.00     0.023 A 
ATOM      2  C1  UNL d   1       1.055  -2.939  -0.084  0.00  0.00     0.003 A 
ATOM      3  C2  UNL d   1       1.128  -1.622  -0.543  0.00  0.00     0.048 A 
ATOM      4  C3  UNL d   1       0.153  -0.701  -0.159  0.00  0.00     0.023 A 
ATOM      5  C4  UNL d   1      -0.892  -1.088   0.681  0.00  0.00     0.048 A 
ATOM      6  C5  UNL d   1      -0.961  -2.406   1.137  0.00  0.00     0.003 A 
ATOM      7  I   UNL d   1       0.259   1.259  -0.841  0.00  0.00    -0.146 I 
ENDROOT
TORSDOF 0
ENDMDL
