MODEL 1
REMARK minimizedAffinity -3.76173615
REMARK minimizedRMSD -1
REMARK  0 active torsions:
REMARK  status: ('A' for Active; 'I' for Inactive)
ROOT
ATOM      1  C   UNL d   1      -0.204  -1.569   0.143  0.00  0.00     0.023 A 
ATOM      2  C1  UNL d   1      -0.596  -0.884   1.293  0.00  0.00     0.003 A 
ATOM      3  C2  UNL d   1      -0.161   0.425   1.510  0.00  0.00     0.048 A 
ATOM      4  C3  UNL d   1       0.665   1.044   0.571  0.00  0.00     0.023 A 
ATOM      5  C4  UNL d   1       1.059   0.362  -0.581  0.00  0.00     0.048 A 
ATOM      6  C5  UNL d   1       0.623  -0.947  -0.793  0.00  0.00     0.003 A 
ATOM      7  I   UNL d   1       1.313   2.992   0.891  0.00  0.00    -0.146 I 
ENDROOT
TORSDOF 0
ENDMDL
