MODEL 1
REMARK minimizedAffinity -3.79489827
REMARK minimizedRMSD -1
REMARK  0 active torsions:
REMARK  status: ('A' for Active; 'I' for Inactive)
ROOT
ATOM      1  C   UNL d   1      -0.549  -3.394   0.637  0.00  0.00     0.023 A 
ATOM      2  C1  UNL d   1      -1.239  -2.336   1.228  0.00  0.00     0.003 A 
ATOM      3  C2  UNL d   1      -0.934  -1.019   0.876  0.00  0.00     0.048 A 
ATOM      4  C3  UNL d   1       0.062  -0.769  -0.067  0.00  0.00     0.023 A 
ATOM      5  C4  UNL d   1       0.754  -1.825  -0.662  0.00  0.00     0.048 A 
ATOM      6  C5  UNL d   1       0.446  -3.140  -0.306  0.00  0.00     0.003 A 
ATOM      7  I   UNL d   1       0.518   1.190  -0.592  0.00  0.00    -0.146 I 
ENDROOT
TORSDOF 0
ENDMDL
