MODEL 1
REMARK minimizedAffinity -3.31603312
REMARK minimizedRMSD -1
REMARK  0 active torsions:
REMARK  status: ('A' for Active; 'I' for Inactive)
ROOT
ATOM      1  C   UNL d   1      -0.570  -1.696   0.414  0.00  0.00     0.023 A 
ATOM      2  C1  UNL d   1       0.516  -1.574  -0.454  0.00  0.00     0.003 A 
ATOM      3  C2  UNL d   1       1.180  -0.351  -0.575  0.00  0.00     0.048 A 
ATOM      4  C3  UNL d   1       0.753   0.745   0.174  0.00  0.00     0.023 A 
ATOM      5  C4  UNL d   1      -0.332   0.626   1.044  0.00  0.00     0.048 A 
ATOM      6  C5  UNL d   1      -0.993  -0.598   1.162  0.00  0.00     0.003 A 
ATOM      7  I   UNL d   1       1.739   2.565  -0.004  0.00  0.00    -0.146 I 
ENDROOT
TORSDOF 0
ENDMDL
