MODEL 1
REMARK minimizedAffinity -2.46797013
REMARK minimizedRMSD -1
REMARK  0 active torsions:
REMARK  status: ('A' for Active; 'I' for Inactive)
ROOT
ATOM      1  C   UNL d   1      -0.904  -2.807   0.327  0.00  0.00     0.023 A 
ATOM      2  C1  UNL d   1       0.143  -2.510  -0.545  0.00  0.00     0.003 A 
ATOM      3  C2  UNL d   1       0.568  -1.190  -0.704  0.00  0.00     0.048 A 
ATOM      4  C3  UNL d   1      -0.059  -0.171   0.013  0.00  0.00     0.023 A 
ATOM      5  C4  UNL d   1      -1.106  -0.463   0.887  0.00  0.00     0.048 A 
ATOM      6  C5  UNL d   1      -1.528  -1.785   1.043  0.00  0.00     0.003 A 
ATOM      7  I   UNL d   1       0.572   1.796  -0.222  0.00  0.00    -0.146 I 
ENDROOT
TORSDOF 0
ENDMDL
