MODEL 1
REMARK minimizedAffinity -3.43175697
REMARK minimizedRMSD -1
REMARK  0 active torsions:
REMARK  status: ('A' for Active; 'I' for Inactive)
ROOT
ATOM      1  C   UNL d   1      -0.662  -2.446   0.874  0.00  0.00     0.023 A 
ATOM      2  C1  UNL d   1      -1.071  -1.455   1.767  0.00  0.00     0.003 A 
ATOM      3  C2  UNL d   1      -0.651  -0.135   1.588  0.00  0.00     0.048 A 
ATOM      4  C3  UNL d   1       0.175   0.187   0.512  0.00  0.00     0.023 A 
ATOM      5  C4  UNL d   1       0.586  -0.801  -0.385  0.00  0.00     0.048 A 
ATOM      6  C5  UNL d   1       0.165  -2.119  -0.201  0.00  0.00     0.003 A 
ATOM      7  I   UNL d   1       0.801   2.151   0.242  0.00  0.00    -0.146 I 
ENDROOT
TORSDOF 0
ENDMDL
