MODEL 1
REMARK minimizedAffinity -0.431865007
REMARK minimizedRMSD -1
REMARK  0 active torsions:
REMARK  status: ('A' for Active; 'I' for Inactive)
ROOT
ATOM      1  C   UNL d   1      -0.042  -3.681   0.724  0.00  0.00     0.023 A 
ATOM      2  C1  UNL d   1      -1.219  -2.931   0.743  0.00  0.00     0.003 A 
ATOM      3  C2  UNL d   1      -1.188  -1.573   0.422  0.00  0.00     0.048 A 
ATOM      4  C3  UNL d   1       0.023  -0.970   0.083  0.00  0.00     0.023 A 
ATOM      5  C4  UNL d   1       1.202  -1.716   0.062  0.00  0.00     0.048 A 
ATOM      6  C5  UNL d   1       1.167  -3.074   0.384  0.00  0.00     0.003 A 
ATOM      7  I   UNL d   1       0.072   1.052  -0.395  0.00  0.00    -0.146 I 
ENDROOT
TORSDOF 0
ENDMDL
