MODEL 1
REMARK minimizedAffinity -2.54746008
REMARK minimizedRMSD -1
REMARK  0 active torsions:
REMARK  status: ('A' for Active; 'I' for Inactive)
ROOT
ATOM      1  C   UNL d   1      -0.411  -2.866   0.616  0.00  0.00     0.023 A 
ATOM      2  C1  UNL d   1      -1.163  -2.003   1.413  0.00  0.00     0.003 A 
ATOM      3  C2  UNL d   1      -1.122  -0.626   1.185  0.00  0.00     0.048 A 
ATOM      4  C3  UNL d   1      -0.326  -0.119   0.159  0.00  0.00     0.023 A 
ATOM      5  C4  UNL d   1       0.429  -0.978  -0.641  0.00  0.00     0.048 A 
ATOM      6  C5  UNL d   1       0.384  -2.355  -0.409  0.00  0.00     0.003 A 
ATOM      7  I   UNL d   1      -0.262   1.930  -0.182  0.00  0.00    -0.146 I 
ENDROOT
TORSDOF 0
ENDMDL
