MODEL 1
REMARK minimizedAffinity -2.81389523
REMARK minimizedRMSD -1
REMARK  0 active torsions:
REMARK  status: ('A' for Active; 'I' for Inactive)
ROOT
ATOM      1  C   UNL d   1      -0.285  -2.995   0.410  0.00  0.00     0.023 A 
ATOM      2  C1  UNL d   1       0.745  -2.567  -0.428  0.00  0.00     0.003 A 
ATOM      3  C2  UNL d   1       0.970  -1.202  -0.619  0.00  0.00     0.048 A 
ATOM      4  C3  UNL d   1       0.162  -0.271   0.031  0.00  0.00     0.023 A 
ATOM      5  C4  UNL d   1      -0.870  -0.694   0.871  0.00  0.00     0.048 A 
ATOM      6  C5  UNL d   1      -1.091  -2.060   1.059  0.00  0.00     0.003 A 
ATOM      7  I   UNL d   1       0.494   1.761  -0.252  0.00  0.00    -0.146 I 
ENDROOT
TORSDOF 0
ENDMDL
