MODEL 1
REMARK minimizedAffinity -0.721860647
REMARK minimizedRMSD -1
REMARK  0 active torsions:
REMARK  status: ('A' for Active; 'I' for Inactive)
ROOT
ATOM      1  C4' PXY d   1      -3.175  -0.615   0.358  0.00  0.00     0.077 C 
ATOM      2  C1' PXY d   1       2.436   0.583  -0.345  0.00  0.00     0.077 C 
ATOM      3  C1  PXY d   1       0.967   0.260  -0.152  0.00  0.00    -0.082 A 
ATOM      4  C2  PXY d   1       0.105   0.534  -1.117  0.00  0.00     0.003 A 
ATOM      5  C3  PXY d   1      -1.231   0.278  -0.946  0.00  0.00     0.003 A 
ATOM      6  C4  PXY d   1      -1.682  -0.315   0.203  0.00  0.00    -0.082 A 
ATOM      7  C5  PXY d   1      -0.807  -0.607   1.188  0.00  0.00     0.003 A 
ATOM      8  C6  PXY d   1       0.540  -0.301   1.011  0.00  0.00     0.003 A 
ENDROOT
TORSDOF 0
ENDMDL
