MODEL 1
REMARK minimizedAffinity -2.65645599
REMARK minimizedRMSD -1
REMARK  0 active torsions:
REMARK  status: ('A' for Active; 'I' for Inactive)
ROOT
ATOM      1  C4' PXY d   1       3.075   1.788   0.456  0.00  0.00     0.077 C 
ATOM      2  C1' PXY d   1      -1.780  -0.913  -1.140  0.00  0.00     0.077 C 
ATOM      3  C1  PXY d   1      -0.507  -0.211  -0.710  0.00  0.00    -0.082 A 
ATOM      4  C2  PXY d   1      -0.185   0.951  -1.254  0.00  0.00     0.003 A 
ATOM      5  C3  PXY d   1       0.978   1.584  -0.900  0.00  0.00     0.003 A 
ATOM      6  C4  PXY d   1       1.795   1.048   0.059  0.00  0.00    -0.082 A 
ATOM      7  C5  PXY d   1       1.468  -0.133   0.626  0.00  0.00     0.003 A 
ATOM      8  C6  PXY d   1       0.304  -0.780   0.223  0.00  0.00     0.003 A 
ENDROOT
TORSDOF 0
ENDMDL
