MODEL 1
REMARK minimizedAffinity -4.64357615
REMARK minimizedRMSD -1
REMARK  0 active torsions:
REMARK  status: ('A' for Active; 'I' for Inactive)
ROOT
ATOM      1  C4' PXY d   1      -3.682  -0.813   0.380  0.00  0.00     0.077 C 
ATOM      2  C1' PXY d   1       2.037   0.011   0.219  0.00  0.00     0.077 C 
ATOM      3  C1  PXY d   1       0.539  -0.215   0.269  0.00  0.00    -0.082 A 
ATOM      4  C2  PXY d   1      -0.217   0.183  -0.741  0.00  0.00     0.003 A 
ATOM      5  C3  PXY d   1      -1.577   0.016  -0.697  0.00  0.00     0.003 A 
ATOM      6  C4  PXY d   1      -2.164  -0.614   0.368  0.00  0.00    -0.082 A 
ATOM      7  C5  PXY d   1      -1.398  -1.033   1.397  0.00  0.00     0.003 A 
ATOM      8  C6  PXY d   1      -0.024  -0.817   1.352  0.00  0.00     0.003 A 
ENDROOT
TORSDOF 0
ENDMDL
