MODEL 1
REMARK minimizedAffinity -4.050735
REMARK minimizedRMSD -1
REMARK  0 active torsions:
REMARK  status: ('A' for Active; 'I' for Inactive)
ROOT
ATOM      1  C4' PXY d   1      -3.119  -0.627  -0.057  0.00  0.00     0.077 C 
ATOM      2  C1' PXY d   1       2.460   0.884  -0.064  0.00  0.00     0.077 C 
ATOM      3  C1  PXY d   1       0.999   0.481  -0.052  0.00  0.00    -0.082 A 
ATOM      4  C2  PXY d   1       0.304   0.506  -1.177  0.00  0.00     0.003 A 
ATOM      5  C3  PXY d   1      -1.027   0.175  -1.178  0.00  0.00     0.003 A 
ATOM      6  C4  PXY d   1      -1.639  -0.237  -0.024  0.00  0.00    -0.082 A 
ATOM      7  C5  PXY d   1      -0.934  -0.276   1.126  0.00  0.00     0.003 A 
ATOM      8  C6  PXY d   1       0.405   0.103   1.113  0.00  0.00     0.003 A 
ENDROOT
TORSDOF 0
ENDMDL
