MODEL 1
REMARK minimizedAffinity -4.09243584
REMARK minimizedRMSD -1
REMARK  0 active torsions:
REMARK  status: ('A' for Active; 'I' for Inactive)
ROOT
ATOM      1  C4' PXY d   1       3.043   2.290   1.456  0.00  0.00     0.077 C 
ATOM      2  C1' PXY d   1      -1.469  -0.559  -0.767  0.00  0.00     0.077 C 
ATOM      3  C1  PXY d   1      -0.279   0.177  -0.184  0.00  0.00    -0.082 A 
ATOM      4  C2  PXY d   1      -0.470   1.299   0.491  0.00  0.00     0.003 A 
ATOM      5  C3  PXY d   1       0.598   1.994   0.998  0.00  0.00     0.003 A 
ATOM      6  C4  PXY d   1       1.870   1.508   0.858  0.00  0.00    -0.082 A 
ATOM      7  C5  PXY d   1       2.072   0.359   0.180  0.00  0.00     0.003 A 
ATOM      8  C6  PXY d   1       0.979  -0.310  -0.362  0.00  0.00     0.003 A 
ENDROOT
TORSDOF 0
ENDMDL
