MODEL 1
REMARK minimizedAffinity -2.75195813
REMARK minimizedRMSD -1
REMARK  0 active torsions:
REMARK  status: ('A' for Active; 'I' for Inactive)
ROOT
ATOM      1  C4' PXY d   1      -3.509  -1.222  -0.243  0.00  0.00     0.077 C 
ATOM      2  C1' PXY d   1       1.996   0.366   0.529  0.00  0.00     0.077 C 
ATOM      3  C1  PXY d   1       0.554  -0.061   0.334  0.00  0.00    -0.082 A 
ATOM      4  C2  PXY d   1      -0.121   0.377  -0.717  0.00  0.00     0.003 A 
ATOM      5  C3  PXY d   1      -1.435   0.026  -0.892  0.00  0.00     0.003 A 
ATOM      6  C4  PXY d   1      -2.048  -0.824  -0.011  0.00  0.00    -0.082 A 
ATOM      7  C5  PXY d   1      -1.363  -1.283   1.058  0.00  0.00     0.003 A 
ATOM      8  C6  PXY d   1      -0.042  -0.882   1.239  0.00  0.00     0.003 A 
ENDROOT
TORSDOF 0
ENDMDL
