MODEL 1
REMARK minimizedAffinity -2.90758252
REMARK minimizedRMSD -1
REMARK  0 active torsions:
REMARK  status: ('A' for Active; 'I' for Inactive)
ROOT
ATOM      1  C4' PXY d   1       1.906   0.425  -0.594  0.00  0.00     0.077 C 
ATOM      2  C1' PXY d   1      -3.593  -1.256   0.004  0.00  0.00     0.077 C 
ATOM      3  C1  PXY d   1      -2.150  -0.814  -0.140  0.00  0.00    -0.082 A 
ATOM      4  C2  PXY d   1      -1.740  -0.279  -1.278  0.00  0.00     0.003 A 
ATOM      5  C3  PXY d   1      -0.431   0.097  -1.437  0.00  0.00     0.003 A 
ATOM      6  C4  PXY d   1       0.455  -0.027  -0.401  0.00  0.00    -0.082 A 
ATOM      7  C5  PXY d   1       0.043  -0.562   0.768  0.00  0.00     0.003 A 
ATOM      8  C6  PXY d   1      -1.281  -0.975   0.895  0.00  0.00     0.003 A 
ENDROOT
TORSDOF 0
ENDMDL
