MODEL 1
REMARK minimizedAffinity -2.74795485
REMARK minimizedRMSD -1
REMARK  0 active torsions:
REMARK  status: ('A' for Active; 'I' for Inactive)
ROOT
ATOM      1  C4' PXY d   1       2.688   0.874  -0.216  0.00  0.00     0.077 C 
ATOM      2  C1' PXY d   1      -2.901  -0.593  -0.347  0.00  0.00     0.077 C 
ATOM      3  C1  PXY d   1      -1.436  -0.207  -0.300  0.00  0.00    -0.082 A 
ATOM      4  C2  PXY d   1      -0.859   0.304  -1.376  0.00  0.00     0.003 A 
ATOM      5  C3  PXY d   1       0.473   0.629  -1.360  0.00  0.00     0.003 A 
ATOM      6  C4  PXY d   1       1.209   0.479  -0.216  0.00  0.00    -0.082 A 
ATOM      7  C5  PXY d   1       0.625  -0.032   0.889  0.00  0.00     0.003 A 
ATOM      8  C6  PXY d   1      -0.718  -0.394   0.841  0.00  0.00     0.003 A 
ENDROOT
TORSDOF 0
ENDMDL
