MODEL 1
REMARK minimizedAffinity -3.73776889
REMARK minimizedRMSD -1
REMARK  0 active torsions:
REMARK  status: ('A' for Active; 'I' for Inactive)
ROOT
ATOM      1  C4' PXY d   1       3.328   0.695  -0.188  0.00  0.00     0.077 C 
ATOM      2  C1' PXY d   1      -2.208  -0.272   1.163  0.00  0.00     0.077 C 
ATOM      3  C1  PXY d   1      -0.753  -0.021   0.821  0.00  0.00    -0.082 A 
ATOM      4  C2  PXY d   1      -0.446   0.773  -0.191  0.00  0.00     0.003 A 
ATOM      5  C3  PXY d   1       0.864   0.985  -0.535  0.00  0.00     0.003 A 
ATOM      6  C4  PXY d   1       1.873   0.421   0.200  0.00  0.00    -0.082 A 
ATOM      7  C5  PXY d   1       1.568  -0.383   1.241  0.00  0.00     0.003 A 
ATOM      8  C6  PXY d   1       0.231  -0.618   1.547  0.00  0.00     0.003 A 
ENDROOT
TORSDOF 0
ENDMDL
