MODEL 1
REMARK minimizedAffinity -4.09575462
REMARK minimizedRMSD -1
REMARK  0 active torsions:
REMARK  status: ('A' for Active; 'I' for Inactive)
ROOT
ATOM      1  C4' PXY d   1       2.345   0.184  -0.084  0.00  0.00     0.077 C 
ATOM      2  C1' PXY d   1      -3.374  -0.651   0.033  0.00  0.00     0.077 C 
ATOM      3  C1  PXY d   1      -1.874  -0.431   0.015  0.00  0.00    -0.082 A 
ATOM      4  C2  PXY d   1      -1.292   0.017  -1.085  0.00  0.00     0.003 A 
ATOM      5  C3  PXY d   1       0.068   0.191  -1.129  0.00  0.00     0.003 A 
ATOM      6  C4  PXY d   1       0.832  -0.044  -0.017  0.00  0.00    -0.082 A 
ATOM      7  C5  PXY d   1       0.244  -0.490   1.113  0.00  0.00     0.003 A 
ATOM      8  C6  PXY d   1      -1.132  -0.700   1.123  0.00  0.00     0.003 A 
ENDROOT
TORSDOF 0
ENDMDL
