MODEL 1
REMARK minimizedAffinity 0.682240605
REMARK minimizedRMSD -1
REMARK  0 active torsions:
REMARK  status: ('A' for Active; 'I' for Inactive)
ROOT
ATOM      1  C4' PXY d   1      -4.743   5.939   5.999  0.00  0.00     0.077 C 
ATOM      2  C1' PXY d   1      -4.839   5.918   0.219  0.00  0.00     0.077 C 
ATOM      3  C1  PXY d   1      -4.825   5.929   1.735  0.00  0.00    -0.082 A 
ATOM      4  C2  PXY d   1      -3.671   5.881   2.380  0.00  0.00     0.003 A 
ATOM      5  C3  PXY d   1      -3.642   5.858   3.750  0.00  0.00     0.003 A 
ATOM      6  C4  PXY d   1      -4.804   5.939   4.469  0.00  0.00    -0.082 A 
ATOM      7  C5  PXY d   1      -5.986   5.999   3.819  0.00  0.00     0.003 A 
ATOM      8  C6  PXY d   1      -5.996   5.979   2.427  0.00  0.00     0.003 A 
ENDROOT
TORSDOF 0
ENDMDL
