MODEL 1
REMARK minimizedAffinity -5.12237072
REMARK minimizedRMSD -1
REMARK  0 active torsions:
REMARK  status: ('A' for Active; 'I' for Inactive)
ROOT
ATOM      1  C4' PXY d   1       4.875   3.626  -3.639  0.00  0.00     0.077 C 
ATOM      2  C1' PXY d   1       2.308   2.959   1.497  0.00  0.00     0.077 C 
ATOM      3  C1  PXY d   1       2.978   3.147   0.151  0.00  0.00    -0.082 A 
ATOM      4  C2  PXY d   1       3.076   2.121  -0.680  0.00  0.00     0.003 A 
ATOM      5  C3  PXY d   1       3.707   2.266  -1.889  0.00  0.00     0.003 A 
ATOM      6  C4  PXY d   1       4.197   3.485  -2.273  0.00  0.00    -0.082 A 
ATOM      7  C5  PXY d   1       4.092   4.538  -1.435  0.00  0.00     0.003 A 
ATOM      8  C6  PXY d   1       3.484   4.361  -0.196  0.00  0.00     0.003 A 
ENDROOT
TORSDOF 0
ENDMDL
