MODEL 1
REMARK minimizedAffinity -3.61590981
REMARK minimizedRMSD -1
REMARK  0 active torsions:
REMARK  status: ('A' for Active; 'I' for Inactive)
ROOT
ATOM      1  C4' PXY d   1       2.748   0.743   0.381  0.00  0.00     0.077 C 
ATOM      2  C1' PXY d   1      -2.655  -0.760  -1.016  0.00  0.00     0.077 C 
ATOM      3  C1  PXY d   1      -1.241  -0.366  -0.637  0.00  0.00    -0.082 A 
ATOM      4  C2  PXY d   1      -0.491   0.295  -1.504  0.00  0.00     0.003 A 
ATOM      5  C3  PXY d   1       0.800   0.630  -1.190  0.00  0.00     0.003 A 
ATOM      6  C4  PXY d   1       1.312   0.334   0.045  0.00  0.00    -0.082 A 
ATOM      7  C5  PXY d   1       0.550  -0.331   0.939  0.00  0.00     0.003 A 
ATOM      8  C6  PXY d   1      -0.745  -0.699   0.585  0.00  0.00     0.003 A 
ENDROOT
TORSDOF 0
ENDMDL
