MODEL 1
REMARK minimizedAffinity -3.15823412
REMARK minimizedRMSD -1
REMARK  0 active torsions:
REMARK  status: ('A' for Active; 'I' for Inactive)
ROOT
ATOM      1  C4' PXY d   1       2.274   1.124  -0.023  0.00  0.00     0.077 C 
ATOM      2  C1' PXY d   1      -3.102  -0.888  -0.705  0.00  0.00     0.077 C 
ATOM      3  C1  PXY d   1      -1.690  -0.360  -0.539  0.00  0.00    -0.082 A 
ATOM      4  C2  PXY d   1      -1.040  -0.577   0.592  0.00  0.00     0.003 A 
ATOM      5  C3  PXY d   1       0.225  -0.080   0.771  0.00  0.00     0.003 A 
ATOM      6  C4  PXY d   1       0.851   0.602  -0.238  0.00  0.00    -0.082 A 
ATOM      7  C5  PXY d   1       0.198   0.818  -1.400  0.00  0.00     0.003 A 
ATOM      8  C6  PXY d   1      -1.101   0.340  -1.546  0.00  0.00     0.003 A 
ENDROOT
TORSDOF 0
ENDMDL
