MODEL 1
REMARK minimizedAffinity -5.54262877
REMARK minimizedRMSD -1
REMARK  0 active torsions:
REMARK  status: ('A' for Active; 'I' for Inactive)
ROOT
ATOM      1  C4' PXY d   1       1.888   1.292   0.066  0.00  0.00     0.077 C 
ATOM      2  C1' PXY d   1      -3.405  -0.997  -0.330  0.00  0.00     0.077 C 
ATOM      3  C1  PXY d   1      -2.016  -0.398  -0.239  0.00  0.00    -0.082 A 
ATOM      4  C2  PXY d   1      -1.341  -0.481   0.896  0.00  0.00     0.003 A 
ATOM      5  C3  PXY d   1      -0.096   0.083   1.005  0.00  0.00     0.003 A 
ATOM      6  C4  PXY d   1       0.486   0.693  -0.074  0.00  0.00    -0.082 A 
ATOM      7  C5  PXY d   1      -0.193   0.773  -1.239  0.00  0.00     0.003 A 
ATOM      8  C6  PXY d   1      -1.472   0.229  -1.317  0.00  0.00     0.003 A 
ENDROOT
TORSDOF 0
ENDMDL
