MODEL 1
REMARK minimizedAffinity -5.03176928
REMARK minimizedRMSD -1
REMARK  0 active torsions:
REMARK  status: ('A' for Active; 'I' for Inactive)
ROOT
ATOM      1  C4' PXY d   1      -0.490   1.017  -1.986  0.00  0.00     0.077 C 
ATOM      2  C1' PXY d   1      -3.168  -2.912   1.302  0.00  0.00     0.077 C 
ATOM      3  C1  PXY d   1      -2.462  -1.875   0.451  0.00  0.00    -0.082 A 
ATOM      4  C2  PXY d   1      -2.858  -1.672  -0.795  0.00  0.00     0.003 A 
ATOM      5  C3  PXY d   1      -2.210  -0.761  -1.589  0.00  0.00     0.003 A 
ATOM      6  C4  PXY d   1      -1.180  -0.012  -1.087  0.00  0.00    -0.082 A 
ATOM      7  C5  PXY d   1      -0.776  -0.206   0.187  0.00  0.00     0.003 A 
ATOM      8  C6  PXY d   1      -1.421  -1.165   0.964  0.00  0.00     0.003 A 
ENDROOT
TORSDOF 0
ENDMDL
