MODEL 1
REMARK minimizedAffinity -5.09858704
REMARK minimizedRMSD -1
REMARK  0 active torsions:
REMARK  status: ('A' for Active; 'I' for Inactive)
ROOT
ATOM      1  C4' PXY d   1      -3.320  -1.399  -0.184  0.00  0.00     0.077 C 
ATOM      2  C1' PXY d   1       2.152   0.442   0.101  0.00  0.00     0.077 C 
ATOM      3  C1  PXY d   1       0.720  -0.051   0.034  0.00  0.00    -0.082 A 
ATOM      4  C2  PXY d   1      -0.038   0.280  -0.999  0.00  0.00     0.003 A 
ATOM      5  C3  PXY d   1      -1.345  -0.131  -1.060  0.00  0.00     0.003 A 
ATOM      6  C4  PXY d   1      -1.866  -0.932  -0.080  0.00  0.00    -0.082 A 
ATOM      7  C5  PXY d   1      -1.096  -1.282   0.973  0.00  0.00     0.003 A 
ATOM      8  C6  PXY d   1       0.216  -0.821   1.036  0.00  0.00     0.003 A 
ENDROOT
TORSDOF 0
ENDMDL
