MODEL 1
REMARK minimizedAffinity -2.91178751
REMARK minimizedRMSD -1
REMARK  0 active torsions:
REMARK  status: ('A' for Active; 'I' for Inactive)
ROOT
ATOM      1  C4' PXY d   1      -3.162  -1.365  -0.459  0.00  0.00     0.077 C 
ATOM      2  C1' PXY d   1       2.263   0.444   0.382  0.00  0.00     0.077 C 
ATOM      3  C1  PXY d   1       0.843  -0.042   0.166  0.00  0.00    -0.082 A 
ATOM      4  C2  PXY d   1       0.096   0.517  -0.772  0.00  0.00     0.003 A 
ATOM      5  C3  PXY d   1      -1.200   0.111  -0.959  0.00  0.00     0.003 A 
ATOM      6  C4  PXY d   1      -1.720  -0.913  -0.213  0.00  0.00    -0.082 A 
ATOM      7  C5  PXY d   1      -0.961  -1.495   0.739  0.00  0.00     0.003 A 
ATOM      8  C6  PXY d   1       0.339  -1.041   0.941  0.00  0.00     0.003 A 
ENDROOT
TORSDOF 0
ENDMDL
