MODEL 1
REMARK minimizedAffinity -3.45281363
REMARK minimizedRMSD -1
REMARK  0 active torsions:
REMARK  status: ('A' for Active; 'I' for Inactive)
ROOT
ATOM      1  C4' PXY d   1       2.089   0.461   0.070  0.00  0.00     0.077 C 
ATOM      2  C1' PXY d   1      -3.574  -0.576  -0.459  0.00  0.00     0.077 C 
ATOM      3  C1  PXY d   1      -2.090  -0.301  -0.308  0.00  0.00    -0.082 A 
ATOM      4  C2  PXY d   1      -1.380   0.058  -1.365  0.00  0.00     0.003 A 
ATOM      5  C3  PXY d   1      -0.032   0.279  -1.252  0.00  0.00     0.003 A 
ATOM      6  C4  PXY d   1       0.586   0.183  -0.034  0.00  0.00    -0.082 A 
ATOM      7  C5  PXY d   1      -0.133  -0.173   1.051  0.00  0.00     0.003 A 
ATOM      8  C6  PXY d   1      -1.493  -0.433   0.907  0.00  0.00     0.003 A 
ENDROOT
TORSDOF 0
ENDMDL
