MODEL 1
REMARK minimizedAffinity -0.226218551
REMARK minimizedRMSD -1
REMARK  1 active torsions:
REMARK  status: ('A' for Active; 'I' for Inactive)
REMARK    1  A    between atoms: C1_2  and  C2_3 
ROOT
ATOM      1  C2  UNL d   1      -1.928  -1.202   0.644  0.00  0.00    -0.073 A 
ATOM      2  C3  UNL d   1      -1.412  -0.736   1.859  0.00  0.00    -0.002 A 
ATOM      3  C4  UNL d   1      -2.111   0.217   2.602  0.00  0.00     0.004 A 
ATOM      4  C5  UNL d   1      -3.333   0.708   2.143  0.00  0.00    -0.004 A 
ATOM      5  C6  UNL d   1      -3.871   0.246   0.937  0.00  0.00    -0.075 A 
ATOM      6  C7  UNL d   1      -5.183   0.765   0.429  0.00  0.00     0.076 C 
ATOM      7  C8  UNL d   1      -3.162  -0.709   0.196  0.00  0.00     0.001 A 
ENDROOT
BRANCH   1   8
ATOM      8  C1  UNL d   1      -1.181  -2.235  -0.158  0.00  0.00     0.053 C 
ATOM      9  C   UNL d   1      -0.831  -1.733  -1.550  0.00  0.00     0.018 C 
ENDBRANCH   1   8
TORSDOF 1
ENDMDL
