MODEL 1
REMARK minimizedAffinity 0.508197069
REMARK minimizedRMSD -1
REMARK  1 active torsions:
REMARK  status: ('A' for Active; 'I' for Inactive)
REMARK    1  A    between atoms: C1_2  and  C2_3 
ROOT
ATOM      1  C2  UNL d   1      -0.268  -0.911  -3.917  0.00  0.00    -0.073 A 
ATOM      2  C3  UNL d   1       0.545  -0.292  -4.873  0.00  0.00    -0.002 A 
ATOM      3  C4  UNL d   1      -0.024   0.447  -5.911  0.00  0.00     0.004 A 
ATOM      4  C5  UNL d   1      -1.410   0.581  -5.999  0.00  0.00    -0.004 A 
ATOM      5  C6  UNL d   1      -2.238  -0.020  -5.047  0.00  0.00    -0.075 A 
ATOM      6  C7  UNL d   1      -3.731   0.113  -5.129  0.00  0.00     0.076 C 
ATOM      7  C8  UNL d   1      -1.659  -0.763  -4.009  0.00  0.00     0.001 A 
ENDROOT
BRANCH   1   8
ATOM      8  C1  UNL d   1       0.343  -1.705  -2.792  0.00  0.00     0.053 C 
ATOM      9  C   UNL d   1       0.446  -3.184  -3.128  0.00  0.00     0.018 C 
ENDBRANCH   1   8
TORSDOF 1
ENDMDL
