MODEL 1
REMARK minimizedAffinity 2.86202693
REMARK minimizedRMSD -1
REMARK  1 active torsions:
REMARK  status: ('A' for Active; 'I' for Inactive)
REMARK    1  A    between atoms: C1_2  and  C2_3 
ROOT
ATOM      1  C2  UNL d   1      -3.728   0.567   1.600  0.00  0.00    -0.073 A 
ATOM      2  C3  UNL d   1      -2.824   0.819   2.638  0.00  0.00    -0.002 A 
ATOM      3  C4  UNL d   1      -1.632   0.098   2.727  0.00  0.00     0.004 A 
ATOM      4  C5  UNL d   1      -1.330  -0.876   1.776  0.00  0.00    -0.004 A 
ATOM      5  C6  UNL d   1      -2.215  -1.135   0.724  0.00  0.00    -0.075 A 
ATOM      6  C7  UNL d   1      -1.905  -2.181  -0.306  0.00  0.00     0.076 C 
ATOM      7  C8  UNL d   1      -3.410  -0.408   0.644  0.00  0.00     0.001 A 
ENDROOT
BRANCH   1   8
ATOM      8  C1  UNL d   1      -5.013   1.347   1.497  0.00  0.00     0.053 C 
ATOM      9  C   UNL d   1      -5.820   0.957   0.269  0.00  0.00     0.018 C 
ENDBRANCH   1   8
TORSDOF 1
ENDMDL
