MODEL 1
REMARK minimizedAffinity 13.0813074
REMARK minimizedRMSD -1
REMARK  0 active torsions:
REMARK  status: ('A' for Active; 'I' for Inactive)
ROOT
ATOM      1  N1  IND d   1      -5.991   3.874   5.636  0.00  0.00    -0.196 N 
ATOM      2  C2  IND d   1      -5.991   5.192   6.000  0.00  0.00     0.054 A 
ATOM      3  C3  IND d   1      -5.716   5.975   4.932  0.00  0.00    -0.031 A 
ATOM      4  C4  IND d   1      -5.335   5.312   2.474  0.00  0.00     0.051 A 
ATOM      5  C5  IND d   1      -5.203   4.222   1.660  0.00  0.00    -0.031 A 
ATOM      6  C6  IND d   1      -5.331   2.935   2.139  0.00  0.00     0.015 A 
ATOM      7  C7  IND d   1      -5.610   2.688   3.454  0.00  0.00    -0.016 A 
ATOM      8  C8  IND d   1      -5.738   3.793   4.285  0.00  0.00    -0.047 A 
ATOM      9  C9  IND d   1      -5.566   5.100   3.812  0.00  0.00    -0.096 A 
ATOM     10  HN1 IND d   1      -6.125   3.209   6.163  0.00  0.00     0.298 HD
ENDROOT
TORSDOF 0
ENDMDL
