MODEL 1
REMARK minimizedAffinity 5.68155813
REMARK minimizedRMSD -1
REMARK  0 active torsions:
REMARK  status: ('A' for Active; 'I' for Inactive)
ROOT
ATOM      1  N1  IND d   1       2.629   3.344   3.773  0.00  0.00    -0.196 N 
ATOM      2  C2  IND d   1       2.204   2.796   4.951  0.00  0.00     0.054 A 
ATOM      3  C3  IND d   1       2.876   3.338   5.991  0.00  0.00    -0.031 A 
ATOM      4  C4  IND d   1       4.641   5.212   6.000  0.00  0.00     0.051 A 
ATOM      5  C5  IND d   1       5.380   6.000   5.162  0.00  0.00    -0.031 A 
ATOM      6  C6  IND d   1       5.235   5.943   3.791  0.00  0.00     0.015 A 
ATOM      7  C7  IND d   1       4.333   5.101   3.205  0.00  0.00    -0.016 A 
ATOM      8  C8  IND d   1       3.586   4.295   4.052  0.00  0.00    -0.047 A 
ATOM      9  C9  IND d   1       3.759   4.317   5.442  0.00  0.00    -0.096 A 
ATOM     10  HN1 IND d   1       2.346   3.131   2.990  0.00  0.00     0.298 HD
ENDROOT
TORSDOF 0
ENDMDL
