MODEL 1
REMARK minimizedAffinity 9.95760632
REMARK minimizedRMSD -1
REMARK  0 active torsions:
REMARK  status: ('A' for Active; 'I' for Inactive)
ROOT
ATOM      1  N1  IND d   1       2.340   0.697  -1.243  0.00  0.00    -0.196 N 
ATOM      2  C2  IND d   1       2.486   1.894  -0.599  0.00  0.00     0.054 A 
ATOM      3  C3  IND d   1       2.414   1.720   0.739  0.00  0.00    -0.031 A 
ATOM      4  C4  IND d   1       2.161  -0.455   2.094  0.00  0.00     0.051 A 
ATOM      5  C5  IND d   1       1.953  -1.797   1.947  0.00  0.00    -0.031 A 
ATOM      6  C6  IND d   1       1.865  -2.390   0.704  0.00  0.00     0.015 A 
ATOM      7  C7  IND d   1       1.993  -1.659  -0.444  0.00  0.00    -0.016 A 
ATOM      8  C8  IND d   1       2.197  -0.295  -0.298  0.00  0.00    -0.047 A 
ATOM      9  C9  IND d   1       2.244   0.319   0.960  0.00  0.00    -0.096 A 
ATOM     10  HN1 IND d   1       2.337   0.583  -2.096  0.00  0.00     0.298 HD
ENDROOT
TORSDOF 0
ENDMDL
