MODEL 1
REMARK minimizedAffinity 8.08575726
REMARK minimizedRMSD -1
REMARK  0 active torsions:
REMARK  status: ('A' for Active; 'I' for Inactive)
ROOT
ATOM      1  N1  IND d   1       4.762   0.031  -1.881  0.00  0.00    -0.196 N 
ATOM      2  C2  IND d   1       4.560   0.988  -0.926  0.00  0.00     0.054 A 
ATOM      3  C3  IND d   1       3.673   0.552  -0.004  0.00  0.00    -0.031 A 
ATOM      4  C4  IND d   1       2.508  -1.736   0.191  0.00  0.00     0.051 A 
ATOM      5  C5  IND d   1       2.349  -2.923  -0.466  0.00  0.00    -0.031 A 
ATOM      6  C6  IND d   1       3.002  -3.193  -1.652  0.00  0.00     0.015 A 
ATOM      7  C7  IND d   1       3.851  -2.286  -2.220  0.00  0.00    -0.016 A 
ATOM      8  C8  IND d   1       4.009  -1.076  -1.559  0.00  0.00    -0.047 A 
ATOM      9  C9  IND d   1       3.316  -0.780  -0.378  0.00  0.00    -0.096 A 
ATOM     10  HN1 IND d   1       5.274   0.108  -2.568  0.00  0.00     0.298 HD
ENDROOT
TORSDOF 0
ENDMDL
