MODEL 1
REMARK minimizedAffinity 19.5622082
REMARK minimizedRMSD -1
REMARK  0 active torsions:
REMARK  status: ('A' for Active; 'I' for Inactive)
ROOT
ATOM      1  N1  IND d   1      -5.454   4.531   1.853  0.00  0.00    -0.196 N 
ATOM      2  C2  IND d   1      -5.496   3.179   1.658  0.00  0.00     0.054 A 
ATOM      3  C3  IND d   1      -5.664   2.539   2.837  0.00  0.00    -0.031 A 
ATOM      4  C4  IND d   1      -5.995   3.515   5.196  0.00  0.00     0.051 A 
ATOM      5  C5  IND d   1      -5.996   4.697   5.882  0.00  0.00    -0.031 A 
ATOM      6  C6  IND d   1      -5.815   5.909   5.247  0.00  0.00     0.015 A 
ATOM      7  C7  IND d   1      -5.637   5.985   3.894  0.00  0.00    -0.016 A 
ATOM      8  C8  IND d   1      -5.629   4.786   3.195  0.00  0.00    -0.047 A 
ATOM      9  C9  IND d   1      -5.769   3.550   3.840  0.00  0.00    -0.096 A 
ATOM     10  HN1 IND d   1      -5.337   5.123   1.240  0.00  0.00     0.298 HD
ENDROOT
TORSDOF 0
ENDMDL
