MODEL 1
REMARK minimizedAffinity 12.1341639
REMARK minimizedRMSD -1
REMARK  0 active torsions:
REMARK  status: ('A' for Active; 'I' for Inactive)
ROOT
ATOM      1  N1  IND d   1      -5.871   3.017   2.820  0.00  0.00    -0.196 N 
ATOM      2  C2  IND d   1      -5.984   3.835   1.730  0.00  0.00     0.054 A 
ATOM      3  C3  IND d   1      -5.587   5.089   2.041  0.00  0.00    -0.031 A 
ATOM      4  C4  IND d   1      -4.621   6.000   4.247  0.00  0.00     0.051 A 
ATOM      5  C5  IND d   1      -4.362   5.639   5.539  0.00  0.00    -0.031 A 
ATOM      6  C6  IND d   1      -4.595   4.360   6.000  0.00  0.00     0.015 A 
ATOM      7  C7  IND d   1      -5.087   3.385   5.178  0.00  0.00    -0.016 A 
ATOM      8  C8  IND d   1      -5.358   3.750   3.867  0.00  0.00    -0.047 A 
ATOM      9  C9  IND d   1      -5.164   5.058   3.405  0.00  0.00    -0.096 A 
ATOM     10  HN1 IND d   1      -6.085   2.184   2.846  0.00  0.00     0.298 HD
ENDROOT
TORSDOF 0
ENDMDL
