MODEL 1
REMARK minimizedAffinity 19.9938698
REMARK minimizedRMSD -1
REMARK  0 active torsions:
REMARK  status: ('A' for Active; 'I' for Inactive)
ROOT
ATOM      1  N1  IND d   1      -1.547  -4.824  -1.647  0.00  0.00    -0.196 N 
ATOM      2  C2  IND d   1      -1.505  -5.848  -0.743  0.00  0.00     0.054 A 
ATOM      3  C3  IND d   1      -0.403  -5.746   0.033  0.00  0.00    -0.031 A 
ATOM      4  C4  IND d   1       1.414  -3.922   0.061  0.00  0.00     0.051 A 
ATOM      5  C5  IND d   1       1.825  -2.801  -0.603  0.00  0.00    -0.031 A 
ATOM      6  C6  IND d   1       1.118  -2.285  -1.670  0.00  0.00     0.015 A 
ATOM      7  C7  IND d   1      -0.039  -2.867  -2.106  0.00  0.00    -0.016 A 
ATOM      8  C8  IND d   1      -0.456  -4.009  -1.438  0.00  0.00    -0.047 A 
ATOM      9  C9  IND d   1       0.281  -4.562  -0.382  0.00  0.00    -0.096 A 
ATOM     10  HN1 IND d   1      -2.153  -4.707  -2.245  0.00  0.00     0.298 HD
ENDROOT
TORSDOF 0
ENDMDL
