MODEL 1
REMARK minimizedAffinity 13.8557997
REMARK minimizedRMSD -1
REMARK  0 active torsions:
REMARK  status: ('A' for Active; 'I' for Inactive)
ROOT
ATOM      1  N1  IND d   1       3.734  -1.546  -0.647  0.00  0.00    -0.196 N 
ATOM      2  C2  IND d   1       2.527  -2.027  -0.222  0.00  0.00     0.054 A 
ATOM      3  C3  IND d   1       1.845  -1.065   0.439  0.00  0.00    -0.031 A 
ATOM      4  C4  IND d   1       2.475   1.396   0.855  0.00  0.00     0.051 A 
ATOM      5  C5  IND d   1       3.495   2.289   0.688  0.00  0.00    -0.031 A 
ATOM      6  C6  IND d   1       4.671   1.944   0.053  0.00  0.00     0.015 A 
ATOM      7  C7  IND d   1       4.865   0.689  -0.452  0.00  0.00    -0.016 A 
ATOM      8  C8  IND d   1       3.834  -0.223  -0.278  0.00  0.00    -0.047 A 
ATOM      9  C9  IND d   1       2.656   0.110   0.403  0.00  0.00    -0.096 A 
ATOM     10  HN1 IND d   1       4.331  -1.996  -1.072  0.00  0.00     0.298 HD
ENDROOT
TORSDOF 0
ENDMDL
