MODEL 1
REMARK minimizedAffinity 3.43549061
REMARK minimizedRMSD -1
REMARK  0 active torsions:
REMARK  status: ('A' for Active; 'I' for Inactive)
ROOT
ATOM      1  N1  IND d   1       0.177  -4.114  -0.467  0.00  0.00    -0.196 N 
ATOM      2  C2  IND d   1      -0.945  -3.879  -1.212  0.00  0.00     0.054 A 
ATOM      3  C3  IND d   1      -0.941  -2.611  -1.680  0.00  0.00    -0.031 A 
ATOM      4  C4  IND d   1       0.854  -0.782  -1.434  0.00  0.00     0.051 A 
ATOM      5  C5  IND d   1       2.041  -0.514  -0.811  0.00  0.00    -0.031 A 
ATOM      6  C6  IND d   1       2.681  -1.452  -0.029  0.00  0.00     0.015 A 
ATOM      7  C7  IND d   1       2.162  -2.703   0.152  0.00  0.00    -0.016 A 
ATOM      8  C8  IND d   1       0.954  -2.976  -0.473  0.00  0.00    -0.047 A 
ATOM      9  C9  IND d   1       0.278  -2.014  -1.233  0.00  0.00    -0.096 A 
ATOM     10  HN1 IND d   1       0.367  -4.849  -0.063  0.00  0.00     0.298 HD
ENDROOT
TORSDOF 0
ENDMDL
