MODEL 1
REMARK minimizedAffinity 22.6631069
REMARK minimizedRMSD -1
REMARK  0 active torsions:
REMARK  status: ('A' for Active; 'I' for Inactive)
ROOT
ATOM      1  N1  IND d   1       2.069   1.682   3.741  0.00  0.00    -0.196 N 
ATOM      2  C2  IND d   1       2.056   3.040   3.898  0.00  0.00     0.054 A 
ATOM      3  C3  IND d   1       2.066   3.653   2.693  0.00  0.00    -0.031 A 
ATOM      4  C4  IND d   1       2.002   2.624   0.334  0.00  0.00     0.051 A 
ATOM      5  C5  IND d   1       2.042   1.425  -0.319  0.00  0.00    -0.031 A 
ATOM      6  C6  IND d   1       2.092   0.225   0.361  0.00  0.00     0.015 A 
ATOM      7  C7  IND d   1       2.091   0.180   1.727  0.00  0.00    -0.016 A 
ATOM      8  C8  IND d   1       2.058   1.396   2.393  0.00  0.00    -0.047 A 
ATOM      9  C9  IND d   1       2.051   2.618   1.708  0.00  0.00    -0.096 A 
ATOM     10  HN1 IND d   1       2.082   1.103   4.377  0.00  0.00     0.298 HD
ENDROOT
TORSDOF 0
ENDMDL
