MODEL 1
REMARK minimizedAffinity 16.4276505
REMARK minimizedRMSD -1
REMARK  0 active torsions:
REMARK  status: ('A' for Active; 'I' for Inactive)
ROOT
ATOM      1  N1  IND d   1      -5.720   2.192   5.519  0.00  0.00    -0.196 N 
ATOM      2  C2  IND d   1      -4.975   1.493   4.611  0.00  0.00     0.054 A 
ATOM      3  C3  IND d   1      -4.268   2.341   3.830  0.00  0.00    -0.031 A 
ATOM      4  C4  IND d   1      -4.106   4.908   3.932  0.00  0.00     0.051 A 
ATOM      5  C5  IND d   1      -4.633   5.996   4.570  0.00  0.00    -0.031 A 
ATOM      6  C6  IND d   1      -5.565   5.869   5.579  0.00  0.00     0.015 A 
ATOM      7  C7  IND d   1      -6.000   4.643   5.998  0.00  0.00    -0.016 A 
ATOM      8  C8  IND d   1      -5.473   3.536   5.347  0.00  0.00    -0.047 A 
ATOM      9  C9  IND d   1      -4.558   3.661   4.294  0.00  0.00    -0.096 A 
ATOM     10  HN1 IND d   1      -6.254   1.850   6.100  0.00  0.00     0.298 HD
ENDROOT
TORSDOF 0
ENDMDL
