MODEL 1
REMARK minimizedAffinity 2.11675811
REMARK minimizedRMSD -1
REMARK  0 active torsions:
REMARK  status: ('A' for Active; 'I' for Inactive)
ROOT
ATOM      1  N1  IND d   1      -2.641   5.996   1.958  0.00  0.00    -0.196 N 
ATOM      2  C2  IND d   1      -3.272   5.973   0.745  0.00  0.00     0.054 A 
ATOM      3  C3  IND d   1      -4.613   5.921   0.914  0.00  0.00    -0.031 A 
ATOM      4  C4  IND d   1      -5.991   5.966   3.088  0.00  0.00     0.051 A 
ATOM      5  C5  IND d   1      -5.858   5.948   4.448  0.00  0.00    -0.031 A 
ATOM      6  C6  IND d   1      -4.621   5.947   5.060  0.00  0.00     0.015 A 
ATOM      7  C7  IND d   1      -3.466   5.977   4.331  0.00  0.00    -0.016 A 
ATOM      8  C8  IND d   1      -3.597   5.989   2.950  0.00  0.00    -0.047 A 
ATOM      9  C9  IND d   1      -4.849   5.946   2.323  0.00  0.00    -0.096 A 
ATOM     10  HN1 IND d   1      -1.790   6.013   2.080  0.00  0.00     0.298 HD
ENDROOT
TORSDOF 0
ENDMDL
