MODEL 1
REMARK minimizedAffinity -2.41980457
REMARK minimizedRMSD -1
REMARK  0 active torsions:
REMARK  status: ('A' for Active; 'I' for Inactive)
ROOT
ATOM      1  O1  BZF d   1       1.284   0.531  -0.484  0.00  0.00    -0.204 OA
ATOM      2  C2  BZF d   1      -0.040   0.232  -0.223  0.00  0.00     0.174 A 
ATOM      3  C3  BZF d   1      -0.656   1.272   0.374  0.00  0.00    -0.012 A 
ATOM      4  C3A BZF d   1       0.319   2.318   0.409  0.00  0.00    -0.107 A 
ATOM      5  C4  BZF d   1       0.300   3.605   0.867  0.00  0.00     0.055 A 
ATOM      6  C5  BZF d   1       1.442   4.339   0.820  0.00  0.00    -0.016 A 
ATOM      7  C6  BZF d   1       2.621   3.819   0.327  0.00  0.00     0.022 A 
ATOM      8  C7  BZF d   1       2.687   2.550  -0.144  0.00  0.00     0.029 A 
ATOM      9  C7A BZF d   1       1.527   1.815  -0.128  0.00  0.00     0.058 A 
ENDROOT
TORSDOF 0
ENDMDL
