MODEL 1
REMARK minimizedAffinity -2.31111836
REMARK minimizedRMSD -1
REMARK  0 active torsions:
REMARK  status: ('A' for Active; 'I' for Inactive)
ROOT
ATOM      1  O1  BZF d   1       0.938   0.581  -0.130  0.00  0.00    -0.204 OA
ATOM      2  C2  BZF d   1      -0.024   1.340   0.508  0.00  0.00     0.174 A 
ATOM      3  C3  BZF d   1      -1.050   0.566   0.917  0.00  0.00    -0.012 A 
ATOM      4  C3A BZF d   1      -0.665  -0.773   0.591  0.00  0.00    -0.107 A 
ATOM      5  C4  BZF d   1      -1.260  -1.990   0.764  0.00  0.00     0.055 A 
ATOM      6  C5  BZF d   1      -0.652  -3.099   0.267  0.00  0.00    -0.016 A 
ATOM      7  C6  BZF d   1       0.547  -3.028  -0.411  0.00  0.00     0.022 A 
ATOM      8  C7  BZF d   1       1.178  -1.844  -0.603  0.00  0.00     0.029 A 
ATOM      9  C7A BZF d   1       0.583  -0.725  -0.073  0.00  0.00     0.058 A 
ENDROOT
TORSDOF 0
ENDMDL
