MODEL 1
REMARK minimizedAffinity -4.66344023
REMARK minimizedRMSD -1
REMARK  0 active torsions:
REMARK  status: ('A' for Active; 'I' for Inactive)
ROOT
ATOM      1  O1  BZF d   1      -1.780   0.147   0.486  0.00  0.00    -0.204 OA
ATOM      2  C2  BZF d   1      -1.008   1.147  -0.075  0.00  0.00     0.174 A 
ATOM      3  C3  BZF d   1       0.238   0.700  -0.335  0.00  0.00    -0.012 A 
ATOM      4  C3A BZF d   1       0.218  -0.689   0.006  0.00  0.00    -0.107 A 
ATOM      5  C4  BZF d   1       1.155  -1.682  -0.047  0.00  0.00     0.055 A 
ATOM      6  C5  BZF d   1       0.838  -2.915   0.429  0.00  0.00    -0.016 A 
ATOM      7  C6  BZF d   1      -0.403  -3.188   0.968  0.00  0.00     0.022 A 
ATOM      8  C7  BZF d   1      -1.366  -2.237   1.037  0.00  0.00     0.029 A 
ATOM      9  C7A BZF d   1      -1.059  -0.999   0.527  0.00  0.00     0.058 A 
ENDROOT
TORSDOF 0
ENDMDL
