MODEL 1
REMARK minimizedAffinity -4.85263729
REMARK minimizedRMSD -1
REMARK  0 active torsions:
REMARK  status: ('A' for Active; 'I' for Inactive)
ROOT
ATOM      1  O1  BZF d   1       0.366   0.548  -0.419  0.00  0.00    -0.204 OA
ATOM      2  C2  BZF d   1      -0.308   1.062   0.672  0.00  0.00     0.174 A 
ATOM      3  C3  BZF d   1      -0.872   0.074   1.395  0.00  0.00    -0.012 A 
ATOM      4  C3A BZF d   1      -0.453  -1.140   0.765  0.00  0.00    -0.107 A 
ATOM      5  C4  BZF d   1      -0.676  -2.461   1.030  0.00  0.00     0.055 A 
ATOM      6  C5  BZF d   1      -0.184  -3.398   0.178  0.00  0.00    -0.016 A 
ATOM      7  C6  BZF d   1       0.531  -3.051  -0.950  0.00  0.00     0.022 A 
ATOM      8  C7  BZF d   1       0.781  -1.753  -1.252  0.00  0.00     0.029 A 
ATOM      9  C7A BZF d   1       0.313  -0.805  -0.375  0.00  0.00     0.058 A 
ENDROOT
TORSDOF 0
ENDMDL
