MODEL 1
REMARK minimizedAffinity -5.21929932
REMARK minimizedRMSD -1
REMARK  0 active torsions:
REMARK  status: ('A' for Active; 'I' for Inactive)
ROOT
ATOM      1  O1  BZF d   1       0.881  -0.705  -2.075  0.00  0.00    -0.204 OA
ATOM      2  C2  BZF d   1       0.365   0.552  -2.323  0.00  0.00     0.174 A 
ATOM      3  C3  BZF d   1      -0.455   0.938  -1.325  0.00  0.00    -0.012 A 
ATOM      4  C3A BZF d   1      -0.379  -0.106  -0.350  0.00  0.00    -0.107 A 
ATOM      5  C4  BZF d   1      -0.957  -0.293   0.873  0.00  0.00     0.055 A 
ATOM      6  C5  BZF d   1      -0.733  -1.456   1.539  0.00  0.00    -0.016 A 
ATOM      7  C6  BZF d   1       0.059  -2.455   1.010  0.00  0.00     0.022 A 
ATOM      8  C7  BZF d   1       0.658  -2.313  -0.197  0.00  0.00     0.029 A 
ATOM      9  C7A BZF d   1       0.460  -1.125  -0.858  0.00  0.00     0.058 A 
ENDROOT
TORSDOF 0
ENDMDL
