MODEL 1
REMARK minimizedAffinity -4.55019093
REMARK minimizedRMSD -1
REMARK  0 active torsions:
REMARK  status: ('A' for Active; 'I' for Inactive)
ROOT
ATOM      1  O1  BZF d   1       0.618   0.228  -1.224  0.00  0.00    -0.204 OA
ATOM      2  C2  BZF d   1       0.254   1.474  -0.752  0.00  0.00     0.174 A 
ATOM      3  C3  BZF d   1      -0.631   1.363   0.260  0.00  0.00    -0.012 A 
ATOM      4  C3A BZF d   1      -0.762  -0.043   0.492  0.00  0.00    -0.107 A 
ATOM      5  C4  BZF d   1      -1.487  -0.784   1.381  0.00  0.00     0.055 A 
ATOM      6  C5  BZF d   1      -1.448  -2.139   1.297  0.00  0.00    -0.016 A 
ATOM      7  C6  BZF d   1      -0.701  -2.786   0.335  0.00  0.00     0.022 A 
ATOM      8  C7  BZF d   1       0.038  -2.094  -0.566  0.00  0.00     0.029 A 
ATOM      9  C7A BZF d   1       0.027  -0.725  -0.463  0.00  0.00     0.058 A 
ENDROOT
TORSDOF 0
ENDMDL
