MODEL 1
REMARK minimizedAffinity 0.18872942
REMARK minimizedRMSD -1
REMARK  0 active torsions:
REMARK  status: ('A' for Active; 'I' for Inactive)
ROOT
ATOM      1  O1  BZF d   1       1.520   0.422  -0.415  0.00  0.00    -0.204 OA
ATOM      2  C2  BZF d   1       0.193   0.035  -0.423  0.00  0.00     0.174 A 
ATOM      3  C3  BZF d   1      -0.592   1.012   0.075  0.00  0.00    -0.012 A 
ATOM      4  C3A BZF d   1       0.288   2.111   0.329  0.00  0.00    -0.107 A 
ATOM      5  C4  BZF d   1       0.099   3.373   0.814  0.00  0.00     0.055 A 
ATOM      6  C5  BZF d   1       1.178   4.175   1.010  0.00  0.00    -0.016 A 
ATOM      7  C6  BZF d   1       2.461   3.745   0.737  0.00  0.00     0.022 A 
ATOM      8  C7  BZF d   1       2.698   2.502   0.251  0.00  0.00     0.029 A 
ATOM      9  C7A BZF d   1       1.606   1.702   0.020  0.00  0.00     0.058 A 
ENDROOT
TORSDOF 0
ENDMDL
