MODEL 1
REMARK minimizedAffinity -3.3548131
REMARK minimizedRMSD -1
REMARK  0 active torsions:
REMARK  status: ('A' for Active; 'I' for Inactive)
ROOT
ATOM      1  O1  BZF d   1      -0.920  -2.628   1.068  0.00  0.00    -0.204 OA
ATOM      2  C2  BZF d   1      -0.011  -3.449   0.427  0.00  0.00     0.174 A 
ATOM      3  C3  BZF d   1       0.767  -2.737  -0.413  0.00  0.00    -0.012 A 
ATOM      4  C3A BZF d   1       0.378  -1.373  -0.222  0.00  0.00    -0.107 A 
ATOM      5  C4  BZF d   1       0.799  -0.192  -0.763  0.00  0.00     0.055 A 
ATOM      6  C5  BZF d   1       0.162   0.957  -0.417  0.00  0.00    -0.016 A 
ATOM      7  C6  BZF d   1      -0.901   0.962   0.462  0.00  0.00     0.022 A 
ATOM      8  C7  BZF d   1      -1.351  -0.184   1.029  0.00  0.00     0.029 A 
ATOM      9  C7A BZF d   1      -0.689  -1.343   0.706  0.00  0.00     0.058 A 
ENDROOT
TORSDOF 0
ENDMDL
