MODEL 1
REMARK minimizedAffinity -4.7608366
REMARK minimizedRMSD -1
REMARK  0 active torsions:
REMARK  status: ('A' for Active; 'I' for Inactive)
ROOT
ATOM      1  O1  BZF d   1       0.243   0.964  -1.605  0.00  0.00    -0.204 OA
ATOM      2  C2  BZF d   1       0.212   2.155  -0.907  0.00  0.00     0.174 A 
ATOM      3  C3  BZF d   1      -0.077   1.941   0.393  0.00  0.00    -0.012 A 
ATOM      4  C3A BZF d   1      -0.146   0.519   0.534  0.00  0.00    -0.107 A 
ATOM      5  C4  BZF d   1      -0.384  -0.310   1.593  0.00  0.00     0.055 A 
ATOM      6  C5  BZF d   1      -0.455  -1.650   1.380  0.00  0.00    -0.016 A 
ATOM      7  C6  BZF d   1      -0.299  -2.195   0.123  0.00  0.00     0.022 A 
ATOM      8  C7  BZF d   1      -0.056  -1.414  -0.958  0.00  0.00     0.029 A 
ATOM      9  C7A BZF d   1       0.050  -0.062  -0.741  0.00  0.00     0.058 A 
ENDROOT
TORSDOF 0
ENDMDL
