MODEL 1
REMARK minimizedAffinity -6.17601824
REMARK minimizedRMSD -1
REMARK  0 active torsions:
REMARK  status: ('A' for Active; 'I' for Inactive)
ROOT
ATOM      1  O1  BZF d   1      -0.688   0.807  -0.497  0.00  0.00    -0.204 OA
ATOM      2  C2  BZF d   1       0.025   0.636  -1.668  0.00  0.00     0.174 A 
ATOM      3  C3  BZF d   1       0.522  -0.615  -1.748  0.00  0.00    -0.012 A 
ATOM      4  C3A BZF d   1       0.016  -1.295  -0.595  0.00  0.00    -0.107 A 
ATOM      5  C4  BZF d   1       0.147  -2.570  -0.125  0.00  0.00     0.055 A 
ATOM      6  C5  BZF d   1      -0.414  -2.895   1.069  0.00  0.00    -0.016 A 
ATOM      7  C6  BZF d   1      -1.107  -1.969   1.821  0.00  0.00     0.022 A 
ATOM      8  C7  BZF d   1      -1.267  -0.693   1.394  0.00  0.00     0.029 A 
ATOM      9  C7A BZF d   1      -0.730  -0.371   0.172  0.00  0.00     0.058 A 
ENDROOT
TORSDOF 0
ENDMDL
