MODEL 1
REMARK minimizedAffinity -4.34543467
REMARK minimizedRMSD -1
REMARK  0 active torsions:
REMARK  status: ('A' for Active; 'I' for Inactive)
ROOT
ATOM      1  O1  BZF d   1       0.501  -2.359  -0.227  0.00  0.00    -0.204 OA
ATOM      2  C2  BZF d   1      -0.297  -3.095   0.628  0.00  0.00     0.174 A 
ATOM      3  C3  BZF d   1      -1.160  -2.293   1.284  0.00  0.00    -0.012 A 
ATOM      4  C3A BZF d   1      -0.947  -0.986   0.743  0.00  0.00    -0.107 A 
ATOM      5  C4  BZF d   1      -1.516   0.232   0.979  0.00  0.00     0.055 A 
ATOM      6  C5  BZF d   1      -1.030   1.325   0.334  0.00  0.00    -0.016 A 
ATOM      7  C6  BZF d   1       0.026   1.236  -0.549  0.00  0.00     0.022 A 
ATOM      8  C7  BZF d   1       0.619   0.048  -0.821  0.00  0.00     0.029 A 
ATOM      9  C7A BZF d   1       0.109  -1.063  -0.195  0.00  0.00     0.058 A 
ENDROOT
TORSDOF 0
ENDMDL
