MODEL 1
REMARK minimizedAffinity -6.55431461
REMARK minimizedRMSD -1
REMARK  0 active torsions:
REMARK  status: ('A' for Active; 'I' for Inactive)
ROOT
ATOM      1  O1  BZF d   1       0.061   0.414  -1.231  0.00  0.00    -0.204 OA
ATOM      2  C2  BZF d   1      -0.354   0.918  -0.013  0.00  0.00     0.174 A 
ATOM      3  C3  BZF d   1      -0.672  -0.081   0.835  0.00  0.00    -0.012 A 
ATOM      4  C3A BZF d   1      -0.353  -1.286   0.133  0.00  0.00    -0.107 A 
ATOM      5  C4  BZF d   1      -0.432  -2.610   0.457  0.00  0.00     0.055 A 
ATOM      6  C5  BZF d   1      -0.111  -3.540  -0.481  0.00  0.00    -0.016 A 
ATOM      7  C6  BZF d   1       0.287  -3.182  -1.752  0.00  0.00     0.022 A 
ATOM      8  C7  BZF d   1       0.386  -1.881  -2.118  0.00  0.00     0.029 A 
ATOM      9  C7A BZF d   1       0.094  -0.938  -1.163  0.00  0.00     0.058 A 
ENDROOT
TORSDOF 0
ENDMDL
