MODEL 1
REMARK minimizedAffinity -5.67952108
REMARK minimizedRMSD -1
REMARK  0 active torsions:
REMARK  status: ('A' for Active; 'I' for Inactive)
ROOT
ATOM      1  O1  BZF d   1       0.348   0.332  -1.877  0.00  0.00    -0.204 OA
ATOM      2  C2  BZF d   1      -0.130   1.354  -1.080  0.00  0.00     0.174 A 
ATOM      3  C3  BZF d   1      -0.512   0.882   0.125  0.00  0.00    -0.012 A 
ATOM      4  C3A BZF d   1      -0.170  -0.507   0.110  0.00  0.00    -0.107 A 
ATOM      5  C4  BZF d   1      -0.287  -1.513   1.027  0.00  0.00     0.055 A 
ATOM      6  C5  BZF d   1       0.075  -2.774   0.674  0.00  0.00    -0.016 A 
ATOM      7  C6  BZF d   1       0.553  -3.066  -0.587  0.00  0.00     0.022 A 
ATOM      8  C7  BZF d   1       0.692  -2.101  -1.528  0.00  0.00     0.029 A 
ATOM      9  C7A BZF d   1       0.358  -0.820  -1.164  0.00  0.00     0.058 A 
ENDROOT
TORSDOF 0
ENDMDL
