MODEL 1
REMARK minimizedAffinity -1.93088031
REMARK minimizedRMSD -1
REMARK  0 active torsions:
REMARK  status: ('A' for Active; 'I' for Inactive)
ROOT
ATOM      1  O1  BZF d   1      -1.383  -1.679  -0.204  0.00  0.00    -0.204 OA
ATOM      2  C2  BZF d   1      -1.389  -1.900   1.160  0.00  0.00     0.174 A 
ATOM      3  C3  BZF d   1      -0.710  -0.931   1.805  0.00  0.00    -0.012 A 
ATOM      4  C3A BZF d   1      -0.328   0.001   0.789  0.00  0.00    -0.107 A 
ATOM      5  C4  BZF d   1       0.356   1.183   0.809  0.00  0.00     0.055 A 
ATOM      6  C5  BZF d   1       0.625   1.810  -0.366  0.00  0.00    -0.016 A 
ATOM      7  C6  BZF d   1       0.229   1.282  -1.578  0.00  0.00     0.022 A 
ATOM      8  C7  BZF d   1      -0.456   0.115  -1.647  0.00  0.00     0.029 A 
ATOM      9  C7A BZF d   1      -0.758  -0.504  -0.459  0.00  0.00     0.058 A 
ENDROOT
TORSDOF 0
ENDMDL
