MODEL 1
REMARK minimizedAffinity -4.63668823
REMARK minimizedRMSD -1
REMARK  0 active torsions:
REMARK  status: ('A' for Active; 'I' for Inactive)
ROOT
ATOM      1  O1  BZF d   1      -1.316   0.483   0.285  0.00  0.00    -0.204 OA
ATOM      2  C2  BZF d   1      -0.572   1.378  -0.459  0.00  0.00     0.174 A 
ATOM      3  C3  BZF d   1       0.631   0.856  -0.774  0.00  0.00    -0.012 A 
ATOM      4  C3A BZF d   1       0.604  -0.483  -0.270  0.00  0.00    -0.107 A 
ATOM      5  C4  BZF d   1       1.502  -1.511  -0.287  0.00  0.00     0.055 A 
ATOM      6  C5  BZF d   1       1.196  -2.667   0.359  0.00  0.00    -0.016 A 
ATOM      7  C6  BZF d   1       0.004  -2.826   1.036  0.00  0.00     0.022 A 
ATOM      8  C7  BZF d   1      -0.921  -1.836   1.077  0.00  0.00     0.029 A 
ATOM      9  C7A BZF d   1      -0.628  -0.679   0.397  0.00  0.00     0.058 A 
ENDROOT
TORSDOF 0
ENDMDL
