MODEL 1
REMARK minimizedAffinity -4.29952192
REMARK minimizedRMSD -1
REMARK  0 active torsions:
REMARK  status: ('A' for Active; 'I' for Inactive)
ROOT
ATOM      1  O1  BZF d   1       1.203   0.196  -1.244  0.00  0.00    -0.204 OA
ATOM      2  C2  BZF d   1       0.886   1.450  -0.758  0.00  0.00     0.174 A 
ATOM      3  C3  BZF d   1      -0.059   1.367   0.201  0.00  0.00    -0.012 A 
ATOM      4  C3A BZF d   1      -0.285  -0.034   0.386  0.00  0.00    -0.107 A 
ATOM      5  C4  BZF d   1      -1.100  -0.752   1.213  0.00  0.00     0.055 A 
ATOM      6  C5  BZF d   1      -1.136  -2.105   1.094  0.00  0.00    -0.016 A 
ATOM      7  C6  BZF d   1      -0.375  -2.771   0.156  0.00  0.00     0.022 A 
ATOM      8  C7  BZF d   1       0.453  -2.102  -0.684  0.00  0.00     0.029 A 
ATOM      9  C7A BZF d   1       0.516  -0.738  -0.543  0.00  0.00     0.058 A 
ENDROOT
TORSDOF 0
ENDMDL
