MODEL 1
REMARK minimizedAffinity -4.70651531
REMARK minimizedRMSD -1
REMARK  0 active torsions:
REMARK  status: ('A' for Active; 'I' for Inactive)
ROOT
ATOM      1  O1  BZF d   1       1.472   0.480  -0.744  0.00  0.00    -0.204 OA
ATOM      2  C2  BZF d   1       0.876   1.688  -0.441  0.00  0.00     0.174 A 
ATOM      3  C3  BZF d   1      -0.257   1.499   0.266  0.00  0.00    -0.012 A 
ATOM      4  C3A BZF d   1      -0.328   0.088   0.492  0.00  0.00    -0.107 A 
ATOM      5  C4  BZF d   1      -1.217  -0.714   1.149  0.00  0.00     0.055 A 
ATOM      6  C5  BZF d   1      -1.037  -2.060   1.122  0.00  0.00    -0.016 A 
ATOM      7  C6  BZF d   1       0.017  -2.638   0.445  0.00  0.00     0.022 A 
ATOM      8  C7  BZF d   1       0.928  -1.884  -0.217  0.00  0.00     0.029 A 
ATOM      9  C7A BZF d   1       0.767  -0.521  -0.164  0.00  0.00     0.058 A 
ENDROOT
TORSDOF 0
ENDMDL
