MODEL 1
REMARK minimizedAffinity -3.35395932
REMARK minimizedRMSD -1
REMARK  0 active torsions:
REMARK  status: ('A' for Active; 'I' for Inactive)
ROOT
ATOM      1  O1  BZF d   1       0.010   1.444   1.492  0.00  0.00    -0.204 OA
ATOM      2  C2  BZF d   1       1.038   1.907   0.693  0.00  0.00     0.174 A 
ATOM      3  C3  BZF d   1       1.535   0.913  -0.070  0.00  0.00    -0.012 A 
ATOM      4  C3A BZF d   1       0.710  -0.222   0.205  0.00  0.00    -0.107 A 
ATOM      5  C4  BZF d   1       0.694  -1.506  -0.259  0.00  0.00     0.055 A 
ATOM      6  C5  BZF d   1      -0.197  -2.388   0.267  0.00  0.00    -0.016 A 
ATOM      7  C6  BZF d   1      -1.081  -2.021   1.261  0.00  0.00     0.022 A 
ATOM      8  C7  BZF d   1      -1.106  -0.757   1.750  0.00  0.00     0.029 A 
ATOM      9  C7A BZF d   1      -0.230   0.144   1.197  0.00  0.00     0.058 A 
ENDROOT
TORSDOF 0
ENDMDL
