MODEL 1
REMARK minimizedAffinity 1.07771945
REMARK minimizedRMSD -1
REMARK  0 active torsions:
REMARK  status: ('A' for Active; 'I' for Inactive)
ROOT
ATOM      1  C   UNL d   1       3.201   0.472   1.812  0.00  0.00     0.172 C 
ATOM      2  N   UNL d   1       2.932  -0.740   2.549  0.00  0.00    -0.070 N 
ATOM      3  C1  UNL d   1       1.727  -1.387   2.610  0.00  0.00    -0.004 A 
ATOM      4  C2  UNL d   1       1.884  -2.498   3.411  0.00  0.00    -0.047 A 
ATOM      5  C3  UNL d   1       3.230  -2.518   3.847  0.00  0.00    -0.047 A 
ATOM      6  C4  UNL d   1       3.856  -1.419   3.299  0.00  0.00    -0.004 A 
ENDROOT
TORSDOF 0
ENDMDL
