MODEL 1
REMARK minimizedAffinity -0.335051775
REMARK minimizedRMSD -1
REMARK  0 active torsions:
REMARK  status: ('A' for Active; 'I' for Inactive)
ROOT
ATOM      1  C   UNL d   1       5.644  -5.561  -6.000  0.00  0.00     0.172 C 
ATOM      2  N   UNL d   1       4.374  -5.727  -5.332  0.00  0.00    -0.070 N 
ATOM      3  C1  UNL d   1       3.159  -5.860  -5.948  0.00  0.00    -0.004 A 
ATOM      4  C2  UNL d   1       2.201  -5.996  -4.967  0.00  0.00    -0.047 A 
ATOM      5  C3  UNL d   1       2.863  -5.942  -3.718  0.00  0.00    -0.047 A 
ATOM      6  C4  UNL d   1       4.208  -5.775  -3.973  0.00  0.00    -0.004 A 
ENDROOT
TORSDOF 0
ENDMDL
