MODEL 1
REMARK minimizedAffinity 3.93348217
REMARK minimizedRMSD -1
REMARK  0 active torsions:
REMARK  status: ('A' for Active; 'I' for Inactive)
ROOT
ATOM      1  C   UNL d   1      -5.918   4.357  -0.171  0.00  0.00     0.172 C 
ATOM      2  N   UNL d   1      -5.252   3.658   0.903  0.00  0.00    -0.070 N 
ATOM      3  C1  UNL d   1      -5.814   3.320   2.105  0.00  0.00    -0.004 A 
ATOM      4  C2  UNL d   1      -4.856   2.666   2.850  0.00  0.00    -0.047 A 
ATOM      5  C3  UNL d   1      -3.678   2.610   2.069  0.00  0.00    -0.047 A 
ATOM      6  C4  UNL d   1      -3.950   3.231   0.868  0.00  0.00    -0.004 A 
ENDROOT
TORSDOF 0
ENDMDL
