MODEL 1
REMARK minimizedAffinity -0.0677416176
REMARK minimizedRMSD -1
REMARK  0 active torsions:
REMARK  status: ('A' for Active; 'I' for Inactive)
ROOT
ATOM      1  C   UNL d   1       2.710  -0.196   1.841  0.00  0.00     0.172 C 
ATOM      2  N   UNL d   1       2.477  -1.360   2.663  0.00  0.00    -0.070 N 
ATOM      3  C1  UNL d   1       2.557  -2.661   2.245  0.00  0.00    -0.004 A 
ATOM      4  C2  UNL d   1       2.267  -3.469   3.324  0.00  0.00    -0.047 A 
ATOM      5  C3  UNL d   1       2.004  -2.624   4.428  0.00  0.00    -0.047 A 
ATOM      6  C4  UNL d   1       2.141  -1.323   3.991  0.00  0.00    -0.004 A 
ENDROOT
TORSDOF 0
ENDMDL
