MODEL 1
REMARK minimizedAffinity 2.88415051
REMARK minimizedRMSD -1
REMARK  0 active torsions:
REMARK  status: ('A' for Active; 'I' for Inactive)
ROOT
ATOM      1  C   UNL d   1       2.913  -4.306   4.548  0.00  0.00     0.172 C 
ATOM      2  N   UNL d   1       2.786  -2.957   4.048  0.00  0.00    -0.070 N 
ATOM      3  C1  UNL d   1       1.620  -2.244   3.963  0.00  0.00    -0.004 A 
ATOM      4  C2  UNL d   1       1.920  -1.005   3.437  0.00  0.00    -0.047 A 
ATOM      5  C3  UNL d   1       3.314  -0.974   3.198  0.00  0.00    -0.047 A 
ATOM      6  C4  UNL d   1       3.825  -2.194   3.585  0.00  0.00    -0.004 A 
ENDROOT
TORSDOF 0
ENDMDL
