MODEL 1
REMARK minimizedAffinity -0.625097454
REMARK minimizedRMSD -1
REMARK  0 active torsions:
REMARK  status: ('A' for Active; 'I' for Inactive)
ROOT
ATOM      1  C   UNL d   1       1.903  -3.842   4.482  0.00  0.00     0.172 C 
ATOM      2  N   UNL d   1       2.208  -2.615   3.785  0.00  0.00    -0.070 N 
ATOM      3  C1  UNL d   1       2.106  -2.419   2.433  0.00  0.00    -0.004 A 
ATOM      4  C2  UNL d   1       2.485  -1.121   2.166  0.00  0.00    -0.047 A 
ATOM      5  C3  UNL d   1       2.827  -0.517   3.399  0.00  0.00    -0.047 A 
ATOM      6  C4  UNL d   1       2.646  -1.464   4.385  0.00  0.00    -0.004 A 
ENDROOT
TORSDOF 0
ENDMDL
