MODEL 1
REMARK minimizedAffinity 5.06879234
REMARK minimizedRMSD -1
REMARK  0 active torsions:
REMARK  status: ('A' for Active; 'I' for Inactive)
ROOT
ATOM      1  C   UNL d   1      -6.000   4.137  -0.001  0.00  0.00     0.172 C 
ATOM      2  N   UNL d   1      -5.303   3.363   0.999  0.00  0.00    -0.070 N 
ATOM      3  C1  UNL d   1      -4.016   2.904   0.900  0.00  0.00    -0.004 A 
ATOM      4  C2  UNL d   1      -3.725   2.212   2.056  0.00  0.00    -0.047 A 
ATOM      5  C3  UNL d   1      -4.876   2.257   2.878  0.00  0.00    -0.047 A 
ATOM      6  C4  UNL d   1      -5.837   2.975   2.200  0.00  0.00    -0.004 A 
ENDROOT
TORSDOF 0
ENDMDL
