MODEL 1
REMARK minimizedAffinity 2.35507679
REMARK minimizedRMSD -1
REMARK  0 active torsions:
REMARK  status: ('A' for Active; 'I' for Inactive)
ROOT
ATOM      1  C   UNL d   1       2.068   0.057   2.253  0.00  0.00     0.172 C 
ATOM      2  N   UNL d   1       2.400  -1.105   3.042  0.00  0.00    -0.070 N 
ATOM      3  C1  UNL d   1       3.330  -2.056   2.713  0.00  0.00    -0.004 A 
ATOM      4  C2  UNL d   1       3.348  -2.995   3.721  0.00  0.00    -0.047 A 
ATOM      5  C3  UNL d   1       2.396  -2.596   4.689  0.00  0.00    -0.047 A 
ATOM      6  C4  UNL d   1       1.824  -1.424   4.244  0.00  0.00    -0.004 A 
ENDROOT
TORSDOF 0
ENDMDL
