MODEL 1
REMARK minimizedAffinity 7.06965637
REMARK minimizedRMSD -1
REMARK  0 active torsions:
REMARK  status: ('A' for Active; 'I' for Inactive)
ROOT
ATOM      1  C   UNL d   1      -5.630   3.698   4.366  0.00  0.00     0.172 C 
ATOM      2  N   UNL d   1      -5.737   3.279   2.989  0.00  0.00    -0.070 N 
ATOM      3  C1  UNL d   1      -5.967   4.104   1.920  0.00  0.00    -0.004 A 
ATOM      4  C2  UNL d   1      -6.000   3.323   0.784  0.00  0.00    -0.047 A 
ATOM      5  C3  UNL d   1      -5.783   1.984   1.185  0.00  0.00    -0.047 A 
ATOM      6  C4  UNL d   1      -5.623   1.985   2.554  0.00  0.00    -0.004 A 
ENDROOT
TORSDOF 0
ENDMDL
