MODEL 1
REMARK minimizedAffinity 6.0830822
REMARK minimizedRMSD -1
REMARK  0 active torsions:
REMARK  status: ('A' for Active; 'I' for Inactive)
ROOT
ATOM      1  C   UNL d   1      -5.999   2.574   4.031  0.00  0.00     0.172 C 
ATOM      2  N   UNL d   1      -5.288   2.926   2.825  0.00  0.00    -0.070 N 
ATOM      3  C1  UNL d   1      -3.943   2.771   2.617  0.00  0.00    -0.004 A 
ATOM      4  C2  UNL d   1      -3.658   3.223   1.347  0.00  0.00    -0.047 A 
ATOM      5  C3  UNL d   1      -4.873   3.666   0.772  0.00  0.00    -0.047 A 
ATOM      6  C4  UNL d   1      -5.865   3.471   1.708  0.00  0.00    -0.004 A 
ENDROOT
TORSDOF 0
ENDMDL
