MODEL 1
REMARK minimizedAffinity -4.59407282
REMARK minimizedRMSD -1
REMARK  1 active torsions:
REMARK  status: ('A' for Active; 'I' for Inactive)
REMARK    1  A    between atoms: C1_2  and  C2_3 
ROOT
ATOM      1  C2  UNL d   1      -0.648   0.221   0.165  0.00  0.00    -0.077 A 
ATOM      2  C3  UNL d   1      -1.635  -0.135   1.094  0.00  0.00     0.002 A 
ATOM      3  C4  UNL d   1      -2.766  -0.845   0.686  0.00  0.00     0.002 A 
ATOM      4  C5  UNL d   1      -2.918  -1.209  -0.650  0.00  0.00    -0.004 A 
ATOM      5  C6  UNL d   1      -1.942  -0.858  -1.583  0.00  0.00     0.002 A 
ATOM      6  C7  UNL d   1      -0.812  -0.146  -1.177  0.00  0.00     0.002 A 
ENDROOT
BRANCH   1   7
ATOM      7  C1  UNL d   1       0.596   0.945   0.611  0.00  0.00     0.055 C 
ATOM      8  C   UNL d   1       1.845   0.324   0.003  0.00  0.00     0.019 C 
ENDBRANCH   1   7
TORSDOF 1
ENDMDL
