MODEL 1
REMARK minimizedAffinity -5.10294962
REMARK minimizedRMSD -1
REMARK  1 active torsions:
REMARK  status: ('A' for Active; 'I' for Inactive)
REMARK    1  A    between atoms: C1_2  and  C2_3 
ROOT
ATOM      1  C2  UNL d   1      -0.241  -0.072  -0.143  0.00  0.00    -0.077 A 
ATOM      2  C3  UNL d   1      -1.082  -0.359   0.941  0.00  0.00     0.002 A 
ATOM      3  C4  UNL d   1      -2.439  -0.616   0.733  0.00  0.00     0.002 A 
ATOM      4  C5  UNL d   1      -2.964  -0.592  -0.558  0.00  0.00    -0.004 A 
ATOM      5  C6  UNL d   1      -2.136  -0.305  -1.642  0.00  0.00     0.002 A 
ATOM      6  C7  UNL d   1      -0.780  -0.047  -1.436  0.00  0.00     0.002 A 
ENDROOT
BRANCH   1   7
ATOM      7  C1  UNL d   1       1.232   0.157   0.074  0.00  0.00     0.055 C 
ATOM      8  C   UNL d   1       1.477   1.286   1.065  0.00  0.00     0.019 C 
ENDBRANCH   1   7
TORSDOF 1
ENDMDL
