MODEL 1
REMARK minimizedAffinity -4.36984539
REMARK minimizedRMSD -1
REMARK  1 active torsions:
REMARK  status: ('A' for Active; 'I' for Inactive)
REMARK    1  A    between atoms: C1_2  and  C2_3 
ROOT
ATOM      1  C2  UNL d   1       0.076  -0.130  -0.236  0.00  0.00    -0.077 A 
ATOM      2  C3  UNL d   1      -1.070  -0.539   0.461  0.00  0.00     0.002 A 
ATOM      3  C4  UNL d   1      -2.302  -0.619  -0.191  0.00  0.00     0.002 A 
ATOM      4  C5  UNL d   1      -2.399  -0.297  -1.543  0.00  0.00    -0.004 A 
ATOM      5  C6  UNL d   1      -1.265   0.113  -2.244  0.00  0.00     0.002 A 
ATOM      6  C7  UNL d   1      -0.033   0.195  -1.594  0.00  0.00     0.002 A 
ENDROOT
BRANCH   1   7
ATOM      7  C1  UNL d   1       1.415  -0.091   0.453  0.00  0.00     0.055 C 
ATOM      8  C   UNL d   1       2.029   1.300   0.390  0.00  0.00     0.019 C 
ENDBRANCH   1   7
TORSDOF 1
ENDMDL
