MODEL 1
REMARK minimizedAffinity -5.60909081
REMARK minimizedRMSD -1
REMARK  1 active torsions:
REMARK  status: ('A' for Active; 'I' for Inactive)
REMARK    1  A    between atoms: C1_2  and  C2_3 
ROOT
ATOM      1  C2  UNL d   1      -0.685   0.171  -0.773  0.00  0.00    -0.077 A 
ATOM      2  C3  UNL d   1      -1.138  -0.436   0.407  0.00  0.00     0.002 A 
ATOM      3  C4  UNL d   1      -2.391  -1.051   0.448  0.00  0.00     0.002 A 
ATOM      4  C5  UNL d   1      -3.198  -1.069  -0.687  0.00  0.00    -0.004 A 
ATOM      5  C6  UNL d   1      -2.757  -0.466  -1.865  0.00  0.00     0.002 A 
ATOM      6  C7  UNL d   1      -1.506   0.151  -1.908  0.00  0.00     0.002 A 
ENDROOT
BRANCH   1   7
ATOM      7  C1  UNL d   1       0.686   0.793  -0.834  0.00  0.00     0.055 C 
ATOM      8  C   UNL d   1       1.597   0.229   0.247  0.00  0.00     0.019 C 
ENDBRANCH   1   7
TORSDOF 1
ENDMDL
