MODEL 1
REMARK minimizedAffinity -1.07108104
REMARK minimizedRMSD -1
REMARK  1 active torsions:
REMARK  status: ('A' for Active; 'I' for Inactive)
REMARK    1  A    between atoms: C1_2  and  C2_3 
ROOT
ATOM      1  C2  UNL d   1      -1.253  -0.837   0.262  0.00  0.00    -0.077 A 
ATOM      2  C3  UNL d   1      -0.526   0.065  -0.527  0.00  0.00     0.002 A 
ATOM      3  C4  UNL d   1       0.841   0.249  -0.313  0.00  0.00     0.002 A 
ATOM      4  C5  UNL d   1       1.494  -0.469   0.687  0.00  0.00    -0.004 A 
ATOM      5  C6  UNL d   1       0.780  -1.368   1.478  0.00  0.00     0.002 A 
ATOM      6  C7  UNL d   1      -0.587  -1.552   1.266  0.00  0.00     0.002 A 
ENDROOT
BRANCH   1   7
ATOM      7  C1  UNL d   1      -2.717  -1.073   0.000  0.00  0.00     0.055 C 
ATOM      8  C   UNL d   1      -2.929  -1.893  -1.264  0.00  0.00     0.019 C 
ENDBRANCH   1   7
TORSDOF 1
ENDMDL
