MODEL 1
REMARK minimizedAffinity 3.89068437
REMARK minimizedRMSD -1
REMARK  1 active torsions:
REMARK  status: ('A' for Active; 'I' for Inactive)
REMARK    1  A    between atoms: C1_2  and  C2_3 
ROOT
ATOM      1  C2  UNL d   1      -1.828  -1.354  -1.372  0.00  0.00    -0.077 A 
ATOM      2  C3  UNL d   1      -0.843  -0.604  -2.030  0.00  0.00     0.002 A 
ATOM      3  C4  UNL d   1      -0.000   0.242  -1.307  0.00  0.00     0.002 A 
ATOM      4  C5  UNL d   1      -0.132   0.344   0.076  0.00  0.00    -0.004 A 
ATOM      5  C6  UNL d   1      -1.110  -0.396   0.739  0.00  0.00     0.002 A 
ATOM      6  C7  UNL d   1      -1.954  -1.242   0.018  0.00  0.00     0.002 A 
ENDROOT
BRANCH   1   7
ATOM      7  C1  UNL d   1      -2.705  -2.305  -2.144  0.00  0.00     0.055 C 
ATOM      8  C   UNL d   1      -2.275  -2.397  -3.601  0.00  0.00     0.019 C 
ENDBRANCH   1   7
TORSDOF 1
ENDMDL
