MODEL 1
REMARK minimizedAffinity -4.5106864
REMARK minimizedRMSD -1
REMARK  1 active torsions:
REMARK  status: ('A' for Active; 'I' for Inactive)
REMARK    1  A    between atoms: C1_2  and  C2_3 
ROOT
ATOM      1  C2  UNL d   1       2.011   1.442   0.170  0.00  0.00    -0.077 A 
ATOM      2  C3  UNL d   1       1.485   2.359   1.090  0.00  0.00     0.002 A 
ATOM      3  C4  UNL d   1       1.881   3.698   1.058  0.00  0.00     0.002 A 
ATOM      4  C5  UNL d   1       2.801   4.131   0.106  0.00  0.00    -0.004 A 
ATOM      5  C6  UNL d   1       3.331   3.226  -0.813  0.00  0.00     0.002 A 
ATOM      6  C7  UNL d   1       2.937   1.887  -0.782  0.00  0.00     0.002 A 
ENDROOT
BRANCH   1   7
ATOM      7  C1  UNL d   1       1.547   0.009   0.171  0.00  0.00     0.055 C 
ATOM      8  C   UNL d   1       0.032  -0.083   0.069  0.00  0.00     0.019 C 
ENDBRANCH   1   7
TORSDOF 1
ENDMDL
