MODEL 1
REMARK minimizedAffinity 0.409170359
REMARK minimizedRMSD -1
REMARK  1 active torsions:
REMARK  status: ('A' for Active; 'I' for Inactive)
REMARK    1  A    between atoms: C1_2  and  C2_3 
ROOT
ATOM      1  C2  UNL d   1       4.158   3.927  -0.895  0.00  0.00    -0.077 A 
ATOM      2  C3  UNL d   1       3.707   4.491   0.307  0.00  0.00     0.002 A 
ATOM      3  C4  UNL d   1       3.095   3.693   1.275  0.00  0.00     0.002 A 
ATOM      4  C5  UNL d   1       2.932   2.327   1.054  0.00  0.00    -0.004 A 
ATOM      5  C6  UNL d   1       3.376   1.757  -0.138  0.00  0.00     0.002 A 
ATOM      6  C7  UNL d   1       3.987   2.553  -1.108  0.00  0.00     0.002 A 
ENDROOT
BRANCH   1   7
ATOM      7  C1  UNL d   1       4.863   4.777  -1.920  0.00  0.00     0.055 C 
ATOM      8  C   UNL d   1       5.677   3.923  -2.881  0.00  0.00     0.019 C 
ENDBRANCH   1   7
TORSDOF 1
ENDMDL
