MODEL 1
REMARK minimizedAffinity -3.07541752
REMARK minimizedRMSD -1
REMARK  1 active torsions:
REMARK  status: ('A' for Active; 'I' for Inactive)
REMARK    1  A    between atoms: C1_2  and  C2_3 
ROOT
ATOM      1  C2  UNL d   1       1.892   1.345   0.943  0.00  0.00    -0.077 A 
ATOM      2  C3  UNL d   1       1.720   1.641   2.302  0.00  0.00     0.002 A 
ATOM      3  C4  UNL d   1       2.050   2.904   2.797  0.00  0.00     0.002 A 
ATOM      4  C5  UNL d   1       2.551   3.881   1.939  0.00  0.00    -0.004 A 
ATOM      5  C6  UNL d   1       2.729   3.595   0.586  0.00  0.00     0.002 A 
ATOM      6  C7  UNL d   1       2.400   2.333   0.090  0.00  0.00     0.002 A 
ENDROOT
BRANCH   1   7
ATOM      7  C1  UNL d   1       1.490  -0.001   0.398  0.00  0.00     0.055 C 
ATOM      8  C   UNL d   1       0.033  -0.007  -0.042  0.00  0.00     0.019 C 
ENDBRANCH   1   7
TORSDOF 1
ENDMDL
