MODEL 1
REMARK minimizedAffinity -1.5358603
REMARK minimizedRMSD -1
REMARK  1 active torsions:
REMARK  status: ('A' for Active; 'I' for Inactive)
REMARK    1  A    between atoms: C1_2  and  C2_3 
ROOT
ATOM      1  C2  UNL d   1       0.655  -0.155   0.455  0.00  0.00    -0.077 A 
ATOM      2  C3  UNL d   1      -0.521   0.464   0.008  0.00  0.00     0.002 A 
ATOM      3  C4  UNL d   1      -1.749   0.159   0.600  0.00  0.00     0.002 A 
ATOM      4  C5  UNL d   1      -1.811  -0.762   1.643  0.00  0.00    -0.004 A 
ATOM      5  C6  UNL d   1      -0.648  -1.384   2.094  0.00  0.00     0.002 A 
ATOM      6  C7  UNL d   1       0.580  -1.082   1.503  0.00  0.00     0.002 A 
ENDROOT
BRANCH   1   7
ATOM      7  C1  UNL d   1       1.986   0.209  -0.148  0.00  0.00     0.055 C 
ATOM      8  C   UNL d   1       2.538   1.490   0.461  0.00  0.00     0.019 C 
ENDBRANCH   1   7
TORSDOF 1
ENDMDL
