MODEL 1
REMARK minimizedAffinity -4.37848473
REMARK minimizedRMSD -1
REMARK  1 active torsions:
REMARK  status: ('A' for Active; 'I' for Inactive)
REMARK    1  A    between atoms: C1_2  and  C2_3 
ROOT
ATOM      1  C2  UNL d   1      -0.510   0.459  -0.388  0.00  0.00    -0.077 A 
ATOM      2  C3  UNL d   1      -1.659   0.054   0.306  0.00  0.00     0.002 A 
ATOM      3  C4  UNL d   1      -2.715  -0.557  -0.372  0.00  0.00     0.002 A 
ATOM      4  C5  UNL d   1      -2.631  -0.774  -1.746  0.00  0.00    -0.004 A 
ATOM      5  C6  UNL d   1      -1.493  -0.373  -2.446  0.00  0.00     0.002 A 
ATOM      6  C7  UNL d   1      -0.437   0.239  -1.770  0.00  0.00     0.002 A 
ENDROOT
BRANCH   1   7
ATOM      7  C1  UNL d   1       0.651   1.074   0.349  0.00  0.00     0.055 C 
ATOM      8  C   UNL d   1       1.850   0.138   0.373  0.00  0.00     0.019 C 
ENDBRANCH   1   7
TORSDOF 1
ENDMDL
