MODEL 1
REMARK minimizedAffinity -3.40721679
REMARK minimizedRMSD -1
REMARK  1 active torsions:
REMARK  status: ('A' for Active; 'I' for Inactive)
REMARK    1  A    between atoms: C1_2  and  C2_3 
ROOT
ATOM      1  C2  UNL d   1       1.132   1.241   0.113  0.00  0.00    -0.077 A 
ATOM      2  C3  UNL d   1       1.161   1.232   1.514  0.00  0.00     0.002 A 
ATOM      3  C4  UNL d   1       1.722   2.301   2.216  0.00  0.00     0.002 A 
ATOM      4  C5  UNL d   1       2.254   3.387   1.525  0.00  0.00    -0.004 A 
ATOM      5  C6  UNL d   1       2.232   3.404   0.131  0.00  0.00     0.002 A 
ATOM      6  C7  UNL d   1       1.672   2.336  -0.572  0.00  0.00     0.002 A 
ENDROOT
BRANCH   1   7
ATOM      7  C1  UNL d   1       0.483   0.112  -0.645  0.00  0.00     0.055 C 
ATOM      8  C   UNL d   1      -0.922   0.484  -1.098  0.00  0.00     0.019 C 
ENDBRANCH   1   7
TORSDOF 1
ENDMDL
