MODEL 1
REMARK minimizedAffinity -3.07099462
REMARK minimizedRMSD -1
REMARK  1 active torsions:
REMARK  status: ('A' for Active; 'I' for Inactive)
REMARK    1  A    between atoms: C1_2  and  C2_3 
ROOT
ATOM      1  C2  UNL d   1       0.970   0.916   0.621  0.00  0.00    -0.077 A 
ATOM      2  C3  UNL d   1       0.766   2.130   1.291  0.00  0.00     0.002 A 
ATOM      3  C4  UNL d   1       1.808   3.052   1.415  0.00  0.00     0.002 A 
ATOM      4  C5  UNL d   1       3.058   2.770   0.868  0.00  0.00    -0.004 A 
ATOM      5  C6  UNL d   1       3.271   1.564   0.201  0.00  0.00     0.002 A 
ATOM      6  C7  UNL d   1       2.231   0.642   0.078  0.00  0.00     0.002 A 
ENDROOT
BRANCH   1   7
ATOM      7  C1  UNL d   1      -0.166  -0.058   0.444  0.00  0.00     0.055 C 
ATOM      8  C   UNL d   1      -0.971   0.253  -0.809  0.00  0.00     0.019 C 
ENDBRANCH   1   7
TORSDOF 1
ENDMDL
