MODEL 1
REMARK minimizedAffinity 10.8184862
REMARK minimizedRMSD -1
REMARK  0 active torsions:
REMARK  status: ('A' for Active; 'I' for Inactive)
ROOT
ATOM      1  C   UNL d   1      -2.153  -1.124   3.738  0.00  0.00    -0.002 A 
ATOM      2  C1  UNL d   1      -1.962  -2.182   2.861  0.00  0.00     0.010 A 
ATOM      3  C2  UNL d   1      -1.124  -2.044   1.752  0.00  0.00     0.041 A 
ATOM      4  C3  UNL d   1      -0.474  -0.812   1.539  0.00  0.00    -0.075 A 
ATOM      5  S   UNL d   1       0.598  -0.412   0.249  0.00  0.00     0.015 SA
ATOM      6  C4  UNL d   1       0.828   1.173   0.833  0.00  0.00     0.022 A 
ATOM      7  C5  UNL d   1       0.111   1.408   1.982  0.00  0.00     0.026 A 
ATOM      8  C6  UNL d   1      -0.650   0.268   2.409  0.00  0.00    -0.082 A 
ATOM      9  C7  UNL d   1      -1.507   0.096   3.523  0.00  0.00     0.045 A 
ENDROOT
TORSDOF 0
ENDMDL
