MODEL 1
REMARK minimizedAffinity 6.18001652
REMARK minimizedRMSD -1
REMARK  0 active torsions:
REMARK  status: ('A' for Active; 'I' for Inactive)
ROOT
ATOM      1  C   UNL d   1      -4.115  -5.995   1.243  0.00  0.00    -0.002 A 
ATOM      2  C1  UNL d   1      -4.258  -5.998   2.623  0.00  0.00     0.010 A 
ATOM      3  C2  UNL d   1      -3.135  -5.999   3.453  0.00  0.00     0.041 A 
ATOM      4  C3  UNL d   1      -1.854  -5.995   2.867  0.00  0.00    -0.075 A 
ATOM      5  S   UNL d   1      -0.337  -5.994   3.686  0.00  0.00     0.015 SA
ATOM      6  C4  UNL d   1       0.537  -5.989   2.222  0.00  0.00     0.022 A 
ATOM      7  C5  UNL d   1      -0.293  -5.988   1.126  0.00  0.00     0.026 A 
ATOM      8  C6  UNL d   1      -1.685  -5.991   1.480  0.00  0.00    -0.082 A 
ATOM      9  C7  UNL d   1      -2.843  -5.991   0.665  0.00  0.00     0.045 A 
ENDROOT
TORSDOF 0
ENDMDL
