MODEL 1
REMARK minimizedAffinity 10.4642744
REMARK minimizedRMSD -1
REMARK  0 active torsions:
REMARK  status: ('A' for Active; 'I' for Inactive)
ROOT
ATOM      1  C   UNL d   1      -1.377  -1.830   3.432  0.00  0.00    -0.002 A 
ATOM      2  C1  UNL d   1      -1.182  -2.711   2.377  0.00  0.00     0.010 A 
ATOM      3  C2  UNL d   1      -0.491  -2.307   1.233  0.00  0.00     0.041 A 
ATOM      4  C3  UNL d   1       0.008  -0.991   1.167  0.00  0.00    -0.075 A 
ATOM      5  S   UNL d   1       0.886  -0.276  -0.133  0.00  0.00     0.015 SA
ATOM      6  C4  UNL d   1       1.024   1.215   0.681  0.00  0.00     0.022 A 
ATOM      7  C5  UNL d   1       0.420   1.186   1.916  0.00  0.00     0.026 A 
ATOM      8  C6  UNL d   1      -0.175  -0.086   2.217  0.00  0.00    -0.082 A 
ATOM      9  C7  UNL d   1      -0.881  -0.525   3.363  0.00  0.00     0.045 A 
ENDROOT
TORSDOF 0
ENDMDL
