MODEL 1
REMARK minimizedAffinity 12.6278906
REMARK minimizedRMSD -1
REMARK  0 active torsions:
REMARK  status: ('A' for Active; 'I' for Inactive)
ROOT
ATOM      1  C   UNL d   1      -2.251  -2.489   1.570  0.00  0.00    -0.002 A 
ATOM      2  C1  UNL d   1      -3.424  -2.625   0.840  0.00  0.00     0.010 A 
ATOM      3  C2  UNL d   1      -4.631  -2.128   1.336  0.00  0.00     0.041 A 
ATOM      4  C3  UNL d   1      -4.640  -1.484   2.589  0.00  0.00    -0.075 A 
ATOM      5  S   UNL d   1      -6.000  -0.796   3.394  0.00  0.00     0.015 SA
ATOM      6  C4  UNL d   1      -5.057  -0.305   4.726  0.00  0.00     0.022 A 
ATOM      7  C5  UNL d   1      -3.734  -0.650   4.577  0.00  0.00     0.026 A 
ATOM      8  C6  UNL d   1      -3.472  -1.334   3.342  0.00  0.00    -0.082 A 
ATOM      9  C7  UNL d   1      -2.264  -1.850   2.813  0.00  0.00     0.045 A 
ENDROOT
TORSDOF 0
ENDMDL
