MODEL 1
REMARK minimizedAffinity 12.588644
REMARK minimizedRMSD -1
REMARK  0 active torsions:
REMARK  status: ('A' for Active; 'I' for Inactive)
ROOT
ATOM      1  C   UNL d   1       5.254   2.256   2.101  0.00  0.00    -0.002 A 
ATOM      2  C1  UNL d   1       5.237   3.267   1.150  0.00  0.00     0.010 A 
ATOM      3  C2  UNL d   1       4.145   3.418   0.293  0.00  0.00     0.041 A 
ATOM      4  C3  UNL d   1       3.058   2.528   0.411  0.00  0.00    -0.075 A 
ATOM      5  S   UNL d   1       1.613   2.522  -0.529  0.00  0.00     0.015 SA
ATOM      6  C4  UNL d   1       0.984   1.179   0.310  0.00  0.00     0.022 A 
ATOM      7  C5  UNL d   1       1.843   0.732   1.287  0.00  0.00     0.026 A 
ATOM      8  C6  UNL d   1       3.052   1.503   1.362  0.00  0.00    -0.082 A 
ATOM      9  C7  UNL d   1       4.175   1.376   2.214  0.00  0.00     0.045 A 
ENDROOT
TORSDOF 0
ENDMDL
