MODEL 1
REMARK minimizedAffinity 5.51915407
REMARK minimizedRMSD -1
REMARK  0 active torsions:
REMARK  status: ('A' for Active; 'I' for Inactive)
ROOT
ATOM      1  C   UNL d   1      -2.743  -5.999   1.558  0.00  0.00    -0.002 A 
ATOM      2  C1  UNL d   1      -1.859  -5.999   0.488  0.00  0.00     0.010 A 
ATOM      3  C2  UNL d   1      -0.480  -5.998   0.706  0.00  0.00     0.041 A 
ATOM      4  C3  UNL d   1       0.000  -5.997   2.031  0.00  0.00    -0.075 A 
ATOM      5  S   UNL d   1       1.648  -5.996   2.538  0.00  0.00     0.015 SA
ATOM      6  C4  UNL d   1       1.218  -5.996   4.188  0.00  0.00     0.022 A 
ATOM      7  C5  UNL d   1      -0.146  -5.996   4.365  0.00  0.00     0.026 A 
ATOM      8  C6  UNL d   1      -0.870  -5.998   3.124  0.00  0.00    -0.082 A 
ATOM      9  C7  UNL d   1      -2.263  -5.999   2.870  0.00  0.00     0.045 A 
ENDROOT
TORSDOF 0
ENDMDL
