MODEL 1
REMARK minimizedAffinity 16.0770569
REMARK minimizedRMSD -1
REMARK  0 active torsions:
REMARK  status: ('A' for Active; 'I' for Inactive)
ROOT
ATOM      1  C   UNL d   1      -4.622  -5.995   2.205  0.00  0.00    -0.002 A 
ATOM      2  C1  UNL d   1      -4.118  -5.988   0.912  0.00  0.00     0.010 A 
ATOM      3  C2  UNL d   1      -2.740  -5.982   0.686  0.00  0.00     0.041 A 
ATOM      4  C3  UNL d   1      -1.868  -5.986   1.793  0.00  0.00    -0.075 A 
ATOM      5  S   UNL d   1      -0.145  -5.981   1.758  0.00  0.00     0.015 SA
ATOM      6  C4  UNL d   1      -0.036  -5.989   3.459  0.00  0.00     0.022 A 
ATOM      7  C5  UNL d   1      -1.275  -5.995   4.055  0.00  0.00     0.026 A 
ATOM      8  C6  UNL d   1      -2.351  -5.994   3.104  0.00  0.00    -0.082 A 
ATOM      9  C7  UNL d   1      -3.754  -5.998   3.300  0.00  0.00     0.045 A 
ENDROOT
TORSDOF 0
ENDMDL
