MODEL 1
REMARK minimizedAffinity 8.94278526
REMARK minimizedRMSD -1
REMARK  0 active torsions:
REMARK  status: ('A' for Active; 'I' for Inactive)
ROOT
ATOM      1  C   UNL d   1      -2.572  -2.919  -3.864  0.00  0.00    -0.002 A 
ATOM      2  C1  UNL d   1      -2.486  -1.750  -3.121  0.00  0.00     0.010 A 
ATOM      3  C2  UNL d   1      -1.278  -1.057  -3.025  0.00  0.00     0.041 A 
ATOM      4  C3  UNL d   1      -0.147  -1.562  -3.696  0.00  0.00    -0.075 A 
ATOM      5  S   UNL d   1       1.437  -0.881  -3.721  0.00  0.00     0.015 SA
ATOM      6  C4  UNL d   1       2.037  -2.126  -4.720  0.00  0.00     0.022 A 
ATOM      7  C5  UNL d   1       1.066  -3.047  -5.035  0.00  0.00     0.026 A 
ATOM      8  C6  UNL d   1      -0.209  -2.737  -4.451  0.00  0.00    -0.082 A 
ATOM      9  C7  UNL d   1      -1.448  -3.417  -4.528  0.00  0.00     0.045 A 
ENDROOT
TORSDOF 0
ENDMDL
