MODEL 1
REMARK minimizedAffinity 15.3537598
REMARK minimizedRMSD -1
REMARK  0 active torsions:
REMARK  status: ('A' for Active; 'I' for Inactive)
ROOT
ATOM      1  C   UNL d   1      -0.471  -3.494  -4.545  0.00  0.00    -0.002 A 
ATOM      2  C1  UNL d   1      -1.243  -2.376  -4.260  0.00  0.00     0.010 A 
ATOM      3  C2  UNL d   1      -0.662  -1.236  -3.701  0.00  0.00     0.041 A 
ATOM      4  C3  UNL d   1       0.722  -1.237  -3.434  0.00  0.00    -0.075 A 
ATOM      5  S   UNL d   1       1.650   0.046  -2.753  0.00  0.00     0.015 SA
ATOM      6  C4  UNL d   1       3.092  -0.859  -2.827  0.00  0.00     0.022 A 
ATOM      7  C5  UNL d   1       2.889  -2.112  -3.354  0.00  0.00     0.026 A 
ATOM      8  C6  UNL d   1       1.519  -2.350  -3.714  0.00  0.00    -0.082 A 
ATOM      9  C7  UNL d   1       0.900  -3.491  -4.279  0.00  0.00     0.045 A 
ENDROOT
TORSDOF 0
ENDMDL
