MODEL 1
REMARK minimizedAffinity 15.9084129
REMARK minimizedRMSD -1
REMARK  0 active torsions:
REMARK  status: ('A' for Active; 'I' for Inactive)
ROOT
ATOM      1  C   UNL d   1      -1.014  -3.327  -5.087  0.00  0.00    -0.002 A 
ATOM      2  C1  UNL d   1      -1.847  -3.402  -3.980  0.00  0.00     0.010 A 
ATOM      3  C2  UNL d   1      -1.462  -2.838  -2.762  0.00  0.00     0.041 A 
ATOM      4  C3  UNL d   1      -0.215  -2.188  -2.675  0.00  0.00    -0.075 A 
ATOM      5  S   UNL d   1       0.464  -1.423  -1.288  0.00  0.00     0.015 SA
ATOM      6  C4  UNL d   1       1.876  -0.977  -2.132  0.00  0.00     0.022 A 
ATOM      7  C5  UNL d   1       1.846  -1.393  -3.442  0.00  0.00     0.026 A 
ATOM      8  C6  UNL d   1       0.640  -2.098  -3.777  0.00  0.00    -0.082 A 
ATOM      9  C7  UNL d   1       0.223  -2.681  -4.997  0.00  0.00     0.045 A 
ENDROOT
TORSDOF 0
ENDMDL
