MODEL 1
REMARK minimizedAffinity 12.1215954
REMARK minimizedRMSD -1
REMARK  0 active torsions:
REMARK  status: ('A' for Active; 'I' for Inactive)
ROOT
ATOM      1  C   UNL d   1       0.295  -5.978   1.114  0.00  0.00    -0.002 A 
ATOM      2  C1  UNL d   1      -1.064  -5.991   1.391  0.00  0.00     0.010 A 
ATOM      3  C2  UNL d   1      -1.520  -6.000   2.711  0.00  0.00     0.041 A 
ATOM      4  C3  UNL d   1      -0.576  -5.993   3.758  0.00  0.00    -0.075 A 
ATOM      5  S   UNL d   1      -0.902  -6.000   5.451  0.00  0.00     0.015 SA
ATOM      6  C4  UNL d   1       0.756  -5.984   5.845  0.00  0.00     0.022 A 
ATOM      7  C5  UNL d   1       1.552  -5.974   4.725  0.00  0.00     0.026 A 
ATOM      8  C6  UNL d   1       0.798  -5.978   3.503  0.00  0.00    -0.082 A 
ATOM      9  C7  UNL d   1       1.228  -5.971   2.154  0.00  0.00     0.045 A 
ENDROOT
TORSDOF 0
ENDMDL
