MODEL 1
REMARK minimizedAffinity 5.77197218
REMARK minimizedRMSD -1
REMARK  0 active torsions:
REMARK  status: ('A' for Active; 'I' for Inactive)
ROOT
ATOM      1  C   UNL d   1      -1.360  -5.999  -0.057  0.00  0.00    -0.002 A 
ATOM      2  C1  UNL d   1      -2.257  -5.999   1.002  0.00  0.00     0.010 A 
ATOM      3  C2  UNL d   1      -1.799  -6.000   2.321  0.00  0.00     0.041 A 
ATOM      4  C3  UNL d   1      -0.411  -5.999   2.560  0.00  0.00    -0.075 A 
ATOM      5  S   UNL d   1       0.380  -5.999   4.092  0.00  0.00     0.015 SA
ATOM      6  C4  UNL d   1       1.927  -5.999   3.377  0.00  0.00     0.022 A 
ATOM      7  C5  UNL d   1       1.861  -5.999   2.004  0.00  0.00     0.026 A 
ATOM      8  C6  UNL d   1       0.512  -5.999   1.511  0.00  0.00    -0.082 A 
ATOM      9  C7  UNL d   1       0.016  -5.999   0.185  0.00  0.00     0.045 A 
ENDROOT
TORSDOF 0
ENDMDL
