MODEL 1
REMARK minimizedAffinity 10.1452971
REMARK minimizedRMSD -1
REMARK  0 active torsions:
REMARK  status: ('A' for Active; 'I' for Inactive)
ROOT
ATOM      1  C   UNL d   1      -6.000   4.146   3.892  0.00  0.00    -0.002 A 
ATOM      2  C1  UNL d   1      -5.859   4.178   5.272  0.00  0.00     0.010 A 
ATOM      3  C2  UNL d   1      -5.714   2.995   5.999  0.00  0.00     0.041 A 
ATOM      4  C3  UNL d   1      -5.712   1.767   5.309  0.00  0.00    -0.075 A 
ATOM      5  S   UNL d   1      -5.547   0.191   5.990  0.00  0.00     0.015 SA
ATOM      6  C4  UNL d   1      -5.659  -0.561   4.465  0.00  0.00     0.022 A 
ATOM      7  C5  UNL d   1      -5.818   0.352   3.450  0.00  0.00     0.026 A 
ATOM      8  C6  UNL d   1      -5.851   1.709   3.919  0.00  0.00    -0.082 A 
ATOM      9  C7  UNL d   1      -5.996   2.926   3.211  0.00  0.00     0.045 A 
ENDROOT
TORSDOF 0
ENDMDL
