MODEL 1
REMARK minimizedAffinity 17.8326054
REMARK minimizedRMSD -1
REMARK  0 active torsions:
REMARK  status: ('A' for Active; 'I' for Inactive)
ROOT
ATOM      1  C   UNL d   1      -1.718  -0.407   3.362  0.00  0.00    -0.002 A 
ATOM      2  C1  UNL d   1      -1.494   0.961   3.285  0.00  0.00     0.010 A 
ATOM      3  C2  UNL d   1      -0.679   1.491   2.284  0.00  0.00     0.041 A 
ATOM      4  C3  UNL d   1      -0.087   0.617   1.351  0.00  0.00    -0.075 A 
ATOM      5  S   UNL d   1       0.948   1.041   0.039  0.00  0.00     0.015 SA
ATOM      6  C4  UNL d   1       1.117  -0.583  -0.450  0.00  0.00     0.022 A 
ATOM      7  C5  UNL d   1       0.408  -1.441   0.357  0.00  0.00     0.026 A 
ATOM      8  C6  UNL d   1      -0.298  -0.764   1.408  0.00  0.00    -0.082 A 
ATOM      9  C7  UNL d   1      -1.129  -1.271   2.435  0.00  0.00     0.045 A 
ENDROOT
TORSDOF 0
ENDMDL
