MODEL 1
REMARK minimizedAffinity 6.79363823
REMARK minimizedRMSD -1
REMARK  0 active torsions:
REMARK  status: ('A' for Active; 'I' for Inactive)
ROOT
ATOM      1  C   UNL d   1       0.517  -5.999   4.299  0.00  0.00    -0.002 A 
ATOM      2  C1  UNL d   1       1.376  -5.998   3.210  0.00  0.00     0.010 A 
ATOM      3  C2  UNL d   1       0.872  -5.999   1.908  0.00  0.00     0.041 A 
ATOM      4  C3  UNL d   1      -0.524  -5.998   1.718  0.00  0.00    -0.075 A 
ATOM      5  S   UNL d   1      -1.368  -5.997   0.215  0.00  0.00     0.015 SA
ATOM      6  C4  UNL d   1      -2.889  -5.997   0.984  0.00  0.00     0.022 A 
ATOM      7  C5  UNL d   1      -2.774  -5.998   2.354  0.00  0.00     0.026 A 
ATOM      8  C6  UNL d   1      -1.409  -5.998   2.799  0.00  0.00    -0.082 A 
ATOM      9  C7  UNL d   1      -0.867  -5.998   4.107  0.00  0.00     0.045 A 
ENDROOT
TORSDOF 0
ENDMDL
