MODEL 1
REMARK minimizedAffinity -0.986969948
REMARK minimizedRMSD -1
REMARK  0 active torsions:
REMARK  status: ('A' for Active; 'I' for Inactive)
ROOT
ATOM      1  C   UNL d   1       2.420   0.036   0.207  0.00  0.00     0.077 C 
ATOM      2  C1  UNL d   1       1.842   1.118  -0.657  0.00  0.00    -0.074 A 
ATOM      3  C2  UNL d   1       1.112   0.805  -1.808  0.00  0.00    -0.005 A 
ATOM      4  C3  UNL d   1       0.573   1.821  -2.596  0.00  0.00     0.006 A 
ATOM      5  C4  UNL d   1       0.758   3.158  -2.243  0.00  0.00    -0.005 A 
ATOM      6  C5  UNL d   1       1.485   3.490  -1.095  0.00  0.00    -0.074 A 
ATOM      7  C6  UNL d   1       1.685   4.922  -0.695  0.00  0.00     0.077 C 
ATOM      8  C7  UNL d   1       2.017   2.463  -0.304  0.00  0.00    -0.001 A 
ENDROOT
TORSDOF 0
ENDMDL
