MODEL 1
REMARK minimizedAffinity -2.20850253
REMARK minimizedRMSD -1
REMARK  0 active torsions:
REMARK  status: ('A' for Active; 'I' for Inactive)
ROOT
ATOM      1  C   UNL d   1       1.512   5.284  -0.756  0.00  0.00     0.077 C 
ATOM      2  C1  UNL d   1       1.510   3.835  -0.372  0.00  0.00    -0.074 A 
ATOM      3  C2  UNL d   1       1.510   3.447   0.972  0.00  0.00    -0.005 A 
ATOM      4  C3  UNL d   1       1.498   2.094   1.314  0.00  0.00     0.006 A 
ATOM      5  C4  UNL d   1       1.487   1.118   0.317  0.00  0.00    -0.005 A 
ATOM      6  C5  UNL d   1       1.486   1.487  -1.032  0.00  0.00    -0.074 A 
ATOM      7  C6  UNL d   1       1.464   0.450  -2.116  0.00  0.00     0.077 C 
ATOM      8  C7  UNL d   1       1.491   2.848  -1.367  0.00  0.00    -0.001 A 
ENDROOT
TORSDOF 0
ENDMDL
