MODEL 1
REMARK minimizedAffinity 1.50753355
REMARK minimizedRMSD -1
REMARK  0 active torsions:
REMARK  status: ('A' for Active; 'I' for Inactive)
ROOT
ATOM      1  C   UNL d   1      -4.091  -4.156   6.000  0.00  0.00     0.077 C 
ATOM      2  C1  UNL d   1      -3.098  -3.767   4.946  0.00  0.00    -0.074 A 
ATOM      3  C2  UNL d   1      -3.012  -4.475   3.742  0.00  0.00    -0.005 A 
ATOM      4  C3  UNL d   1      -2.089  -4.096   2.767  0.00  0.00     0.006 A 
ATOM      5  C4  UNL d   1      -1.245  -3.007   2.986  0.00  0.00    -0.005 A 
ATOM      6  C5  UNL d   1      -1.316  -2.287   4.182  0.00  0.00    -0.074 A 
ATOM      7  C6  UNL d   1      -0.422  -1.108   4.429  0.00  0.00     0.077 C 
ATOM      8  C7  UNL d   1      -2.251  -2.670   5.154  0.00  0.00    -0.001 A 
ENDROOT
TORSDOF 0
ENDMDL
