MODEL 1
REMARK minimizedAffinity 0.920296252
REMARK minimizedRMSD -1
REMARK  0 active torsions:
REMARK  status: ('A' for Active; 'I' for Inactive)
ROOT
ATOM      1  C   UNL d   1      -3.006   1.947   2.284  0.00  0.00     0.077 C 
ATOM      2  C1  UNL d   1      -2.500   1.138   3.441  0.00  0.00    -0.074 A 
ATOM      3  C2  UNL d   1      -2.499   1.661   4.738  0.00  0.00    -0.005 A 
ATOM      4  C3  UNL d   1      -2.034   0.893   5.806  0.00  0.00     0.006 A 
ATOM      5  C4  UNL d   1      -1.566  -0.403   5.588  0.00  0.00    -0.005 A 
ATOM      6  C5  UNL d   1      -1.560  -0.943   4.298  0.00  0.00    -0.074 A 
ATOM      7  C6  UNL d   1      -1.069  -2.338   4.047  0.00  0.00     0.077 C 
ATOM      8  C7  UNL d   1      -2.035  -0.168   3.231  0.00  0.00    -0.001 A 
ENDROOT
TORSDOF 0
ENDMDL
