MODEL 1
REMARK minimizedAffinity 1.44120181
REMARK minimizedRMSD -1
REMARK  0 active torsions:
REMARK  status: ('A' for Active; 'I' for Inactive)
ROOT
ATOM      1  C   UNL d   1       1.485   2.290  -2.885  0.00  0.00     0.077 C 
ATOM      2  C1  UNL d   1       1.413   1.303  -1.758  0.00  0.00    -0.074 A 
ATOM      3  C2  UNL d   1       1.479  -0.073  -2.002  0.00  0.00    -0.005 A 
ATOM      4  C3  UNL d   1       1.420  -0.979  -0.943  0.00  0.00     0.006 A 
ATOM      5  C4  UNL d   1       1.296  -0.519   0.368  0.00  0.00    -0.005 A 
ATOM      6  C5  UNL d   1       1.230   0.853   0.632  0.00  0.00    -0.074 A 
ATOM      7  C6  UNL d   1       1.107   1.364   2.037  0.00  0.00     0.077 C 
ATOM      8  C7  UNL d   1       1.297   1.757  -0.437  0.00  0.00    -0.001 A 
ENDROOT
TORSDOF 0
ENDMDL
