MODEL 1
REMARK minimizedAffinity 1.394912
REMARK minimizedRMSD -1
REMARK  0 active torsions:
REMARK  status: ('A' for Active; 'I' for Inactive)
ROOT
ATOM      1  C   UNL d   1       1.882   5.431  -0.337  0.00  0.00     0.077 C 
ATOM      2  C1  UNL d   1       1.478   4.163  -1.029  0.00  0.00    -0.074 A 
ATOM      3  C2  UNL d   1       2.373   3.096  -1.153  0.00  0.00    -0.005 A 
ATOM      4  C3  UNL d   1       1.980   1.919  -1.791  0.00  0.00     0.006 A 
ATOM      5  C4  UNL d   1       0.690   1.799  -2.310  0.00  0.00    -0.005 A 
ATOM      6  C5  UNL d   1      -0.219   2.855  -2.195  0.00  0.00    -0.074 A 
ATOM      7  C6  UNL d   1      -1.611   2.739  -2.739  0.00  0.00     0.077 C 
ATOM      8  C7  UNL d   1       0.182   4.032  -1.547  0.00  0.00    -0.001 A 
ENDROOT
TORSDOF 0
ENDMDL
