MODEL 1
REMARK minimizedAffinity -3.39486241
REMARK minimizedRMSD -1
REMARK  0 active torsions:
REMARK  status: ('A' for Active; 'I' for Inactive)
ROOT
ATOM      1  C   UNL d   1       1.023   3.522  -1.894  0.00  0.00     0.077 C 
ATOM      2  C1  UNL d   1       1.310   2.844  -0.587  0.00  0.00    -0.074 A 
ATOM      3  C2  UNL d   1       1.410   1.451  -0.506  0.00  0.00    -0.005 A 
ATOM      4  C3  UNL d   1       1.686   0.836   0.715  0.00  0.00     0.006 A 
ATOM      5  C4  UNL d   1       1.866   1.605   1.865  0.00  0.00    -0.005 A 
ATOM      6  C5  UNL d   1       1.771   2.999   1.803  0.00  0.00    -0.074 A 
ATOM      7  C6  UNL d   1       1.971   3.842   3.028  0.00  0.00     0.077 C 
ATOM      8  C7  UNL d   1       1.499   3.611   0.571  0.00  0.00    -0.001 A 
ENDROOT
TORSDOF 0
ENDMDL
