MODEL 1
REMARK minimizedAffinity -6.81000376
REMARK minimizedRMSD -1
REMARK  0 active torsions:
REMARK  status: ('A' for Active; 'I' for Inactive)
ROOT
ATOM      1  C   UNL d   1       1.396  -0.001  -2.269  0.00  0.00     0.077 C 
ATOM      2  C1  UNL d   1       1.308   1.001  -1.157  0.00  0.00    -0.074 A 
ATOM      3  C2  UNL d   1       1.099   0.591   0.164  0.00  0.00    -0.005 A 
ATOM      4  C3  UNL d   1       1.028   1.534   1.190  0.00  0.00     0.006 A 
ATOM      5  C4  UNL d   1       1.167   2.893   0.906  0.00  0.00    -0.005 A 
ATOM      6  C5  UNL d   1       1.378   3.321  -0.408  0.00  0.00    -0.074 A 
ATOM      7  C6  UNL d   1       1.539   4.777  -0.729  0.00  0.00     0.077 C 
ATOM      8  C7  UNL d   1       1.454   2.368  -1.433  0.00  0.00    -0.001 A 
ENDROOT
TORSDOF 0
ENDMDL
