MODEL 1
REMARK minimizedAffinity -3.49115491
REMARK minimizedRMSD -1
REMARK  0 active torsions:
REMARK  status: ('A' for Active; 'I' for Inactive)
ROOT
ATOM      1  C   UNL d   1       2.145   6.000  -1.121  0.00  0.00     0.077 C 
ATOM      2  C1  UNL d   1       1.753   4.647  -0.606  0.00  0.00    -0.074 A 
ATOM      3  C2  UNL d   1       1.500   4.441   0.754  0.00  0.00    -0.005 A 
ATOM      4  C3  UNL d   1       1.127   3.179   1.216  0.00  0.00     0.006 A 
ATOM      5  C4  UNL d   1       1.003   2.112   0.325  0.00  0.00    -0.005 A 
ATOM      6  C5  UNL d   1       1.250   2.300  -1.038  0.00  0.00    -0.074 A 
ATOM      7  C6  UNL d   1       1.112   1.166  -2.011  0.00  0.00     0.077 C 
ATOM      8  C7  UNL d   1       1.618   3.572  -1.496  0.00  0.00    -0.001 A 
ENDROOT
TORSDOF 0
ENDMDL
