MODEL 1
REMARK minimizedAffinity -1.75630474
REMARK minimizedRMSD -1
REMARK  0 active torsions:
REMARK  status: ('A' for Active; 'I' for Inactive)
ROOT
ATOM      1  C   UNL d   1       1.740   5.133  -0.918  0.00  0.00     0.077 C 
ATOM      2  C1  UNL d   1       1.502   3.669  -0.699  0.00  0.00    -0.074 A 
ATOM      3  C2  UNL d   1       1.191   2.824  -1.770  0.00  0.00    -0.005 A 
ATOM      4  C3  UNL d   1       0.982   1.462  -1.553  0.00  0.00     0.006 A 
ATOM      5  C4  UNL d   1       1.082   0.932  -0.266  0.00  0.00    -0.005 A 
ATOM      6  C5  UNL d   1       1.393   1.761   0.817  0.00  0.00    -0.074 A 
ATOM      7  C6  UNL d   1       1.513   1.206   2.205  0.00  0.00     0.077 C 
ATOM      8  C7  UNL d   1       1.608   3.127   0.590  0.00  0.00    -0.001 A 
ENDROOT
TORSDOF 0
ENDMDL
