MODEL 1
REMARK minimizedAffinity -4.2503233
REMARK minimizedRMSD -1
REMARK  0 active torsions:
REMARK  status: ('A' for Active; 'I' for Inactive)
ROOT
ATOM      1  C   UNL d   1       1.712   4.756  -0.951  0.00  0.00     0.077 C 
ATOM      2  C1  UNL d   1       1.549   3.275  -0.778  0.00  0.00    -0.074 A 
ATOM      3  C2  UNL d   1       1.391   2.435  -1.885  0.00  0.00    -0.005 A 
ATOM      4  C3  UNL d   1       1.250   1.058  -1.709  0.00  0.00     0.006 A 
ATOM      5  C4  UNL d   1       1.266   0.509  -0.426  0.00  0.00    -0.005 A 
ATOM      6  C5  UNL d   1       1.424   1.333   0.693  0.00  0.00    -0.074 A 
ATOM      7  C6  UNL d   1       1.453   0.758   2.078  0.00  0.00     0.077 C 
ATOM      8  C7  UNL d   1       1.572   2.715   0.507  0.00  0.00    -0.001 A 
ENDROOT
TORSDOF 0
ENDMDL
