MODEL 1
REMARK minimizedAffinity -4.26901817
REMARK minimizedRMSD -1
REMARK  0 active torsions:
REMARK  status: ('A' for Active; 'I' for Inactive)
ROOT
ATOM      1  C   UNL d   1       1.754   4.963  -0.827  0.00  0.00     0.077 C 
ATOM      2  C1  UNL d   1       1.447   3.495  -0.847  0.00  0.00    -0.074 A 
ATOM      3  C2  UNL d   1       1.340   2.799  -2.056  0.00  0.00    -0.005 A 
ATOM      4  C3  UNL d   1       1.064   1.432  -2.058  0.00  0.00     0.006 A 
ATOM      5  C4  UNL d   1       0.892   0.748  -0.855  0.00  0.00    -0.005 A 
ATOM      6  C5  UNL d   1       0.996   1.426   0.364  0.00  0.00    -0.074 A 
ATOM      7  C6  UNL d   1       0.825   0.704   1.667  0.00  0.00     0.077 C 
ATOM      8  C7  UNL d   1       1.281   2.798   0.358  0.00  0.00    -0.001 A 
ENDROOT
TORSDOF 0
ENDMDL
