MODEL 1
REMARK minimizedAffinity -2.39805532
REMARK minimizedRMSD -1
REMARK  0 active torsions:
REMARK  status: ('A' for Active; 'I' for Inactive)
ROOT
ATOM      1  C   UNL d   1      -1.900   1.915   5.998  0.00  0.00     0.077 C 
ATOM      2  C1  UNL d   1      -2.025   1.914   4.503  0.00  0.00    -0.074 A 
ATOM      3  C2  UNL d   1      -3.277   1.992   3.886  0.00  0.00    -0.005 A 
ATOM      4  C3  UNL d   1      -3.377   2.000   2.495  0.00  0.00     0.006 A 
ATOM      5  C4  UNL d   1      -2.227   1.931   1.708  0.00  0.00    -0.005 A 
ATOM      6  C5  UNL d   1      -0.966   1.854   2.307  0.00  0.00    -0.074 A 
ATOM      7  C6  UNL d   1       0.281   1.789   1.475  0.00  0.00     0.077 C 
ATOM      8  C7  UNL d   1      -0.873   1.853   3.705  0.00  0.00    -0.001 A 
ENDROOT
TORSDOF 0
ENDMDL
