MODEL 1
REMARK minimizedAffinity -0.29652673
REMARK minimizedRMSD -1
REMARK  0 active torsions:
REMARK  status: ('A' for Active; 'I' for Inactive)
ROOT
ATOM      1  C   UNL d   1       1.119   1.073   2.059  0.00  0.00     0.077 C 
ATOM      2  C1  UNL d   1       1.143   1.519   0.627  0.00  0.00    -0.074 A 
ATOM      3  C2  UNL d   1       0.843   0.628  -0.408  0.00  0.00    -0.005 A 
ATOM      4  C3  UNL d   1       0.860   1.060  -1.734  0.00  0.00     0.006 A 
ATOM      5  C4  UNL d   1       1.177   2.384  -2.038  0.00  0.00    -0.005 A 
ATOM      6  C5  UNL d   1       1.480   3.290  -1.016  0.00  0.00    -0.074 A 
ATOM      7  C6  UNL d   1       1.813   4.719  -1.324  0.00  0.00     0.077 C 
ATOM      8  C7  UNL d   1       1.453   2.850   0.315  0.00  0.00    -0.001 A 
ENDROOT
TORSDOF 0
ENDMDL
