MODEL 1
REMARK minimizedAffinity 1.45209825
REMARK minimizedRMSD -1
REMARK  0 active torsions:
REMARK  status: ('A' for Active; 'I' for Inactive)
ROOT
ATOM      1  C   UNL d   1       3.378  -0.511   1.123  0.00  0.00     0.077 C 
ATOM      2  C1  UNL d   1       2.354  -0.151   0.088  0.00  0.00    -0.074 A 
ATOM      3  C2  UNL d   1       1.424  -1.094  -0.362  0.00  0.00    -0.005 A 
ATOM      4  C3  UNL d   1       0.472  -0.743  -1.318  0.00  0.00     0.006 A 
ATOM      5  C4  UNL d   1       0.439   0.554  -1.834  0.00  0.00    -0.005 A 
ATOM      6  C5  UNL d   1       1.360   1.510  -1.396  0.00  0.00    -0.074 A 
ATOM      7  C6  UNL d   1       1.333   2.911  -1.932  0.00  0.00     0.077 C 
ATOM      8  C7  UNL d   1       2.310   1.151  -0.429  0.00  0.00    -0.001 A 
ENDROOT
TORSDOF 0
ENDMDL
