MODEL 1
REMARK minimizedAffinity 7.75348186
REMARK minimizedRMSD -1
REMARK  0 active torsions:
REMARK  status: ('A' for Active; 'I' for Inactive)
ROOT
ATOM      1  C   UNL d   1       2.153   6.000  -1.057  0.00  0.00     0.077 C 
ATOM      2  C1  UNL d   1       1.835   4.592  -0.648  0.00  0.00    -0.074 A 
ATOM      3  C2  UNL d   1       1.720   4.245   0.702  0.00  0.00    -0.005 A 
ATOM      4  C3  UNL d   1       1.415   2.934   1.067  0.00  0.00     0.006 A 
ATOM      5  C4  UNL d   1       1.222   1.958   0.088  0.00  0.00    -0.005 A 
ATOM      6  C5  UNL d   1       1.333   2.287  -1.267  0.00  0.00    -0.074 A 
ATOM      7  C6  UNL d   1       1.119   1.253  -2.332  0.00  0.00     0.077 C 
ATOM      8  C7  UNL d   1       1.633   3.608  -1.626  0.00  0.00    -0.001 A 
ENDROOT
TORSDOF 0
ENDMDL
