MODEL 1
REMARK minimizedAffinity -0.309592992
REMARK minimizedRMSD -1
REMARK  0 active torsions:
REMARK  status: ('A' for Active; 'I' for Inactive)
ROOT
ATOM      1  C   UNL d   1       0.406   1.911   0.706  0.00  0.00     0.078 C 
ATOM      2  C1  UNL d   1      -1.058   1.593   0.639  0.00  0.00    -0.077 A 
ATOM      3  C2  UNL d   1      -1.587   0.484   1.309  0.00  0.00    -0.001 A 
ATOM      4  C3  UNL d   1      -2.950   0.195   1.229  0.00  0.00     0.003 A 
ATOM      5  C4  UNL d   1      -3.796   1.010   0.479  0.00  0.00    -0.005 A 
ATOM      6  C5  UNL d   1      -3.278   2.115  -0.193  0.00  0.00     0.003 A 
ATOM      7  C6  UNL d   1      -1.915   2.406  -0.114  0.00  0.00    -0.001 A 
ENDROOT
TORSDOF 0
ENDMDL
