MODEL 1
REMARK minimizedAffinity -1.16317606
REMARK minimizedRMSD -1
REMARK  0 active torsions:
REMARK  status: ('A' for Active; 'I' for Inactive)
ROOT
ATOM      1  C   UNL d   1      -3.412   1.856  -0.527  0.00  0.00     0.078 C 
ATOM      2  C1  UNL d   1      -2.073   1.529   0.065  0.00  0.00    -0.077 A 
ATOM      3  C2  UNL d   1      -0.989   2.403  -0.076  0.00  0.00    -0.001 A 
ATOM      4  C3  UNL d   1       0.254   2.081   0.472  0.00  0.00     0.003 A 
ATOM      5  C4  UNL d   1       0.424   0.884   1.165  0.00  0.00    -0.005 A 
ATOM      6  C5  UNL d   1      -0.649   0.007   1.309  0.00  0.00     0.003 A 
ATOM      7  C6  UNL d   1      -1.892   0.327   0.761  0.00  0.00    -0.001 A 
ENDROOT
TORSDOF 0
ENDMDL
