MODEL 1
REMARK minimizedAffinity 2.17017674
REMARK minimizedRMSD -1
REMARK  0 active torsions:
REMARK  status: ('A' for Active; 'I' for Inactive)
ROOT
ATOM      1  C   UNL d   1      -2.246  -0.924   2.265  0.00  0.00     0.078 C 
ATOM      2  C1  UNL d   1      -1.744   0.266   1.504  0.00  0.00    -0.077 A 
ATOM      3  C2  UNL d   1      -0.372   0.519   1.384  0.00  0.00    -0.001 A 
ATOM      4  C3  UNL d   1       0.080   1.636   0.680  0.00  0.00     0.003 A 
ATOM      5  C4  UNL d   1      -0.832   2.510   0.092  0.00  0.00    -0.005 A 
ATOM      6  C5  UNL d   1      -2.199   2.267   0.207  0.00  0.00     0.003 A 
ATOM      7  C6  UNL d   1      -2.654   1.151   0.911  0.00  0.00    -0.001 A 
ENDROOT
TORSDOF 0
ENDMDL
