MODEL 1
REMARK minimizedAffinity -5.48113823
REMARK minimizedRMSD -1
REMARK  0 active torsions:
REMARK  status: ('A' for Active; 'I' for Inactive)
ROOT
ATOM      1  C   UNL d   1       0.522   1.530  -0.215  0.00  0.00     0.078 C 
ATOM      2  C1  UNL d   1      -0.967   1.556  -0.041  0.00  0.00    -0.077 A 
ATOM      3  C2  UNL d   1      -1.633   0.527   0.636  0.00  0.00    -0.001 A 
ATOM      4  C3  UNL d   1      -3.020   0.559   0.782  0.00  0.00     0.003 A 
ATOM      5  C4  UNL d   1      -3.755   1.618   0.252  0.00  0.00    -0.005 A 
ATOM      6  C5  UNL d   1      -3.102   2.646  -0.425  0.00  0.00     0.003 A 
ATOM      7  C6  UNL d   1      -1.714   2.616  -0.571  0.00  0.00    -0.001 A 
ENDROOT
TORSDOF 0
ENDMDL
