MODEL 1
REMARK minimizedAffinity 1.95589948
REMARK minimizedRMSD -1
REMARK  0 active torsions:
REMARK  status: ('A' for Active; 'I' for Inactive)
ROOT
ATOM      1  C   UNL d   1      -1.880  -2.379   1.876  0.00  0.00     0.078 C 
ATOM      2  C1  UNL d   1      -1.252  -3.644   2.382  0.00  0.00    -0.077 A 
ATOM      3  C2  UNL d   1      -1.315  -4.828   1.638  0.00  0.00    -0.001 A 
ATOM      4  C3  UNL d   1      -0.734  -6.000   2.126  0.00  0.00     0.003 A 
ATOM      5  C4  UNL d   1      -0.087  -5.999   3.360  0.00  0.00    -0.005 A 
ATOM      6  C5  UNL d   1      -0.021  -4.826   4.108  0.00  0.00     0.003 A 
ATOM      7  C6  UNL d   1      -0.601  -3.653   3.622  0.00  0.00    -0.001 A 
ENDROOT
TORSDOF 0
ENDMDL
