MODEL 1
REMARK minimizedAffinity 0.423875988
REMARK minimizedRMSD -1
REMARK  0 active torsions:
REMARK  status: ('A' for Active; 'I' for Inactive)
ROOT
ATOM      1  C   UNL d   1      -1.216   3.031   3.039  0.00  0.00     0.078 C 
ATOM      2  C1  UNL d   1       0.081   2.488   2.519  0.00  0.00    -0.077 A 
ATOM      3  C2  UNL d   1       0.105   1.546   1.483  0.00  0.00    -0.001 A 
ATOM      4  C3  UNL d   1       1.320   1.042   1.016  0.00  0.00     0.003 A 
ATOM      5  C4  UNL d   1       2.520   1.473   1.578  0.00  0.00    -0.005 A 
ATOM      6  C5  UNL d   1       2.506   2.409   2.610  0.00  0.00     0.003 A 
ATOM      7  C6  UNL d   1       1.292   2.914   3.080  0.00  0.00    -0.001 A 
ENDROOT
TORSDOF 0
ENDMDL
