MODEL 1
REMARK minimizedAffinity 1.40948129
REMARK minimizedRMSD -1
REMARK  0 active torsions:
REMARK  status: ('A' for Active; 'I' for Inactive)
ROOT
ATOM      1  C   UNL d   1      -1.286   3.323   3.181  0.00  0.00     0.078 C 
ATOM      2  C1  UNL d   1      -0.111   2.675   2.511  0.00  0.00    -0.077 A 
ATOM      3  C2  UNL d   1      -0.291   1.768   1.459  0.00  0.00    -0.001 A 
ATOM      4  C3  UNL d   1       0.811   1.165   0.852  0.00  0.00     0.003 A 
ATOM      5  C4  UNL d   1       2.101   1.460   1.290  0.00  0.00    -0.005 A 
ATOM      6  C5  UNL d   1       2.289   2.359   2.337  0.00  0.00     0.003 A 
ATOM      7  C6  UNL d   1       1.188   2.964   2.946  0.00  0.00    -0.001 A 
ENDROOT
TORSDOF 0
ENDMDL
