MODEL 1
REMARK minimizedAffinity 1.05620503
REMARK minimizedRMSD -1
REMARK  0 active torsions:
REMARK  status: ('A' for Active; 'I' for Inactive)
ROOT
ATOM      1  C   UNL d   1       2.515   5.999   1.143  0.00  0.00     0.078 C 
ATOM      2  C1  UNL d   1       1.722   4.919   1.816  0.00  0.00    -0.077 A 
ATOM      3  C2  UNL d   1       0.797   4.151   1.098  0.00  0.00    -0.001 A 
ATOM      4  C3  UNL d   1       0.058   3.155   1.739  0.00  0.00     0.003 A 
ATOM      5  C4  UNL d   1       0.235   2.919   3.101  0.00  0.00    -0.005 A 
ATOM      6  C5  UNL d   1       1.152   3.680   3.824  0.00  0.00     0.003 A 
ATOM      7  C6  UNL d   1       1.892   4.676   3.184  0.00  0.00    -0.001 A 
ENDROOT
TORSDOF 0
ENDMDL
