MODEL 1
REMARK minimizedAffinity -0.0538438782
REMARK minimizedRMSD -1
REMARK  0 active torsions:
REMARK  status: ('A' for Active; 'I' for Inactive)
ROOT
ATOM      1  C   UNL d   1      -1.531   3.342   2.958  0.00  0.00     0.078 C 
ATOM      2  C1  UNL d   1      -0.311   2.680   2.389  0.00  0.00    -0.077 A 
ATOM      3  C2  UNL d   1      -0.416   1.743   1.354  0.00  0.00    -0.001 A 
ATOM      4  C3  UNL d   1       0.727   1.128   0.841  0.00  0.00     0.003 A 
ATOM      5  C4  UNL d   1       1.983   1.443   1.357  0.00  0.00    -0.005 A 
ATOM      6  C5  UNL d   1       2.097   2.373   2.388  0.00  0.00     0.003 A 
ATOM      7  C6  UNL d   1       0.955   2.989   2.903  0.00  0.00    -0.001 A 
ENDROOT
TORSDOF 0
ENDMDL
