MODEL 1
REMARK minimizedAffinity 3.76704764
REMARK minimizedRMSD -1
REMARK  0 active torsions:
REMARK  status: ('A' for Active; 'I' for Inactive)
ROOT
ATOM      1  C   UNL d   1       0.842   0.341   0.280  0.00  0.00     0.078 C 
ATOM      2  C1  UNL d   1       0.512   1.427   1.260  0.00  0.00    -0.077 A 
ATOM      3  C2  UNL d   1      -0.793   1.919   1.378  0.00  0.00    -0.001 A 
ATOM      4  C3  UNL d   1      -1.084   2.937   2.288  0.00  0.00     0.003 A 
ATOM      5  C4  UNL d   1      -0.074   3.472   3.086  0.00  0.00    -0.005 A 
ATOM      6  C5  UNL d   1       1.228   2.990   2.974  0.00  0.00     0.003 A 
ATOM      7  C6  UNL d   1       1.521   1.972   2.065  0.00  0.00    -0.001 A 
ENDROOT
TORSDOF 0
ENDMDL
