MODEL 1
REMARK minimizedAffinity 5.13798571
REMARK minimizedRMSD -1
REMARK  0 active torsions:
REMARK  status: ('A' for Active; 'I' for Inactive)
ROOT
ATOM      1  C   UNL d   1      -0.005   1.481   0.578  0.00  0.00     0.078 C 
ATOM      2  C1  UNL d   1       0.741   1.537  -0.721  0.00  0.00    -0.077 A 
ATOM      3  C2  UNL d   1       0.153   2.084  -1.868  0.00  0.00    -0.001 A 
ATOM      4  C3  UNL d   1       0.856   2.121  -3.073  0.00  0.00     0.003 A 
ATOM      5  C4  UNL d   1       2.152   1.613  -3.143  0.00  0.00    -0.005 A 
ATOM      6  C5  UNL d   1       2.745   1.065  -2.008  0.00  0.00     0.003 A 
ATOM      7  C6  UNL d   1       2.043   1.027  -0.802  0.00  0.00    -0.001 A 
ENDROOT
TORSDOF 0
ENDMDL
