MODEL 1
REMARK minimizedAffinity -1.15434539
REMARK minimizedRMSD -1
REMARK  0 active torsions:
REMARK  status: ('A' for Active; 'I' for Inactive)
ROOT
ATOM      1  C   UNL d   1      -0.711   2.626   3.200  0.00  0.00     0.078 C 
ATOM      2  C1  UNL d   1       0.581   2.311   2.507  0.00  0.00    -0.077 A 
ATOM      3  C2  UNL d   1       0.651   1.308   1.533  0.00  0.00    -0.001 A 
ATOM      4  C3  UNL d   1       1.863   1.019   0.904  0.00  0.00     0.003 A 
ATOM      5  C4  UNL d   1       3.014   1.729   1.242  0.00  0.00    -0.005 A 
ATOM      6  C5  UNL d   1       2.954   2.728   2.211  0.00  0.00     0.003 A 
ATOM      7  C6  UNL d   1       1.743   3.018   2.842  0.00  0.00    -0.001 A 
ENDROOT
TORSDOF 0
ENDMDL
