MODEL 1
REMARK minimizedAffinity -1.02543163
REMARK minimizedRMSD -1
REMARK  0 active torsions:
REMARK  status: ('A' for Active; 'I' for Inactive)
ROOT
ATOM      1  C   UNL d   1      -1.192   3.304   3.139  0.00  0.00     0.078 C 
ATOM      2  C1  UNL d   1      -0.321   2.457   2.260  0.00  0.00    -0.077 A 
ATOM      3  C2  UNL d   1      -0.876   1.632   1.275  0.00  0.00    -0.001 A 
ATOM      4  C3  UNL d   1      -0.054   0.841   0.471  0.00  0.00     0.003 A 
ATOM      5  C4  UNL d   1       1.328   0.868   0.644  0.00  0.00    -0.005 A 
ATOM      6  C5  UNL d   1       1.890   1.685   1.623  0.00  0.00     0.003 A 
ATOM      7  C6  UNL d   1       1.069   2.476   2.428  0.00  0.00    -0.001 A 
ENDROOT
TORSDOF 0
ENDMDL
