MODEL 1
REMARK minimizedAffinity 7.01383448
REMARK minimizedRMSD -1
REMARK  0 active torsions:
REMARK  status: ('A' for Active; 'I' for Inactive)
ROOT
ATOM      1  C   UNL d   1      -1.235   2.925   2.512  0.00  0.00     0.078 C 
ATOM      2  C1  UNL d   1      -0.045   2.147   2.037  0.00  0.00    -0.077 A 
ATOM      3  C2  UNL d   1       1.237   2.417   2.531  0.00  0.00    -0.001 A 
ATOM      4  C3  UNL d   1       2.338   1.691   2.072  0.00  0.00     0.003 A 
ATOM      5  C4  UNL d   1       2.168   0.692   1.117  0.00  0.00    -0.005 A 
ATOM      6  C5  UNL d   1       0.896   0.417   0.618  0.00  0.00     0.003 A 
ATOM      7  C6  UNL d   1      -0.205   1.142   1.075  0.00  0.00    -0.001 A 
ENDROOT
TORSDOF 0
ENDMDL
