MODEL 1
REMARK minimizedAffinity -4.08454323
REMARK minimizedRMSD -1
REMARK  1 active torsions:
REMARK  status: ('A' for Active; 'I' for Inactive)
REMARK    1  A    between atoms: N_2  and  C1_3 
ROOT
ATOM      1  C1  UNL d   1      -0.275  -1.108  -0.031  0.00  0.00     0.143 A 
ATOM      2  C2  UNL d   1      -0.740  -2.395   0.263  0.00  0.00    -0.057 A 
ATOM      3  C3  UNL d   1      -0.812  -3.384  -0.725  0.00  0.00     0.033 A 
ATOM      4  C4  UNL d   1      -0.447  -3.095  -2.035  0.00  0.00    -0.042 A 
ATOM      5  C5  UNL d   1      -0.006  -1.816  -2.356  0.00  0.00     0.033 A 
ATOM      6  C6  UNL d   1       0.070  -0.834  -1.364  0.00  0.00    -0.057 A 
ENDROOT
BRANCH   1   7
ATOM      7  N   UNL d   1      -0.273  -0.054   0.885  0.00  0.00    -0.732 N 
ATOM      8  C   UNL d   1       0.971   0.544   1.319  0.00  0.00     0.284 C 
ATOM      9  H3  UNL d   1      -1.016   0.618   0.706  0.00  0.00     0.395 HD
ENDBRANCH   1   7
TORSDOF 1
ENDMDL
