MODEL 1
REMARK minimizedAffinity -3.59363317
REMARK minimizedRMSD -1
REMARK  1 active torsions:
REMARK  status: ('A' for Active; 'I' for Inactive)
REMARK    1  A    between atoms: N_2  and  C1_3 
ROOT
ATOM      1  C1  UNL d   1      -0.198   0.166   0.159  0.00  0.00     0.143 A 
ATOM      2  C2  UNL d   1      -0.634  -0.462   1.331  0.00  0.00    -0.057 A 
ATOM      3  C3  UNL d   1      -0.994  -1.815   1.339  0.00  0.00     0.033 A 
ATOM      4  C4  UNL d   1      -0.950  -2.559   0.164  0.00  0.00    -0.042 A 
ATOM      5  C5  UNL d   1      -0.543  -1.950  -1.017  0.00  0.00     0.033 A 
ATOM      6  C6  UNL d   1      -0.179  -0.600  -1.017  0.00  0.00    -0.057 A 
ENDROOT
BRANCH   1   7
ATOM      7  N   UNL d   1       0.079   1.532   0.066  0.00  0.00    -0.732 N 
ATOM      8  C   UNL d   1       1.417   2.031   0.302  0.00  0.00     0.284 C 
ATOM      9  H3  UNL d   1      -0.395   1.972  -0.719  0.00  0.00     0.395 HD
ENDBRANCH   1   7
TORSDOF 1
ENDMDL
