MODEL 1
REMARK minimizedAffinity -2.89711285
REMARK minimizedRMSD -1
REMARK  1 active torsions:
REMARK  status: ('A' for Active; 'I' for Inactive)
REMARK    1  A    between atoms: N_2  and  C1_3 
ROOT
ATOM      1  C1  UNL d   1       0.936   1.187   0.663  0.00  0.00     0.143 A 
ATOM      2  C2  UNL d   1       0.887   0.574   1.919  0.00  0.00    -0.057 A 
ATOM      3  C3  UNL d   1      -0.008  -0.470   2.184  0.00  0.00     0.033 A 
ATOM      4  C4  UNL d   1      -0.893  -0.901   1.201  0.00  0.00    -0.042 A 
ATOM      5  C5  UNL d   1      -0.879  -0.290  -0.048  0.00  0.00     0.033 A 
ATOM      6  C6  UNL d   1       0.022   0.747  -0.308  0.00  0.00    -0.057 A 
ENDROOT
BRANCH   1   7
ATOM      7  N   UNL d   1       1.734   2.295   0.368  0.00  0.00    -0.732 N 
ATOM      8  C   UNL d   1       1.311   3.628   0.739  0.00  0.00     0.284 C 
ATOM      9  H3  UNL d   1       2.723   2.113   0.525  0.00  0.00     0.395 HD
ENDBRANCH   1   7
TORSDOF 1
ENDMDL
