MODEL 1
REMARK minimizedAffinity -3.08518982
REMARK minimizedRMSD -1
REMARK  1 active torsions:
REMARK  status: ('A' for Active; 'I' for Inactive)
REMARK    1  A    between atoms: N_2  and  C1_3 
ROOT
ATOM      1  C1  UNL d   1      -0.410   0.156   0.072  0.00  0.00     0.143 A 
ATOM      2  C2  UNL d   1      -0.787  -0.385   1.306  0.00  0.00    -0.057 A 
ATOM      3  C3  UNL d   1      -1.123  -1.739   1.432  0.00  0.00     0.033 A 
ATOM      4  C4  UNL d   1      -1.115  -2.571   0.318  0.00  0.00    -0.042 A 
ATOM      5  C5  UNL d   1      -0.768  -2.048  -0.923  0.00  0.00     0.033 A 
ATOM      6  C6  UNL d   1      -0.427  -0.697  -1.042  0.00  0.00    -0.057 A 
ENDROOT
BRANCH   1   7
ATOM      7  N   UNL d   1      -0.160   1.515  -0.137  0.00  0.00    -0.732 N 
ATOM      8  C   UNL d   1       1.075   2.116   0.318  0.00  0.00     0.284 C 
ATOM      9  H3  UNL d   1      -0.461   1.828  -1.057  0.00  0.00     0.395 HD
ENDBRANCH   1   7
TORSDOF 1
ENDMDL
