MODEL 1
REMARK minimizedAffinity -3.55287433
REMARK minimizedRMSD -1
REMARK  1 active torsions:
REMARK  status: ('A' for Active; 'I' for Inactive)
REMARK    1  A    between atoms: N_2  and  C1_3 
ROOT
ATOM      1  C1  UNL d   1       0.879   1.472   0.443  0.00  0.00     0.143 A 
ATOM      2  C2  UNL d   1       0.645   2.850   0.492  0.00  0.00    -0.057 A 
ATOM      3  C3  UNL d   1       1.646   3.743   0.896  0.00  0.00     0.033 A 
ATOM      4  C4  UNL d   1       2.893   3.268   1.288  0.00  0.00    -0.042 A 
ATOM      5  C5  UNL d   1       3.140   1.899   1.272  0.00  0.00     0.033 A 
ATOM      6  C6  UNL d   1       2.139   1.014   0.861  0.00  0.00    -0.057 A 
ENDROOT
BRANCH   1   7
ATOM      7  N   UNL d   1      -0.105   0.526   0.145  0.00  0.00    -0.732 N 
ATOM      8  C   UNL d   1      -0.831  -0.142   1.204  0.00  0.00     0.284 C 
ATOM      9  H3  UNL d   1      -0.684   0.804  -0.645  0.00  0.00     0.395 HD
ENDBRANCH   1   7
TORSDOF 1
ENDMDL
