MODEL 1
REMARK minimizedAffinity -1.97414076
REMARK minimizedRMSD -1
REMARK  1 active torsions:
REMARK  status: ('A' for Active; 'I' for Inactive)
REMARK    1  A    between atoms: N_2  and  C1_3 
ROOT
ATOM      1  C1  UNL d   1      -0.275   0.382   0.153  0.00  0.00     0.143 A 
ATOM      2  C2  UNL d   1      -0.886   1.542  -0.335  0.00  0.00    -0.057 A 
ATOM      3  C3  UNL d   1      -0.243   2.784  -0.270  0.00  0.00     0.033 A 
ATOM      4  C4  UNL d   1       1.015   2.893   0.313  0.00  0.00    -0.042 A 
ATOM      5  C5  UNL d   1       1.631   1.758   0.828  0.00  0.00     0.033 A 
ATOM      6  C6  UNL d   1       0.987   0.519   0.754  0.00  0.00    -0.057 A 
ENDROOT
BRANCH   1   7
ATOM      7  N   UNL d   1      -0.903  -0.865   0.207  0.00  0.00    -0.732 N 
ATOM      8  C   UNL d   1      -1.151  -1.511   1.477  0.00  0.00     0.284 C 
ATOM      9  H3  UNL d   1      -1.671  -0.941  -0.456  0.00  0.00     0.395 HD
ENDBRANCH   1   7
TORSDOF 1
ENDMDL
