MODEL 1
REMARK minimizedAffinity -0.50367409
REMARK minimizedRMSD -1
REMARK  1 active torsions:
REMARK  status: ('A' for Active; 'I' for Inactive)
REMARK    1  A    between atoms: N_2  and  C1_3 
ROOT
ATOM      1  C1  UNL d   1      -0.314  -1.291  -0.313  0.00  0.00     0.143 A 
ATOM      2  C2  UNL d   1      -0.074  -0.864  -1.624  0.00  0.00    -0.057 A 
ATOM      3  C3  UNL d   1       0.125   0.490  -1.921  0.00  0.00     0.033 A 
ATOM      4  C4  UNL d   1       0.059   1.446  -0.914  0.00  0.00    -0.042 A 
ATOM      5  C5  UNL d   1      -0.202   1.048   0.392  0.00  0.00     0.033 A 
ATOM      6  C6  UNL d   1      -0.394  -0.306   0.684  0.00  0.00    -0.057 A 
ENDROOT
BRANCH   1   7
ATOM      7  N   UNL d   1      -0.617  -2.610   0.032  0.00  0.00    -0.732 N 
ATOM      8  C   UNL d   1      -1.993  -3.034   0.184  0.00  0.00     0.284 C 
ATOM      9  H3  UNL d   1      -0.026  -3.284  -0.450  0.00  0.00     0.395 HD
ENDBRANCH   1   7
TORSDOF 1
ENDMDL
