MODEL 1
REMARK minimizedAffinity -3.47774243
REMARK minimizedRMSD -1
REMARK  1 active torsions:
REMARK  status: ('A' for Active; 'I' for Inactive)
REMARK    1  A    between atoms: N_2  and  C1_3 
ROOT
ATOM      1  C1  UNL d   1      -0.339  -0.301  -0.320  0.00  0.00     0.143 A 
ATOM      2  C2  UNL d   1      -0.800  -0.913   0.850  0.00  0.00    -0.057 A 
ATOM      3  C3  UNL d   1      -0.988  -2.298   0.920  0.00  0.00     0.033 A 
ATOM      4  C4  UNL d   1      -0.745  -3.096  -0.194  0.00  0.00    -0.042 A 
ATOM      5  C5  UNL d   1      -0.310  -2.507  -1.375  0.00  0.00     0.033 A 
ATOM      6  C6  UNL d   1      -0.117  -1.123  -1.436  0.00  0.00    -0.057 A 
ENDROOT
BRANCH   1   7
ATOM      7  N   UNL d   1      -0.226   1.082  -0.483  0.00  0.00    -0.732 N 
ATOM      8  C   UNL d   1       0.991   1.771  -0.110  0.00  0.00     0.284 C 
ATOM      9  H3  UNL d   1      -0.636   1.405  -1.356  0.00  0.00     0.395 HD
ENDBRANCH   1   7
TORSDOF 1
ENDMDL
