MODEL 1
REMARK minimizedAffinity -2.38333368
REMARK minimizedRMSD -1
REMARK  1 active torsions:
REMARK  status: ('A' for Active; 'I' for Inactive)
REMARK    1  A    between atoms: N_2  and  C1_3 
ROOT
ATOM      1  C1  UNL d   1      -0.343  -1.037   0.700  0.00  0.00     0.143 A 
ATOM      2  C2  UNL d   1       0.764  -0.543   0.000  0.00  0.00    -0.057 A 
ATOM      3  C3  UNL d   1       0.960   0.832  -0.170  0.00  0.00     0.033 A 
ATOM      4  C4  UNL d   1       0.034   1.741   0.333  0.00  0.00    -0.042 A 
ATOM      5  C5  UNL d   1      -1.086   1.271   1.010  0.00  0.00     0.033 A 
ATOM      6  C6  UNL d   1      -1.273  -0.103   1.182  0.00  0.00    -0.057 A 
ENDROOT
BRANCH   1   7
ATOM      7  N   UNL d   1      -0.645  -2.396   0.817  0.00  0.00    -0.732 N 
ATOM      8  C   UNL d   1      -0.670  -3.250  -0.351  0.00  0.00     0.284 C 
ATOM      9  H3  UNL d   1      -0.212  -2.821   1.634  0.00  0.00     0.395 HD
ENDBRANCH   1   7
TORSDOF 1
ENDMDL
