MODEL 1
REMARK minimizedAffinity -1.42759013
REMARK minimizedRMSD -1
REMARK  1 active torsions:
REMARK  status: ('A' for Active; 'I' for Inactive)
REMARK    1  A    between atoms: N_2  and  C1_3 
ROOT
ATOM      1  C1  UNL d   1       0.930   1.360  -0.091  0.00  0.00     0.143 A 
ATOM      2  C2  UNL d   1       0.340   0.902  -1.274  0.00  0.00    -0.057 A 
ATOM      3  C3  UNL d   1      -0.578  -0.154  -1.266  0.00  0.00     0.033 A 
ATOM      4  C4  UNL d   1      -0.902  -0.793  -0.074  0.00  0.00    -0.042 A 
ATOM      5  C5  UNL d   1      -0.309  -0.372   1.111  0.00  0.00     0.033 A 
ATOM      6  C6  UNL d   1       0.603   0.689   1.097  0.00  0.00    -0.057 A 
ENDROOT
BRANCH   1   7
ATOM      7  N   UNL d   1       1.924   2.341  -0.047  0.00  0.00    -0.732 N 
ATOM      8  C   UNL d   1       1.732   3.550   0.726  0.00  0.00     0.284 C 
ATOM      9  H3  UNL d   1       2.858   1.944   0.027  0.00  0.00     0.395 HD
ENDBRANCH   1   7
TORSDOF 1
ENDMDL
