MODEL 1
REMARK minimizedAffinity -2.39267731
REMARK minimizedRMSD -1
REMARK  1 active torsions:
REMARK  status: ('A' for Active; 'I' for Inactive)
REMARK    1  A    between atoms: N_2  and  C1_3 
ROOT
ATOM      1  C1  UNL d   1       0.120   0.069  -0.146  0.00  0.00     0.143 A 
ATOM      2  C2  UNL d   1      -0.446  -0.033   1.129  0.00  0.00    -0.057 A 
ATOM      3  C3  UNL d   1      -0.987  -1.239   1.589  0.00  0.00     0.033 A 
ATOM      4  C4  UNL d   1      -0.997  -2.362   0.768  0.00  0.00    -0.042 A 
ATOM      5  C5  UNL d   1      -0.462  -2.278  -0.512  0.00  0.00     0.033 A 
ATOM      6  C6  UNL d   1       0.083  -1.072  -0.964  0.00  0.00    -0.057 A 
ENDROOT
BRANCH   1   7
ATOM      7  N   UNL d   1       0.584   1.265  -0.698  0.00  0.00    -0.732 N 
ATOM      8  C   UNL d   1       0.254   2.535  -0.089  0.00  0.00     0.284 C 
ATOM      9  H3  UNL d   1       1.547   1.196  -1.021  0.00  0.00     0.395 HD
ENDBRANCH   1   7
TORSDOF 1
ENDMDL
