MODEL 1
REMARK minimizedAffinity -2.90227556
REMARK minimizedRMSD -1
REMARK  1 active torsions:
REMARK  status: ('A' for Active; 'I' for Inactive)
REMARK    1  A    between atoms: N_2  and  C1_3 
ROOT
ATOM      1  C1  UNL d   1      -0.102  -1.513  -0.925  0.00  0.00     0.143 A 
ATOM      2  C2  UNL d   1       0.017  -0.199  -0.459  0.00  0.00    -0.057 A 
ATOM      3  C3  UNL d   1      -0.187   0.114   0.890  0.00  0.00     0.033 A 
ATOM      4  C4  UNL d   1      -0.544  -0.880   1.795  0.00  0.00    -0.042 A 
ATOM      5  C5  UNL d   1      -0.692  -2.189   1.350  0.00  0.00     0.033 A 
ATOM      6  C6  UNL d   1      -0.480  -2.496   0.002  0.00  0.00    -0.057 A 
ENDROOT
BRANCH   1   7
ATOM      7  N   UNL d   1      -0.008  -1.872  -2.272  0.00  0.00    -0.732 N 
ATOM      8  C   UNL d   1      -0.481  -3.162  -2.725  0.00  0.00     0.284 C 
ATOM      9  H3  UNL d   1      -0.238  -1.102  -2.896  0.00  0.00     0.395 HD
ENDBRANCH   1   7
TORSDOF 1
ENDMDL
