MODEL 1
REMARK minimizedAffinity -2.79139948
REMARK minimizedRMSD -1
REMARK  1 active torsions:
REMARK  status: ('A' for Active; 'I' for Inactive)
REMARK    1  A    between atoms: N_2  and  C1_3 
ROOT
ATOM      1  C1  UNL d   1       0.155   0.999   0.676  0.00  0.00     0.143 A 
ATOM      2  C2  UNL d   1       0.404   0.681   2.016  0.00  0.00    -0.057 A 
ATOM      3  C3  UNL d   1      -0.127  -0.476   2.598  0.00  0.00     0.033 A 
ATOM      4  C4  UNL d   1      -0.944  -1.323   1.857  0.00  0.00    -0.042 A 
ATOM      5  C5  UNL d   1      -1.225  -1.014   0.531  0.00  0.00     0.033 A 
ATOM      6  C6  UNL d   1      -0.686   0.140  -0.047  0.00  0.00    -0.057 A 
ENDROOT
BRANCH   1   7
ATOM      7  N   UNL d   1       0.574   2.185   0.068  0.00  0.00    -0.732 N 
ATOM      8  C   UNL d   1       0.792   3.380   0.854  0.00  0.00     0.284 C 
ATOM      9  H3  UNL d   1       1.277   2.025  -0.651  0.00  0.00     0.395 HD
ENDBRANCH   1   7
TORSDOF 1
ENDMDL
