MODEL 1
REMARK minimizedAffinity -2.17042422
REMARK minimizedRMSD -1
REMARK  1 active torsions:
REMARK  status: ('A' for Active; 'I' for Inactive)
REMARK    1  A    between atoms: C3_4  and  O_7 
ROOT
ATOM      1  C   UNL d   1       1.028  -1.212   0.053  0.00  0.00    -0.033 A 
ATOM      2  C1  UNL d   1       0.433  -0.103  -0.552  0.00  0.00     0.039 A 
ATOM      3  C2  UNL d   1      -0.446   0.703   0.173  0.00  0.00    -0.080 A 
ATOM      4  C3  UNL d   1      -0.722   0.390   1.502  0.00  0.00     0.150 A 
ATOM      5  C4  UNL d   1      -0.131  -0.711   2.112  0.00  0.00    -0.007 A 
ATOM      6  C5  UNL d   1       0.747  -1.515   1.386  0.00  0.00     0.039 A 
ENDROOT
BRANCH   4   7
ATOM      7  O   UNL d   1      -1.577   1.145   2.249  0.00  0.00    -0.526 OA
ATOM      8  H5  UNL d   1      -1.932   1.854   1.687  0.00  0.00     0.418 HD
ENDBRANCH   4   7
TORSDOF 1
ENDMDL
