MODEL 1
REMARK minimizedAffinity -4.74403811
REMARK minimizedRMSD -1
REMARK  1 active torsions:
REMARK  status: ('A' for Active; 'I' for Inactive)
REMARK    1  A    between atoms: C3_4  and  O_7 
ROOT
ATOM      1  C   UNL d   1       0.524  -0.404   0.125  0.00  0.00    -0.033 A 
ATOM      2  C1  UNL d   1       0.053   0.656  -0.652  0.00  0.00     0.039 A 
ATOM      3  C2  UNL d   1      -0.976   1.471  -0.175  0.00  0.00    -0.080 A 
ATOM      4  C3  UNL d   1      -1.523   1.216   1.080  0.00  0.00     0.150 A 
ATOM      5  C4  UNL d   1      -1.055   0.164   1.861  0.00  0.00    -0.007 A 
ATOM      6  C5  UNL d   1      -0.029  -0.649   1.382  0.00  0.00     0.039 A 
ENDROOT
BRANCH   4   7
ATOM      7  O   UNL d   1      -2.531   1.981   1.586  0.00  0.00    -0.526 OA
ATOM      8  H5  UNL d   1      -2.771   2.651   0.925  0.00  0.00     0.418 HD
ENDBRANCH   4   7
TORSDOF 1
ENDMDL
