MODEL 1
REMARK minimizedAffinity -1.93146062
REMARK minimizedRMSD -1
REMARK  1 active torsions:
REMARK  status: ('A' for Active; 'I' for Inactive)
REMARK    1  A    between atoms: C3_4  and  O_7 
ROOT
ATOM      1  C   UNL d   1      -0.047  -3.877  -2.661  0.00  0.00    -0.033 A 
ATOM      2  C1  UNL d   1       0.458  -3.857  -1.360  0.00  0.00     0.039 A 
ATOM      3  C2  UNL d   1       0.908  -2.658  -0.802  0.00  0.00    -0.080 A 
ATOM      4  C3  UNL d   1       0.847  -1.489  -1.555  0.00  0.00     0.150 A 
ATOM      5  C4  UNL d   1       0.342  -1.501  -2.851  0.00  0.00    -0.007 A 
ATOM      6  C5  UNL d   1      -0.106  -2.699  -3.407  0.00  0.00     0.039 A 
ENDROOT
BRANCH   4   7
ATOM      7  O   UNL d   1       1.279  -0.296  -1.056  0.00  0.00    -0.526 OA
ATOM      8  H5  UNL d   1       1.628  -0.446  -0.161  0.00  0.00     0.418 HD
ENDBRANCH   4   7
TORSDOF 1
ENDMDL
