MODEL 1
REMARK minimizedAffinity -3.71714234
REMARK minimizedRMSD -1
REMARK  1 active torsions:
REMARK  status: ('A' for Active; 'I' for Inactive)
REMARK    1  A    between atoms: C3_4  and  O_7 
ROOT
ATOM      1  C   UNL d   1      -0.750   1.748   0.000  0.00  0.00    -0.033 A 
ATOM      2  C1  UNL d   1      -0.743   0.678   0.897  0.00  0.00     0.039 A 
ATOM      3  C2  UNL d   1       0.153  -0.379   0.719  0.00  0.00    -0.080 A 
ATOM      4  C3  UNL d   1       1.035  -0.353  -0.358  0.00  0.00     0.150 A 
ATOM      5  C4  UNL d   1       1.035   0.712  -1.253  0.00  0.00    -0.007 A 
ATOM      6  C5  UNL d   1       0.140   1.766  -1.074  0.00  0.00     0.039 A 
ENDROOT
BRANCH   4   7
ATOM      7  O   UNL d   1       1.923  -1.363  -0.575  0.00  0.00    -0.526 OA
ATOM      8  H5  UNL d   1       1.789  -2.043   0.106  0.00  0.00     0.418 HD
ENDBRANCH   4   7
TORSDOF 1
ENDMDL
