MODEL 1
REMARK minimizedAffinity -4.49422503
REMARK minimizedRMSD -1
REMARK  1 active torsions:
REMARK  status: ('A' for Active; 'I' for Inactive)
REMARK    1  A    between atoms: C3_4  and  O_7 
ROOT
ATOM      1  C   UNL d   1       1.142  -1.226  -0.313  0.00  0.00    -0.033 A 
ATOM      2  C1  UNL d   1      -0.153  -0.732  -0.485  0.00  0.00     0.039 A 
ATOM      3  C2  UNL d   1      -1.008  -1.322  -1.418  0.00  0.00    -0.080 A 
ATOM      4  C3  UNL d   1      -0.558  -2.403  -2.170  0.00  0.00     0.150 A 
ATOM      5  C4  UNL d   1       0.729  -2.903  -2.001  0.00  0.00    -0.007 A 
ATOM      6  C5  UNL d   1       1.582  -2.313  -1.069  0.00  0.00     0.039 A 
ENDROOT
BRANCH   4   7
ATOM      7  O   UNL d   1      -1.355  -3.008  -3.096  0.00  0.00    -0.526 OA
ATOM      8  H5  UNL d   1      -2.205  -2.539  -3.124  0.00  0.00     0.418 HD
ENDBRANCH   4   7
TORSDOF 1
ENDMDL
