MODEL 1
REMARK minimizedAffinity -4.47654057
REMARK minimizedRMSD -1
REMARK  1 active torsions:
REMARK  status: ('A' for Active; 'I' for Inactive)
REMARK    1  A    between atoms: C3_4  and  O_7 
ROOT
ATOM      1  C   UNL d   1       1.237  -0.650  -0.191  0.00  0.00    -0.033 A 
ATOM      2  C1  UNL d   1       0.552  -0.006  -1.223  0.00  0.00     0.039 A 
ATOM      3  C2  UNL d   1      -0.694   0.576  -0.980  0.00  0.00    -0.080 A 
ATOM      4  C3  UNL d   1      -1.242   0.509   0.297  0.00  0.00     0.150 A 
ATOM      5  C4  UNL d   1      -0.564  -0.128   1.332  0.00  0.00    -0.007 A 
ATOM      6  C5  UNL d   1       0.680  -0.709   1.087  0.00  0.00     0.039 A 
ENDROOT
BRANCH   4   7
ATOM      7  O   UNL d   1      -2.457   1.058   0.581  0.00  0.00    -0.526 OA
ATOM      8  H5  UNL d   1      -2.822   1.438  -0.236  0.00  0.00     0.418 HD
ENDBRANCH   4   7
TORSDOF 1
ENDMDL
