MODEL 1
REMARK minimizedAffinity -2.72182488
REMARK minimizedRMSD -1
REMARK  1 active torsions:
REMARK  status: ('A' for Active; 'I' for Inactive)
REMARK    1  A    between atoms: C3_4  and  O_7 
ROOT
ATOM      1  C   UNL d   1       0.206  -0.343   0.289  0.00  0.00    -0.033 A 
ATOM      2  C1  UNL d   1      -0.222   0.744  -0.477  0.00  0.00     0.039 A 
ATOM      3  C2  UNL d   1      -1.190   1.616   0.025  0.00  0.00    -0.080 A 
ATOM      4  C3  UNL d   1      -1.722   1.391   1.291  0.00  0.00     0.150 A 
ATOM      5  C4  UNL d   1      -1.298   0.312   2.061  0.00  0.00    -0.007 A 
ATOM      6  C5  UNL d   1      -0.331  -0.558   1.558  0.00  0.00     0.039 A 
ENDROOT
BRANCH   4   7
ATOM      7  O   UNL d   1      -2.672   2.212   1.821  0.00  0.00    -0.526 OA
ATOM      8  H5  UNL d   1      -2.888   2.896   1.166  0.00  0.00     0.418 HD
ENDBRANCH   4   7
TORSDOF 1
ENDMDL
