MODEL 1
REMARK minimizedAffinity -4.61241293
REMARK minimizedRMSD -1
REMARK  1 active torsions:
REMARK  status: ('A' for Active; 'I' for Inactive)
REMARK    1  A    between atoms: C3_4  and  O_7 
ROOT
ATOM      1  C   UNL d   1       0.622   0.097  -0.298  0.00  0.00    -0.033 A 
ATOM      2  C1  UNL d   1       0.162   1.352  -0.703  0.00  0.00     0.039 A 
ATOM      3  C2  UNL d   1      -0.862   1.984   0.006  0.00  0.00    -0.080 A 
ATOM      4  C3  UNL d   1      -1.415   1.352   1.116  0.00  0.00     0.150 A 
ATOM      5  C4  UNL d   1      -0.959   0.104   1.527  0.00  0.00    -0.007 A 
ATOM      6  C5  UNL d   1       0.063  -0.526   0.818  0.00  0.00     0.039 A 
ENDROOT
BRANCH   4   7
ATOM      7  O   UNL d   1      -2.419   1.928   1.837  0.00  0.00    -0.526 OA
ATOM      8  H5  UNL d   1      -2.651   2.774   1.419  0.00  0.00     0.418 HD
ENDBRANCH   4   7
TORSDOF 1
ENDMDL
