MODEL 1
REMARK minimizedAffinity -4.37898159
REMARK minimizedRMSD -1
REMARK  1 active torsions:
REMARK  status: ('A' for Active; 'I' for Inactive)
REMARK    1  A    between atoms: C3_4  and  O_7 
ROOT
ATOM      1  C   UNL d   1       0.263   2.311  -0.951  0.00  0.00    -0.033 A 
ATOM      2  C1  UNL d   1      -0.343   3.232  -0.095  0.00  0.00     0.039 A 
ATOM      3  C2  UNL d   1      -1.124   2.786   0.973  0.00  0.00    -0.080 A 
ATOM      4  C3  UNL d   1      -1.291   1.418   1.173  0.00  0.00     0.150 A 
ATOM      5  C4  UNL d   1      -0.687   0.495   0.326  0.00  0.00    -0.007 A 
ATOM      6  C5  UNL d   1       0.092   0.942  -0.740  0.00  0.00     0.039 A 
ENDROOT
BRANCH   4   7
ATOM      7  O   UNL d   1      -2.048   0.935   2.199  0.00  0.00    -0.526 OA
ATOM      8  H5  UNL d   1      -2.426   1.688   2.683  0.00  0.00     0.418 HD
ENDBRANCH   4   7
TORSDOF 1
ENDMDL
