MODEL 1
REMARK minimizedAffinity -4.59828424
REMARK minimizedRMSD -1
REMARK  1 active torsions:
REMARK  status: ('A' for Active; 'I' for Inactive)
REMARK    1  A    between atoms: C3_4  and  O_7 
ROOT
ATOM      1  C   UNL d   1       0.400  -0.202  -0.061  0.00  0.00    -0.033 A 
ATOM      2  C1  UNL d   1      -0.147   0.952  -0.626  0.00  0.00     0.039 A 
ATOM      3  C2  UNL d   1      -1.105   1.687   0.073  0.00  0.00    -0.080 A 
ATOM      4  C3  UNL d   1      -1.507   1.260   1.336  0.00  0.00     0.150 A 
ATOM      5  C4  UNL d   1      -0.964   0.114   1.907  0.00  0.00    -0.007 A 
ATOM      6  C5  UNL d   1      -0.008  -0.620   1.207  0.00  0.00     0.039 A 
ENDROOT
BRANCH   4   7
ATOM      7  O   UNL d   1      -2.443   1.943   2.055  0.00  0.00    -0.526 OA
ATOM      8  H5  UNL d   1      -2.750   2.696   1.523  0.00  0.00     0.418 HD
ENDBRANCH   4   7
TORSDOF 1
ENDMDL
