MODEL 1
REMARK minimizedAffinity -4.38221121
REMARK minimizedRMSD -1
REMARK  1 active torsions:
REMARK  status: ('A' for Active; 'I' for Inactive)
REMARK    1  A    between atoms: C3_4  and  O_7 
ROOT
ATOM      1  C   UNL d   1       0.631  -0.170   0.046  0.00  0.00    -0.033 A 
ATOM      2  C1  UNL d   1      -0.120   0.675  -0.774  0.00  0.00     0.039 A 
ATOM      3  C2  UNL d   1      -1.195   1.390  -0.245  0.00  0.00    -0.080 A 
ATOM      4  C3  UNL d   1      -1.510   1.253   1.104  0.00  0.00     0.150 A 
ATOM      5  C4  UNL d   1      -0.764   0.416   1.928  0.00  0.00    -0.007 A 
ATOM      6  C5  UNL d   1       0.309  -0.298   1.398  0.00  0.00     0.039 A 
ENDROOT
BRANCH   4   7
ATOM      7  O   UNL d   1      -2.554   1.927   1.665  0.00  0.00    -0.526 OA
ATOM      8  H5  UNL d   1      -2.995   2.444   0.970  0.00  0.00     0.418 HD
ENDBRANCH   4   7
TORSDOF 1
ENDMDL
