MODEL 1
REMARK minimizedAffinity -4.95175123
REMARK minimizedRMSD -1
REMARK  1 active torsions:
REMARK  status: ('A' for Active; 'I' for Inactive)
REMARK    1  A    between atoms: C3_4  and  O_7 
ROOT
ATOM      1  C   UNL d   1       0.611  -0.022   0.027  0.00  0.00    -0.033 A 
ATOM      2  C1  UNL d   1       0.000   0.967  -0.746  0.00  0.00     0.039 A 
ATOM      3  C2  UNL d   1      -1.110   1.654  -0.251  0.00  0.00    -0.080 A 
ATOM      4  C3  UNL d   1      -1.599   1.343   1.015  0.00  0.00     0.150 A 
ATOM      5  C4  UNL d   1      -0.992   0.361   1.791  0.00  0.00    -0.007 A 
ATOM      6  C5  UNL d   1       0.116  -0.325   1.295  0.00  0.00     0.039 A 
ENDROOT
BRANCH   4   7
ATOM      7  O   UNL d   1      -2.683   1.983   1.538  0.00  0.00    -0.526 OA
ATOM      8  H5  UNL d   1      -3.015   2.615   0.878  0.00  0.00     0.418 HD
ENDBRANCH   4   7
TORSDOF 1
ENDMDL
