MODEL 1
REMARK minimizedAffinity -5.26298189
REMARK minimizedRMSD -1
REMARK  1 active torsions:
REMARK  status: ('A' for Active; 'I' for Inactive)
REMARK    1  A    between atoms: C3_4  and  O_7 
ROOT
ATOM      1  C   UNL d   1       0.442  -0.336   0.437  0.00  0.00    -0.033 A 
ATOM      2  C1  UNL d   1       0.165   0.725  -0.428  0.00  0.00     0.039 A 
ATOM      3  C2  UNL d   1      -0.866   1.619  -0.131  0.00  0.00    -0.080 A 
ATOM      4  C3  UNL d   1      -1.609   1.443   1.033  0.00  0.00     0.150 A 
ATOM      5  C4  UNL d   1      -1.335   0.391   1.901  0.00  0.00    -0.007 A 
ATOM      6  C5  UNL d   1      -0.307  -0.501   1.602  0.00  0.00     0.039 A 
ENDROOT
BRANCH   4   7
ATOM      7  O   UNL d   1      -2.627   2.287   1.363  0.00  0.00    -0.526 OA
ATOM      8  H5  UNL d   1      -2.720   2.948   0.657  0.00  0.00     0.418 HD
ENDBRANCH   4   7
TORSDOF 1
ENDMDL
