MODEL 1
REMARK minimizedAffinity -4.17695093
REMARK minimizedRMSD -1
REMARK  1 active torsions:
REMARK  status: ('A' for Active; 'I' for Inactive)
REMARK    1  A    between atoms: C3_4  and  O_7 
ROOT
ATOM      1  C   UNL d   1      -1.760   1.575   1.560  0.00  0.00    -0.033 A 
ATOM      2  C1  UNL d   1      -1.396   0.391   2.203  0.00  0.00     0.039 A 
ATOM      3  C2  UNL d   1      -0.598  -0.546   1.544  0.00  0.00    -0.080 A 
ATOM      4  C3  UNL d   1      -0.170  -0.287   0.245  0.00  0.00     0.150 A 
ATOM      5  C4  UNL d   1      -0.525   0.893  -0.400  0.00  0.00    -0.007 A 
ATOM      6  C5  UNL d   1      -1.324   1.827   0.259  0.00  0.00     0.039 A 
ENDROOT
BRANCH   4   7
ATOM      7  O   UNL d   1       0.607  -1.173  -0.440  0.00  0.00    -0.526 OA
ATOM      8  H5  UNL d   1       0.749  -1.954   0.120  0.00  0.00     0.418 HD
ENDBRANCH   4   7
TORSDOF 1
ENDMDL
