MODEL 1
REMARK minimizedAffinity -5.37436008
REMARK minimizedRMSD -1
REMARK  1 active torsions:
REMARK  status: ('A' for Active; 'I' for Inactive)
REMARK    1  A    between atoms: C3_4  and  O_7 
ROOT
ATOM      1  C   UNL d   1       0.486  -0.194   0.561  0.00  0.00    -0.033 A 
ATOM      2  C1  UNL d   1      -0.018   0.680  -0.404  0.00  0.00     0.039 A 
ATOM      3  C2  UNL d   1      -1.074   1.537  -0.089  0.00  0.00    -0.080 A 
ATOM      4  C3  UNL d   1      -1.617   1.510   1.192  0.00  0.00     0.150 A 
ATOM      5  C4  UNL d   1      -1.117   0.645   2.160  0.00  0.00    -0.007 A 
ATOM      6  C5  UNL d   1      -0.063  -0.211   1.844  0.00  0.00     0.039 A 
ENDROOT
BRANCH   4   7
ATOM      7  O   UNL d   1      -2.652   2.325   1.545  0.00  0.00    -0.526 OA
ATOM      8  H5  UNL d   1      -2.911   2.847   0.768  0.00  0.00     0.418 HD
ENDBRANCH   4   7
TORSDOF 1
ENDMDL
