MODEL 1
REMARK minimizedAffinity -2.98612452
REMARK minimizedRMSD -1
REMARK  1 active torsions:
REMARK  status: ('A' for Active; 'I' for Inactive)
REMARK    1  A    between atoms: C3_4  and  O_7 
ROOT
ATOM      1  C   UNL d   1      -0.747   2.624  -0.745  0.00  0.00    -0.033 A 
ATOM      2  C1  UNL d   1       0.235   2.299  -1.682  0.00  0.00     0.039 A 
ATOM      3  C2  UNL d   1       0.834   1.038  -1.660  0.00  0.00    -0.080 A 
ATOM      4  C3  UNL d   1       0.442   0.112  -0.697  0.00  0.00     0.150 A 
ATOM      5  C4  UNL d   1      -0.540   0.428   0.237  0.00  0.00    -0.007 A 
ATOM      6  C5  UNL d   1      -1.136   1.688   0.213  0.00  0.00     0.039 A 
ENDROOT
BRANCH   4   7
ATOM      7  O   UNL d   1       1.001  -1.130  -0.632  0.00  0.00    -0.526 OA
ATOM      8  H5  UNL d   1       1.683  -1.196  -1.321  0.00  0.00     0.418 HD
ENDBRANCH   4   7
TORSDOF 1
ENDMDL
