MODEL 1
REMARK minimizedAffinity -3.48860526
REMARK minimizedRMSD -1
REMARK  1 active torsions:
REMARK  status: ('A' for Active; 'I' for Inactive)
REMARK    1  A    between atoms: N_2  and  C1_3 
ROOT
ATOM      1  C1  UNL d   1       0.169  -0.183  -0.184  0.00  0.00     0.143 A 
ATOM      2  C2  UNL d   1       0.466  -1.521  -0.465  0.00  0.00    -0.057 A 
ATOM      3  C3  UNL d   1       1.725  -1.899  -0.945  0.00  0.00     0.033 A 
ATOM      4  C4  UNL d   1       2.704  -0.939  -1.182  0.00  0.00    -0.042 A 
ATOM      5  C5  UNL d   1       2.422   0.400  -0.934  0.00  0.00     0.033 A 
ATOM      6  C6  UNL d   1       1.165   0.771  -0.448  0.00  0.00    -0.057 A 
ENDROOT
BRANCH   1   7
ATOM      7  N   UNL d   1      -1.096   0.269   0.202  0.00  0.00    -0.732 N 
ATOM      8  C   UNL d   1      -1.329   0.747   1.547  0.00  0.00     0.284 C 
ATOM      9  H3  UNL d   1      -1.547   0.825  -0.521  0.00  0.00     0.395 HD
ENDBRANCH   1   7
TORSDOF 1
ENDMDL
