MODEL 1
REMARK minimizedAffinity -1.63047588
REMARK minimizedRMSD -1
REMARK  1 active torsions:
REMARK  status: ('A' for Active; 'I' for Inactive)
REMARK    1  A    between atoms: N_2  and  C1_3 
ROOT
ATOM      1  C1  UNL d   1       0.467   0.619  -0.881  0.00  0.00     0.143 A 
ATOM      2  C2  UNL d   1       0.723  -0.749  -0.738  0.00  0.00    -0.057 A 
ATOM      3  C3  UNL d   1       1.933  -1.310  -1.164  0.00  0.00     0.033 A 
ATOM      4  C4  UNL d   1       2.900  -0.515  -1.770  0.00  0.00    -0.042 A 
ATOM      5  C5  UNL d   1       2.658   0.842  -1.945  0.00  0.00     0.033 A 
ATOM      6  C6  UNL d   1       1.450   1.398  -1.512  0.00  0.00    -0.057 A 
ENDROOT
BRANCH   1   7
ATOM      7  N   UNL d   1      -0.755   1.219  -0.568  0.00  0.00    -0.732 N 
ATOM      8  C   UNL d   1      -1.660   0.598   0.376  0.00  0.00     0.284 C 
ATOM      9  H3  UNL d   1      -0.677   2.228  -0.467  0.00  0.00     0.395 HD
ENDBRANCH   1   7
TORSDOF 1
ENDMDL
