MODEL 1
REMARK minimizedAffinity -0.444785923
REMARK minimizedRMSD -1
REMARK  1 active torsions:
REMARK  status: ('A' for Active; 'I' for Inactive)
REMARK    1  A    between atoms: N_2  and  C1_3 
ROOT
ATOM      1  C1  UNL d   1       1.380  -2.710  -1.145  0.00  0.00     0.143 A 
ATOM      2  C2  UNL d   1       2.112  -1.519  -1.197  0.00  0.00    -0.057 A 
ATOM      3  C3  UNL d   1       3.120  -1.244  -0.264  0.00  0.00     0.033 A 
ATOM      4  C4  UNL d   1       3.395  -2.147   0.757  0.00  0.00    -0.042 A 
ATOM      5  C5  UNL d   1       2.663  -3.327   0.843  0.00  0.00     0.033 A 
ATOM      6  C6  UNL d   1       1.663  -3.598  -0.095  0.00  0.00    -0.057 A 
ENDROOT
BRANCH   1   7
ATOM      7  N   UNL d   1       0.300  -2.996  -1.983  0.00  0.00    -0.732 N 
ATOM      8  C   UNL d   1       0.518  -3.388  -3.359  0.00  0.00     0.284 C 
ATOM      9  H3  UNL d   1      -0.428  -3.527  -1.510  0.00  0.00     0.395 HD
ENDBRANCH   1   7
TORSDOF 1
ENDMDL
