MODEL 1
REMARK minimizedAffinity 2.80755877
REMARK minimizedRMSD -1
REMARK  1 active torsions:
REMARK  status: ('A' for Active; 'I' for Inactive)
REMARK    1  A    between atoms: N_2  and  C1_3 
ROOT
ATOM      1  C1  UNL d   1      -3.310  -1.349   3.786  0.00  0.00     0.143 A 
ATOM      2  C2  UNL d   1      -2.710  -1.398   2.523  0.00  0.00    -0.057 A 
ATOM      3  C3  UNL d   1      -2.108  -0.266   1.960  0.00  0.00     0.033 A 
ATOM      4  C4  UNL d   1      -2.122   0.947   2.640  0.00  0.00    -0.042 A 
ATOM      5  C5  UNL d   1      -2.735   1.026   3.886  0.00  0.00     0.033 A 
ATOM      6  C6  UNL d   1      -3.328  -0.110   4.446  0.00  0.00    -0.057 A 
ENDROOT
BRANCH   1   7
ATOM      7  N   UNL d   1      -4.011  -2.414   4.357  0.00  0.00    -0.732 N 
ATOM      8  C   UNL d   1      -5.165  -2.978   3.691  0.00  0.00     0.284 C 
ATOM      9  H3  UNL d   1      -3.393  -3.106   4.775  0.00  0.00     0.395 HD
ENDBRANCH   1   7
TORSDOF 1
ENDMDL
