MODEL 1
REMARK minimizedAffinity -4.15897846
REMARK minimizedRMSD -1
REMARK  1 active torsions:
REMARK  status: ('A' for Active; 'I' for Inactive)
REMARK    1  A    between atoms: N_2  and  C1_3 
ROOT
ATOM      1  C1  UNL d   1       0.558   0.312  -0.726  0.00  0.00     0.143 A 
ATOM      2  C2  UNL d   1       1.821  -0.249  -0.507  0.00  0.00    -0.057 A 
ATOM      3  C3  UNL d   1       2.958   0.246  -1.157  0.00  0.00     0.033 A 
ATOM      4  C4  UNL d   1       2.847   1.296  -2.063  0.00  0.00    -0.042 A 
ATOM      5  C5  UNL d   1       1.598   1.852  -2.314  0.00  0.00     0.033 A 
ATOM      6  C6  UNL d   1       0.467   1.358  -1.657  0.00  0.00    -0.057 A 
ENDROOT
BRANCH   1   7
ATOM      7  N   UNL d   1      -0.624  -0.199  -0.185  0.00  0.00    -0.732 N 
ATOM      8  C   UNL d   1      -1.513   0.650   0.579  0.00  0.00     0.284 C 
ATOM      9  H3  UNL d   1      -1.101  -0.833  -0.822  0.00  0.00     0.395 HD
ENDBRANCH   1   7
TORSDOF 1
ENDMDL
