MODEL 1
REMARK minimizedAffinity -0.0130746523
REMARK minimizedRMSD -1
REMARK  1 active torsions:
REMARK  status: ('A' for Active; 'I' for Inactive)
REMARK    1  A    between atoms: N_2  and  C1_3 
ROOT
ATOM      1  C1  UNL d   1      -3.026   1.889   1.792  0.00  0.00     0.143 A 
ATOM      2  C2  UNL d   1      -1.982   2.791   1.561  0.00  0.00    -0.057 A 
ATOM      3  C3  UNL d   1      -1.221   2.736   0.387  0.00  0.00     0.033 A 
ATOM      4  C4  UNL d   1      -1.474   1.756  -0.567  0.00  0.00    -0.042 A 
ATOM      5  C5  UNL d   1      -2.490   0.834  -0.348  0.00  0.00     0.033 A 
ATOM      6  C6  UNL d   1      -3.251   0.898   0.824  0.00  0.00    -0.057 A 
ENDROOT
BRANCH   1   7
ATOM      7  N   UNL d   1      -3.755   1.830   2.983  0.00  0.00    -0.732 N 
ATOM      8  C   UNL d   1      -3.259   1.075   4.113  0.00  0.00     0.284 C 
ATOM      9  H3  UNL d   1      -4.167   2.727   3.231  0.00  0.00     0.395 HD
ENDBRANCH   1   7
TORSDOF 1
ENDMDL
