MODEL 1
REMARK minimizedAffinity -2.02764106
REMARK minimizedRMSD -1
REMARK  1 active torsions:
REMARK  status: ('A' for Active; 'I' for Inactive)
REMARK    1  A    between atoms: N_2  and  C1_3 
ROOT
ATOM      1  C1  UNL d   1       0.922   0.229  -1.301  0.00  0.00     0.143 A 
ATOM      2  C2  UNL d   1       0.871   1.398  -2.067  0.00  0.00    -0.057 A 
ATOM      3  C3  UNL d   1       1.618   1.527  -3.245  0.00  0.00     0.033 A 
ATOM      4  C4  UNL d   1       2.454   0.497  -3.662  0.00  0.00    -0.042 A 
ATOM      5  C5  UNL d   1       2.539  -0.665  -2.902  0.00  0.00     0.033 A 
ATOM      6  C6  UNL d   1       1.786  -0.790  -1.731  0.00  0.00    -0.057 A 
ENDROOT
BRANCH   1   7
ATOM      7  N   UNL d   1       0.280   0.078  -0.069  0.00  0.00    -0.732 N 
ATOM      8  C   UNL d   1      -1.115  -0.303  -0.007  0.00  0.00     0.284 C 
ATOM      9  H3  UNL d   1       0.867  -0.383   0.622  0.00  0.00     0.395 HD
ENDBRANCH   1   7
TORSDOF 1
ENDMDL
