MODEL 1
REMARK minimizedAffinity -3.2269485
REMARK minimizedRMSD -1
REMARK  1 active torsions:
REMARK  status: ('A' for Active; 'I' for Inactive)
REMARK    1  A    between atoms: N_2  and  C1_3 
ROOT
ATOM      1  C1  UNL d   1       0.309  -0.034  -0.478  0.00  0.00     0.143 A 
ATOM      2  C2  UNL d   1       0.469  -1.399  -0.737  0.00  0.00    -0.057 A 
ATOM      3  C3  UNL d   1       1.643  -1.896  -1.316  0.00  0.00     0.033 A 
ATOM      4  C4  UNL d   1       2.670  -1.029  -1.674  0.00  0.00    -0.042 A 
ATOM      5  C5  UNL d   1       2.523   0.335  -1.448  0.00  0.00     0.033 A 
ATOM      6  C6  UNL d   1       1.351   0.824  -0.863  0.00  0.00    -0.057 A 
ENDROOT
BRANCH   1   7
ATOM      7  N   UNL d   1      -0.872   0.533   0.005  0.00  0.00    -0.732 N 
ATOM      8  C   UNL d   1      -1.563   1.555  -0.753  0.00  0.00     0.284 C 
ATOM      9  H3  UNL d   1      -1.488  -0.155   0.431  0.00  0.00     0.395 HD
ENDBRANCH   1   7
TORSDOF 1
ENDMDL
