MODEL 1
REMARK minimizedAffinity -1.26934707
REMARK minimizedRMSD -1
REMARK  1 active torsions:
REMARK  status: ('A' for Active; 'I' for Inactive)
REMARK    1  A    between atoms: N_2  and  C1_3 
ROOT
ATOM      1  C1  UNL d   1      -0.014   0.094  -0.479  0.00  0.00     0.143 A 
ATOM      2  C2  UNL d   1      -0.682  -1.106  -0.213  0.00  0.00    -0.057 A 
ATOM      3  C3  UNL d   1      -0.106  -2.343  -0.525  0.00  0.00     0.033 A 
ATOM      4  C4  UNL d   1       1.142  -2.401  -1.137  0.00  0.00    -0.042 A 
ATOM      5  C5  UNL d   1       1.814  -1.220  -1.433  0.00  0.00     0.033 A 
ATOM      6  C6  UNL d   1       1.236   0.012  -1.113  0.00  0.00    -0.057 A 
ENDROOT
BRANCH   1   7
ATOM      7  N   UNL d   1      -0.576   1.358  -0.283  0.00  0.00    -0.732 N 
ATOM      8  C   UNL d   1      -0.631   2.316  -1.366  0.00  0.00     0.284 C 
ATOM      9  H3  UNL d   1      -1.419   1.324   0.286  0.00  0.00     0.395 HD
ENDBRANCH   1   7
TORSDOF 1
ENDMDL
