MODEL 1
REMARK minimizedAffinity -4.20850182
REMARK minimizedRMSD -1
REMARK  1 active torsions:
REMARK  status: ('A' for Active; 'I' for Inactive)
REMARK    1  A    between atoms: N_2  and  C1_3 
ROOT
ATOM      1  C1  UNL d   1      -0.359   0.284  -0.443  0.00  0.00     0.143 A 
ATOM      2  C2  UNL d   1       0.319   1.286  -1.146  0.00  0.00    -0.057 A 
ATOM      3  C3  UNL d   1       1.584   1.056  -1.699  0.00  0.00     0.033 A 
ATOM      4  C4  UNL d   1       2.209  -0.175  -1.533  0.00  0.00    -0.042 A 
ATOM      5  C5  UNL d   1       1.565  -1.178  -0.817  0.00  0.00     0.033 A 
ATOM      6  C6  UNL d   1       0.298  -0.944  -0.273  0.00  0.00    -0.057 A 
ENDROOT
BRANCH   1   7
ATOM      7  N   UNL d   1      -1.576   0.482   0.214  0.00  0.00    -0.732 N 
ATOM      8  C   UNL d   1      -1.607   0.941   1.586  0.00  0.00     0.284 C 
ATOM      9  H3  UNL d   1      -2.275   0.915  -0.385  0.00  0.00     0.395 HD
ENDBRANCH   1   7
TORSDOF 1
ENDMDL
