MODEL 1
REMARK minimizedAffinity 19.4328041
REMARK minimizedRMSD -1
REMARK  0 active torsions:
REMARK  status: ('A' for Active; 'I' for Inactive)
ROOT
ATOM      1  N1  IND d   1       4.773  -1.062   0.824  0.00  0.00    -0.196 N 
ATOM      2  C2  IND d   1       5.421  -2.104   1.428  0.00  0.00     0.054 A 
ATOM      3  C3  IND d   1       4.544  -2.862   2.125  0.00  0.00    -0.031 A 
ATOM      4  C4  IND d   1       1.988  -2.638   2.328  0.00  0.00     0.051 A 
ATOM      5  C5  IND d   1       0.947  -1.822   1.983  0.00  0.00    -0.031 A 
ATOM      6  C6  IND d   1       1.132  -0.689   1.217  0.00  0.00     0.015 A 
ATOM      7  C7  IND d   1       2.368  -0.335   0.755  0.00  0.00    -0.016 A 
ATOM      8  C8  IND d   1       3.428  -1.158   1.109  0.00  0.00    -0.047 A 
ATOM      9  C9  IND d   1       3.253  -2.285   1.922  0.00  0.00    -0.096 A 
ATOM     10  HN1 IND d   1       5.143  -0.450   0.347  0.00  0.00     0.298 HD
ENDROOT
TORSDOF 0
ENDMDL
