MODEL 1
REMARK minimizedAffinity 8.71683979
REMARK minimizedRMSD -1
REMARK  0 active torsions:
REMARK  status: ('A' for Active; 'I' for Inactive)
ROOT
ATOM      1  N1  IND d   1       5.301  -1.163   0.880  0.00  0.00    -0.196 N 
ATOM      2  C2  IND d   1       6.000  -2.058   1.641  0.00  0.00     0.054 A 
ATOM      3  C3  IND d   1       5.172  -2.687   2.505  0.00  0.00    -0.031 A 
ATOM      4  C4  IND d   1       2.620  -2.480   2.771  0.00  0.00     0.051 A 
ATOM      5  C5  IND d   1       1.545  -1.765   2.323  0.00  0.00    -0.031 A 
ATOM      6  C6  IND d   1       1.669  -0.795   1.349  0.00  0.00     0.015 A 
ATOM      7  C7  IND d   1       2.876  -0.511   0.777  0.00  0.00    -0.016 A 
ATOM      8  C8  IND d   1       3.971  -1.230   1.234  0.00  0.00    -0.047 A 
ATOM      9  C9  IND d   1       3.859  -2.186   2.253  0.00  0.00    -0.096 A 
ATOM     10  HN1 IND d   1       5.635  -0.646   0.280  0.00  0.00     0.298 HD
ENDROOT
TORSDOF 0
ENDMDL
