MODEL 1
REMARK minimizedAffinity 17.0113144
REMARK minimizedRMSD -1
REMARK  0 active torsions:
REMARK  status: ('A' for Active; 'I' for Inactive)
ROOT
ATOM      1  N1  IND d   1      -0.871  -5.825  -1.751  0.00  0.00    -0.196 N 
ATOM      2  C2  IND d   1      -1.872  -5.967  -0.831  0.00  0.00     0.054 A 
ATOM      3  C3  IND d   1      -1.360  -6.000   0.420  0.00  0.00    -0.031 A 
ATOM      4  C4  IND d   1       1.081  -5.737   1.195  0.00  0.00     0.051 A 
ATOM      5  C5  IND d   1       2.356  -5.621   0.718  0.00  0.00    -0.031 A 
ATOM      6  C6  IND d   1       2.626  -5.564  -0.634  0.00  0.00     0.015 A 
ATOM      7  C7  IND d   1       1.625  -5.609  -1.563  0.00  0.00    -0.016 A 
ATOM      8  C8  IND d   1       0.330  -5.733  -1.082  0.00  0.00    -0.047 A 
ATOM      9  C9  IND d   1       0.053  -5.835   0.287  0.00  0.00    -0.096 A 
ATOM     10  HN1 IND d   1      -0.974  -5.798  -2.604  0.00  0.00     0.298 HD
ENDROOT
TORSDOF 0
ENDMDL
