MODEL 1
REMARK minimizedAffinity 18.0056782
REMARK minimizedRMSD -1
REMARK  0 active torsions:
REMARK  status: ('A' for Active; 'I' for Inactive)
ROOT
ATOM      1  N1  IND d   1       0.765  -1.880   4.116  0.00  0.00    -0.196 N 
ATOM      2  C2  IND d   1       1.522  -2.977   4.420  0.00  0.00     0.054 A 
ATOM      3  C3  IND d   1       2.419  -3.217   3.437  0.00  0.00    -0.031 A 
ATOM      4  C4  IND d   1       2.888  -1.878   1.289  0.00  0.00     0.051 A 
ATOM      5  C5  IND d   1       2.429  -0.818   0.558  0.00  0.00    -0.031 A 
ATOM      6  C6  IND d   1       1.372  -0.041   0.986  0.00  0.00     0.015 A 
ATOM      7  C7  IND d   1       0.739  -0.289   2.172  0.00  0.00    -0.016 A 
ATOM      8  C8  IND d   1       1.199  -1.368   2.913  0.00  0.00    -0.047 A 
ATOM      9  C9  IND d   1       2.243  -2.186   2.464  0.00  0.00    -0.096 A 
ATOM     10  HN1 IND d   1       0.126  -1.563   4.596  0.00  0.00     0.298 HD
ENDROOT
TORSDOF 0
ENDMDL
