MODEL 1
REMARK minimizedAffinity 15.5786352
REMARK minimizedRMSD -1
REMARK  0 active torsions:
REMARK  status: ('A' for Active; 'I' for Inactive)
ROOT
ATOM      1  N1  IND d   1      -5.949  -2.064  -5.240  0.00  0.00    -0.196 N 
ATOM      2  C2  IND d   1      -5.210  -1.376  -4.319  0.00  0.00     0.054 A 
ATOM      3  C3  IND d   1      -4.328  -2.202  -3.712  0.00  0.00    -0.031 A 
ATOM      4  C4  IND d   1      -3.856  -4.695  -4.148  0.00  0.00     0.051 A 
ATOM      5  C5  IND d   1      -4.304  -5.766  -4.869  0.00  0.00    -0.031 A 
ATOM      6  C6  IND d   1      -5.342  -5.655  -5.772  0.00  0.00     0.015 A 
ATOM      7  C7  IND d   1      -5.966  -4.460  -5.996  0.00  0.00    -0.016 A 
ATOM      8  C8  IND d   1      -5.519  -3.372  -5.259  0.00  0.00    -0.047 A 
ATOM      9  C9  IND d   1      -4.495  -3.488  -4.311  0.00  0.00    -0.096 A 
ATOM     10  HN1 IND d   1      -6.578  -1.734  -5.726  0.00  0.00     0.298 HD
ENDROOT
TORSDOF 0
ENDMDL
