MODEL 1
REMARK minimizedAffinity 10.5092783
REMARK minimizedRMSD -1
REMARK  0 active torsions:
REMARK  status: ('A' for Active; 'I' for Inactive)
ROOT
ATOM      1  N1  IND d   1      -2.819   0.174  -2.038  0.00  0.00    -0.196 N 
ATOM      2  C2  IND d   1      -3.469   0.533  -3.185  0.00  0.00     0.054 A 
ATOM      3  C3  IND d   1      -4.077   1.730  -3.028  0.00  0.00    -0.031 A 
ATOM      4  C4  IND d   1      -4.052   3.323  -1.005  0.00  0.00     0.051 A 
ATOM      5  C5  IND d   1      -3.623   3.414   0.289  0.00  0.00    -0.031 A 
ATOM      6  C6  IND d   1      -2.887   2.410   0.885  0.00  0.00     0.015 A 
ATOM      7  C7  IND d   1      -2.541   1.279   0.202  0.00  0.00    -0.016 A 
ATOM      8  C8  IND d   1      -2.981   1.180  -1.110  0.00  0.00    -0.047 A 
ATOM      9  C9  IND d   1      -3.765   2.176  -1.707  0.00  0.00    -0.096 A 
ATOM     10  HN1 IND d   1      -2.383  -0.556  -1.915  0.00  0.00     0.298 HD
ENDROOT
TORSDOF 0
ENDMDL
