MODEL 1
REMARK minimizedAffinity 14.4653378
REMARK minimizedRMSD -1
REMARK  0 active torsions:
REMARK  status: ('A' for Active; 'I' for Inactive)
ROOT
ATOM      1  N1  IND d   1      -2.320   0.871  -0.004  0.00  0.00    -0.196 N 
ATOM      2  C2  IND d   1      -2.363   2.191   0.349  0.00  0.00     0.054 A 
ATOM      3  C3  IND d   1      -3.074   2.898  -0.557  0.00  0.00    -0.031 A 
ATOM      4  C4  IND d   1      -4.343   2.077  -2.641  0.00  0.00     0.051 A 
ATOM      5  C5  IND d   1      -4.567   0.959  -3.395  0.00  0.00    -0.031 A 
ATOM      6  C6  IND d   1      -4.045  -0.271  -3.049  0.00  0.00     0.015 A 
ATOM      7  C7  IND d   1      -3.285  -0.431  -1.924  0.00  0.00    -0.016 A 
ATOM      8  C8  IND d   1      -3.050   0.703  -1.160  0.00  0.00    -0.047 A 
ATOM      9  C9  IND d   1      -3.542   1.962  -1.529  0.00  0.00    -0.096 A 
ATOM     10  HN1 IND d   1      -1.907   0.250   0.424  0.00  0.00     0.298 HD
ENDROOT
TORSDOF 0
ENDMDL
