MODEL 1
REMARK minimizedAffinity 12.8900871
REMARK minimizedRMSD -1
REMARK  0 active torsions:
REMARK  status: ('A' for Active; 'I' for Inactive)
ROOT
ATOM      1  N1  IND d   1       0.289  -2.928   4.728  0.00  0.00    -0.196 N 
ATOM      2  C2  IND d   1       0.792  -2.515   5.930  0.00  0.00     0.054 A 
ATOM      3  C3  IND d   1       1.378  -1.303   5.804  0.00  0.00    -0.031 A 
ATOM      4  C4  IND d   1       1.536   0.229   3.741  0.00  0.00     0.051 A 
ATOM      5  C5  IND d   1       1.256   0.268   2.404  0.00  0.00    -0.031 A 
ATOM      6  C6  IND d   1       0.623  -0.776   1.761  0.00  0.00     0.015 A 
ATOM      7  C7  IND d   1       0.236  -1.899   2.436  0.00  0.00    -0.016 A 
ATOM      8  C8  IND d   1       0.526  -1.945   3.793  0.00  0.00    -0.047 A 
ATOM      9  C9  IND d   1       1.205  -0.906   4.442  0.00  0.00    -0.096 A 
ATOM     10  HN1 IND d   1      -0.108  -3.676   4.581  0.00  0.00     0.298 HD
ENDROOT
TORSDOF 0
ENDMDL
