MODEL 1
REMARK minimizedAffinity 10.2101965
REMARK minimizedRMSD -1
REMARK  0 active torsions:
REMARK  status: ('A' for Active; 'I' for Inactive)
ROOT
ATOM      1  N1  IND d   1       4.273  -1.016   0.733  0.00  0.00    -0.196 N 
ATOM      2  C2  IND d   1       5.073  -1.957   1.319  0.00  0.00     0.054 A 
ATOM      3  C3  IND d   1       4.370  -2.676   2.223  0.00  0.00    -0.031 A 
ATOM      4  C4  IND d   1       1.871  -2.547   2.828  0.00  0.00     0.051 A 
ATOM      5  C5  IND d   1       0.740  -1.820   2.584  0.00  0.00    -0.031 A 
ATOM      6  C6  IND d   1       0.727  -0.768   1.690  0.00  0.00     0.015 A 
ATOM      7  C7  IND d   1       1.848  -0.410   0.996  0.00  0.00    -0.016 A 
ATOM      8  C8  IND d   1       3.001  -1.142   1.247  0.00  0.00    -0.047 A 
ATOM      9  C9  IND d   1       3.030  -2.183   2.184  0.00  0.00    -0.096 A 
ATOM     10  HN1 IND d   1       4.522  -0.443   0.143  0.00  0.00     0.298 HD
ENDROOT
TORSDOF 0
ENDMDL
