MODEL 1
REMARK minimizedAffinity -1.41653287
REMARK minimizedRMSD -1
REMARK  0 active torsions:
REMARK  status: ('A' for Active; 'I' for Inactive)
ROOT
ATOM      1  N1  IND d   1       4.528   4.244  -5.290  0.00  0.00    -0.196 N 
ATOM      2  C2  IND d   1       5.338   5.087  -5.999  0.00  0.00     0.054 A 
ATOM      3  C3  IND d   1       6.000   5.917  -5.162  0.00  0.00    -0.031 A 
ATOM      4  C4  IND d   1       5.984   6.000  -2.589  0.00  0.00     0.051 A 
ATOM      5  C5  IND d   1       5.371   5.451  -1.498  0.00  0.00    -0.031 A 
ATOM      6  C6  IND d   1       4.429   4.449  -1.617  0.00  0.00     0.015 A 
ATOM      7  C7  IND d   1       4.072   3.949  -2.837  0.00  0.00    -0.016 A 
ATOM      8  C8  IND d   1       4.686   4.509  -3.948  0.00  0.00    -0.047 A 
ATOM      9  C9  IND d   1       5.612   5.555  -3.836  0.00  0.00    -0.096 A 
ATOM     10  HN1 IND d   1       4.007   3.648  -5.627  0.00  0.00     0.298 HD
ENDROOT
TORSDOF 0
ENDMDL
