MODEL 1
REMARK minimizedAffinity 7.38504887
REMARK minimizedRMSD -1
REMARK  0 active torsions:
REMARK  status: ('A' for Active; 'I' for Inactive)
ROOT
ATOM      1  N1  IND d   1       0.137  -1.584   4.393  0.00  0.00    -0.196 N 
ATOM      2  C2  IND d   1       0.098  -2.949   4.456  0.00  0.00     0.054 A 
ATOM      3  C3  IND d   1       0.837  -3.487   3.460  0.00  0.00    -0.031 A 
ATOM      4  C4  IND d   1       2.277  -2.316   1.677  0.00  0.00     0.051 A 
ATOM      5  C5  IND d   1       2.600  -1.079   1.194  0.00  0.00    -0.031 A 
ATOM      6  C6  IND d   1       2.109   0.077   1.767  0.00  0.00     0.015 A 
ATOM      7  C7  IND d   1       1.284   0.038   2.855  0.00  0.00    -0.016 A 
ATOM      8  C8  IND d   1       0.949  -1.217   3.343  0.00  0.00    -0.047 A 
ATOM      9  C9  IND d   1       1.410  -2.394   2.740  0.00  0.00    -0.096 A 
ATOM     10  HN1 IND d   1      -0.277  -1.046   4.921  0.00  0.00     0.298 HD
ENDROOT
TORSDOF 0
ENDMDL
