MODEL 1
REMARK minimizedAffinity 5.04956913
REMARK minimizedRMSD -1
REMARK  0 active torsions:
REMARK  status: ('A' for Active; 'I' for Inactive)
ROOT
ATOM      1  N1  IND d   1      -5.238   2.358  -5.826  0.00  0.00    -0.196 N 
ATOM      2  C2  IND d   1      -5.605   3.669  -5.957  0.00  0.00     0.054 A 
ATOM      3  C3  IND d   1      -5.989   4.171  -4.763  0.00  0.00    -0.031 A 
ATOM      4  C4  IND d   1      -5.999   3.053  -2.444  0.00  0.00     0.051 A 
ATOM      5  C5  IND d   1      -5.784   1.853  -1.826  0.00  0.00    -0.031 A 
ATOM      6  C6  IND d   1      -5.365   0.738  -2.524  0.00  0.00     0.015 A 
ATOM      7  C7  IND d   1      -5.134   0.785  -3.870  0.00  0.00    -0.016 A 
ATOM      8  C8  IND d   1      -5.358   2.000  -4.501  0.00  0.00    -0.047 A 
ATOM      9  C9  IND d   1      -5.823   3.123  -3.806  0.00  0.00    -0.096 A 
ATOM     10  HN1 IND d   1      -4.977   1.844  -6.464  0.00  0.00     0.298 HD
ENDROOT
TORSDOF 0
ENDMDL
