MODEL 1
REMARK minimizedAffinity 17.2128506
REMARK minimizedRMSD -1
REMARK  0 active torsions:
REMARK  status: ('A' for Active; 'I' for Inactive)
ROOT
ATOM      1  C   UNL d   1       5.938  -0.735  -5.960  0.00  0.00     0.020 A 
ATOM      2  C1  UNL d   1       5.999  -1.840  -5.111  0.00  0.00     0.020 A 
ATOM      3  C2  UNL d   1       4.929  -2.128  -4.261  0.00  0.00     0.034 A 
ATOM      4  C3  UNL d   1       3.794  -1.310  -4.257  0.00  0.00     0.017 A 
ATOM      5  C4  UNL d   1       3.733  -0.201  -5.109  0.00  0.00     0.017 A 
ATOM      6  C5  UNL d   1       4.807   0.083  -5.958  0.00  0.00     0.034 A 
ATOM      7 Cl   UNL d   1       2.366   0.855  -5.161  0.00  0.00    -0.070 Cl
ATOM      8 Cl1  UNL d   1       2.508  -1.725  -3.180  0.00  0.00    -0.070 Cl
ENDROOT
TORSDOF 0
ENDMDL
