MODEL 1
REMARK minimizedAffinity 6.71441269
REMARK minimizedRMSD -1
REMARK  0 active torsions:
REMARK  status: ('A' for Active; 'I' for Inactive)
ROOT
ATOM      1  C   UNL d   1      -2.980   1.969  -1.838  0.00  0.00     0.020 A 
ATOM      2  C1  UNL d   1      -3.537   3.087  -2.457  0.00  0.00     0.020 A 
ATOM      3  C2  UNL d   1      -4.073   2.979  -3.742  0.00  0.00     0.034 A 
ATOM      4  C3  UNL d   1      -4.053   1.750  -4.412  0.00  0.00     0.017 A 
ATOM      5  C4  UNL d   1      -3.493   0.628  -3.790  0.00  0.00     0.017 A 
ATOM      6  C5  UNL d   1      -2.958   0.742  -2.503  0.00  0.00     0.034 A 
ATOM      7 Cl   UNL d   1      -3.432  -0.921  -4.553  0.00  0.00    -0.070 Cl
ATOM      8 Cl1  UNL d   1      -4.735   1.689  -5.999  0.00  0.00    -0.070 Cl
ENDROOT
TORSDOF 0
ENDMDL
