MODEL 1
REMARK minimizedAffinity 12.9245052
REMARK minimizedRMSD -1
REMARK  0 active torsions:
REMARK  status: ('A' for Active; 'I' for Inactive)
ROOT
ATOM      1  C   UNL d   1      -2.490   2.647  -0.076  0.00  0.00     0.020 A 
ATOM      2  C1  UNL d   1      -2.319   2.362   1.278  0.00  0.00     0.020 A 
ATOM      3  C2  UNL d   1      -3.207   2.886   2.220  0.00  0.00     0.034 A 
ATOM      4  C3  UNL d   1      -4.271   3.697   1.808  0.00  0.00     0.017 A 
ATOM      5  C4  UNL d   1      -4.442   3.983   0.449  0.00  0.00     0.017 A 
ATOM      6  C5  UNL d   1      -3.550   3.455  -0.490  0.00  0.00     0.034 A 
ATOM      7 Cl   UNL d   1      -5.730   4.976  -0.135  0.00  0.00    -0.070 Cl
ATOM      8 Cl1  UNL d   1      -5.331   4.311   3.027  0.00  0.00    -0.070 Cl
ENDROOT
TORSDOF 0
ENDMDL
