MODEL 1
REMARK minimizedAffinity 12.0696764
REMARK minimizedRMSD -1
REMARK  0 active torsions:
REMARK  status: ('A' for Active; 'I' for Inactive)
ROOT
ATOM      1  C   UNL d   1       1.656  -1.356   3.114  0.00  0.00     0.020 A 
ATOM      2  C1  UNL d   1       1.131  -0.865   1.919  0.00  0.00     0.020 A 
ATOM      3  C2  UNL d   1       0.957  -1.721   0.829  0.00  0.00     0.034 A 
ATOM      4  C3  UNL d   1       1.309  -3.072   0.932  0.00  0.00     0.017 A 
ATOM      5  C4  UNL d   1       1.835  -3.564   2.132  0.00  0.00     0.017 A 
ATOM      6  C5  UNL d   1       2.007  -2.702   3.220  0.00  0.00     0.034 A 
ATOM      7 Cl   UNL d   1       2.291  -5.218   2.336  0.00  0.00    -0.070 Cl
ATOM      8 Cl1  UNL d   1       1.066  -4.074  -0.455  0.00  0.00    -0.070 Cl
ENDROOT
TORSDOF 0
ENDMDL
