MODEL 1
REMARK minimizedAffinity 4.75502872
REMARK minimizedRMSD -1
REMARK  0 active torsions:
REMARK  status: ('A' for Active; 'I' for Inactive)
ROOT
ATOM      1  C   UNL d   1       3.112  -3.137  -3.665  0.00  0.00     0.020 A 
ATOM      2  C1  UNL d   1       1.983  -2.320  -3.704  0.00  0.00     0.020 A 
ATOM      3  C2  UNL d   1       2.049  -1.066  -4.315  0.00  0.00     0.034 A 
ATOM      4  C3  UNL d   1       3.247  -0.625  -4.889  0.00  0.00     0.017 A 
ATOM      5  C4  UNL d   1       4.380  -1.445  -4.849  0.00  0.00     0.017 A 
ATOM      6  C5  UNL d   1       4.308  -2.700  -4.236  0.00  0.00     0.034 A 
ATOM      7 Cl   UNL d   1       5.894  -0.970  -5.535  0.00  0.00    -0.070 Cl
ATOM      8 Cl1  UNL d   1       3.257   0.937  -5.628  0.00  0.00    -0.070 Cl
ENDROOT
TORSDOF 0
ENDMDL
