MODEL 1
REMARK minimizedAffinity 12.7642775
REMARK minimizedRMSD -1
REMARK  0 active torsions:
REMARK  status: ('A' for Active; 'I' for Inactive)
ROOT
ATOM      1  C   UNL d   1       2.922   0.031   0.551  0.00  0.00     0.020 A 
ATOM      2  C1  UNL d   1       1.971  -0.068   1.565  0.00  0.00     0.020 A 
ATOM      3  C2  UNL d   1       1.161   1.028   1.871  0.00  0.00     0.034 A 
ATOM      4  C3  UNL d   1       1.301   2.227   1.162  0.00  0.00     0.017 A 
ATOM      5  C4  UNL d   1       2.257   2.324   0.145  0.00  0.00     0.017 A 
ATOM      6  C5  UNL d   1       3.065   1.224  -0.158  0.00  0.00     0.034 A 
ATOM      7 Cl   UNL d   1       2.488   3.770  -0.774  0.00  0.00    -0.070 Cl
ATOM      8 Cl1  UNL d   1       0.266   3.541   1.594  0.00  0.00    -0.070 Cl
ENDROOT
TORSDOF 0
ENDMDL
