MODEL 1
REMARK minimizedAffinity 0.893613935
REMARK minimizedRMSD -1
REMARK  0 active torsions:
REMARK  status: ('A' for Active; 'I' for Inactive)
ROOT
ATOM      1  C   UNL d   1       5.821   6.000  -5.086  0.00  0.00     0.020 A 
ATOM      2  C1  UNL d   1       4.577   5.689  -5.634  0.00  0.00     0.020 A 
ATOM      3  C2  UNL d   1       3.510   5.353  -4.797  0.00  0.00     0.034 A 
ATOM      4  C3  UNL d   1       3.686   5.327  -3.409  0.00  0.00     0.017 A 
ATOM      5  C4  UNL d   1       4.935   5.639  -2.860  0.00  0.00     0.017 A 
ATOM      6  C5  UNL d   1       6.000   5.974  -3.703  0.00  0.00     0.034 A 
ATOM      7 Cl   UNL d   1       5.228   5.627  -1.157  0.00  0.00    -0.070 Cl
ATOM      8 Cl1  UNL d   1       2.323   4.903  -2.435  0.00  0.00    -0.070 Cl
ENDROOT
TORSDOF 0
ENDMDL
