MODEL 1
REMARK minimizedAffinity 9.40524197
REMARK minimizedRMSD -1
REMARK  0 active torsions:
REMARK  status: ('A' for Active; 'I' for Inactive)
ROOT
ATOM      1  C   UNL d   1      -5.640   2.295  -3.784  0.00  0.00     0.020 A 
ATOM      2  C1  UNL d   1      -4.475   1.531  -3.716  0.00  0.00     0.020 A 
ATOM      3  C2  UNL d   1      -3.670   1.586  -2.576  0.00  0.00     0.034 A 
ATOM      4  C3  UNL d   1      -4.029   2.406  -1.500  0.00  0.00     0.017 A 
ATOM      5  C4  UNL d   1      -5.198   3.173  -1.570  0.00  0.00     0.017 A 
ATOM      6  C5  UNL d   1      -6.000   3.114  -2.714  0.00  0.00     0.034 A 
ATOM      7 Cl   UNL d   1      -5.705   4.209  -0.283  0.00  0.00    -0.070 Cl
ATOM      8 Cl1  UNL d   1      -2.986   2.425  -0.122  0.00  0.00    -0.070 Cl
ENDROOT
TORSDOF 0
ENDMDL
