MODEL 1
REMARK minimizedAffinity 0.0745357946
REMARK minimizedRMSD -1
REMARK  0 active torsions:
REMARK  status: ('A' for Active; 'I' for Inactive)
ROOT
ATOM      1  C   UNL d   1       0.643  -3.255   2.600  0.00  0.00     0.077 C 
ATOM      2  C1  UNL d   1       0.121  -1.955   2.065  0.00  0.00    -0.074 A 
ATOM      3  C2  UNL d   1      -0.439  -1.000   2.920  0.00  0.00    -0.005 A 
ATOM      4  C3  UNL d   1      -0.912   0.209   2.409  0.00  0.00     0.006 A 
ATOM      5  C4  UNL d   1      -0.830   0.475   1.042  0.00  0.00    -0.005 A 
ATOM      6  C5  UNL d   1      -0.273  -0.468   0.172  0.00  0.00    -0.074 A 
ATOM      7  C6  UNL d   1      -0.169  -0.195  -1.299  0.00  0.00     0.077 C 
ATOM      8  C7  UNL d   1       0.207  -1.678   0.694  0.00  0.00    -0.001 A 
ENDROOT
TORSDOF 0
ENDMDL
