MODEL 1
REMARK minimizedAffinity -4.5036664
REMARK minimizedRMSD -1
REMARK  0 active torsions:
REMARK  status: ('A' for Active; 'I' for Inactive)
ROOT
ATOM      1  C   UNL d   1       2.687  -1.136  -0.411  0.00  0.00     0.077 C 
ATOM      2  C1  UNL d   1       1.316  -0.574  -0.182  0.00  0.00    -0.074 A 
ATOM      3  C2  UNL d   1       0.661  -0.752   1.041  0.00  0.00    -0.005 A 
ATOM      4  C3  UNL d   1      -0.610  -0.215   1.243  0.00  0.00     0.006 A 
ATOM      5  C4  UNL d   1      -1.239   0.503   0.226  0.00  0.00    -0.005 A 
ATOM      6  C5  UNL d   1      -0.600   0.692  -1.004  0.00  0.00    -0.074 A 
ATOM      7  C6  UNL d   1      -1.258   1.470  -2.104  0.00  0.00     0.077 C 
ATOM      8  C7  UNL d   1       0.680   0.156  -1.196  0.00  0.00    -0.001 A 
ENDROOT
TORSDOF 0
ENDMDL
