MODEL 1
REMARK minimizedAffinity -0.631982446
REMARK minimizedRMSD -1
REMARK  0 active torsions:
REMARK  status: ('A' for Active; 'I' for Inactive)
ROOT
ATOM      1  C   UNL d   1      -4.196   5.103  -2.743  0.00  0.00     0.077 C 
ATOM      2  C1  UNL d   1      -3.106   4.080  -2.859  0.00  0.00    -0.074 A 
ATOM      3  C2  UNL d   1      -1.768   4.466  -2.983  0.00  0.00    -0.005 A 
ATOM      4  C3  UNL d   1      -0.764   3.502  -3.081  0.00  0.00     0.006 A 
ATOM      5  C4  UNL d   1      -1.088   2.145  -3.054  0.00  0.00    -0.005 A 
ATOM      6  C5  UNL d   1      -2.420   1.740  -2.929  0.00  0.00    -0.074 A 
ATOM      7  C6  UNL d   1      -2.785   0.286  -2.890  0.00  0.00     0.077 C 
ATOM      8  C7  UNL d   1      -3.423   2.714  -2.825  0.00  0.00    -0.001 A 
ENDROOT
TORSDOF 0
ENDMDL
