MODEL 1
REMARK minimizedAffinity -2.35031772
REMARK minimizedRMSD -1
REMARK  0 active torsions:
REMARK  status: ('A' for Active; 'I' for Inactive)
ROOT
ATOM      1  C   UNL d   1       2.377  -0.704   1.491  0.00  0.00     0.077 C 
ATOM      2  C1  UNL d   1       1.016  -0.284   1.021  0.00  0.00    -0.074 A 
ATOM      3  C2  UNL d   1      -0.116  -0.500   1.813  0.00  0.00    -0.005 A 
ATOM      4  C3  UNL d   1      -1.374  -0.095   1.366  0.00  0.00     0.006 A 
ATOM      5  C4  UNL d   1      -1.512   0.529   0.125  0.00  0.00    -0.005 A 
ATOM      6  C5  UNL d   1      -0.391   0.754  -0.680  0.00  0.00    -0.074 A 
ATOM      7  C6  UNL d   1      -0.521   1.432  -2.011  0.00  0.00     0.077 C 
ATOM      8  C7  UNL d   1       0.870   0.351  -0.221  0.00  0.00    -0.001 A 
ENDROOT
TORSDOF 0
ENDMDL
