MODEL 1
REMARK minimizedAffinity -3.24314308
REMARK minimizedRMSD -1
REMARK  0 active torsions:
REMARK  status: ('A' for Active; 'I' for Inactive)
ROOT
ATOM      1  C   UNL d   1      -0.853   1.903  -2.610  0.00  0.00     0.077 C 
ATOM      2  C1  UNL d   1      -0.578   1.042  -1.414  0.00  0.00    -0.074 A 
ATOM      3  C2  UNL d   1      -1.556   0.837  -0.435  0.00  0.00    -0.005 A 
ATOM      4  C3  UNL d   1      -1.289   0.026   0.668  0.00  0.00     0.006 A 
ATOM      5  C4  UNL d   1      -0.043  -0.588   0.803  0.00  0.00    -0.005 A 
ATOM      6  C5  UNL d   1       0.947  -0.395  -0.166  0.00  0.00    -0.074 A 
ATOM      7  C6  UNL d   1       2.288  -1.055  -0.041  0.00  0.00     0.077 C 
ATOM      8  C7  UNL d   1       0.669   0.416  -1.275  0.00  0.00    -0.001 A 
ENDROOT
TORSDOF 0
ENDMDL
