MODEL 1
REMARK minimizedAffinity -4.79600811
REMARK minimizedRMSD -1
REMARK  0 active torsions:
REMARK  status: ('A' for Active; 'I' for Inactive)
ROOT
ATOM      1  C   UNL d   1      -0.741   0.421  -1.025  0.00  0.00     0.077 C 
ATOM      2  C1  UNL d   1       0.362  -0.359  -0.373  0.00  0.00    -0.074 A 
ATOM      3  C2  UNL d   1       1.322  -1.024  -1.141  0.00  0.00    -0.005 A 
ATOM      4  C3  UNL d   1       2.348  -1.737  -0.521  0.00  0.00     0.006 A 
ATOM      5  C4  UNL d   1       2.424  -1.792   0.872  0.00  0.00    -0.005 A 
ATOM      6  C5  UNL d   1       1.472  -1.132   1.656  0.00  0.00    -0.074 A 
ATOM      7  C6  UNL d   1       1.544  -1.172   3.154  0.00  0.00     0.077 C 
ATOM      8  C7  UNL d   1       0.449  -0.412   1.025  0.00  0.00    -0.001 A 
ENDROOT
TORSDOF 0
ENDMDL
