MODEL 1
REMARK minimizedAffinity -3.21645308
REMARK minimizedRMSD -1
REMARK  0 active torsions:
REMARK  status: ('A' for Active; 'I' for Inactive)
ROOT
ATOM      1  C   UNL d   1       1.768  -1.137   3.262  0.00  0.00     0.077 C 
ATOM      2  C1  UNL d   1       0.714  -0.715   2.283  0.00  0.00    -0.074 A 
ATOM      3  C2  UNL d   1      -0.643  -0.913   2.558  0.00  0.00    -0.005 A 
ATOM      4  C3  UNL d   1      -1.613  -0.506   1.642  0.00  0.00     0.006 A 
ATOM      5  C4  UNL d   1      -1.237   0.102   0.444  0.00  0.00    -0.005 A 
ATOM      6  C5  UNL d   1       0.115   0.309   0.152  0.00  0.00    -0.074 A 
ATOM      7  C6  UNL d   1       0.535   0.971  -1.127  0.00  0.00     0.077 C 
ATOM      8  C7  UNL d   1       1.083  -0.096   1.080  0.00  0.00    -0.001 A 
ENDROOT
TORSDOF 0
ENDMDL
