MODEL 1
REMARK minimizedAffinity -2.95528722
REMARK minimizedRMSD -1
REMARK  0 active torsions:
REMARK  status: ('A' for Active; 'I' for Inactive)
ROOT
ATOM      1  C   UNL d   1       1.391  -0.070   3.185  0.00  0.00     0.077 C 
ATOM      2  C1  UNL d   1       0.840  -0.220   1.798  0.00  0.00    -0.074 A 
ATOM      3  C2  UNL d   1      -0.439   0.246   1.478  0.00  0.00    -0.005 A 
ATOM      4  C3  UNL d   1      -0.934   0.108   0.181  0.00  0.00     0.006 A 
ATOM      5  C4  UNL d   1      -0.155  -0.496  -0.807  0.00  0.00    -0.005 A 
ATOM      6  C5  UNL d   1       1.127  -0.967  -0.506  0.00  0.00    -0.074 A 
ATOM      7  C6  UNL d   1       1.980  -1.609  -1.559  0.00  0.00     0.077 C 
ATOM      8  C7  UNL d   1       1.619  -0.818   0.798  0.00  0.00    -0.001 A 
ENDROOT
TORSDOF 0
ENDMDL
