MODEL 1
REMARK minimizedAffinity -0.0635709763
REMARK minimizedRMSD -1
REMARK  0 active torsions:
REMARK  status: ('A' for Active; 'I' for Inactive)
ROOT
ATOM      1  C   UNL d   1      -1.371   1.656  -2.097  0.00  0.00     0.077 C 
ATOM      2  C1  UNL d   1      -0.919   0.821  -0.936  0.00  0.00    -0.074 A 
ATOM      3  C2  UNL d   1      -1.839   0.328  -0.005  0.00  0.00    -0.005 A 
ATOM      4  C3  UNL d   1      -1.405  -0.456   1.065  0.00  0.00     0.006 A 
ATOM      5  C4  UNL d   1      -0.050  -0.755   1.213  0.00  0.00    -0.005 A 
ATOM      6  C5  UNL d   1       0.884  -0.271   0.291  0.00  0.00    -0.074 A 
ATOM      7  C6  UNL d   1       2.343  -0.591   0.430  0.00  0.00     0.077 C 
ATOM      8  C7  UNL d   1       0.439   0.510  -0.785  0.00  0.00    -0.001 A 
ENDROOT
TORSDOF 0
ENDMDL
