MODEL 1
REMARK minimizedAffinity 1.74066544
REMARK minimizedRMSD -1
REMARK  0 active torsions:
REMARK  status: ('A' for Active; 'I' for Inactive)
ROOT
ATOM      1  C4' PXY d   1       3.633   4.257   2.626  0.00  0.00     0.077 C 
ATOM      2  C1' PXY d   1      -0.989   5.249  -0.700  0.00  0.00     0.077 C 
ATOM      3  C1  PXY d   1       0.230   4.998   0.166  0.00  0.00    -0.082 A 
ATOM      4  C2  PXY d   1       0.415   3.804   0.705  0.00  0.00     0.003 A 
ATOM      5  C3  PXY d   1       1.494   3.570   1.517  0.00  0.00     0.003 A 
ATOM      6  C4  PXY d   1       2.422   4.552   1.737  0.00  0.00    -0.082 A 
ATOM      7  C5  PXY d   1       2.246   5.770   1.182  0.00  0.00     0.003 A 
ATOM      8  C6  PXY d   1       1.122   6.000   0.394  0.00  0.00     0.003 A 
ENDROOT
TORSDOF 0
ENDMDL
