MODEL 1
REMARK minimizedAffinity 16.5281734
REMARK minimizedRMSD -1
REMARK  0 active torsions:
REMARK  status: ('A' for Active; 'I' for Inactive)
ROOT
ATOM      1  C4' PXY d   1      -1.572   2.581   2.829  0.00  0.00     0.077 C 
ATOM      2  C1' PXY d   1       0.875   5.174  -1.721  0.00  0.00     0.077 C 
ATOM      3  C1  PXY d   1       0.240   4.483  -0.530  0.00  0.00    -0.082 A 
ATOM      4  C2  PXY d   1      -0.956   4.865  -0.114  0.00  0.00     0.003 A 
ATOM      5  C3  PXY d   1      -1.531   4.273   0.981  0.00  0.00     0.003 A 
ATOM      6  C4  PXY d   1      -0.897   3.244   1.625  0.00  0.00    -0.082 A 
ATOM      7  C5  PXY d   1       0.319   2.842   1.200  0.00  0.00     0.003 A 
ATOM      8  C6  PXY d   1       0.903   3.483   0.111  0.00  0.00     0.003 A 
ENDROOT
TORSDOF 0
ENDMDL
