MODEL 1
REMARK minimizedAffinity 12.4911633
REMARK minimizedRMSD -1
REMARK  0 active torsions:
REMARK  status: ('A' for Active; 'I' for Inactive)
ROOT
ATOM      1  C4' PXY d   1      -5.999  -0.751   5.999  0.00  0.00     0.077 C 
ATOM      2  C1' PXY d   1      -3.416   0.067   0.893  0.00  0.00     0.077 C 
ATOM      3  C1  PXY d   1      -4.084  -0.156   2.236  0.00  0.00    -0.082 A 
ATOM      4  C2  PXY d   1      -5.385   0.048   2.361  0.00  0.00     0.003 A 
ATOM      5  C3  PXY d   1      -6.000  -0.118   3.575  0.00  0.00     0.003 A 
ATOM      6  C4  PXY d   1      -5.285  -0.548   4.661  0.00  0.00    -0.082 A 
ATOM      7  C5  PXY d   1      -3.958  -0.768   4.539  0.00  0.00     0.003 A 
ATOM      8  C6  PXY d   1      -3.346  -0.554   3.307  0.00  0.00     0.003 A 
ENDROOT
TORSDOF 0
ENDMDL
