MODEL 1
REMARK minimizedAffinity 9.93368912
REMARK minimizedRMSD -1
REMARK  0 active torsions:
REMARK  status: ('A' for Active; 'I' for Inactive)
ROOT
ATOM      1  C4' PXY d   1       3.052   3.375   3.057  0.00  0.00     0.077 C 
ATOM      2  C1' PXY d   1      -0.572   5.291  -1.019  0.00  0.00     0.077 C 
ATOM      3  C1  PXY d   1       0.387   4.797   0.046  0.00  0.00    -0.082 A 
ATOM      4  C2  PXY d   1       0.269   3.565   0.513  0.00  0.00     0.003 A 
ATOM      5  C3  PXY d   1       1.108   3.113   1.499  0.00  0.00     0.003 A 
ATOM      6  C4  PXY d   1       2.112   3.913   1.974  0.00  0.00    -0.082 A 
ATOM      7  C5  PXY d   1       2.246   5.168   1.496  0.00  0.00     0.003 A 
ATOM      8  C6  PXY d   1       1.358   5.622   0.524  0.00  0.00     0.003 A 
ENDROOT
TORSDOF 0
ENDMDL
