MODEL 1
REMARK minimizedAffinity 4.28095627
REMARK minimizedRMSD -1
REMARK  0 active torsions:
REMARK  status: ('A' for Active; 'I' for Inactive)
ROOT
ATOM      1  C4' PXY d   1       5.753  -6.000   0.219  0.00  0.00     0.077 C 
ATOM      2  C1' PXY d   1       4.966  -3.197  -4.775  0.00  0.00     0.077 C 
ATOM      3  C1  PXY d   1       5.162  -3.940  -3.468  0.00  0.00    -0.082 A 
ATOM      4  C2  PXY d   1       5.786  -3.344  -2.464  0.00  0.00     0.003 A 
ATOM      5  C3  PXY d   1       6.000  -4.012  -1.287  0.00  0.00     0.003 A 
ATOM      6  C4  PXY d   1       5.524  -5.285  -1.116  0.00  0.00    -0.082 A 
ATOM      7  C5  PXY d   1       4.878  -5.896  -2.131  0.00  0.00     0.003 A 
ATOM      8  C6  PXY d   1       4.707  -5.215  -3.333  0.00  0.00     0.003 A 
ENDROOT
TORSDOF 0
ENDMDL
