MODEL 1
REMARK minimizedAffinity 14.0686407
REMARK minimizedRMSD -1
REMARK  0 active torsions:
REMARK  status: ('A' for Active; 'I' for Inactive)
ROOT
ATOM      1  C4' PXY d   1       3.199   4.286   2.052  0.00  0.00     0.077 C 
ATOM      2  C1' PXY d   1      -1.595   5.224  -1.039  0.00  0.00     0.077 C 
ATOM      3  C1  PXY d   1      -0.332   4.988  -0.235  0.00  0.00    -0.082 A 
ATOM      4  C2  PXY d   1      -0.109   3.798   0.299  0.00  0.00     0.003 A 
ATOM      5  C3  PXY d   1       1.012   3.576   1.056  0.00  0.00     0.003 A 
ATOM      6  C4  PXY d   1       1.942   4.567   1.224  0.00  0.00    -0.082 A 
ATOM      7  C5  PXY d   1       1.727   5.781   0.674  0.00  0.00     0.003 A 
ATOM      8  C6  PXY d   1       0.562   5.998  -0.057  0.00  0.00     0.003 A 
ENDROOT
TORSDOF 0
ENDMDL
