MODEL 1
REMARK minimizedAffinity 13.0525341
REMARK minimizedRMSD -1
REMARK  0 active torsions:
REMARK  status: ('A' for Active; 'I' for Inactive)
ROOT
ATOM      1  C4' PXY d   1       5.289  -4.547  -3.374  0.00  0.00     0.077 C 
ATOM      2  C1' PXY d   1       4.868  -0.481   0.714  0.00  0.00     0.077 C 
ATOM      3  C1  PXY d   1       4.973  -1.556  -0.350  0.00  0.00    -0.082 A 
ATOM      4  C2  PXY d   1       5.911  -1.468  -1.279  0.00  0.00     0.003 A 
ATOM      5  C3  PXY d   1       6.000  -2.414  -2.267  0.00  0.00     0.003 A 
ATOM      6  C4  PXY d   1       5.152  -3.489  -2.275  0.00  0.00    -0.082 A 
ATOM      7  C5  PXY d   1       4.199  -3.592  -1.324  0.00  0.00     0.003 A 
ATOM      8  C6  PXY d   1       4.100  -2.599  -0.354  0.00  0.00     0.003 A 
ENDROOT
TORSDOF 0
ENDMDL
