MODEL 1
REMARK minimizedAffinity 9.69424343
REMARK minimizedRMSD -1
REMARK  0 active torsions:
REMARK  status: ('A' for Active; 'I' for Inactive)
ROOT
ATOM      1  C4' PXY d   1       5.988  -4.133  -4.674  0.00  0.00     0.077 C 
ATOM      2  C1' PXY d   1       5.603  -1.029   0.187  0.00  0.00     0.077 C 
ATOM      3  C1  PXY d   1       5.707  -1.854  -1.081  0.00  0.00    -0.082 A 
ATOM      4  C2  PXY d   1       5.934  -1.250  -2.236  0.00  0.00     0.003 A 
ATOM      5  C3  PXY d   1       5.999  -1.977  -3.397  0.00  0.00     0.003 A 
ATOM      6  C4  PXY d   1       5.885  -3.341  -3.368  0.00  0.00    -0.082 A 
ATOM      7  C5  PXY d   1       5.664  -3.965  -2.191  0.00  0.00     0.003 A 
ATOM      8  C6  PXY d   1       5.560  -3.205  -1.030  0.00  0.00     0.003 A 
ENDROOT
TORSDOF 0
ENDMDL
