MODEL 1
REMARK minimizedAffinity 11.0692682
REMARK minimizedRMSD -1
REMARK  0 active torsions:
REMARK  status: ('A' for Active; 'I' for Inactive)
ROOT
ATOM      1  C4' PXY d   1      -3.077   1.231   0.337  0.00  0.00     0.077 C 
ATOM      2  C1' PXY d   1      -2.732   1.186  -5.433  0.00  0.00     0.077 C 
ATOM      3  C1  PXY d   1      -2.822   1.185  -3.920  0.00  0.00    -0.082 A 
ATOM      4  C2  PXY d   1      -3.375   2.213  -3.297  0.00  0.00     0.003 A 
ATOM      5  C3  PXY d   1      -3.435   2.243  -1.927  0.00  0.00     0.003 A 
ATOM      6  C4  PXY d   1      -2.973   1.185  -1.190  0.00  0.00    -0.082 A 
ATOM      7  C5  PXY d   1      -2.417   0.128  -1.819  0.00  0.00     0.003 A 
ATOM      8  C6  PXY d   1      -2.328   0.135  -3.208  0.00  0.00     0.003 A 
ENDROOT
TORSDOF 0
ENDMDL
