MODEL 1
REMARK minimizedAffinity 17.5033855
REMARK minimizedRMSD -1
REMARK  0 active torsions:
REMARK  status: ('A' for Active; 'I' for Inactive)
ROOT
ATOM      1  C4' PXY d   1       1.388  -0.385   4.127  0.00  0.00     0.077 C 
ATOM      2  C1' PXY d   1       5.135  -4.500   5.690  0.00  0.00     0.077 C 
ATOM      3  C1  PXY d   1       4.153  -3.425   5.268  0.00  0.00    -0.082 A 
ATOM      4  C2  PXY d   1       4.028  -2.330   6.000  0.00  0.00     0.003 A 
ATOM      5  C3  PXY d   1       3.121  -1.362   5.650  0.00  0.00     0.003 A 
ATOM      6  C4  PXY d   1       2.374  -1.492   4.510  0.00  0.00    -0.082 A 
ATOM      7  C5  PXY d   1       2.504  -2.602   3.752  0.00  0.00     0.003 A 
ATOM      8  C6  PXY d   1       3.400  -3.591   4.147  0.00  0.00     0.003 A 
ENDROOT
TORSDOF 0
ENDMDL
