MODEL 1
REMARK minimizedAffinity -1.14461005
REMARK minimizedRMSD -1
REMARK  0 active torsions:
REMARK  status: ('A' for Active; 'I' for Inactive)
ROOT
ATOM      1  C   UNL d   1      -3.018   5.211   4.807  0.00  0.00     0.172 C 
ATOM      2  N   UNL d   1      -3.430   5.257   3.423  0.00  0.00    -0.070 N 
ATOM      3  C1  UNL d   1      -4.489   4.578   2.883  0.00  0.00    -0.004 A 
ATOM      4  C2  UNL d   1      -4.548   4.888   1.541  0.00  0.00    -0.047 A 
ATOM      5  C3  UNL d   1      -3.487   5.783   1.266  0.00  0.00    -0.047 A 
ATOM      6  C4  UNL d   1      -2.811   5.995   2.449  0.00  0.00    -0.004 A 
ENDROOT
TORSDOF 0
ENDMDL
