MODEL 1
REMARK minimizedAffinity -1.9539324
REMARK minimizedRMSD -1
REMARK  0 active torsions:
REMARK  status: ('A' for Active; 'I' for Inactive)
ROOT
ATOM      1  C   UNL d   1      -3.073   2.402   3.371  0.00  0.00     0.172 C 
ATOM      2  N   UNL d   1      -3.203   3.781   3.777  0.00  0.00    -0.070 N 
ATOM      3  C1  UNL d   1      -3.075   4.870   2.957  0.00  0.00    -0.004 A 
ATOM      4  C2  UNL d   1      -3.270   6.000   3.722  0.00  0.00    -0.047 A 
ATOM      5  C3  UNL d   1      -3.523   5.575   5.048  0.00  0.00    -0.047 A 
ATOM      6  C4  UNL d   1      -3.476   4.197   5.054  0.00  0.00    -0.004 A 
ENDROOT
TORSDOF 0
ENDMDL
