MODEL 1
REMARK minimizedAffinity -3.29528618
REMARK minimizedRMSD -1
REMARK  0 active torsions:
REMARK  status: ('A' for Active; 'I' for Inactive)
ROOT
ATOM      1  C   UNL d   1      -3.732   5.979   5.408  0.00  0.00     0.172 C 
ATOM      2  N   UNL d   1      -3.743   5.982   3.964  0.00  0.00    -0.070 N 
ATOM      3  C1  UNL d   1      -2.637   5.968   3.157  0.00  0.00    -0.004 A 
ATOM      4  C2  UNL d   1      -3.069   5.976   1.848  0.00  0.00    -0.047 A 
ATOM      5  C3  UNL d   1      -4.484   5.996   1.869  0.00  0.00    -0.047 A 
ATOM      6  C4  UNL d   1      -4.874   6.000   3.192  0.00  0.00    -0.004 A 
ENDROOT
TORSDOF 0
ENDMDL
