MODEL 1
REMARK minimizedAffinity -2.58863688
REMARK minimizedRMSD -1
REMARK  0 active torsions:
REMARK  status: ('A' for Active; 'I' for Inactive)
ROOT
ATOM      1  C   UNL d   1      -3.005   5.999   5.848  0.00  0.00     0.172 C 
ATOM      2  N   UNL d   1      -3.393   5.889   4.461  0.00  0.00    -0.070 N 
ATOM      3  C1  UNL d   1      -4.663   5.660   4.003  0.00  0.00    -0.004 A 
ATOM      4  C2  UNL d   1      -4.615   5.625   2.627  0.00  0.00    -0.047 A 
ATOM      5  C3  UNL d   1      -3.270   5.839   2.244  0.00  0.00    -0.047 A 
ATOM      6  C4  UNL d   1      -2.535   5.999   3.399  0.00  0.00    -0.004 A 
ENDROOT
TORSDOF 0
ENDMDL
