MODEL 1
REMARK minimizedAffinity -2.40756989
REMARK minimizedRMSD -1
REMARK  0 active torsions:
REMARK  status: ('A' for Active; 'I' for Inactive)
ROOT
ATOM      1  C   UNL d   1      -3.398   6.000   5.991  0.00  0.00     0.172 C 
ATOM      2  N   UNL d   1      -3.617   5.998   4.564  0.00  0.00    -0.070 N 
ATOM      3  C1  UNL d   1      -4.838   6.000   3.944  0.00  0.00    -0.004 A 
ATOM      4  C2  UNL d   1      -4.621   5.998   2.583  0.00  0.00    -0.047 A 
ATOM      5  C3  UNL d   1      -3.221   5.993   2.378  0.00  0.00    -0.047 A 
ATOM      6  C4  UNL d   1      -2.624   5.994   3.621  0.00  0.00    -0.004 A 
ENDROOT
TORSDOF 0
ENDMDL
