MODEL 1
REMARK minimizedAffinity -2.95233035
REMARK minimizedRMSD -1
REMARK  0 active torsions:
REMARK  status: ('A' for Active; 'I' for Inactive)
ROOT
ATOM      1  C   UNL d   1      -3.403   5.703   4.695  0.00  0.00     0.172 C 
ATOM      2  N   UNL d   1      -3.930   5.773   3.352  0.00  0.00    -0.070 N 
ATOM      3  C1  UNL d   1      -5.246   5.624   3.002  0.00  0.00    -0.004 A 
ATOM      4  C2  UNL d   1      -5.336   5.759   1.634  0.00  0.00    -0.047 A 
ATOM      5  C3  UNL d   1      -4.030   5.996   1.144  0.00  0.00    -0.047 A 
ATOM      6  C4  UNL d   1      -3.179   6.000   2.229  0.00  0.00    -0.004 A 
ENDROOT
TORSDOF 0
ENDMDL
