MODEL 1
REMARK minimizedAffinity -2.38634133
REMARK minimizedRMSD -1
REMARK  0 active torsions:
REMARK  status: ('A' for Active; 'I' for Inactive)
ROOT
ATOM      1  C   UNL d   1      -3.197   2.486   4.122  0.00  0.00     0.172 C 
ATOM      2  N   UNL d   1      -3.474   3.898   4.233  0.00  0.00    -0.070 N 
ATOM      3  C1  UNL d   1      -3.825   4.727   3.201  0.00  0.00    -0.004 A 
ATOM      4  C2  UNL d   1      -4.002   5.992   3.717  0.00  0.00    -0.047 A 
ATOM      5  C3  UNL d   1      -3.748   5.922   5.107  0.00  0.00    -0.047 A 
ATOM      6  C4  UNL d   1      -3.423   4.614   5.400  0.00  0.00    -0.004 A 
ENDROOT
TORSDOF 0
ENDMDL
