MODEL 1
REMARK minimizedAffinity -2.20499682
REMARK minimizedRMSD -1
REMARK  0 active torsions:
REMARK  status: ('A' for Active; 'I' for Inactive)
ROOT
ATOM      1  C   UNL d   1      -3.239   6.000   5.469  0.00  0.00     0.172 C 
ATOM      2  N   UNL d   1      -3.616   5.999   4.075  0.00  0.00    -0.070 N 
ATOM      3  C1  UNL d   1      -2.750   5.999   3.014  0.00  0.00    -0.004 A 
ATOM      4  C2  UNL d   1      -3.499   5.997   1.857  0.00  0.00    -0.047 A 
ATOM      5  C3  UNL d   1      -4.862   5.997   2.236  0.00  0.00    -0.047 A 
ATOM      6  C4  UNL d   1      -4.906   5.999   3.614  0.00  0.00    -0.004 A 
ENDROOT
TORSDOF 0
ENDMDL
