MODEL 1
REMARK minimizedAffinity -2.47244525
REMARK minimizedRMSD -1
REMARK  0 active torsions:
REMARK  status: ('A' for Active; 'I' for Inactive)
ROOT
ATOM      1  C   UNL d   1      -3.748   5.900   5.743  0.00  0.00     0.172 C 
ATOM      2  N   UNL d   1      -3.932   5.802   4.314  0.00  0.00    -0.070 N 
ATOM      3  C1  UNL d   1      -5.107   5.501   3.679  0.00  0.00    -0.004 A 
ATOM      4  C2  UNL d   1      -4.867   5.506   2.322  0.00  0.00    -0.047 A 
ATOM      5  C3  UNL d   1      -3.500   5.821   2.135  0.00  0.00    -0.047 A 
ATOM      6  C4  UNL d   1      -2.945   5.999   3.385  0.00  0.00    -0.004 A 
ENDROOT
TORSDOF 0
ENDMDL
