MODEL 1
REMARK minimizedAffinity 0.66163069
REMARK minimizedRMSD -1
REMARK  0 active torsions:
REMARK  status: ('A' for Active; 'I' for Inactive)
ROOT
ATOM      1  C   UNL d   1      -2.631   6.000   4.883  0.00  0.00     0.172 C 
ATOM      2  N   UNL d   1      -2.856   5.272   3.656  0.00  0.00    -0.070 N 
ATOM      3  C1  UNL d   1      -3.283   5.815   2.473  0.00  0.00    -0.004 A 
ATOM      4  C2  UNL d   1      -3.373   4.796   1.550  0.00  0.00    -0.047 A 
ATOM      5  C3  UNL d   1      -2.988   3.599   2.200  0.00  0.00    -0.047 A 
ATOM      6  C4  UNL d   1      -2.673   3.923   3.503  0.00  0.00    -0.004 A 
ENDROOT
TORSDOF 0
ENDMDL
