MODEL 1
REMARK minimizedAffinity -2.64646888
REMARK minimizedRMSD -1
REMARK  0 active torsions:
REMARK  status: ('A' for Active; 'I' for Inactive)
ROOT
ATOM      1  C   UNL d   1       6.000   4.894   4.100  0.00  0.00     0.172 C 
ATOM      2  N   UNL d   1       5.545   5.036   2.737  0.00  0.00    -0.070 N 
ATOM      3  C1  UNL d   1       4.602   4.255   2.125  0.00  0.00    -0.004 A 
ATOM      4  C2  UNL d   1       4.450   4.710   0.833  0.00  0.00    -0.047 A 
ATOM      5  C3  UNL d   1       5.334   5.802   0.663  0.00  0.00    -0.047 A 
ATOM      6  C4  UNL d   1       6.000   5.982   1.857  0.00  0.00    -0.004 A 
ENDROOT
TORSDOF 0
ENDMDL
