MODEL 1
REMARK minimizedAffinity -0.771054864
REMARK minimizedRMSD -1
REMARK  0 active torsions:
REMARK  status: ('A' for Active; 'I' for Inactive)
ROOT
ATOM      1  C   UNL d   1      -1.886   6.000   5.974  0.00  0.00     0.172 C 
ATOM      2  N   UNL d   1      -2.493   5.998   4.663  0.00  0.00    -0.070 N 
ATOM      3  C1  UNL d   1      -1.818   5.999   3.472  0.00  0.00    -0.004 A 
ATOM      4  C2  UNL d   1      -2.752   5.997   2.458  0.00  0.00    -0.047 A 
ATOM      5  C3  UNL d   1      -4.032   5.996   3.062  0.00  0.00    -0.047 A 
ATOM      6  C4  UNL d   1      -3.842   5.997   4.428  0.00  0.00    -0.004 A 
ENDROOT
TORSDOF 0
ENDMDL
