MODEL 1
REMARK minimizedAffinity -1.83945858
REMARK minimizedRMSD -1
REMARK  0 active torsions:
REMARK  status: ('A' for Active; 'I' for Inactive)
ROOT
ATOM      1  C   UNL d   1      -3.085   5.999   5.444  0.00  0.00     0.172 C 
ATOM      2  N   UNL d   1      -3.333   5.999   4.021  0.00  0.00    -0.070 N 
ATOM      3  C1  UNL d   1      -2.373   5.998   3.044  0.00  0.00    -0.004 A 
ATOM      4  C2  UNL d   1      -3.014   5.998   1.823  0.00  0.00    -0.047 A 
ATOM      5  C3  UNL d   1      -4.406   5.999   2.076  0.00  0.00    -0.047 A 
ATOM      6  C4  UNL d   1      -4.576   6.000   3.444  0.00  0.00    -0.004 A 
ENDROOT
TORSDOF 0
ENDMDL
