MODEL 1
REMARK minimizedAffinity -1.08088863
REMARK minimizedRMSD -1
REMARK  0 active torsions:
REMARK  status: ('A' for Active; 'I' for Inactive)
ROOT
ATOM      1  C   UNL d   1      -3.290   5.977   2.371  0.00  0.00     0.172 C 
ATOM      2  N   UNL d   1      -3.197   5.982   3.812  0.00  0.00    -0.070 N 
ATOM      3  C1  UNL d   1      -2.035   6.000   4.537  0.00  0.00    -0.004 A 
ATOM      4  C2  UNL d   1      -2.372   6.000   5.873  0.00  0.00    -0.047 A 
ATOM      5  C3  UNL d   1      -3.784   5.980   5.954  0.00  0.00    -0.047 A 
ATOM      6  C4  UNL d   1      -4.270   5.969   4.664  0.00  0.00    -0.004 A 
ENDROOT
TORSDOF 0
ENDMDL
