MODEL 1
REMARK minimizedAffinity -0.507838011
REMARK minimizedRMSD -1
REMARK  0 active torsions:
REMARK  status: ('A' for Active; 'I' for Inactive)
ROOT
ATOM      1  C   UNL d   1      -3.040   5.950   2.439  0.00  0.00     0.172 C 
ATOM      2  N   UNL d   1      -3.044   5.969   3.883  0.00  0.00    -0.070 N 
ATOM      3  C1  UNL d   1      -1.933   5.979   4.684  0.00  0.00    -0.004 A 
ATOM      4  C2  UNL d   1      -2.358   5.998   5.995  0.00  0.00    -0.047 A 
ATOM      5  C3  UNL d   1      -3.773   5.998   5.981  0.00  0.00    -0.047 A 
ATOM      6  C4  UNL d   1      -4.171   5.981   4.661  0.00  0.00    -0.004 A 
ENDROOT
TORSDOF 0
ENDMDL
