MODEL 1
REMARK minimizedAffinity -0.210830584
REMARK minimizedRMSD -1
REMARK  0 active torsions:
REMARK  status: ('A' for Active; 'I' for Inactive)
ROOT
ATOM      1  C   UNL d   1       1.500   2.041  -3.746  0.00  0.00     0.172 C 
ATOM      2  N   UNL d   1       1.694   3.229  -4.543  0.00  0.00    -0.070 N 
ATOM      3  C1  UNL d   1       0.803   3.734  -5.453  0.00  0.00    -0.004 A 
ATOM      4  C2  UNL d   1       1.357   4.872  -5.999  0.00  0.00    -0.047 A 
ATOM      5  C3  UNL d   1       2.625   5.056  -5.398  0.00  0.00    -0.047 A 
ATOM      6  C4  UNL d   1       2.808   4.025  -4.501  0.00  0.00    -0.004 A 
ENDROOT
TORSDOF 0
ENDMDL
