MODEL 1
REMARK minimizedAffinity -4.0547967
REMARK minimizedRMSD -1
REMARK  1 active torsions:
REMARK  status: ('A' for Active; 'I' for Inactive)
REMARK    1  A    between atoms: N_2  and  C1_3 
ROOT
ATOM      1  C1  UNL d   1       0.235   0.391  -0.121  0.00  0.00     0.143 A 
ATOM      2  C2  UNL d   1      -0.265   1.476  -0.849  0.00  0.00    -0.057 A 
ATOM      3  C3  UNL d   1      -0.916   2.540  -0.213  0.00  0.00     0.033 A 
ATOM      4  C4  UNL d   1      -1.105   2.523   1.165  0.00  0.00    -0.042 A 
ATOM      5  C5  UNL d   1      -0.638   1.444   1.906  0.00  0.00     0.033 A 
ATOM      6  C6  UNL d   1       0.017   0.388   1.266  0.00  0.00    -0.057 A 
ENDROOT
BRANCH   1   7
ATOM      7  N   UNL d   1       0.804  -0.742  -0.706  0.00  0.00    -0.732 N 
ATOM      8  C   UNL d   1      -0.010  -1.897  -1.020  0.00  0.00     0.284 C 
ATOM      9  H3  UNL d   1       1.488  -0.508  -1.422  0.00  0.00     0.395 HD
ENDBRANCH   1   7
TORSDOF 1
ENDMDL
