MODEL 1
REMARK minimizedAffinity -2.44174743
REMARK minimizedRMSD -1
REMARK  1 active torsions:
REMARK  status: ('A' for Active; 'I' for Inactive)
REMARK    1  A    between atoms: N_2  and  C1_3 
ROOT
ATOM      1  C1  UNL d   1       0.418  -0.478   0.103  0.00  0.00     0.143 A 
ATOM      2  C2  UNL d   1       0.038   0.868   0.080  0.00  0.00    -0.057 A 
ATOM      3  C3  UNL d   1      -0.060   1.615   1.260  0.00  0.00     0.033 A 
ATOM      4  C4  UNL d   1       0.191   1.018   2.491  0.00  0.00    -0.042 A 
ATOM      5  C5  UNL d   1       0.546  -0.325   2.540  0.00  0.00     0.033 A 
ATOM      6  C6  UNL d   1       0.649  -1.064   1.357  0.00  0.00    -0.057 A 
ENDROOT
BRANCH   1   7
ATOM      7  N   UNL d   1       0.439  -1.300  -1.027  0.00  0.00    -0.732 N 
ATOM      8  C   UNL d   1       0.055  -2.692  -0.933  0.00  0.00     0.284 C 
ATOM      9  H3  UNL d   1       0.089  -0.827  -1.857  0.00  0.00     0.395 HD
ENDBRANCH   1   7
TORSDOF 1
ENDMDL
