MODEL 1
REMARK minimizedAffinity -4.05295467
REMARK minimizedRMSD -1
REMARK  1 active torsions:
REMARK  status: ('A' for Active; 'I' for Inactive)
REMARK    1  A    between atoms: N_2  and  C1_3 
ROOT
ATOM      1  C1  UNL d   1      -0.730   0.688  -0.194  0.00  0.00     0.143 A 
ATOM      2  C2  UNL d   1      -1.329   1.807  -0.783  0.00  0.00    -0.057 A 
ATOM      3  C3  UNL d   1      -1.504   2.998  -0.068  0.00  0.00     0.033 A 
ATOM      4  C4  UNL d   1      -1.108   3.081   1.263  0.00  0.00    -0.042 A 
ATOM      5  C5  UNL d   1      -0.533   1.974   1.876  0.00  0.00     0.033 A 
ATOM      6  C6  UNL d   1      -0.355   0.790   1.154  0.00  0.00    -0.057 A 
ENDROOT
BRANCH   1   7
ATOM      7  N   UNL d   1      -0.617  -0.555  -0.822  0.00  0.00    -0.732 N 
ATOM      8  C   UNL d   1       0.448  -1.467  -0.465  0.00  0.00     0.284 C 
ATOM      9  H3  UNL d   1      -1.520  -1.003  -0.961  0.00  0.00     0.395 HD
ENDBRANCH   1   7
TORSDOF 1
ENDMDL
