MODEL 1
REMARK minimizedAffinity -4.75000334
REMARK minimizedRMSD -1
REMARK  1 active torsions:
REMARK  status: ('A' for Active; 'I' for Inactive)
REMARK    1  A    between atoms: N_2  and  C1_3 
ROOT
ATOM      1  C1  UNL d   1       0.203  -0.169   0.111  0.00  0.00     0.143 A 
ATOM      2  C2  UNL d   1      -0.524   0.750  -0.654  0.00  0.00    -0.057 A 
ATOM      3  C3  UNL d   1      -1.044   1.918  -0.084  0.00  0.00     0.033 A 
ATOM      4  C4  UNL d   1      -0.870   2.175   1.272  0.00  0.00    -0.042 A 
ATOM      5  C5  UNL d   1      -0.172   1.264   2.056  0.00  0.00     0.033 A 
ATOM      6  C6  UNL d   1       0.351   0.102   1.480  0.00  0.00    -0.057 A 
ENDROOT
BRANCH   1   7
ATOM      7  N   UNL d   1       0.661  -1.396  -0.375  0.00  0.00    -0.732 N 
ATOM      8  C   UNL d   1      -0.223  -2.273  -1.113  0.00  0.00     0.284 C 
ATOM      9  H3  UNL d   1       1.601  -1.336  -0.759  0.00  0.00     0.395 HD
ENDBRANCH   1   7
TORSDOF 1
ENDMDL
