MODEL 1
REMARK minimizedAffinity -3.90378714
REMARK minimizedRMSD -1
REMARK  1 active torsions:
REMARK  status: ('A' for Active; 'I' for Inactive)
REMARK    1  A    between atoms: N_2  and  C1_3 
ROOT
ATOM      1  C1  UNL d   1      -0.905   1.386   0.671  0.00  0.00     0.143 A 
ATOM      2  C2  UNL d   1      -0.715   1.449  -0.713  0.00  0.00    -0.057 A 
ATOM      3  C3  UNL d   1       0.237   0.646  -1.352  0.00  0.00     0.033 A 
ATOM      4  C4  UNL d   1       1.038  -0.217  -0.612  0.00  0.00    -0.042 A 
ATOM      5  C5  UNL d   1       0.883  -0.279   0.769  0.00  0.00     0.033 A 
ATOM      6  C6  UNL d   1      -0.074   0.521   1.400  0.00  0.00    -0.057 A 
ENDROOT
BRANCH   1   7
ATOM      7  N   UNL d   1      -1.767   2.229   1.377  0.00  0.00    -0.732 N 
ATOM      8  C   UNL d   1      -1.356   3.570   1.735  0.00  0.00     0.284 C 
ATOM      9  H3  UNL d   1      -2.729   2.162   1.052  0.00  0.00     0.395 HD
ENDBRANCH   1   7
TORSDOF 1
ENDMDL
