MODEL 1
REMARK minimizedAffinity -1.73697448
REMARK minimizedRMSD -1
REMARK  1 active torsions:
REMARK  status: ('A' for Active; 'I' for Inactive)
REMARK    1  A    between atoms: N_2  and  C1_3 
ROOT
ATOM      1  C1  UNL d   1      -0.584  -1.724  -0.422  0.00  0.00     0.143 A 
ATOM      2  C2  UNL d   1      -1.226  -1.320   0.754  0.00  0.00    -0.057 A 
ATOM      3  C3  UNL d   1      -0.896  -0.113   1.383  0.00  0.00     0.033 A 
ATOM      4  C4  UNL d   1       0.105   0.699   0.861  0.00  0.00    -0.042 A 
ATOM      5  C5  UNL d   1       0.774   0.305  -0.292  0.00  0.00     0.033 A 
ATOM      6  C6  UNL d   1       0.435  -0.898  -0.919  0.00  0.00    -0.057 A 
ENDROOT
BRANCH   1   7
ATOM      7  N   UNL d   1      -0.798  -2.959  -1.039  0.00  0.00    -0.732 N 
ATOM      8  C   UNL d   1      -1.902  -3.803  -0.637  0.00  0.00     0.284 C 
ATOM      9  H3  UNL d   1      -0.649  -2.921  -2.045  0.00  0.00     0.395 HD
ENDBRANCH   1   7
TORSDOF 1
ENDMDL
