MODEL 1
REMARK minimizedAffinity 2.32426143
REMARK minimizedRMSD -1
REMARK  1 active torsions:
REMARK  status: ('A' for Active; 'I' for Inactive)
REMARK    1  A    between atoms: N_2  and  C1_3 
ROOT
ATOM      1  C1  UNL d   1      -1.632  -3.716  -2.267  0.00  0.00     0.143 A 
ATOM      2  C2  UNL d   1      -2.572  -2.680  -2.239  0.00  0.00    -0.057 A 
ATOM      3  C3  UNL d   1      -2.848  -1.919  -3.381  0.00  0.00     0.033 A 
ATOM      4  C4  UNL d   1      -2.165  -2.162  -4.568  0.00  0.00    -0.042 A 
ATOM      5  C5  UNL d   1      -1.208  -3.170  -4.613  0.00  0.00     0.033 A 
ATOM      6  C6  UNL d   1      -0.942  -3.931  -3.471  0.00  0.00    -0.057 A 
ENDROOT
BRANCH   1   7
ATOM      7  N   UNL d   1      -1.242  -4.443  -1.140  0.00  0.00    -0.732 N 
ATOM      8  C   UNL d   1       0.031  -4.186  -0.501  0.00  0.00     0.284 C 
ATOM      9  H3  UNL d   1      -2.010  -4.594  -0.490  0.00  0.00     0.395 HD
ENDBRANCH   1   7
TORSDOF 1
ENDMDL
