MODEL 1
REMARK minimizedAffinity 0.620250762
REMARK minimizedRMSD -1
REMARK  0 active torsions:
REMARK  status: ('A' for Active; 'I' for Inactive)
ROOT
ATOM      1  C   UNL d   1       0.452  -3.935   4.931  0.00  0.00     0.023 A 
ATOM      2  C1  UNL d   1       1.429  -3.226   4.234  0.00  0.00     0.003 A 
ATOM      3  C2  UNL d   1       1.059  -2.314   3.244  0.00  0.00     0.048 A 
ATOM      4  C3  UNL d   1      -0.291  -2.115   2.957  0.00  0.00     0.023 A 
ATOM      5  C4  UNL d   1      -1.273  -2.822   3.653  0.00  0.00     0.048 A 
ATOM      6  C5  UNL d   1      -0.898  -3.733   4.641  0.00  0.00     0.003 A 
ATOM      7  I   UNL d   1      -0.844  -0.757   1.484  0.00  0.00    -0.146 I 
ENDROOT
TORSDOF 0
ENDMDL
