MODEL 1
REMARK minimizedAffinity -0.903650284
REMARK minimizedRMSD -1
REMARK  0 active torsions:
REMARK  status: ('A' for Active; 'I' for Inactive)
ROOT
ATOM      1  C   UNL d   1      -0.249  -5.216  -4.168  0.00  0.00     0.023 A 
ATOM      2  C1  UNL d   1      -1.236  -5.785  -3.362  0.00  0.00     0.003 A 
ATOM      3  C2  UNL d   1      -2.519  -5.996  -3.871  0.00  0.00     0.048 A 
ATOM      4  C3  UNL d   1      -2.808  -5.637  -5.187  0.00  0.00     0.023 A 
ATOM      5  C4  UNL d   1      -1.824  -5.069  -5.997  0.00  0.00     0.048 A 
ATOM      6  C5  UNL d   1      -0.543  -4.858  -5.484  0.00  0.00     0.003 A 
ATOM      7  I   UNL d   1      -4.717  -5.952  -5.948  0.00  0.00    -0.146 I 
ENDROOT
TORSDOF 0
ENDMDL
