MODEL 1
REMARK minimizedAffinity 0.400215507
REMARK minimizedRMSD -1
REMARK  0 active torsions:
REMARK  status: ('A' for Active; 'I' for Inactive)
ROOT
ATOM      1  C   UNL d   1       0.699  -0.329  -0.626  0.00  0.00     0.023 A 
ATOM      2  C1  UNL d   1       1.695  -1.281  -0.404  0.00  0.00     0.003 A 
ATOM      3  C2  UNL d   1       1.666  -2.067   0.750  0.00  0.00     0.048 A 
ATOM      4  C3  UNL d   1       0.638  -1.897   1.677  0.00  0.00     0.023 A 
ATOM      5  C4  UNL d   1      -0.361  -0.946   1.458  0.00  0.00     0.048 A 
ATOM      6  C5  UNL d   1      -0.327  -0.162   0.303  0.00  0.00     0.003 A 
ATOM      7  I   UNL d   1       0.592  -3.066   3.395  0.00  0.00    -0.146 I 
ENDROOT
TORSDOF 0
ENDMDL
