MODEL 1
REMARK minimizedAffinity 4.08237648
REMARK minimizedRMSD -1
REMARK  0 active torsions:
REMARK  status: ('A' for Active; 'I' for Inactive)
ROOT
ATOM      1  C   UNL d   1       5.514  -1.858   1.154  0.00  0.00     0.023 A 
ATOM      2  C1  UNL d   1       4.957  -0.644   1.557  0.00  0.00     0.003 A 
ATOM      3  C2  UNL d   1       3.592  -0.408   1.379  0.00  0.00     0.048 A 
ATOM      4  C3  UNL d   1       2.790  -1.389   0.799  0.00  0.00     0.023 A 
ATOM      5  C4  UNL d   1       3.343  -2.606   0.395  0.00  0.00     0.048 A 
ATOM      6  C5  UNL d   1       4.708  -2.838   0.574  0.00  0.00     0.003 A 
ATOM      7  I   UNL d   1       0.759  -1.039   0.533  0.00  0.00    -0.146 I 
ENDROOT
TORSDOF 0
ENDMDL
