MODEL 1
REMARK minimizedAffinity 3.47837567
REMARK minimizedRMSD -1
REMARK  0 active torsions:
REMARK  status: ('A' for Active; 'I' for Inactive)
ROOT
ATOM      1  C   UNL d   1       0.832  -1.221   0.633  0.00  0.00     0.023 A 
ATOM      2  C1  UNL d   1       0.238  -2.314   0.004  0.00  0.00     0.003 A 
ATOM      3  C2  UNL d   1      -1.102  -2.254  -0.387  0.00  0.00     0.048 A 
ATOM      4  C3  UNL d   1      -1.840  -1.095  -0.146  0.00  0.00     0.023 A 
ATOM      5  C4  UNL d   1      -1.249   0.002   0.482  0.00  0.00     0.048 A 
ATOM      6  C5  UNL d   1       0.090  -0.064   0.872  0.00  0.00     0.003 A 
ATOM      7  I   UNL d   1      -3.834  -1.002  -0.727  0.00  0.00    -0.146 I 
ENDROOT
TORSDOF 0
ENDMDL
