MODEL 1
REMARK minimizedAffinity 5.33067846
REMARK minimizedRMSD -1
REMARK  0 active torsions:
REMARK  status: ('A' for Active; 'I' for Inactive)
ROOT
ATOM      1  C   UNL d   1       0.742  -3.436   4.633  0.00  0.00     0.023 A 
ATOM      2  C1  UNL d   1      -0.442  -2.698   4.615  0.00  0.00     0.003 A 
ATOM      3  C2  UNL d   1      -0.778  -1.941   3.491  0.00  0.00     0.048 A 
ATOM      4  C3  UNL d   1       0.074  -1.927   2.387  0.00  0.00     0.023 A 
ATOM      5  C4  UNL d   1       1.259  -2.664   2.400  0.00  0.00     0.048 A 
ATOM      6  C5  UNL d   1       1.592  -3.419   3.526  0.00  0.00     0.003 A 
ATOM      7  I   UNL d   1      -0.424  -0.801   0.713  0.00  0.00    -0.146 I 
ENDROOT
TORSDOF 0
ENDMDL
