MODEL 1
REMARK minimizedAffinity 6.70403337
REMARK minimizedRMSD -1
REMARK  0 active torsions:
REMARK  status: ('A' for Active; 'I' for Inactive)
ROOT
ATOM      1  C   UNL d   1       0.475   2.757  -4.466  0.00  0.00     0.023 A 
ATOM      2  C1  UNL d   1      -0.872   3.100  -4.582  0.00  0.00     0.003 A 
ATOM      3  C2  UNL d   1      -1.737   2.914  -3.502  0.00  0.00     0.048 A 
ATOM      4  C3  UNL d   1      -1.248   2.386  -2.307  0.00  0.00     0.023 A 
ATOM      5  C4  UNL d   1       0.100   2.043  -2.186  0.00  0.00     0.048 A 
ATOM      6  C5  UNL d   1       0.960   2.229  -3.270  0.00  0.00     0.003 A 
ATOM      7  I   UNL d   1      -2.533   2.109  -0.698  0.00  0.00    -0.146 I 
ENDROOT
TORSDOF 0
ENDMDL
