MODEL 1
REMARK minimizedAffinity 2.99094725
REMARK minimizedRMSD -1
REMARK  0 active torsions:
REMARK  status: ('A' for Active; 'I' for Inactive)
ROOT
ATOM      1  C   UNL d   1      -1.909  -5.907  -5.962  0.00  0.00     0.023 A 
ATOM      2  C1  UNL d   1      -3.303  -5.945  -5.936  0.00  0.00     0.003 A 
ATOM      3  C2  UNL d   1      -4.036  -4.756  -5.942  0.00  0.00     0.048 A 
ATOM      4  C3  UNL d   1      -3.367  -3.532  -5.973  0.00  0.00     0.023 A 
ATOM      5  C4  UNL d   1      -1.972  -3.489  -6.000  0.00  0.00     0.048 A 
ATOM      6  C5  UNL d   1      -1.245  -4.681  -5.993  0.00  0.00     0.003 A 
ATOM      7  I   UNL d   1      -4.455  -1.761  -5.982  0.00  0.00    -0.146 I 
ENDROOT
TORSDOF 0
ENDMDL
