MODEL 1
REMARK minimizedAffinity 7.96955252
REMARK minimizedRMSD -1
REMARK  0 active torsions:
REMARK  status: ('A' for Active; 'I' for Inactive)
ROOT
ATOM      1  C   UNL d   1       0.823  -3.532   5.046  0.00  0.00     0.023 A 
ATOM      2  C1  UNL d   1       1.717  -3.529   3.975  0.00  0.00     0.003 A 
ATOM      3  C2  UNL d   1       1.355  -2.935   2.763  0.00  0.00     0.048 A 
ATOM      4  C3  UNL d   1       0.098  -2.347   2.630  0.00  0.00     0.023 A 
ATOM      5  C4  UNL d   1      -0.799  -2.347   3.699  0.00  0.00     0.048 A 
ATOM      6  C5  UNL d   1      -0.433  -2.942   4.908  0.00  0.00     0.003 A 
ATOM      7  I   UNL d   1      -0.442  -1.463   0.828  0.00  0.00    -0.146 I 
ENDROOT
TORSDOF 0
ENDMDL
