MODEL 1
REMARK minimizedAffinity 11.8695965
REMARK minimizedRMSD -1
REMARK  0 active torsions:
REMARK  status: ('A' for Active; 'I' for Inactive)
ROOT
ATOM      1  C   UNL d   1       1.151  -3.672   4.932  0.00  0.00     0.023 A 
ATOM      2  C1  UNL d   1      -0.089  -3.034   4.977  0.00  0.00     0.003 A 
ATOM      3  C2  UNL d   1      -0.514  -2.254   3.900  0.00  0.00     0.048 A 
ATOM      4  C3  UNL d   1       0.306  -2.116   2.780  0.00  0.00     0.023 A 
ATOM      5  C4  UNL d   1       1.547  -2.753   2.730  0.00  0.00     0.048 A 
ATOM      6  C5  UNL d   1       1.968  -3.531   3.810  0.00  0.00     0.003 A 
ATOM      7  I   UNL d   1      -0.324  -0.955   1.176  0.00  0.00    -0.146 I 
ENDROOT
TORSDOF 0
ENDMDL
