MODEL 1
REMARK minimizedAffinity -0.813820124
REMARK minimizedRMSD -1
REMARK  0 active torsions:
REMARK  status: ('A' for Active; 'I' for Inactive)
ROOT
ATOM      1  C   UNL d   1       3.959   1.593  -2.790  0.00  0.00     0.023 A 
ATOM      2  C1  UNL d   1       3.867   2.808  -3.470  0.00  0.00     0.003 A 
ATOM      3  C2  UNL d   1       2.615   3.329  -3.803  0.00  0.00     0.048 A 
ATOM      4  C3  UNL d   1       1.460   2.632  -3.452  0.00  0.00     0.023 A 
ATOM      5  C4  UNL d   1       1.547   1.417  -2.770  0.00  0.00     0.048 A 
ATOM      6  C5  UNL d   1       2.801   0.899  -2.440  0.00  0.00     0.003 A 
ATOM      7  I   UNL d   1      -0.404   3.407  -3.946  0.00  0.00    -0.146 I 
ENDROOT
TORSDOF 0
ENDMDL
