MODEL 1
REMARK minimizedAffinity 7.32324123
REMARK minimizedRMSD -1
REMARK  0 active torsions:
REMARK  status: ('A' for Active; 'I' for Inactive)
ROOT
ATOM      1  C   UNL d   1       0.894  -3.535   5.140  0.00  0.00     0.023 A 
ATOM      2  C1  UNL d   1       1.817  -3.449   4.099  0.00  0.00     0.003 A 
ATOM      3  C2  UNL d   1       1.499  -2.740   2.938  0.00  0.00     0.048 A 
ATOM      4  C3  UNL d   1       0.255  -2.120   2.826  0.00  0.00     0.023 A 
ATOM      5  C4  UNL d   1      -0.672  -2.202   3.866  0.00  0.00     0.048 A 
ATOM      6  C5  UNL d   1      -0.349  -2.912   5.024  0.00  0.00     0.003 A 
ATOM      7  I   UNL d   1      -0.220  -1.065   1.100  0.00  0.00    -0.146 I 
ENDROOT
TORSDOF 0
ENDMDL
