MODEL 1
REMARK minimizedAffinity -5.35109806
REMARK minimizedRMSD -1
REMARK  0 active torsions:
REMARK  status: ('A' for Active; 'I' for Inactive)
ROOT
ATOM      1  C   UNL d   1      -0.272  -2.020   0.811  0.00  0.00     0.023 A 
ATOM      2  C1  UNL d   1      -1.533  -2.097   0.222  0.00  0.00     0.003 A 
ATOM      3  C2  UNL d   1      -2.666  -2.289   1.016  0.00  0.00     0.048 A 
ATOM      4  C3  UNL d   1      -2.529  -2.402   2.399  0.00  0.00     0.023 A 
ATOM      5  C4  UNL d   1      -1.269  -2.325   2.994  0.00  0.00     0.048 A 
ATOM      6  C5  UNL d   1      -0.139  -2.134   2.195  0.00  0.00     0.003 A 
ATOM      7  I   UNL d   1      -4.213  -2.688   3.583  0.00  0.00    -0.146 I 
ENDROOT
TORSDOF 0
ENDMDL
