MODEL 1
REMARK minimizedAffinity -2.79478502
REMARK minimizedRMSD -1
REMARK  0 active torsions:
REMARK  status: ('A' for Active; 'I' for Inactive)
ROOT
ATOM      1  C   UNL d   1      -2.743  -5.997  -5.912  0.00  0.00     0.023 A 
ATOM      2  C1  UNL d   1      -4.115  -5.756  -5.975  0.00  0.00     0.003 A 
ATOM      3  C2  UNL d   1      -4.595  -4.445  -6.000  0.00  0.00     0.048 A 
ATOM      4  C3  UNL d   1      -3.697  -3.379  -5.962  0.00  0.00     0.023 A 
ATOM      5  C4  UNL d   1      -2.323  -3.615  -5.900  0.00  0.00     0.048 A 
ATOM      6  C5  UNL d   1      -1.848  -4.927  -5.874  0.00  0.00     0.003 A 
ATOM      7  I   UNL d   1      -4.409  -1.427  -5.999  0.00  0.00    -0.146 I 
ENDROOT
TORSDOF 0
ENDMDL
