MODEL 1
REMARK minimizedAffinity 0.183967724
REMARK minimizedRMSD -1
REMARK  0 active torsions:
REMARK  status: ('A' for Active; 'I' for Inactive)
ROOT
ATOM      1  C   UNL d   1       0.718  -3.268   4.656  0.00  0.00     0.023 A 
ATOM      2  C1  UNL d   1       1.708  -3.376   3.679  0.00  0.00     0.003 A 
ATOM      3  C2  UNL d   1       1.564  -2.711   2.460  0.00  0.00     0.048 A 
ATOM      4  C3  UNL d   1       0.427  -1.938   2.224  0.00  0.00     0.023 A 
ATOM      5  C4  UNL d   1      -0.566  -1.827   3.199  0.00  0.00     0.048 A 
ATOM      6  C5  UNL d   1      -0.418  -2.495   4.416  0.00  0.00     0.003 A 
ATOM      7  I   UNL d   1       0.210  -0.947   0.411  0.00  0.00    -0.146 I 
ENDROOT
TORSDOF 0
ENDMDL
