MODEL 1
REMARK minimizedAffinity -0.00432120357
REMARK minimizedRMSD -1
REMARK  0 active torsions:
REMARK  status: ('A' for Active; 'I' for Inactive)
ROOT
ATOM      1  C   UNL d   1      -1.355  -4.059  -5.110  0.00  0.00     0.023 A 
ATOM      2  C1  UNL d   1      -1.600  -5.396  -4.800  0.00  0.00     0.003 A 
ATOM      3  C2  UNL d   1      -2.855  -5.955  -5.054  0.00  0.00     0.048 A 
ATOM      4  C3  UNL d   1      -3.859  -5.170  -5.620  0.00  0.00     0.023 A 
ATOM      5  C4  UNL d   1      -3.618  -3.832  -5.933  0.00  0.00     0.048 A 
ATOM      6  C5  UNL d   1      -2.363  -3.277  -5.675  0.00  0.00     0.003 A 
ATOM      7  I   UNL d   1      -5.727  -6.000  -6.000  0.00  0.00    -0.146 I 
ENDROOT
TORSDOF 0
ENDMDL
