MODEL 1
REMARK minimizedAffinity -2.32343626
REMARK minimizedRMSD -1
REMARK  1 active torsions:
REMARK  status: ('A' for Active; 'I' for Inactive)
REMARK    1  A    between atoms: C3_4  and  O_7 
ROOT
ATOM      1  C   UNL d   1      -0.468   2.145   0.988  0.00  0.00    -0.033 A 
ATOM      2  C1  UNL d   1       0.756   1.666   0.517  0.00  0.00     0.039 A 
ATOM      3  C2  UNL d   1       0.896   0.318   0.178  0.00  0.00    -0.080 A 
ATOM      4  C3  UNL d   1      -0.194  -0.537   0.313  0.00  0.00     0.150 A 
ATOM      5  C4  UNL d   1      -1.417  -0.066   0.779  0.00  0.00    -0.007 A 
ATOM      6  C5  UNL d   1      -1.555   1.280   1.118  0.00  0.00     0.039 A 
ENDROOT
BRANCH   4   7
ATOM      7  O   UNL d   1      -0.104  -1.861  -0.001  0.00  0.00    -0.526 OA
ATOM      8  H5  UNL d   1       0.807  -2.050  -0.281  0.00  0.00     0.418 HD
ENDBRANCH   4   7
TORSDOF 1
ENDMDL
