MODEL 1
REMARK minimizedAffinity -3.69491124
REMARK minimizedRMSD -1
REMARK  1 active torsions:
REMARK  status: ('A' for Active; 'I' for Inactive)
REMARK    1  A    between atoms: C3_4  and  O_7 
ROOT
ATOM      1  C   UNL d   1      -0.386   2.145   0.530  0.00  0.00    -0.033 A 
ATOM      2  C1  UNL d   1      -1.675   1.623   0.408  0.00  0.00     0.039 A 
ATOM      3  C2  UNL d   1      -1.857   0.265   0.139  0.00  0.00    -0.080 A 
ATOM      4  C3  UNL d   1      -0.744  -0.559  -0.004  0.00  0.00     0.150 A 
ATOM      5  C4  UNL d   1       0.543  -0.046   0.121  0.00  0.00    -0.007 A 
ATOM      6  C5  UNL d   1       0.723   1.310   0.388  0.00  0.00     0.039 A 
ENDROOT
BRANCH   4   7
ATOM      7  O   UNL d   1      -0.873  -1.889  -0.271  0.00  0.00    -0.526 OA
ATOM      8  H5  UNL d   1      -1.818  -2.096  -0.359  0.00  0.00     0.418 HD
ENDBRANCH   4   7
TORSDOF 1
ENDMDL
