MODEL 1
REMARK minimizedAffinity -4.37145138
REMARK minimizedRMSD -1
REMARK  1 active torsions:
REMARK  status: ('A' for Active; 'I' for Inactive)
REMARK    1  A    between atoms: C3_4  and  O_7 
ROOT
ATOM      1  C   UNL d   1       1.399   2.940   1.066  0.00  0.00    -0.033 A 
ATOM      2  C1  UNL d   1       2.279   1.871   0.883  0.00  0.00     0.039 A 
ATOM      3  C2  UNL d   1       1.787   0.609   0.545  0.00  0.00    -0.080 A 
ATOM      4  C3  UNL d   1       0.415   0.429   0.392  0.00  0.00     0.150 A 
ATOM      5  C4  UNL d   1      -0.467   1.490   0.569  0.00  0.00    -0.007 A 
ATOM      6  C5  UNL d   1       0.026   2.750   0.907  0.00  0.00     0.039 A 
ENDROOT
BRANCH   4   7
ATOM      7  O   UNL d   1      -0.113  -0.785   0.067  0.00  0.00    -0.526 OA
ATOM      8  H5  UNL d   1       0.613  -1.429   0.005  0.00  0.00     0.418 HD
ENDBRANCH   4   7
TORSDOF 1
ENDMDL
