MODEL 1
REMARK minimizedAffinity -0.338152677
REMARK minimizedRMSD -1
REMARK  1 active torsions:
REMARK  status: ('A' for Active; 'I' for Inactive)
REMARK    1  A    between atoms: C3_4  and  O_7 
ROOT
ATOM      1  C   UNL d   1      -1.763   0.771   0.424  0.00  0.00    -0.033 A 
ATOM      2  C1  UNL d   1      -1.227   2.053   0.554  0.00  0.00     0.039 A 
ATOM      3  C2  UNL d   1       0.154   2.228   0.656  0.00  0.00    -0.080 A 
ATOM      4  C3  UNL d   1       0.988   1.114   0.625  0.00  0.00     0.150 A 
ATOM      5  C4  UNL d   1       0.461  -0.167   0.491  0.00  0.00    -0.007 A 
ATOM      6  C5  UNL d   1      -0.918  -0.339   0.391  0.00  0.00     0.039 A 
ENDROOT
BRANCH   4   7
ATOM      7  O   UNL d   1       2.342   1.234   0.725  0.00  0.00    -0.526 OA
ATOM      8  H5  UNL d   1       2.560   2.174   0.841  0.00  0.00     0.418 HD
ENDBRANCH   4   7
TORSDOF 1
ENDMDL
