MODEL 1
REMARK minimizedAffinity -3.76976562
REMARK minimizedRMSD -1
REMARK  1 active torsions:
REMARK  status: ('A' for Active; 'I' for Inactive)
REMARK    1  A    between atoms: C3_4  and  O_7 
ROOT
ATOM      1  C   UNL d   1      -0.352   2.771   0.465  0.00  0.00    -0.033 A 
ATOM      2  C1  UNL d   1      -1.489   1.978   0.632  0.00  0.00     0.039 A 
ATOM      3  C2  UNL d   1      -1.414   0.597   0.441  0.00  0.00    -0.080 A 
ATOM      4  C3  UNL d   1      -0.196   0.022   0.086  0.00  0.00     0.150 A 
ATOM      5  C4  UNL d   1       0.941   0.806  -0.078  0.00  0.00    -0.007 A 
ATOM      6  C5  UNL d   1       0.863   2.185   0.112  0.00  0.00     0.039 A 
ENDROOT
BRANCH   4   7
ATOM      7  O   UNL d   1      -0.074  -1.321  -0.116  0.00  0.00    -0.526 OA
ATOM      8  H5  UNL d   1      -0.947  -1.730   0.004  0.00  0.00     0.418 HD
ENDBRANCH   4   7
TORSDOF 1
ENDMDL
