MODEL 1
REMARK minimizedAffinity -3.2786417
REMARK minimizedRMSD -1
REMARK  1 active torsions:
REMARK  status: ('A' for Active; 'I' for Inactive)
REMARK    1  A    between atoms: C3_4  and  O_7 
ROOT
ATOM      1  C   UNL d   1      -1.103   2.404   0.369  0.00  0.00    -0.033 A 
ATOM      2  C1  UNL d   1       0.256   2.087   0.418  0.00  0.00     0.039 A 
ATOM      3  C2  UNL d   1       0.664   0.752   0.412  0.00  0.00    -0.080 A 
ATOM      4  C3  UNL d   1      -0.296  -0.255   0.355  0.00  0.00     0.150 A 
ATOM      5  C4  UNL d   1      -1.651   0.054   0.302  0.00  0.00    -0.007 A 
ATOM      6  C5  UNL d   1      -2.056   1.388   0.310  0.00  0.00     0.039 A 
ENDROOT
BRANCH   4   7
ATOM      7  O   UNL d   1       0.053  -1.573   0.352  0.00  0.00    -0.526 OA
ATOM      8  H5  UNL d   1       1.021  -1.635   0.421  0.00  0.00     0.418 HD
ENDBRANCH   4   7
TORSDOF 1
ENDMDL
