MODEL 1
REMARK minimizedAffinity -3.22190738
REMARK minimizedRMSD -1
REMARK  1 active torsions:
REMARK  status: ('A' for Active; 'I' for Inactive)
REMARK    1  A    between atoms: C3_4  and  O_7 
ROOT
ATOM      1  C   UNL d   1      -0.125   2.349   0.744  0.00  0.00    -0.033 A 
ATOM      2  C1  UNL d   1      -1.388   1.755   0.768  0.00  0.00     0.039 A 
ATOM      3  C2  UNL d   1      -1.534   0.407   0.433  0.00  0.00    -0.080 A 
ATOM      4  C3  UNL d   1      -0.411  -0.334   0.077  0.00  0.00     0.150 A 
ATOM      5  C4  UNL d   1       0.851   0.251   0.054  0.00  0.00    -0.007 A 
ATOM      6  C5  UNL d   1       0.995   1.596   0.389  0.00  0.00     0.039 A 
ENDROOT
BRANCH   4   7
ATOM      7  O   UNL d   1      -0.505  -1.651  -0.263  0.00  0.00    -0.526 OA
ATOM      8  H5  UNL d   1      -1.440  -1.911  -0.231  0.00  0.00     0.418 HD
ENDBRANCH   4   7
TORSDOF 1
ENDMDL
