MODEL 1
REMARK minimizedAffinity -4.14112568
REMARK minimizedRMSD -1
REMARK  1 active torsions:
REMARK  status: ('A' for Active; 'I' for Inactive)
REMARK    1  A    between atoms: C3_4  and  O_7 
ROOT
ATOM      1  C   UNL d   1       0.775   2.542   0.972  0.00  0.00    -0.033 A 
ATOM      2  C1  UNL d   1       1.861   1.698   0.731  0.00  0.00     0.039 A 
ATOM      3  C2  UNL d   1       1.649   0.403   0.256  0.00  0.00    -0.080 A 
ATOM      4  C3  UNL d   1       0.348  -0.035   0.025  0.00  0.00     0.150 A 
ATOM      5  C4  UNL d   1      -0.739   0.801   0.259  0.00  0.00    -0.007 A 
ATOM      6  C5  UNL d   1      -0.525   2.094   0.735  0.00  0.00     0.039 A 
ENDROOT
BRANCH   4   7
ATOM      7  O   UNL d   1       0.090  -1.293  -0.435  0.00  0.00    -0.526 OA
ATOM      8  H5  UNL d   1       0.934  -1.767  -0.524  0.00  0.00     0.418 HD
ENDBRANCH   4   7
TORSDOF 1
ENDMDL
