MODEL 1
REMARK minimizedAffinity -2.53808308
REMARK minimizedRMSD -1
REMARK  1 active torsions:
REMARK  status: ('A' for Active; 'I' for Inactive)
REMARK    1  A    between atoms: C3_4  and  O_7 
ROOT
ATOM      1  C   UNL d   1       0.422   2.374   1.007  0.00  0.00    -0.033 A 
ATOM      2  C1  UNL d   1      -0.814   1.925   0.538  0.00  0.00     0.039 A 
ATOM      3  C2  UNL d   1      -0.946   0.626   0.044  0.00  0.00    -0.080 A 
ATOM      4  C3  UNL d   1       0.164  -0.214   0.026  0.00  0.00     0.150 A 
ATOM      5  C4  UNL d   1       1.398   0.225   0.495  0.00  0.00    -0.007 A 
ATOM      6  C5  UNL d   1       1.528   1.523   0.987  0.00  0.00     0.039 A 
ENDROOT
BRANCH   4   7
ATOM      7  O   UNL d   1       0.085  -1.489  -0.451  0.00  0.00    -0.526 OA
ATOM      8  H5  UNL d   1      -0.820  -1.643  -0.768  0.00  0.00     0.418 HD
ENDBRANCH   4   7
TORSDOF 1
ENDMDL
