MODEL 1
REMARK minimizedAffinity -3.21357679
REMARK minimizedRMSD -1
REMARK  1 active torsions:
REMARK  status: ('A' for Active; 'I' for Inactive)
REMARK    1  A    between atoms: C3_4  and  O_7 
ROOT
ATOM      1  C   UNL d   1      -1.489  -0.011   0.597  0.00  0.00    -0.033 A 
ATOM      2  C1  UNL d   1      -0.673  -1.141   0.516  0.00  0.00     0.039 A 
ATOM      3  C2  UNL d   1       0.715  -1.000   0.464  0.00  0.00    -0.080 A 
ATOM      4  C3  UNL d   1       1.273   0.275   0.495  0.00  0.00     0.150 A 
ATOM      5  C4  UNL d   1       0.467   1.405   0.578  0.00  0.00    -0.007 A 
ATOM      6  C5  UNL d   1      -0.919   1.262   0.629  0.00  0.00     0.039 A 
ENDROOT
BRANCH   4   7
ATOM      7  O   UNL d   1       2.623   0.463   0.441  0.00  0.00    -0.526 OA
ATOM      8  H5  UNL d   1       3.051  -0.405   0.356  0.00  0.00     0.418 HD
ENDBRANCH   4   7
TORSDOF 1
ENDMDL
