MODEL 1
REMARK minimizedAffinity -5.11838627
REMARK minimizedRMSD -1
REMARK  1 active torsions:
REMARK  status: ('A' for Active; 'I' for Inactive)
REMARK    1  A    between atoms: C3_4  and  O_7 
ROOT
ATOM      1  C   UNL d   1       1.664   2.890   0.814  0.00  0.00    -0.033 A 
ATOM      2  C1  UNL d   1       2.654   1.907   0.843  0.00  0.00     0.039 A 
ATOM      3  C2  UNL d   1       2.361   0.606   0.429  0.00  0.00    -0.080 A 
ATOM      4  C3  UNL d   1       1.076   0.302  -0.011  0.00  0.00     0.150 A 
ATOM      5  C4  UNL d   1       0.085   1.278  -0.046  0.00  0.00    -0.007 A 
ATOM      6  C5  UNL d   1       0.380   2.576   0.369  0.00  0.00     0.039 A 
ENDROOT
BRANCH   4   7
ATOM      7  O   UNL d   1       0.741  -0.954  -0.420  0.00  0.00    -0.526 OA
ATOM      8  H5  UNL d   1       1.517  -1.529  -0.315  0.00  0.00     0.418 HD
ENDBRANCH   4   7
TORSDOF 1
ENDMDL
