MODEL 1
REMARK minimizedAffinity -3.90199995
REMARK minimizedRMSD -1
REMARK  1 active torsions:
REMARK  status: ('A' for Active; 'I' for Inactive)
REMARK    1  A    between atoms: C3_4  and  O_7 
ROOT
ATOM      1  C   UNL d   1       0.947   2.981   1.105  0.00  0.00    -0.033 A 
ATOM      2  C1  UNL d   1       1.961   2.022   1.065  0.00  0.00     0.039 A 
ATOM      3  C2  UNL d   1       1.659   0.697   0.745  0.00  0.00    -0.080 A 
ATOM      4  C3  UNL d   1       0.342   0.345   0.465  0.00  0.00     0.150 A 
ATOM      5  C4  UNL d   1      -0.673   1.296   0.498  0.00  0.00    -0.007 A 
ATOM      6  C5  UNL d   1      -0.370   2.618   0.820  0.00  0.00     0.039 A 
ENDROOT
BRANCH   4   7
ATOM      7  O   UNL d   1      -0.002  -0.936   0.151  0.00  0.00    -0.526 OA
ATOM      8  H5  UNL d   1       0.796  -1.489   0.194  0.00  0.00     0.418 HD
ENDBRANCH   4   7
TORSDOF 1
ENDMDL
