MODEL 1
REMARK minimizedAffinity -0.335740387
REMARK minimizedRMSD -1
REMARK  1 active torsions:
REMARK  status: ('A' for Active; 'I' for Inactive)
REMARK    1  A    between atoms: C3_4  and  O_7 
ROOT
ATOM      1  C   UNL d   1      -0.747   2.341   0.800  0.00  0.00    -0.033 A 
ATOM      2  C1  UNL d   1      -1.800   1.651   0.195  0.00  0.00     0.039 A 
ATOM      3  C2  UNL d   1      -1.602   0.357  -0.291  0.00  0.00    -0.080 A 
ATOM      4  C3  UNL d   1      -0.348  -0.235  -0.164  0.00  0.00     0.150 A 
ATOM      5  C4  UNL d   1       0.704   0.445   0.441  0.00  0.00    -0.007 A 
ATOM      6  C5  UNL d   1       0.504   1.737   0.924  0.00  0.00     0.039 A 
ENDROOT
BRANCH   4   7
ATOM      7  O   UNL d   1      -0.106  -1.494  -0.627  0.00  0.00    -0.526 OA
ATOM      8  H5  UNL d   1      -0.916  -1.830  -1.046  0.00  0.00     0.418 HD
ENDBRANCH   4   7
TORSDOF 1
ENDMDL
