MODEL 1
REMARK minimizedAffinity -3.52258563
REMARK minimizedRMSD -1
REMARK  1 active torsions:
REMARK  status: ('A' for Active; 'I' for Inactive)
REMARK    1  A    between atoms: C3_4  and  O_7 
ROOT
ATOM      1  C   UNL d   1      -0.201  -3.122  -1.809  0.00  0.00    -0.033 A 
ATOM      2  C1  UNL d   1      -0.132  -1.946  -2.557  0.00  0.00     0.039 A 
ATOM      3  C2  UNL d   1      -0.290  -0.707  -1.932  0.00  0.00    -0.080 A 
ATOM      4  C3  UNL d   1      -0.515  -0.659  -0.559  0.00  0.00     0.150 A 
ATOM      5  C4  UNL d   1      -0.582  -1.827   0.194  0.00  0.00    -0.007 A 
ATOM      6  C5  UNL d   1      -0.425  -3.063  -0.433  0.00  0.00     0.039 A 
ENDROOT
BRANCH   4   7
ATOM      7  O   UNL d   1      -0.680   0.525   0.095  0.00  0.00    -0.526 OA
ATOM      8  H5  UNL d   1      -0.638   1.245  -0.557  0.00  0.00     0.418 HD
ENDBRANCH   4   7
TORSDOF 1
ENDMDL
