MODEL 1
REMARK minimizedAffinity -2.41858411
REMARK minimizedRMSD -1
REMARK  1 active torsions:
REMARK  status: ('A' for Active; 'I' for Inactive)
REMARK    1  A    between atoms: C3_4  and  O_7 
ROOT
ATOM      1  C   UNL d   1       0.375  -3.384  -0.438  0.00  0.00    -0.033 A 
ATOM      2  C1  UNL d   1       1.123  -2.625   0.463  0.00  0.00     0.039 A 
ATOM      3  C2  UNL d   1       0.750  -1.311   0.750  0.00  0.00    -0.080 A 
ATOM      4  C3  UNL d   1      -0.373  -0.769   0.130  0.00  0.00     0.150 A 
ATOM      5  C4  UNL d   1      -1.125  -1.521  -0.766  0.00  0.00    -0.007 A 
ATOM      6  C5  UNL d   1      -0.750  -2.833  -1.052  0.00  0.00     0.039 A 
ENDROOT
BRANCH   4   7
ATOM      7  O   UNL d   1      -0.773   0.511   0.375  0.00  0.00    -0.526 OA
ATOM      8  H5  UNL d   1      -0.142   0.919   0.992  0.00  0.00     0.418 HD
ENDBRANCH   4   7
TORSDOF 1
ENDMDL
