MODEL 1
REMARK minimizedAffinity 2.24445295
REMARK minimizedRMSD -1
REMARK  0 active torsions:
REMARK  status: ('A' for Active; 'I' for Inactive)
ROOT
ATOM      1  C2' OXE d   1      -3.281  -5.774  -3.228  0.00  0.00     0.078 C 
ATOM      2  C1' OXE d   1      -1.108  -4.549  -1.939  0.00  0.00     0.078 C 
ATOM      3  C1  OXE d   1      -0.922  -4.986  -3.371  0.00  0.00    -0.078 A 
ATOM      4  C2  OXE d   1      -1.975  -5.626  -3.979  0.00  0.00    -0.078 A 
ATOM      5  C3  OXE d   1      -1.875  -6.000  -5.316  0.00  0.00     0.003 A 
ATOM      6  C4  OXE d   1      -0.661  -5.869  -6.000  0.00  0.00    -0.002 A 
ATOM      7  C5  OXE d   1       0.437  -5.255  -5.387  0.00  0.00    -0.002 A 
ATOM      8  C6  OXE d   1       0.310  -4.770  -4.089  0.00  0.00     0.003 A 
ENDROOT
TORSDOF 0
ENDMDL
