MODEL 1
REMARK minimizedAffinity 1.27440035
REMARK minimizedRMSD -1
REMARK  0 active torsions:
REMARK  status: ('A' for Active; 'I' for Inactive)
ROOT
ATOM      1  C2' OXE d   1      -2.331  -5.958  -2.971  0.00  0.00     0.078 C 
ATOM      2  C1' OXE d   1       0.177  -5.960  -1.711  0.00  0.00     0.078 C 
ATOM      3  C1  OXE d   1       0.148  -5.954  -3.219  0.00  0.00    -0.078 A 
ATOM      4  C2  OXE d   1      -1.083  -6.000  -3.827  0.00  0.00    -0.078 A 
ATOM      5  C3  OXE d   1      -1.169  -5.940  -5.215  0.00  0.00     0.003 A 
ATOM      6  C4  OXE d   1      -0.010  -5.989  -6.000  0.00  0.00    -0.002 A 
ATOM      7  C5  OXE d   1       1.254  -5.983  -5.400  0.00  0.00    -0.002 A 
ATOM      8  C6  OXE d   1       1.350  -5.922  -4.014  0.00  0.00     0.003 A 
ENDROOT
TORSDOF 0
ENDMDL
