MODEL 1
REMARK minimizedAffinity 0.868911207
REMARK minimizedRMSD -1
REMARK  0 active torsions:
REMARK  status: ('A' for Active; 'I' for Inactive)
ROOT
ATOM      1  C2' OXE d   1      -0.632  -5.945  -1.684  0.00  0.00     0.078 C 
ATOM      2  C1' OXE d   1      -2.958  -5.998  -3.255  0.00  0.00     0.078 C 
ATOM      3  C1  OXE d   1      -1.629  -5.969  -3.967  0.00  0.00    -0.078 A 
ATOM      4  C2  OXE d   1      -0.497  -5.896  -3.191  0.00  0.00    -0.078 A 
ATOM      5  C3  OXE d   1       0.756  -5.922  -3.796  0.00  0.00     0.003 A 
ATOM      6  C4  OXE d   1       0.872  -5.866  -5.190  0.00  0.00    -0.002 A 
ATOM      7  C5  OXE d   1      -0.269  -5.900  -5.999  0.00  0.00    -0.002 A 
ATOM      8  C6  OXE d   1      -1.523  -5.994  -5.405  0.00  0.00     0.003 A 
ENDROOT
TORSDOF 0
ENDMDL
