MODEL 1
REMARK minimizedAffinity 5.41070414
REMARK minimizedRMSD -1
REMARK  0 active torsions:
REMARK  status: ('A' for Active; 'I' for Inactive)
ROOT
ATOM      1  C2' OXE d   1       1.990   1.416  -0.029  0.00  0.00     0.078 C 
ATOM      2  C1' OXE d   1      -0.069   0.345  -1.610  0.00  0.00     0.078 C 
ATOM      3  C1  OXE d   1       0.398  -0.460  -0.423  0.00  0.00    -0.078 A 
ATOM      4  C2  OXE d   1       1.438   0.050   0.317  0.00  0.00    -0.078 A 
ATOM      5  C3  OXE d   1       1.871  -0.626   1.454  0.00  0.00     0.003 A 
ATOM      6  C4  OXE d   1       1.362  -1.894   1.762  0.00  0.00    -0.002 A 
ATOM      7  C5  OXE d   1       0.330  -2.449   0.998  0.00  0.00    -0.002 A 
ATOM      8  C6  OXE d   1      -0.191  -1.728  -0.071  0.00  0.00     0.003 A 
ENDROOT
TORSDOF 0
ENDMDL
