MODEL 1
REMARK minimizedAffinity 4.29626083
REMARK minimizedRMSD -1
REMARK  0 active torsions:
REMARK  status: ('A' for Active; 'I' for Inactive)
ROOT
ATOM      1  C2' OXE d   1       5.991   1.855  -1.744  0.00  0.00     0.078 C 
ATOM      2  C1' OXE d   1       5.992   4.494  -0.788  0.00  0.00     0.078 C 
ATOM      3  C1  OXE d   1       4.737   3.680  -0.602  0.00  0.00    -0.078 A 
ATOM      4  C2  OXE d   1       4.729   2.405  -1.115  0.00  0.00    -0.078 A 
ATOM      5  C3  OXE d   1       3.616   1.591  -0.923  0.00  0.00     0.003 A 
ATOM      6  C4  OXE d   1       2.449   2.111  -0.349  0.00  0.00    -0.002 A 
ATOM      7  C5  OXE d   1       2.422   3.420   0.144  0.00  0.00    -0.002 A 
ATOM      8  C6  OXE d   1       3.569   4.202   0.063  0.00  0.00     0.003 A 
ENDROOT
TORSDOF 0
ENDMDL
