MODEL 1
REMARK minimizedAffinity 0.407926351
REMARK minimizedRMSD -1
REMARK  0 active torsions:
REMARK  status: ('A' for Active; 'I' for Inactive)
ROOT
ATOM      1  C2' OXE d   1       1.156  -5.944  -3.269  0.00  0.00     0.078 C 
ATOM      2  C1' OXE d   1       0.475  -5.968  -5.992  0.00  0.00     0.078 C 
ATOM      3  C1  OXE d   1      -0.649  -5.960  -4.986  0.00  0.00    -0.078 A 
ATOM      4  C2  OXE d   1      -0.307  -5.996  -3.656  0.00  0.00    -0.078 A 
ATOM      5  C3  OXE d   1      -1.303  -5.935  -2.686  0.00  0.00     0.003 A 
ATOM      6  C4  OXE d   1      -2.653  -5.994  -3.052  0.00  0.00    -0.002 A 
ATOM      7  C5  OXE d   1      -3.023  -5.998  -4.401  0.00  0.00    -0.002 A 
ATOM      8  C6  OXE d   1      -2.036  -5.939  -5.379  0.00  0.00     0.003 A 
ENDROOT
TORSDOF 0
ENDMDL
