MODEL 1
REMARK minimizedAffinity 3.07162571
REMARK minimizedRMSD -1
REMARK  0 active torsions:
REMARK  status: ('A' for Active; 'I' for Inactive)
ROOT
ATOM      1  C2' OXE d   1      -2.040  -5.663  -3.079  0.00  0.00     0.078 C 
ATOM      2  C1' OXE d   1       0.386  -5.985  -1.705  0.00  0.00     0.078 C 
ATOM      3  C1  OXE d   1       0.434  -5.923  -3.211  0.00  0.00    -0.078 A 
ATOM      4  C2  OXE d   1      -0.763  -5.812  -3.878  0.00  0.00    -0.078 A 
ATOM      5  C3  OXE d   1      -0.772  -5.695  -5.265  0.00  0.00     0.003 A 
ATOM      6  C4  OXE d   1       0.413  -5.844  -5.996  0.00  0.00    -0.002 A 
ATOM      7  C5  OXE d   1       1.638  -5.997  -5.339  0.00  0.00    -0.002 A 
ATOM      8  C6  OXE d   1       1.671  -5.996  -3.949  0.00  0.00     0.003 A 
ENDROOT
TORSDOF 0
ENDMDL
