MODEL 1
REMARK minimizedAffinity -2.0276444
REMARK minimizedRMSD -1
REMARK  0 active torsions:
REMARK  status: ('A' for Active; 'I' for Inactive)
ROOT
ATOM      1  C2' OXE d   1      -0.500  -5.999  -1.630  0.00  0.00     0.078 C 
ATOM      2  C1' OXE d   1      -2.999  -5.979  -2.909  0.00  0.00     0.078 C 
ATOM      3  C1  OXE d   1      -1.765  -5.981  -3.776  0.00  0.00    -0.078 A 
ATOM      4  C2  OXE d   1      -0.547  -5.944  -3.142  0.00  0.00    -0.078 A 
ATOM      5  C3  OXE d   1       0.624  -6.000  -3.893  0.00  0.00     0.003 A 
ATOM      6  C4  OXE d   1       0.572  -5.938  -5.291  0.00  0.00    -0.002 A 
ATOM      7  C5  OXE d   1      -0.658  -5.935  -5.956  0.00  0.00    -0.002 A 
ATOM      8  C6  OXE d   1      -1.833  -5.999  -5.216  0.00  0.00     0.003 A 
ENDROOT
TORSDOF 0
ENDMDL
