MODEL 1
REMARK minimizedAffinity -1.6693486
REMARK minimizedRMSD -1
REMARK  0 active torsions:
REMARK  status: ('A' for Active; 'I' for Inactive)
ROOT
ATOM      1  C2' OXE d   1      -2.620  -5.980  -2.900  0.00  0.00     0.078 C 
ATOM      2  C1' OXE d   1      -0.075  -5.999  -1.716  0.00  0.00     0.078 C 
ATOM      3  C1  OXE d   1      -0.150  -5.954  -3.222  0.00  0.00    -0.078 A 
ATOM      4  C2  OXE d   1      -1.399  -5.992  -3.794  0.00  0.00    -0.078 A 
ATOM      5  C3  OXE d   1      -1.527  -5.899  -5.177  0.00  0.00     0.003 A 
ATOM      6  C4  OXE d   1      -0.392  -5.921  -5.997  0.00  0.00    -0.002 A 
ATOM      7  C5  OXE d   1       0.889  -5.922  -5.435  0.00  0.00    -0.002 A 
ATOM      8  C6  OXE d   1       1.027  -5.895  -4.052  0.00  0.00     0.003 A 
ENDROOT
TORSDOF 0
ENDMDL
