MODEL 1
REMARK minimizedAffinity 3.61399627
REMARK minimizedRMSD -1
REMARK  0 active torsions:
REMARK  status: ('A' for Active; 'I' for Inactive)
ROOT
ATOM      1  C2' OXE d   1       1.173   0.859   0.415  0.00  0.00     0.078 C 
ATOM      2  C1' OXE d   1      -0.685  -0.306  -1.336  0.00  0.00     0.078 C 
ATOM      3  C1  OXE d   1      -0.142  -1.159  -0.218  0.00  0.00    -0.078 A 
ATOM      4  C2  OXE d   1       0.802  -0.595   0.606  0.00  0.00    -0.078 A 
ATOM      5  C3  OXE d   1       1.296  -1.321   1.687  0.00  0.00     0.003 A 
ATOM      6  C4  OXE d   1       0.955  -2.669   1.851  0.00  0.00    -0.002 A 
ATOM      7  C5  OXE d   1       0.025  -3.275   0.999  0.00  0.00    -0.002 A 
ATOM      8  C6  OXE d   1      -0.564  -2.523  -0.012  0.00  0.00     0.003 A 
ENDROOT
TORSDOF 0
ENDMDL
