MODEL 1
REMARK minimizedAffinity 5.21208715
REMARK minimizedRMSD -1
REMARK  0 active torsions:
REMARK  status: ('A' for Active; 'I' for Inactive)
ROOT
ATOM      1  C2' OXE d   1       3.972  -0.076   3.369  0.00  0.00     0.078 C 
ATOM      2  C1' OXE d   1       1.691  -1.548   4.084  0.00  0.00     0.078 C 
ATOM      3  C1  OXE d   1       1.724  -0.924   2.711  0.00  0.00    -0.078 A 
ATOM      4  C2  OXE d   1       2.824  -0.166   2.387  0.00  0.00    -0.078 A 
ATOM      5  C3  OXE d   1       2.929   0.386   1.114  0.00  0.00     0.003 A 
ATOM      6  C4  OXE d   1       1.858   0.306   0.216  0.00  0.00    -0.002 A 
ATOM      7  C5  OXE d   1       0.712  -0.427   0.541  0.00  0.00    -0.002 A 
ATOM      8  C6  OXE d   1       0.647  -1.083   1.765  0.00  0.00     0.003 A 
ENDROOT
TORSDOF 0
ENDMDL
