MODEL 1
REMARK minimizedAffinity -2.27235985
REMARK minimizedRMSD -1
REMARK  0 active torsions:
REMARK  status: ('A' for Active; 'I' for Inactive)
ROOT
ATOM      1  C2' OXE d   1      -1.646  -5.998  -1.896  0.00  0.00     0.078 C 
ATOM      2  C1' OXE d   1      -3.455  -5.973  -4.042  0.00  0.00     0.078 C 
ATOM      3  C1  OXE d   1      -1.981  -5.977  -4.364  0.00  0.00    -0.078 A 
ATOM      4  C2  OXE d   1      -1.103  -5.942  -3.308  0.00  0.00    -0.078 A 
ATOM      5  C3  OXE d   1       0.267  -6.000  -3.548  0.00  0.00     0.003 A 
ATOM      6  C4  OXE d   1       0.760  -5.937  -4.857  0.00  0.00    -0.002 A 
ATOM      7  C5  OXE d   1      -0.117  -5.932  -5.946  0.00  0.00    -0.002 A 
ATOM      8  C6  OXE d   1      -1.487  -5.994  -5.719  0.00  0.00     0.003 A 
ENDROOT
TORSDOF 0
ENDMDL
