MODEL 1
REMARK minimizedAffinity 3.66479421
REMARK minimizedRMSD -1
REMARK  0 active torsions:
REMARK  status: ('A' for Active; 'I' for Inactive)
ROOT
ATOM      1  C2' OXE d   1      -2.873  -5.704  -2.317  0.00  0.00     0.078 C 
ATOM      2  C1' OXE d   1      -0.171  -4.950  -2.221  0.00  0.00     0.078 C 
ATOM      3  C1  OXE d   1      -0.757  -5.296  -3.566  0.00  0.00    -0.078 A 
ATOM      4  C2  OXE d   1      -2.068  -5.709  -3.598  0.00  0.00    -0.078 A 
ATOM      5  C3  OXE d   1      -2.673  -5.988  -4.820  0.00  0.00     0.003 A 
ATOM      6  C4  OXE d   1      -1.918  -6.000  -5.999  0.00  0.00    -0.002 A 
ATOM      7  C5  OXE d   1      -0.572  -5.621  -5.984  0.00  0.00    -0.002 A 
ATOM      8  C6  OXE d   1       0.011  -5.226  -4.785  0.00  0.00     0.003 A 
ENDROOT
TORSDOF 0
ENDMDL
