MODEL 1
REMARK minimizedAffinity -3.34991288
REMARK minimizedRMSD -1
REMARK  0 active torsions:
REMARK  status: ('A' for Active; 'I' for Inactive)
ROOT
ATOM      1  C2' OXE d   1      -3.800  -5.983  -3.391  0.00  0.00     0.078 C 
ATOM      2  C1' OXE d   1      -1.532  -5.900  -1.738  0.00  0.00     0.078 C 
ATOM      3  C1  OXE d   1      -1.315  -5.912  -3.231  0.00  0.00    -0.078 A 
ATOM      4  C2  OXE d   1      -2.429  -6.000  -4.031  0.00  0.00    -0.078 A 
ATOM      5  C3  OXE d   1      -2.288  -5.959  -5.415  0.00  0.00     0.003 A 
ATOM      6  C4  OXE d   1      -1.016  -5.985  -5.999  0.00  0.00    -0.002 A 
ATOM      7  C5  OXE d   1       0.133  -5.936  -5.202  0.00  0.00    -0.002 A 
ATOM      8  C6  OXE d   1      -0.000  -5.856  -3.820  0.00  0.00     0.003 A 
ENDROOT
TORSDOF 0
ENDMDL
