MODEL 1
REMARK minimizedAffinity -1.57027006
REMARK minimizedRMSD -1
REMARK  0 active torsions:
REMARK  status: ('A' for Active; 'I' for Inactive)
ROOT
ATOM      1  C2' OXE d   1      -1.745  -5.993  -1.754  0.00  0.00     0.078 C 
ATOM      2  C1' OXE d   1      -3.751  -5.940  -3.717  0.00  0.00     0.078 C 
ATOM      3  C1  OXE d   1      -2.315  -5.954  -4.179  0.00  0.00    -0.078 A 
ATOM      4  C2  OXE d   1      -1.340  -5.933  -3.211  0.00  0.00    -0.078 A 
ATOM      5  C3  OXE d   1       0.000  -6.000  -3.582  0.00  0.00     0.003 A 
ATOM      6  C4  OXE d   1       0.367  -5.933  -4.932  0.00  0.00    -0.002 A 
ATOM      7  C5  OXE d   1      -0.611  -5.914  -5.932  0.00  0.00    -0.002 A 
ATOM      8  C6  OXE d   1      -1.953  -5.967  -5.575  0.00  0.00     0.003 A 
ENDROOT
TORSDOF 0
ENDMDL
