MODEL 1
REMARK minimizedAffinity 1.5128032
REMARK minimizedRMSD -1
REMARK  0 active torsions:
REMARK  status: ('A' for Active; 'I' for Inactive)
ROOT
ATOM      1  C2' OXE d   1      -3.163  -5.970   2.386  0.00  0.00     0.078 C 
ATOM      2  C1' OXE d   1      -5.970  -5.970   2.403  0.00  0.00     0.078 C 
ATOM      3  C1  OXE d   1      -5.275  -5.967   1.064  0.00  0.00    -0.078 A 
ATOM      4  C2  OXE d   1      -3.902  -5.920   1.066  0.00  0.00    -0.078 A 
ATOM      5  C3  OXE d   1      -3.209  -5.972  -0.141  0.00  0.00     0.003 A 
ATOM      6  C4  OXE d   1      -3.900  -5.915  -1.357  0.00  0.00    -0.002 A 
ATOM      7  C5  OXE d   1      -5.298  -5.922  -1.381  0.00  0.00    -0.002 A 
ATOM      8  C6  OXE d   1      -6.000  -5.991  -0.182  0.00  0.00     0.003 A 
ENDROOT
TORSDOF 0
ENDMDL
