MODEL 1
REMARK minimizedAffinity 1.32664287
REMARK minimizedRMSD -1
REMARK  0 active torsions:
REMARK  status: ('A' for Active; 'I' for Inactive)
ROOT
ATOM      1  C2' OXE d   1      -3.042  -5.725  -2.709  0.00  0.00     0.078 C 
ATOM      2  C1' OXE d   1      -0.495  -4.891  -1.872  0.00  0.00     0.078 C 
ATOM      3  C1  OXE d   1      -0.675  -5.254  -3.325  0.00  0.00    -0.078 A 
ATOM      4  C2  OXE d   1      -1.913  -5.705  -3.716  0.00  0.00    -0.078 A 
ATOM      5  C3  OXE d   1      -2.147  -6.000  -5.056  0.00  0.00     0.003 A 
ATOM      6  C4  OXE d   1      -1.094  -5.989  -5.979  0.00  0.00    -0.002 A 
ATOM      7  C5  OXE d   1       0.184  -5.570  -5.593  0.00  0.00    -0.002 A 
ATOM      8  C6  OXE d   1       0.399  -5.160  -4.283  0.00  0.00     0.003 A 
ENDROOT
TORSDOF 0
ENDMDL
