MODEL 1
REMARK minimizedAffinity -1.76347303
REMARK minimizedRMSD -1
REMARK  0 active torsions:
REMARK  status: ('A' for Active; 'I' for Inactive)
ROOT
ATOM      1  C2' OXE d   1       0.091  -5.984  -2.268  0.00  0.00     0.078 C 
ATOM      2  C1' OXE d   1       1.502  -5.746  -4.683  0.00  0.00     0.078 C 
ATOM      3  C1  OXE d   1      -0.003  -5.816  -4.751  0.00  0.00    -0.078 A 
ATOM      4  C2  OXE d   1      -0.683  -5.979  -3.568  0.00  0.00    -0.078 A 
ATOM      5  C3  OXE d   1      -2.075  -5.994  -3.569  0.00  0.00     0.003 A 
ATOM      6  C4  OXE d   1      -2.783  -6.000  -4.777  0.00  0.00    -0.002 A 
ATOM      7  C5  OXE d   1      -2.108  -5.874  -5.996  0.00  0.00    -0.002 A 
ATOM      8  C6  OXE d   1      -0.724  -5.739  -5.998  0.00  0.00     0.003 A 
ENDROOT
TORSDOF 0
ENDMDL
