MODEL 1
REMARK minimizedAffinity -0.125587538
REMARK minimizedRMSD -1
REMARK  0 active torsions:
REMARK  status: ('A' for Active; 'I' for Inactive)
ROOT
ATOM      1  C2' OXE d   1       0.913  -5.977  -2.236  0.00  0.00     0.078 C 
ATOM      2  C1' OXE d   1      -1.894  -5.999  -2.212  0.00  0.00     0.078 C 
ATOM      3  C1  OXE d   1      -1.203  -5.979  -3.552  0.00  0.00    -0.078 A 
ATOM      4  C2  OXE d   1       0.170  -5.921  -3.554  0.00  0.00    -0.078 A 
ATOM      5  C3  OXE d   1       0.860  -5.956  -4.762  0.00  0.00     0.003 A 
ATOM      6  C4  OXE d   1       0.166  -5.894  -5.977  0.00  0.00    -0.002 A 
ATOM      7  C5  OXE d   1      -1.233  -5.912  -5.997  0.00  0.00    -0.002 A 
ATOM      8  C6  OXE d   1      -1.930  -5.997  -4.797  0.00  0.00     0.003 A 
ENDROOT
TORSDOF 0
ENDMDL
