MODEL 1
REMARK minimizedAffinity 1.30321157
REMARK minimizedRMSD -1
REMARK  0 active torsions:
REMARK  status: ('A' for Active; 'I' for Inactive)
ROOT
ATOM      1  C2' OXE d   1      -5.309  -0.717   0.992  0.00  0.00     0.078 C 
ATOM      2  C1' OXE d   1      -3.444   1.379   0.920  0.00  0.00     0.078 C 
ATOM      3  C1  OXE d   1      -4.171   1.040  -0.358  0.00  0.00    -0.078 A 
ATOM      4  C2  OXE d   1      -5.048  -0.018  -0.324  0.00  0.00    -0.078 A 
ATOM      5  C3  OXE d   1      -5.785  -0.338  -1.461  0.00  0.00     0.003 A 
ATOM      6  C4  OXE d   1      -5.530   0.308  -2.677  0.00  0.00    -0.002 A 
ATOM      7  C5  OXE d   1      -4.612   1.362  -2.742  0.00  0.00    -0.002 A 
ATOM      8  C6  OXE d   1      -3.957   1.767  -1.584  0.00  0.00     0.003 A 
ENDROOT
TORSDOF 0
ENDMDL
