MODEL 1
REMARK minimizedAffinity 8.32044125
REMARK minimizedRMSD -1
REMARK  0 active torsions:
REMARK  status: ('A' for Active; 'I' for Inactive)
ROOT
ATOM      1  N1  IND d   1       0.205  -4.398   5.874  0.00  0.00    -0.196 N 
ATOM      2  C2  IND d   1       0.674  -5.682   5.881  0.00  0.00     0.054 A 
ATOM      3  C3  IND d   1       1.197  -5.999   4.676  0.00  0.00    -0.031 A 
ATOM      4  C4  IND d   1       1.479  -4.532   2.579  0.00  0.00     0.051 A 
ATOM      5  C5  IND d   1       1.171  -3.299   2.078  0.00  0.00    -0.031 A 
ATOM      6  C6  IND d   1       0.513  -2.349   2.832  0.00  0.00     0.015 A 
ATOM      7  C7  IND d   1       0.149  -2.594   4.126  0.00  0.00    -0.016 A 
ATOM      8  C8  IND d   1       0.454  -3.848   4.636  0.00  0.00    -0.047 A 
ATOM      9  C9  IND d   1       1.083  -4.831   3.861  0.00  0.00    -0.096 A 
ATOM     10  HN1 IND d   1      -0.181  -4.001   6.532  0.00  0.00     0.298 HD
ENDROOT
TORSDOF 0
ENDMDL
