MODEL 1
REMARK minimizedAffinity 6.19267702
REMARK minimizedRMSD -1
REMARK  0 active torsions:
REMARK  status: ('A' for Active; 'I' for Inactive)
ROOT
ATOM      1  N1  IND d   1       3.902   5.136  -4.573  0.00  0.00    -0.196 N 
ATOM      2  C2  IND d   1       5.074   5.565  -5.131  0.00  0.00     0.054 A 
ATOM      3  C3  IND d   1       5.925   5.989  -4.170  0.00  0.00    -0.031 A 
ATOM      4  C4  IND d   1       5.642   5.974  -1.611  0.00  0.00     0.051 A 
ATOM      5  C5  IND d   1       4.728   5.708  -0.630  0.00  0.00    -0.031 A 
ATOM      6  C6  IND d   1       3.468   5.226  -0.919  0.00  0.00     0.015 A 
ATOM      7  C7  IND d   1       3.077   4.979  -2.205  0.00  0.00    -0.016 A 
ATOM      8  C8  IND d   1       3.999   5.255  -3.204  0.00  0.00    -0.047 A 
ATOM      9  C9  IND d   1       5.265   5.784  -2.920  0.00  0.00    -0.096 A 
ATOM     10  HN1 IND d   1       3.219   4.842  -5.005  0.00  0.00     0.298 HD
ENDROOT
TORSDOF 0
ENDMDL
