MODEL 1
REMARK minimizedAffinity 6.71722317
REMARK minimizedRMSD -1
REMARK  0 active torsions:
REMARK  status: ('A' for Active; 'I' for Inactive)
ROOT
ATOM      1  N1  IND d   1       0.659  -1.746   3.303  0.00  0.00    -0.196 N 
ATOM      2  C2  IND d   1       1.177  -3.011   3.261  0.00  0.00     0.054 A 
ATOM      3  C3  IND d   1       2.196  -3.072   2.375  0.00  0.00    -0.031 A 
ATOM      4  C4  IND d   1       3.251  -1.197   0.962  0.00  0.00     0.051 A 
ATOM      5  C5  IND d   1       3.097   0.121   0.633  0.00  0.00    -0.031 A 
ATOM      6  C6  IND d   1       2.104   0.900   1.191  0.00  0.00     0.015 A 
ATOM      7  C7  IND d   1       1.232   0.391   2.111  0.00  0.00    -0.016 A 
ATOM      8  C8  IND d   1       1.380  -0.948   2.442  0.00  0.00    -0.047 A 
ATOM      9  C9  IND d   1       2.359  -1.755   1.847  0.00  0.00    -0.096 A 
ATOM     10  HN1 IND d   1      -0.005  -1.491   3.786  0.00  0.00     0.298 HD
ENDROOT
TORSDOF 0
ENDMDL
