MODEL 1
REMARK minimizedAffinity 4.01098299
REMARK minimizedRMSD -1
REMARK  0 active torsions:
REMARK  status: ('A' for Active; 'I' for Inactive)
ROOT
ATOM      1  N1  IND d   1       0.665  -1.285   4.499  0.00  0.00    -0.196 N 
ATOM      2  C2  IND d   1       0.708  -2.628   4.750  0.00  0.00     0.054 A 
ATOM      3  C3  IND d   1       0.991  -3.309   3.617  0.00  0.00    -0.031 A 
ATOM      4  C4  IND d   1       1.522  -2.416   1.261  0.00  0.00     0.051 A 
ATOM      5  C5  IND d   1       1.569  -1.261   0.532  0.00  0.00    -0.031 A 
ATOM      6  C6  IND d   1       1.315  -0.030   1.100  0.00  0.00     0.015 A 
ATOM      7  C7  IND d   1       1.014   0.094   2.427  0.00  0.00    -0.016 A 
ATOM      8  C8  IND d   1       0.958  -1.077   3.169  0.00  0.00    -0.047 A 
ATOM      9  C9  IND d   1       1.173  -2.334   2.588  0.00  0.00    -0.096 A 
ATOM     10  HN1 IND d   1       0.486  -0.672   5.075  0.00  0.00     0.298 HD
ENDROOT
TORSDOF 0
ENDMDL
