MODEL 1
REMARK minimizedAffinity 1.60992825
REMARK minimizedRMSD -1
REMARK  0 active torsions:
REMARK  status: ('A' for Active; 'I' for Inactive)
ROOT
ATOM      1  N1  IND d   1       1.469   1.296   3.433  0.00  0.00    -0.196 N 
ATOM      2  C2  IND d   1       1.340   1.284   4.793  0.00  0.00     0.054 A 
ATOM      3  C3  IND d   1       1.434   0.020   5.263  0.00  0.00    -0.031 A 
ATOM      4  C4  IND d   1       1.901  -2.168   3.989  0.00  0.00     0.051 A 
ATOM      5  C5  IND d   1       2.054  -2.667   2.726  0.00  0.00    -0.031 A 
ATOM      6  C6  IND d   1       2.023  -1.854   1.612  0.00  0.00     0.015 A 
ATOM      7  C7  IND d   1       1.847  -0.503   1.720  0.00  0.00    -0.016 A 
ATOM      8  C8  IND d   1       1.684   0.006   3.001  0.00  0.00    -0.047 A 
ATOM      9  C9  IND d   1       1.672  -0.820   4.132  0.00  0.00    -0.096 A 
ATOM     10  HN1 IND d   1       1.424   1.993   2.931  0.00  0.00     0.298 HD
ENDROOT
TORSDOF 0
ENDMDL
