MODEL 1
REMARK minimizedAffinity 4.32718229
REMARK minimizedRMSD -1
REMARK  0 active torsions:
REMARK  status: ('A' for Active; 'I' for Inactive)
ROOT
ATOM      1  N1  IND d   1       0.219  -1.563   5.232  0.00  0.00    -0.196 N 
ATOM      2  C2  IND d   1       0.602  -2.634   5.990  0.00  0.00     0.054 A 
ATOM      3  C3  IND d   1       1.601  -3.309   5.379  0.00  0.00    -0.031 A 
ATOM      4  C4  IND d   1       2.831  -2.776   3.181  0.00  0.00     0.051 A 
ATOM      5  C5  IND d   1       2.811  -1.920   2.116  0.00  0.00    -0.031 A 
ATOM      6  C6  IND d   1       1.910  -0.878   2.035  0.00  0.00     0.015 A 
ATOM      7  C7  IND d   1       0.998  -0.646   3.026  0.00  0.00    -0.016 A 
ATOM      8  C8  IND d   1       1.011  -1.518   4.105  0.00  0.00    -0.047 A 
ATOM      9  C9  IND d   1       1.895  -2.602   4.173  0.00  0.00    -0.096 A 
ATOM     10  HN1 IND d   1      -0.411  -1.010   5.426  0.00  0.00     0.298 HD
ENDROOT
TORSDOF 0
ENDMDL
