MODEL 1
REMARK minimizedAffinity -0.0975775048
REMARK minimizedRMSD -1
REMARK  0 active torsions:
REMARK  status: ('A' for Active; 'I' for Inactive)
ROOT
ATOM      1  C1  BNZ d   1       0.167  -1.254   2.379  0.00  0.00     0.000 A 
ATOM      2  C2  BNZ d   1      -1.056  -0.666   2.195  0.00  0.00     0.000 A 
ATOM      3  C3  BNZ d   1      -1.447  -0.237   0.958  0.00  0.00     0.000 A 
ATOM      4  C4  BNZ d   1      -0.600  -0.359  -0.085  0.00  0.00     0.000 A 
ATOM      5  C5  BNZ d   1       0.640  -0.941   0.087  0.00  0.00     0.000 A 
ATOM      6  C6  BNZ d   1       1.015  -1.408   1.326  0.00  0.00     0.000 A 
ENDROOT
TORSDOF 0
ENDMDL
