MODEL 1
REMARK minimizedAffinity -3.7329843
REMARK minimizedRMSD -1
REMARK  0 active torsions:
REMARK  status: ('A' for Active; 'I' for Inactive)
ROOT
ATOM      1  C1  BNZ d   1      -0.788  -0.575   1.779  0.00  0.00     0.000 A 
ATOM      2  C2  BNZ d   1      -1.471  -0.150   0.671  0.00  0.00     0.000 A 
ATOM      3  C3  BNZ d   1      -0.803   0.299  -0.434  0.00  0.00     0.000 A 
ATOM      4  C4  BNZ d   1       0.544   0.360  -0.415  0.00  0.00     0.000 A 
ATOM      5  C5  BNZ d   1       1.247  -0.056   0.699  0.00  0.00     0.000 A 
ATOM      6  C6  BNZ d   1       0.573  -0.544   1.794  0.00  0.00     0.000 A 
ENDROOT
TORSDOF 0
ENDMDL
