MODEL 1
REMARK minimizedAffinity -1.50265813
REMARK minimizedRMSD -1
REMARK  0 active torsions:
REMARK  status: ('A' for Active; 'I' for Inactive)
ROOT
ATOM      1  C1  BNZ d   1       1.153   4.902   3.797  0.00  0.00     0.000 A 
ATOM      2  C2  BNZ d   1       2.309   5.463   3.322  0.00  0.00     0.000 A 
ATOM      3  C3  BNZ d   1       3.233   5.993   4.178  0.00  0.00     0.000 A 
ATOM      4  C4  BNZ d   1       2.983   5.999   5.503  0.00  0.00     0.000 A 
ATOM      5  C5  BNZ d   1       1.818   5.446   5.997  0.00  0.00     0.000 A 
ATOM      6  C6  BNZ d   1       0.908   4.878   5.136  0.00  0.00     0.000 A 
ENDROOT
TORSDOF 0
ENDMDL
