MODEL 1
REMARK minimizedAffinity 0.194245934
REMARK minimizedRMSD -1
REMARK  0 active torsions:
REMARK  status: ('A' for Active; 'I' for Inactive)
ROOT
ATOM      1  C1  BNZ d   1      -0.822  -0.603   1.115  0.00  0.00     0.000 A 
ATOM      2  C2  BNZ d   1      -0.194  -0.976  -0.043  0.00  0.00     0.000 A 
ATOM      3  C3  BNZ d   1       1.158  -1.174  -0.074  0.00  0.00     0.000 A 
ATOM      4  C4  BNZ d   1       1.885  -0.960   1.042  0.00  0.00     0.000 A 
ATOM      5  C5  BNZ d   1       1.268  -0.575   2.215  0.00  0.00     0.000 A 
ATOM      6  C6  BNZ d   1      -0.098  -0.415   2.253  0.00  0.00     0.000 A 
ENDROOT
TORSDOF 0
ENDMDL
