MODEL 1
REMARK minimizedAffinity 0.873573065
REMARK minimizedRMSD -1
REMARK  0 active torsions:
REMARK  status: ('A' for Active; 'I' for Inactive)
ROOT
ATOM      1  C1  BNZ d   1       1.032   5.908   3.637  0.00  0.00     0.000 A 
ATOM      2  C2  BNZ d   1       2.401   5.935   3.656  0.00  0.00     0.000 A 
ATOM      3  C3  BNZ d   1       3.085   5.959   4.839  0.00  0.00     0.000 A 
ATOM      4  C4  BNZ d   1       2.399   5.998   6.000  0.00  0.00     0.000 A 
ATOM      5  C5  BNZ d   1       1.019   5.981   5.997  0.00  0.00     0.000 A 
ATOM      6  C6  BNZ d   1       0.334   5.917   4.805  0.00  0.00     0.000 A 
ENDROOT
TORSDOF 0
ENDMDL
