MODEL 1
REMARK minimizedAffinity 3.81542993
REMARK minimizedRMSD -1
REMARK  0 active torsions:
REMARK  status: ('A' for Active; 'I' for Inactive)
ROOT
ATOM      1  C1  BNZ d   1      -0.720  -0.396   1.653  0.00  0.00     0.000 A 
ATOM      2  C2  BNZ d   1       0.097  -1.094   2.502  0.00  0.00     0.000 A 
ATOM      3  C3  BNZ d   1       1.292  -1.596   2.068  0.00  0.00     0.000 A 
ATOM      4  C4  BNZ d   1       1.650  -1.434   0.778  0.00  0.00     0.000 A 
ATOM      5  C5  BNZ d   1       0.834  -0.740  -0.092  0.00  0.00     0.000 A 
ATOM      6  C6  BNZ d   1      -0.350  -0.203   0.358  0.00  0.00     0.000 A 
ENDROOT
TORSDOF 0
ENDMDL
