MODEL 1
REMARK minimizedAffinity -2.00383902
REMARK minimizedRMSD -1
REMARK  0 active torsions:
REMARK  status: ('A' for Active; 'I' for Inactive)
ROOT
ATOM      1  C1  BNZ d   1       4.163   5.998   4.097  0.00  0.00     0.000 A 
ATOM      2  C2  BNZ d   1       3.604   5.998   5.347  0.00  0.00     0.000 A 
ATOM      3  C3  BNZ d   1       2.247   5.964   5.507  0.00  0.00     0.000 A 
ATOM      4  C4  BNZ d   1       1.450   5.971   4.419  0.00  0.00     0.000 A 
ATOM      5  C5  BNZ d   1       1.998   5.981   3.152  0.00  0.00     0.000 A 
ATOM      6  C6  BNZ d   1       3.365   5.976   2.995  0.00  0.00     0.000 A 
ENDROOT
TORSDOF 0
ENDMDL
