MODEL 1
REMARK minimizedAffinity -2.46205425
REMARK minimizedRMSD -1
REMARK  0 active torsions:
REMARK  status: ('A' for Active; 'I' for Inactive)
ROOT
ATOM      1  C1  BNZ d   1       1.646   5.938   3.808  0.00  0.00     0.000 A 
ATOM      2  C2  BNZ d   1       2.896   5.945   3.247  0.00  0.00     0.000 A 
ATOM      3  C3  BNZ d   1       4.015   5.953   4.032  0.00  0.00     0.000 A 
ATOM      4  C4  BNZ d   1       3.884   5.996   5.373  0.00  0.00     0.000 A 
ATOM      5  C5  BNZ d   1       2.631   6.000   5.953  0.00  0.00     0.000 A 
ATOM      6  C6  BNZ d   1       1.507   5.952   5.161  0.00  0.00     0.000 A 
ENDROOT
TORSDOF 0
ENDMDL
