MODEL 1
REMARK minimizedAffinity -1.99403679
REMARK minimizedRMSD -1
REMARK  0 active torsions:
REMARK  status: ('A' for Active; 'I' for Inactive)
ROOT
ATOM      1  C1  BNZ d   1       3.959   5.995   3.829  0.00  0.00     0.000 A 
ATOM      2  C2  BNZ d   1       2.984   5.990   2.867  0.00  0.00     0.000 A 
ATOM      3  C3  BNZ d   1       1.661   6.000   3.211  0.00  0.00     0.000 A 
ATOM      4  C4  BNZ d   1       1.315   5.974   4.515  0.00  0.00     0.000 A 
ATOM      5  C5  BNZ d   1       2.286   5.969   5.496  0.00  0.00     0.000 A 
ATOM      6  C6  BNZ d   1       3.617   5.998   5.146  0.00  0.00     0.000 A 
ENDROOT
TORSDOF 0
ENDMDL
