MODEL 1
REMARK minimizedAffinity -2.67340779
REMARK minimizedRMSD -1
REMARK  0 active torsions:
REMARK  status: ('A' for Active; 'I' for Inactive)
ROOT
ATOM      1  C1  BNZ d   1      -0.746  -0.446   1.436  0.00  0.00     0.000 A 
ATOM      2  C2  BNZ d   1       0.239  -0.729   2.344  0.00  0.00     0.000 A 
ATOM      3  C3  BNZ d   1       1.502  -1.049   1.931  0.00  0.00     0.000 A 
ATOM      4  C4  BNZ d   1       1.768  -1.125   0.611  0.00  0.00     0.000 A 
ATOM      5  C5  BNZ d   1       0.783  -0.852  -0.318  0.00  0.00     0.000 A 
ATOM      6  C6  BNZ d   1      -0.477  -0.491   0.103  0.00  0.00     0.000 A 
ENDROOT
TORSDOF 0
ENDMDL
