MODEL 1
REMARK minimizedAffinity -2.53670955
REMARK minimizedRMSD -1
REMARK  0 active torsions:
REMARK  status: ('A' for Active; 'I' for Inactive)
ROOT
ATOM      1  C1  BNZ d   1       1.646   5.994   5.933  0.00  0.00     0.000 A 
ATOM      2  C2  BNZ d   1       0.906   5.999   4.781  0.00  0.00     0.000 A 
ATOM      3  C3  BNZ d   1       1.516   5.974   3.558  0.00  0.00     0.000 A 
ATOM      4  C4  BNZ d   1       2.863   5.986   3.488  0.00  0.00     0.000 A 
ATOM      5  C5  BNZ d   1       3.623   5.991   4.641  0.00  0.00     0.000 A 
ATOM      6  C6  BNZ d   1       3.005   5.977   5.871  0.00  0.00     0.000 A 
ENDROOT
TORSDOF 0
ENDMDL
