MODEL 1
REMARK minimizedAffinity -1.49088907
REMARK minimizedRMSD -1
REMARK  0 active torsions:
REMARK  status: ('A' for Active; 'I' for Inactive)
ROOT
ATOM      1  C1  BNZ d   1       0.746   5.983   4.466  0.00  0.00     0.000 A 
ATOM      2  C2  BNZ d   1       1.564   5.992   3.368  0.00  0.00     0.000 A 
ATOM      3  C3  BNZ d   1       2.924   5.980   3.509  0.00  0.00     0.000 A 
ATOM      4  C4  BNZ d   1       3.463   6.000   4.745  0.00  0.00     0.000 A 
ATOM      5  C5  BNZ d   1       2.651   6.000   5.862  0.00  0.00     0.000 A 
ATOM      6  C6  BNZ d   1       1.283   5.972   5.716  0.00  0.00     0.000 A 
ENDROOT
TORSDOF 0
ENDMDL
