MODEL 1
REMARK minimizedAffinity 2.86687231
REMARK minimizedRMSD -1
REMARK  3 active torsions:
REMARK  status: ('A' for Active; 'I' for Inactive)
REMARK    1  A    between atoms: C3'_2  and  C2'_3 
REMARK    2  A    between atoms: C2'_3  and  C1'_4 
REMARK    3  A    between atoms: C1'_4  and  C1_5 
ROOT
ATOM      1  C1  N4B d   1       1.198  -2.830   1.693  0.00  0.00    -0.075 A 
ATOM      2  C2  N4B d   1       1.177  -4.233   1.529  0.00  0.00     0.002 A 
ATOM      3  C3  N4B d   1       2.349  -4.947   1.581  0.00  0.00     0.002 A 
ATOM      4  C4  N4B d   1       3.550  -4.282   1.776  0.00  0.00    -0.004 A 
ATOM      5  C5  N4B d   1       3.558  -2.930   1.959  0.00  0.00     0.002 A 
ATOM      6  C6  N4B d   1       2.388  -2.200   1.913  0.00  0.00     0.002 A 
ENDROOT
BRANCH   1   7
ATOM      7  C1' N4B d   1      -0.047  -1.997   1.559  0.00  0.00     0.057 C 
BRANCH   7   8
ATOM      8  C2' N4B d   1      -0.252  -1.193   2.839  0.00  0.00     0.009 C 
BRANCH   8   9
ATOM      9  C3' N4B d   1      -1.680  -1.291   3.348  0.00  0.00     0.004 C 
ATOM     10  C4' N4B d   1      -2.533  -0.138   2.910  0.00  0.00     0.003 C 
ENDBRANCH   8   9
ENDBRANCH   7   8
ENDBRANCH   1   7
TORSDOF 3
ENDMDL
