MODEL 1
REMARK minimizedAffinity 9.16307354
REMARK minimizedRMSD -1
REMARK  3 active torsions:
REMARK  status: ('A' for Active; 'I' for Inactive)
REMARK    1  A    between atoms: C3'_2  and  C2'_3 
REMARK    2  A    between atoms: C2'_3  and  C1'_4 
REMARK    3  A    between atoms: C1'_4  and  C1_5 
ROOT
ATOM      1  C1  N4B d   1       2.011   3.279   4.216  0.00  0.00    -0.075 A 
ATOM      2  C2  N4B d   1       2.642   3.716   5.401  0.00  0.00     0.002 A 
ATOM      3  C3  N4B d   1       2.324   4.939   5.937  0.00  0.00     0.002 A 
ATOM      4  C4  N4B d   1       1.396   5.748   5.298  0.00  0.00    -0.004 A 
ATOM      5  C5  N4B d   1       0.772   5.307   4.168  0.00  0.00     0.002 A 
ATOM      6  C6  N4B d   1       1.078   4.078   3.620  0.00  0.00     0.002 A 
ENDROOT
BRANCH   1   7
ATOM      7  C1' N4B d   1       2.388   1.986   3.545  0.00  0.00     0.057 C 
BRANCH   7   8
ATOM      8  C2' N4B d   1       1.504   0.865   4.084  0.00  0.00     0.009 C 
BRANCH   8   9
ATOM      9  C3' N4B d   1       0.877   0.049   2.967  0.00  0.00     0.004 C 
ATOM     10  C4' N4B d   1      -0.454  -0.528   3.346  0.00  0.00     0.003 C 
ENDBRANCH   8   9
ENDBRANCH   7   8
ENDBRANCH   1   7
TORSDOF 3
ENDMDL
