MODEL 1
REMARK minimizedAffinity 9.433465
REMARK minimizedRMSD -1
REMARK  3 active torsions:
REMARK  status: ('A' for Active; 'I' for Inactive)
REMARK    1  A    between atoms: C3'_2  and  C2'_3 
REMARK    2  A    between atoms: C2'_3  and  C1'_4 
REMARK    3  A    between atoms: C1'_4  and  C1_5 
ROOT
ATOM      1  C1  N4B d   1       3.461  -3.646   5.344  0.00  0.00    -0.075 A 
ATOM      2  C2  N4B d   1       3.131  -5.019   5.352  0.00  0.00     0.002 A 
ATOM      3  C3  N4B d   1       4.083  -5.953   5.680  0.00  0.00     0.002 A 
ATOM      4  C4  N4B d   1       5.371  -5.541   5.984  0.00  0.00    -0.004 A 
ATOM      5  C5  N4B d   1       5.676  -4.211   5.999  0.00  0.00     0.002 A 
ATOM      6  C6  N4B d   1       4.728  -3.261   5.675  0.00  0.00     0.002 A 
ENDROOT
BRANCH   1   7
ATOM      7  C1' N4B d   1       2.478  -2.595   4.908  0.00  0.00     0.057 C 
BRANCH   7   8
ATOM      8  C2' N4B d   1       2.508  -2.480   3.387  0.00  0.00     0.009 C 
BRANCH   8   9
ATOM      9  C3' N4B d   1       1.121  -2.602   2.780  0.00  0.00     0.004 C 
ATOM     10  C4' N4B d   1       1.154  -2.887   1.308  0.00  0.00     0.003 C 
ENDBRANCH   8   9
ENDBRANCH   7   8
ENDBRANCH   1   7
TORSDOF 3
ENDMDL
