MODEL 1
REMARK minimizedAffinity 15.1244287
REMARK minimizedRMSD -1
REMARK  3 active torsions:
REMARK  status: ('A' for Active; 'I' for Inactive)
REMARK    1  A    between atoms: C3'_2  and  C2'_3 
REMARK    2  A    between atoms: C2'_3  and  C1'_4 
REMARK    3  A    between atoms: C1'_4  and  C1_5 
ROOT
ATOM      1  C1  N4B d   1       0.876  -0.850   0.431  0.00  0.00    -0.075 A 
ATOM      2  C2  N4B d   1       1.725   0.210   0.816  0.00  0.00     0.002 A 
ATOM      3  C3  N4B d   1       2.116   1.147  -0.109  0.00  0.00     0.002 A 
ATOM      4  C4  N4B d   1       1.687   1.033  -1.423  0.00  0.00    -0.004 A 
ATOM      5  C5  N4B d   1       0.847   0.020  -1.781  0.00  0.00     0.002 A 
ATOM      6  C6  N4B d   1       0.443  -0.926  -0.861  0.00  0.00     0.002 A 
ENDROOT
BRANCH   1   7
ATOM      7  C1' N4B d   1       0.491  -1.946   1.387  0.00  0.00     0.057 C 
BRANCH   7   8
ATOM      8  C2' N4B d   1       1.480  -1.967   2.549  0.00  0.00     0.009 C 
BRANCH   8   9
ATOM      9  C3' N4B d   1       2.631  -2.928   2.299  0.00  0.00     0.004 C 
ATOM     10  C4' N4B d   1       2.236  -4.097   1.446  0.00  0.00     0.003 C 
ENDBRANCH   8   9
ENDBRANCH   7   8
ENDBRANCH   1   7
TORSDOF 3
ENDMDL
