MODEL 1
REMARK minimizedAffinity 15.9312468
REMARK minimizedRMSD -1
REMARK  3 active torsions:
REMARK  status: ('A' for Active; 'I' for Inactive)
REMARK    1  A    between atoms: C3'_2  and  C2'_3 
REMARK    2  A    between atoms: C2'_3  and  C1'_4 
REMARK    3  A    between atoms: C1'_4  and  C1_5 
ROOT
ATOM      1  C1  N4B d   1      -0.484  -1.538   0.129  0.00  0.00    -0.075 A 
ATOM      2  C2  N4B d   1       0.578  -1.779   1.028  0.00  0.00     0.002 A 
ATOM      3  C3  N4B d   1       0.310  -2.141   2.326  0.00  0.00     0.002 A 
ATOM      4  C4  N4B d   1      -1.006  -2.250   2.750  0.00  0.00    -0.004 A 
ATOM      5  C5  N4B d   1      -2.025  -2.040   1.868  0.00  0.00     0.002 A 
ATOM      6  C6  N4B d   1      -1.771  -1.680   0.560  0.00  0.00     0.002 A 
ENDROOT
BRANCH   1   7
ATOM      7  C1' N4B d   1      -0.241  -1.056  -1.275  0.00  0.00     0.057 C 
BRANCH   7   8
ATOM      8  C2' N4B d   1       0.102   0.430  -1.243  0.00  0.00     0.009 C 
BRANCH   8   9
ATOM      9  C3' N4B d   1       1.567   0.681  -1.560  0.00  0.00     0.004 C 
ATOM     10  C4' N4B d   1       1.864   0.606  -3.028  0.00  0.00     0.003 C 
ENDBRANCH   8   9
ENDBRANCH   7   8
ENDBRANCH   1   7
TORSDOF 3
ENDMDL
