MODEL 1
REMARK minimizedAffinity 11.1258574
REMARK minimizedRMSD -1
REMARK  3 active torsions:
REMARK  status: ('A' for Active; 'I' for Inactive)
REMARK    1  A    between atoms: C3'_2  and  C2'_3 
REMARK    2  A    between atoms: C2'_3  and  C1'_4 
REMARK    3  A    between atoms: C1'_4  and  C1_5 
ROOT
ATOM      1  C1  N4B d   1       0.999  -0.701   0.462  0.00  0.00    -0.075 A 
ATOM      2  C2  N4B d   1       0.198  -0.716  -0.701  0.00  0.00     0.002 A 
ATOM      3  C3  N4B d   1       0.195   0.366  -1.547  0.00  0.00     0.002 A 
ATOM      4  C4  N4B d   1       0.967   1.478  -1.241  0.00  0.00    -0.004 A 
ATOM      5  C5  N4B d   1       1.757   1.474  -0.129  0.00  0.00     0.002 A 
ATOM      6  C6  N4B d   1       1.773   0.391   0.727  0.00  0.00     0.002 A 
ENDROOT
BRANCH   1   7
ATOM      7  C1' N4B d   1       0.970  -1.826   1.460  0.00  0.00     0.057 C 
BRANCH   7   8
ATOM      8  C2' N4B d   1       2.130  -2.776   1.179  0.00  0.00     0.009 C 
BRANCH   8   9
ATOM      9  C3' N4B d   1       2.068  -4.021   2.046  0.00  0.00     0.004 C 
ATOM     10  C4' N4B d   1       3.411  -4.426   2.577  0.00  0.00     0.003 C 
ENDBRANCH   8   9
ENDBRANCH   7   8
ENDBRANCH   1   7
TORSDOF 3
ENDMDL
