MODEL 1
REMARK minimizedAffinity -3.66489673
REMARK minimizedRMSD -1
REMARK  0 active torsions:
REMARK  status: ('A' for Active; 'I' for Inactive)
ROOT
ATOM      1  C2' OXE d   1      -0.604   0.694  -1.873  0.00  0.00     0.078 C 
ATOM      2  C1' OXE d   1       1.008  -0.062   0.297  0.00  0.00     0.078 C 
ATOM      3  C1  OXE d   1      -0.318  -0.761   0.128  0.00  0.00    -0.078 A 
ATOM      4  C2  OXE d   1      -1.121  -0.352  -0.909  0.00  0.00    -0.078 A 
ATOM      5  C3  OXE d   1      -2.330  -1.001  -1.143  0.00  0.00     0.003 A 
ATOM      6  C4  OXE d   1      -2.805  -1.961  -0.241  0.00  0.00    -0.002 A 
ATOM      7  C5  OXE d   1      -2.021  -2.364   0.845  0.00  0.00    -0.002 A 
ATOM      8  C6  OXE d   1      -0.759  -1.806   1.019  0.00  0.00     0.003 A 
ENDROOT
TORSDOF 0
ENDMDL
