MODEL 1
REMARK minimizedAffinity -6.34514856
REMARK minimizedRMSD -1
REMARK  0 active torsions:
REMARK  status: ('A' for Active; 'I' for Inactive)
ROOT
ATOM      1  C2' OXE d   1      -3.246  -1.203   0.142  0.00  0.00     0.078 C 
ATOM      2  C1' OXE d   1      -1.619  -2.063   2.261  0.00  0.00     0.078 C 
ATOM      3  C1  OXE d   1      -0.990  -1.198   1.198  0.00  0.00    -0.078 A 
ATOM      4  C2  OXE d   1      -1.782  -0.820   0.140  0.00  0.00    -0.078 A 
ATOM      5  C3  OXE d   1      -1.267   0.023  -0.840  0.00  0.00     0.003 A 
ATOM      6  C4  OXE d   1       0.091   0.364  -0.840  0.00  0.00    -0.002 A 
ATOM      7  C5  OXE d   1       0.925  -0.042   0.207  0.00  0.00    -0.002 A 
ATOM      8  C6  OXE d   1       0.391  -0.787   1.254  0.00  0.00     0.003 A 
ENDROOT
TORSDOF 0
ENDMDL
