MODEL 1
REMARK minimizedAffinity -4.61362934
REMARK minimizedRMSD -1
REMARK  0 active torsions:
REMARK  status: ('A' for Active; 'I' for Inactive)
ROOT
ATOM      1  C2' OXE d   1      -3.533  -2.567   0.567  0.00  0.00     0.078 C 
ATOM      2  C1' OXE d   1      -1.214  -2.751   2.139  0.00  0.00     0.078 C 
ATOM      3  C1  OXE d   1      -1.241  -1.714   1.044  0.00  0.00    -0.078 A 
ATOM      4  C2  OXE d   1      -2.361  -1.662   0.250  0.00  0.00    -0.078 A 
ATOM      5  C3  OXE d   1      -2.460  -0.688  -0.740  0.00  0.00     0.003 A 
ATOM      6  C4  OXE d   1      -1.369   0.137  -1.033  0.00  0.00    -0.002 A 
ATOM      7  C5  OXE d   1      -0.203   0.074  -0.262  0.00  0.00    -0.002 A 
ATOM      8  C6  OXE d   1      -0.139  -0.815   0.805  0.00  0.00     0.003 A 
ENDROOT
TORSDOF 0
ENDMDL
