MODEL 1
REMARK minimizedAffinity -5.60512543
REMARK minimizedRMSD -1
REMARK  0 active torsions:
REMARK  status: ('A' for Active; 'I' for Inactive)
ROOT
ATOM      1  C2' OXE d   1       1.100   0.548  -0.153  0.00  0.00     0.078 C 
ATOM      2  C1' OXE d   1       1.245  -1.807   1.368  0.00  0.00     0.078 C 
ATOM      3  C1  OXE d   1      -0.123  -1.301   0.983  0.00  0.00    -0.078 A 
ATOM      4  C2  OXE d   1      -0.186  -0.123   0.279  0.00  0.00    -0.078 A 
ATOM      5  C3  OXE d   1      -1.420   0.359  -0.149  0.00  0.00     0.003 A 
ATOM      6  C4  OXE d   1      -2.605  -0.263   0.263  0.00  0.00    -0.002 A 
ATOM      7  C5  OXE d   1      -2.565  -1.442   1.015  0.00  0.00    -0.002 A 
ATOM      8  C6  OXE d   1      -1.333  -1.996   1.346  0.00  0.00     0.003 A 
ENDROOT
TORSDOF 0
ENDMDL
