MODEL 1
REMARK minimizedAffinity -5.72679377
REMARK minimizedRMSD -1
REMARK  0 active torsions:
REMARK  status: ('A' for Active; 'I' for Inactive)
ROOT
ATOM      1  C2' OXE d   1      -0.708   0.812  -1.710  0.00  0.00     0.078 C 
ATOM      2  C1' OXE d   1       1.106  -0.018   0.265  0.00  0.00     0.078 C 
ATOM      3  C1  OXE d   1      -0.275  -0.624   0.279  0.00  0.00    -0.078 A 
ATOM      4  C2  OXE d   1      -1.171  -0.177  -0.663  0.00  0.00    -0.078 A 
ATOM      5  C3  OXE d   1      -2.442  -0.743  -0.728  0.00  0.00     0.003 A 
ATOM      6  C4  OXE d   1      -2.865  -1.650   0.251  0.00  0.00    -0.002 A 
ATOM      7  C5  OXE d   1      -1.981  -2.088   1.242  0.00  0.00    -0.002 A 
ATOM      8  C6  OXE d   1      -0.673  -1.618   1.245  0.00  0.00     0.003 A 
ENDROOT
TORSDOF 0
ENDMDL
