MODEL 1
REMARK minimizedAffinity -6.02253532
REMARK minimizedRMSD -1
REMARK  0 active torsions:
REMARK  status: ('A' for Active; 'I' for Inactive)
ROOT
ATOM      1  C2' OXE d   1      -0.044   0.065  -2.068  0.00  0.00     0.078 C 
ATOM      2  C1' OXE d   1       1.041   0.085   0.521  0.00  0.00     0.078 C 
ATOM      3  C1  OXE d   1      -0.423  -0.245   0.374  0.00  0.00    -0.078 A 
ATOM      4  C2  OXE d   1      -0.956  -0.207  -0.892  0.00  0.00    -0.078 A 
ATOM      5  C3  OXE d   1      -2.289  -0.557  -1.090  0.00  0.00     0.003 A 
ATOM      6  C4  OXE d   1      -3.129  -0.797   0.004  0.00  0.00    -0.002 A 
ATOM      7  C5  OXE d   1      -2.615  -0.803   1.306  0.00  0.00    -0.002 A 
ATOM      8  C6  OXE d   1      -1.258  -0.571   1.504  0.00  0.00     0.003 A 
ENDROOT
TORSDOF 0
ENDMDL
