MODEL 1
REMARK minimizedAffinity -3.48427892
REMARK minimizedRMSD -1
REMARK  0 active torsions:
REMARK  status: ('A' for Active; 'I' for Inactive)
ROOT
ATOM      1  C2' OXE d   1      -0.196  -0.061  -2.266  0.00  0.00     0.078 C 
ATOM      2  C1' OXE d   1       0.840   0.229   0.326  0.00  0.00     0.078 C 
ATOM      3  C1  OXE d   1      -0.509  -0.430   0.177  0.00  0.00    -0.078 A 
ATOM      4  C2  OXE d   1      -1.029  -0.526  -1.091  0.00  0.00    -0.078 A 
ATOM      5  C3  OXE d   1      -2.245  -1.174  -1.290  0.00  0.00     0.003 A 
ATOM      6  C4  OXE d   1      -3.013  -1.591  -0.197  0.00  0.00    -0.002 A 
ATOM      7  C5  OXE d   1      -2.520  -1.467   1.106  0.00  0.00    -0.002 A 
ATOM      8  C6  OXE d   1      -1.253  -0.929   1.307  0.00  0.00     0.003 A 
ENDROOT
TORSDOF 0
ENDMDL
