MODEL 1
REMARK minimizedAffinity -1.44823301
REMARK minimizedRMSD -1
REMARK  0 active torsions:
REMARK  status: ('A' for Active; 'I' for Inactive)
ROOT
ATOM      1  C2' OXE d   1       1.409   0.859   0.159  0.00  0.00     0.078 C 
ATOM      2  C1' OXE d   1       0.634  -1.584   1.304  0.00  0.00     0.078 C 
ATOM      3  C1  OXE d   1      -0.187  -1.054   0.156  0.00  0.00    -0.078 A 
ATOM      4  C2  OXE d   1       0.171   0.165  -0.368  0.00  0.00    -0.078 A 
ATOM      5  C3  OXE d   1      -0.520   0.675  -1.464  0.00  0.00     0.003 A 
ATOM      6  C4  OXE d   1      -1.669   0.032  -1.939  0.00  0.00    -0.002 A 
ATOM      7  C5  OXE d   1      -2.075  -1.191  -1.394  0.00  0.00    -0.002 A 
ATOM      8  C6  OXE d   1      -1.322  -1.767  -0.377  0.00  0.00     0.003 A 
ENDROOT
TORSDOF 0
ENDMDL
