MODEL 1
REMARK minimizedAffinity -0.0129156075
REMARK minimizedRMSD -1
REMARK  0 active torsions:
REMARK  status: ('A' for Active; 'I' for Inactive)
ROOT
ATOM      1  C2' OXE d   1       0.619  -1.679   0.916  0.00  0.00     0.078 C 
ATOM      2  C1' OXE d   1       1.206   1.062   1.066  0.00  0.00     0.078 C 
ATOM      3  C1  OXE d   1       0.498   0.560  -0.167  0.00  0.00    -0.078 A 
ATOM      4  C2  OXE d   1       0.256  -0.790  -0.253  0.00  0.00    -0.078 A 
ATOM      5  C3  OXE d   1      -0.443  -1.297  -1.344  0.00  0.00     0.003 A 
ATOM      6  C4  OXE d   1      -0.766  -0.469  -2.426  0.00  0.00    -0.002 A 
ATOM      7  C5  OXE d   1      -0.494   0.902  -2.377  0.00  0.00    -0.002 A 
ATOM      8  C6  OXE d   1       0.098   1.439  -1.239  0.00  0.00     0.003 A 
ENDROOT
TORSDOF 0
ENDMDL
