MODEL 1
REMARK minimizedAffinity 1.79744542
REMARK minimizedRMSD -1
REMARK  0 active torsions:
REMARK  status: ('A' for Active; 'I' for Inactive)
ROOT
ATOM      1  C2' OXE d   1       2.968   3.176   0.061  0.00  0.00     0.078 C 
ATOM      2  C1' OXE d   1       1.787   3.090   2.606  0.00  0.00     0.078 C 
ATOM      3  C1  OXE d   1       1.396   2.025   1.612  0.00  0.00    -0.078 A 
ATOM      4  C2  OXE d   1       1.943   2.102   0.354  0.00  0.00    -0.078 A 
ATOM      5  C3  OXE d   1       1.658   1.113  -0.583  0.00  0.00     0.003 A 
ATOM      6  C4  OXE d   1       0.702   0.129  -0.307  0.00  0.00    -0.002 A 
ATOM      7  C5  OXE d   1       0.102   0.056   0.955  0.00  0.00    -0.002 A 
ATOM      8  C6  OXE d   1       0.469   0.969   1.937  0.00  0.00     0.003 A 
ENDROOT
TORSDOF 0
ENDMDL
