MODEL 1
REMARK minimizedAffinity -5.86980104
REMARK minimizedRMSD -1
REMARK  0 active torsions:
REMARK  status: ('A' for Active; 'I' for Inactive)
ROOT
ATOM      1  C2' OXE d   1      -3.421  -2.193   0.788  0.00  0.00     0.078 C 
ATOM      2  C1' OXE d   1      -1.106  -3.361   1.864  0.00  0.00     0.078 C 
ATOM      3  C1  OXE d   1      -0.933  -2.199   0.918  0.00  0.00    -0.078 A 
ATOM      4  C2  OXE d   1      -2.069  -1.664   0.360  0.00  0.00    -0.078 A 
ATOM      5  C3  OXE d   1      -1.970  -0.556  -0.477  0.00  0.00     0.003 A 
ATOM      6  C4  OXE d   1      -0.715  -0.079  -0.875  0.00  0.00    -0.002 A 
ATOM      7  C5  OXE d   1       0.456  -0.635  -0.350  0.00  0.00    -0.002 A 
ATOM      8  C6  OXE d   1       0.363  -1.666   0.579  0.00  0.00     0.003 A 
ENDROOT
TORSDOF 0
ENDMDL
