MODEL 1
REMARK minimizedAffinity -3.80610657
REMARK minimizedRMSD -1
REMARK  0 active torsions:
REMARK  status: ('A' for Active; 'I' for Inactive)
ROOT
ATOM      1  C2' OXE d   1      -2.776  -2.170  -0.291  0.00  0.00     0.078 C 
ATOM      2  C1' OXE d   1      -0.983  -2.858   1.756  0.00  0.00     0.078 C 
ATOM      3  C1  OXE d   1      -0.661  -1.647   0.917  0.00  0.00    -0.078 A 
ATOM      4  C2  OXE d   1      -1.520  -1.345  -0.113  0.00  0.00    -0.078 A 
ATOM      5  C3  OXE d   1      -1.300  -0.206  -0.883  0.00  0.00     0.003 A 
ATOM      6  C4  OXE d   1      -0.131   0.546  -0.717  0.00  0.00    -0.002 A 
ATOM      7  C5  OXE d   1       0.777   0.232   0.300  0.00  0.00    -0.002 A 
ATOM      8  C6  OXE d   1       0.506  -0.833   1.151  0.00  0.00     0.003 A 
ENDROOT
TORSDOF 0
ENDMDL
