MODEL 1
REMARK minimizedAffinity -2.79841828
REMARK minimizedRMSD -1
REMARK  0 active torsions:
REMARK  status: ('A' for Active; 'I' for Inactive)
ROOT
ATOM      1  C2' OXE d   1      -1.101   0.193  -1.995  0.00  0.00     0.078 C 
ATOM      2  C1' OXE d   1       0.807   0.088   0.061  0.00  0.00     0.078 C 
ATOM      3  C1  OXE d   1      -0.260  -0.977   0.036  0.00  0.00    -0.078 A 
ATOM      4  C2  OXE d   1      -1.217  -0.891  -0.946  0.00  0.00    -0.078 A 
ATOM      5  C3  OXE d   1      -2.192  -1.879  -1.047  0.00  0.00     0.003 A 
ATOM      6  C4  OXE d   1      -2.298  -2.873  -0.066  0.00  0.00    -0.002 A 
ATOM      7  C5  OXE d   1      -1.357  -2.956   0.965  0.00  0.00    -0.002 A 
ATOM      8  C6  OXE d   1      -0.309  -2.043   1.007  0.00  0.00     0.003 A 
ENDROOT
TORSDOF 0
ENDMDL
