MODEL 1
REMARK minimizedAffinity -4.94953442
REMARK minimizedRMSD -1
REMARK  0 active torsions:
REMARK  status: ('A' for Active; 'I' for Inactive)
ROOT
ATOM      1  C2' OXE d   1       0.861   0.003   0.750  0.00  0.00     0.078 C 
ATOM      2  C1' OXE d   1      -0.649   0.867  -1.453  0.00  0.00     0.078 C 
ATOM      3  C1  OXE d   1      -1.251  -0.186  -0.557  0.00  0.00    -0.078 A 
ATOM      4  C2  OXE d   1      -0.486  -0.636   0.492  0.00  0.00    -0.078 A 
ATOM      5  C3  OXE d   1      -1.016  -1.566   1.382  0.00  0.00     0.003 A 
ATOM      6  C4  OXE d   1      -2.259  -2.160   1.131  0.00  0.00    -0.002 A 
ATOM      7  C5  OXE d   1      -3.037  -1.744   0.045  0.00  0.00    -0.002 A 
ATOM      8  C6  OXE d   1      -2.568  -0.730  -0.782  0.00  0.00     0.003 A 
ENDROOT
TORSDOF 0
ENDMDL
