MODEL 1
REMARK minimizedAffinity -2.90775585
REMARK minimizedRMSD -1
REMARK  0 active torsions:
REMARK  status: ('A' for Active; 'I' for Inactive)
ROOT
ATOM      1  C2' OXE d   1      -4.153  -2.163   0.146  0.00  0.00     0.078 C 
ATOM      2  C1' OXE d   1      -2.682  -2.524  -2.218  0.00  0.00     0.078 C 
ATOM      3  C1  OXE d   1      -2.064  -1.688  -1.126  0.00  0.00    -0.078 A 
ATOM      4  C2  OXE d   1      -2.811  -1.478   0.009  0.00  0.00    -0.078 A 
ATOM      5  C3  OXE d   1      -2.266  -0.760   1.069  0.00  0.00     0.003 A 
ATOM      6  C4  OXE d   1      -1.028  -0.121   0.931  0.00  0.00    -0.002 A 
ATOM      7  C5  OXE d   1      -0.268  -0.289  -0.232  0.00  0.00    -0.002 A 
ATOM      8  C6  OXE d   1      -0.752  -1.102  -1.250  0.00  0.00     0.003 A 
ENDROOT
TORSDOF 0
ENDMDL
