MODEL 1
REMARK minimizedAffinity -1.64009559
REMARK minimizedRMSD -1
REMARK  0 active torsions:
REMARK  status: ('A' for Active; 'I' for Inactive)
ROOT
ATOM      1  C2' OXE d   1      -2.582  -1.050  -0.256  0.00  0.00     0.078 C 
ATOM      2  C1' OXE d   1      -0.969  -1.749   1.933  0.00  0.00     0.078 C 
ATOM      3  C1  OXE d   1      -0.385  -0.822   0.896  0.00  0.00    -0.078 A 
ATOM      4  C2  OXE d   1      -1.164  -0.523  -0.195  0.00  0.00    -0.078 A 
ATOM      5  C3  OXE d   1      -0.695   0.371  -1.153  0.00  0.00     0.003 A 
ATOM      6  C4  OXE d   1       0.621   0.846  -1.095  0.00  0.00    -0.002 A 
ATOM      7  C5  OXE d   1       1.446   0.522  -0.012  0.00  0.00    -0.002 A 
ATOM      8  C6  OXE d   1       0.945  -0.275   1.011  0.00  0.00     0.003 A 
ENDROOT
TORSDOF 0
ENDMDL
