MODEL 1
REMARK minimizedAffinity -4.57341528
REMARK minimizedRMSD -1
REMARK  0 active torsions:
REMARK  status: ('A' for Active; 'I' for Inactive)
ROOT
ATOM      1  O1  BZF d   1      -0.570  -0.732   1.010  0.00  0.00    -0.204 OA
ATOM      2  C2  BZF d   1      -0.573   0.344   0.143  0.00  0.00     0.174 A 
ATOM      3  C3  BZF d   1       0.678   0.809  -0.048  0.00  0.00    -0.012 A 
ATOM      4  C3A BZF d   1       1.527  -0.087   0.677  0.00  0.00    -0.107 A 
ATOM      5  C4  BZF d   1       2.878  -0.160   0.858  0.00  0.00     0.055 A 
ATOM      6  C5  BZF d   1       3.384  -1.113   1.684  0.00  0.00    -0.016 A 
ATOM      7  C6  BZF d   1       2.567  -2.005   2.348  0.00  0.00     0.022 A 
ATOM      8  C7  BZF d   1       1.221  -1.975   2.196  0.00  0.00     0.029 A 
ATOM      9  C7A BZF d   1       0.710  -1.034   1.336  0.00  0.00     0.058 A 
ENDROOT
TORSDOF 0
ENDMDL
