MODEL 1
REMARK minimizedAffinity -6.25076771
REMARK minimizedRMSD -1
REMARK  0 active torsions:
REMARK  status: ('A' for Active; 'I' for Inactive)
ROOT
ATOM      1  O1  BZF d   1      -0.577  -0.713   1.418  0.00  0.00    -0.204 OA
ATOM      2  C2  BZF d   1      -0.589   0.344   0.529  0.00  0.00     0.174 A 
ATOM      3  C3  BZF d   1       0.667   0.678   0.167  0.00  0.00    -0.012 A 
ATOM      4  C3A BZF d   1       1.511  -0.286   0.803  0.00  0.00    -0.107 A 
ATOM      5  C4  BZF d   1       2.861  -0.490   0.812  0.00  0.00     0.055 A 
ATOM      6  C5  BZF d   1       3.375  -1.477   1.593  0.00  0.00    -0.016 A 
ATOM      7  C6  BZF d   1       2.569  -2.273   2.381  0.00  0.00     0.022 A 
ATOM      8  C7  BZF d   1       1.224  -2.111   2.401  0.00  0.00     0.029 A 
ATOM      9  C7A BZF d   1       0.699  -1.137   1.587  0.00  0.00     0.058 A 
ENDROOT
TORSDOF 0
ENDMDL
