MODEL 1
REMARK minimizedAffinity -0.554724634
REMARK minimizedRMSD -1
REMARK  0 active torsions:
REMARK  status: ('A' for Active; 'I' for Inactive)
ROOT
ATOM      1  O1  BZF d   1       2.949   0.836   1.077  0.00  0.00    -0.204 OA
ATOM      2  C2  BZF d   1       3.616  -0.363   0.912  0.00  0.00     0.174 A 
ATOM      3  C3  BZF d   1       2.794  -1.302   0.402  0.00  0.00    -0.012 A 
ATOM      4  C3A BZF d   1       1.558  -0.625   0.152  0.00  0.00    -0.107 A 
ATOM      5  C4  BZF d   1       0.359  -1.020  -0.366  0.00  0.00     0.055 A 
ATOM      6  C5  BZF d   1      -0.669  -0.132  -0.407  0.00  0.00    -0.016 A 
ATOM      7  C6  BZF d   1      -0.533   1.157   0.065  0.00  0.00     0.022 A 
ATOM      8  C7  BZF d   1       0.639   1.597   0.584  0.00  0.00     0.029 A 
ATOM      9  C7A BZF d   1       1.689   0.712   0.597  0.00  0.00     0.058 A 
ENDROOT
TORSDOF 0
ENDMDL
