MODEL 1
REMARK minimizedAffinity 0.879652977
REMARK minimizedRMSD -1
REMARK  0 active torsions:
REMARK  status: ('A' for Active; 'I' for Inactive)
ROOT
ATOM      1  O1  BZF d   1      -1.791   0.992   0.527  0.00  0.00    -0.204 OA
ATOM      2  C2  BZF d   1      -1.164   2.151   0.113  0.00  0.00     0.174 A 
ATOM      3  C3  BZF d   1       0.148   1.932  -0.112  0.00  0.00    -0.012 A 
ATOM      4  C3A BZF d   1       0.334   0.528   0.091  0.00  0.00    -0.107 A 
ATOM      5  C4  BZF d   1       1.418  -0.298   0.001  0.00  0.00     0.055 A 
ATOM      6  C5  BZF d   1       1.280  -1.608   0.335  0.00  0.00    -0.016 A 
ATOM      7  C6  BZF d   1       0.077  -2.124   0.768  0.00  0.00     0.022 A 
ATOM      8  C7  BZF d   1      -1.028  -1.345   0.870  0.00  0.00     0.029 A 
ATOM      9  C7A BZF d   1      -0.900  -0.028   0.501  0.00  0.00     0.058 A 
ENDROOT
TORSDOF 0
ENDMDL
