MODEL 1
REMARK minimizedAffinity -3.11323404
REMARK minimizedRMSD -1
REMARK  0 active torsions:
REMARK  status: ('A' for Active; 'I' for Inactive)
ROOT
ATOM      1  O1  BZF d   1      -2.440   1.791   1.249  0.00  0.00    -0.204 OA
ATOM      2  C2  BZF d   1      -2.192   3.079   1.683  0.00  0.00     0.174 A 
ATOM      3  C3  BZF d   1      -0.874   3.358   1.625  0.00  0.00    -0.012 A 
ATOM      4  C3A BZF d   1      -0.270   2.202   1.037  0.00  0.00    -0.107 A 
ATOM      5  C4  BZF d   1       1.014   1.880   0.704  0.00  0.00     0.055 A 
ATOM      6  C5  BZF d   1       1.279   0.641   0.213  0.00  0.00    -0.016 A 
ATOM      7  C6  BZF d   1       0.286  -0.301   0.046  0.00  0.00     0.022 A 
ATOM      8  C7  BZF d   1      -1.005  -0.027   0.357  0.00  0.00     0.029 A 
ATOM      9  C7A BZF d   1      -1.280   1.236   0.823  0.00  0.00     0.058 A 
ENDROOT
TORSDOF 0
ENDMDL
