MODEL 1
REMARK minimizedAffinity -0.655056
REMARK minimizedRMSD -1
REMARK  0 active torsions:
REMARK  status: ('A' for Active; 'I' for Inactive)
ROOT
ATOM      1  O1  BZF d   1       3.143   0.438   2.296  0.00  0.00    -0.204 OA
ATOM      2  C2  BZF d   1       2.857   1.783   2.430  0.00  0.00     0.174 A 
ATOM      3  C3  BZF d   1       1.881   2.152   1.576  0.00  0.00    -0.012 A 
ATOM      4  C3A BZF d   1       1.471   0.943   0.928  0.00  0.00    -0.107 A 
ATOM      5  C4  BZF d   1       0.525   0.658  -0.015  0.00  0.00     0.055 A 
ATOM      6  C5  BZF d   1       0.427  -0.612  -0.488  0.00  0.00    -0.016 A 
ATOM      7  C6  BZF d   1       1.261  -1.618  -0.046  0.00  0.00     0.022 A 
ATOM      8  C7  BZF d   1       2.211  -1.384   0.892  0.00  0.00     0.029 A 
ATOM      9  C7A BZF d   1       2.290  -0.109   1.397  0.00  0.00     0.058 A 
ENDROOT
TORSDOF 0
ENDMDL
