MODEL 1
REMARK minimizedAffinity -3.24681306
REMARK minimizedRMSD -1
REMARK  0 active torsions:
REMARK  status: ('A' for Active; 'I' for Inactive)
ROOT
ATOM      1  O1  BZF d   1      -0.869  -0.118   0.215  0.00  0.00    -0.204 OA
ATOM      2  C2  BZF d   1      -0.749   1.256   0.125  0.00  0.00     0.174 A 
ATOM      3  C3  BZF d   1       0.533   1.636   0.298  0.00  0.00    -0.012 A 
ATOM      4  C3A BZF d   1       1.274   0.418   0.418  0.00  0.00    -0.107 A 
ATOM      5  C4  BZF d   1       2.599   0.139   0.591  0.00  0.00     0.055 A 
ATOM      6  C5  BZF d   1       2.988  -1.154   0.744  0.00  0.00    -0.016 A 
ATOM      7  C6  BZF d   1       2.078  -2.191   0.733  0.00  0.00     0.022 A 
ATOM      8  C7  BZF d   1       0.753  -1.964   0.559  0.00  0.00     0.029 A 
ATOM      9  C7A BZF d   1       0.362  -0.661   0.372  0.00  0.00     0.058 A 
ENDROOT
TORSDOF 0
ENDMDL
