MODEL 1
REMARK minimizedAffinity -3.72006702
REMARK minimizedRMSD -1
REMARK  2 active torsions:
REMARK  status: ('A' for Active; 'I' for Inactive)
REMARK    1  A    between atoms: C1_2  and  C2_3 
REMARK    2  A    between atoms: C2_3  and  C3_4 
ROOT
ATOM      1  C3  UNL d   1      -0.561   0.410  -0.355  0.00  0.00    -0.075 A 
ATOM      2  C4  UNL d   1       0.140   1.621  -0.251  0.00  0.00     0.002 A 
ATOM      3  C5  UNL d   1       1.431   1.649   0.276  0.00  0.00     0.002 A 
ATOM      4  C6  UNL d   1       2.034   0.472   0.714  0.00  0.00    -0.004 A 
ATOM      5  C7  UNL d   1       1.341  -0.734   0.632  0.00  0.00     0.002 A 
ATOM      6  C8  UNL d   1       0.051  -0.766   0.101  0.00  0.00     0.002 A 
ENDROOT
BRANCH   1   7
ATOM      7  C2  UNL d   1      -1.947   0.368  -0.952  0.00  0.00     0.056 C 
BRANCH   7   8
ATOM      8  C1  UNL d   1      -2.034  -0.400  -2.274  0.00  0.00     0.007 C 
ATOM      9  C   UNL d   1      -2.957   0.257  -3.291  0.00  0.00     0.009 C 
ENDBRANCH   7   8
ENDBRANCH   1   7
TORSDOF 2
ENDMDL
