MODEL 1
REMARK minimizedAffinity -4.66146898
REMARK minimizedRMSD -1
REMARK  2 active torsions:
REMARK  status: ('A' for Active; 'I' for Inactive)
REMARK    1  A    between atoms: C1_2  and  C2_3 
REMARK    2  A    between atoms: C2_3  and  C3_4 
ROOT
ATOM      1  C3  UNL d   1      -0.560   0.261   0.030  0.00  0.00    -0.075 A 
ATOM      2  C4  UNL d   1      -0.160   1.586  -0.194  0.00  0.00     0.002 A 
ATOM      3  C5  UNL d   1       1.107   2.019   0.199  0.00  0.00     0.002 A 
ATOM      4  C6  UNL d   1       1.983   1.138   0.828  0.00  0.00    -0.004 A 
ATOM      5  C7  UNL d   1       1.590  -0.176   1.071  0.00  0.00     0.002 A 
ATOM      6  C8  UNL d   1       0.325  -0.613   0.675  0.00  0.00     0.002 A 
ENDROOT
BRANCH   1   7
ATOM      7  C2  UNL d   1      -1.919  -0.222  -0.420  0.00  0.00     0.056 C 
BRANCH   7   8
ATOM      8  C1  UNL d   1      -2.649   0.750  -1.352  0.00  0.00     0.007 C 
ATOM      9  C   UNL d   1      -3.082   0.112  -2.665  0.00  0.00     0.009 C 
ENDBRANCH   7   8
ENDBRANCH   1   7
TORSDOF 2
ENDMDL
