MODEL 1
REMARK minimizedAffinity -3.04826069
REMARK minimizedRMSD -1
REMARK  2 active torsions:
REMARK  status: ('A' for Active; 'I' for Inactive)
REMARK    1  A    between atoms: C1_2  and  C2_3 
REMARK    2  A    between atoms: C2_3  and  C3_4 
ROOT
ATOM      1  C3  UNL d   1      -1.780   0.151  -1.314  0.00  0.00    -0.075 A 
ATOM      2  C4  UNL d   1      -1.466  -0.936  -2.141  0.00  0.00     0.002 A 
ATOM      3  C5  UNL d   1      -1.933  -0.985  -3.455  0.00  0.00     0.002 A 
ATOM      4  C6  UNL d   1      -2.727   0.045  -3.954  0.00  0.00    -0.004 A 
ATOM      5  C7  UNL d   1      -3.060   1.122  -3.135  0.00  0.00     0.002 A 
ATOM      6  C8  UNL d   1      -2.590   1.176  -1.822  0.00  0.00     0.002 A 
ENDROOT
BRANCH   1   7
ATOM      7  C2  UNL d   1      -1.254   0.225   0.100  0.00  0.00     0.056 C 
BRANCH   7   8
ATOM      8  C1  UNL d   1       0.267   0.071   0.207  0.00  0.00     0.007 C 
ATOM      9  C   UNL d   1       1.001   1.403   0.285  0.00  0.00     0.009 C 
ENDBRANCH   7   8
ENDBRANCH   1   7
TORSDOF 2
ENDMDL
