MODEL 1
REMARK minimizedAffinity -3.63811517
REMARK minimizedRMSD -1
REMARK  2 active torsions:
REMARK  status: ('A' for Active; 'I' for Inactive)
REMARK    1  A    between atoms: C1_2  and  C2_3 
REMARK    2  A    between atoms: C2_3  and  C3_4 
ROOT
ATOM      1  C3  UNL d   1       1.381   0.339   0.682  0.00  0.00    -0.075 A 
ATOM      2  C4  UNL d   1       0.799   1.406  -0.017  0.00  0.00     0.002 A 
ATOM      3  C5  UNL d   1      -0.523   1.329  -0.455  0.00  0.00     0.002 A 
ATOM      4  C6  UNL d   1      -1.276   0.183  -0.209  0.00  0.00    -0.004 A 
ATOM      5  C7  UNL d   1      -0.703  -0.890   0.470  0.00  0.00     0.002 A 
ATOM      6  C8  UNL d   1       0.619  -0.814   0.913  0.00  0.00     0.002 A 
ENDROOT
BRANCH   1   7
ATOM      7  C2  UNL d   1       2.803   0.428   1.184  0.00  0.00     0.056 C 
BRANCH   7   8
ATOM      8  C1  UNL d   1       3.214  -0.730   2.099  0.00  0.00     0.007 C 
ATOM      9  C   UNL d   1       4.576  -1.317   1.750  0.00  0.00     0.009 C 
ENDBRANCH   7   8
ENDBRANCH   1   7
TORSDOF 2
ENDMDL
