MODEL 1
REMARK minimizedAffinity -2.80437541
REMARK minimizedRMSD -1
REMARK  2 active torsions:
REMARK  status: ('A' for Active; 'I' for Inactive)
REMARK    1  A    between atoms: C1_2  and  C2_3 
REMARK    2  A    between atoms: C2_3  and  C3_4 
ROOT
ATOM      1  C3  UNL d   1       0.043   0.039  -0.085  0.00  0.00    -0.075 A 
ATOM      2  C4  UNL d   1       0.662  -0.524   1.041  0.00  0.00     0.002 A 
ATOM      3  C5  UNL d   1       1.938  -0.112   1.427  0.00  0.00     0.002 A 
ATOM      4  C6  UNL d   1       2.613   0.858   0.690  0.00  0.00    -0.004 A 
ATOM      5  C7  UNL d   1       2.014   1.412  -0.440  0.00  0.00     0.002 A 
ATOM      6  C8  UNL d   1       0.736   1.005  -0.826  0.00  0.00     0.002 A 
ENDROOT
BRANCH   1   7
ATOM      7  C2  UNL d   1      -1.350  -0.381  -0.491  0.00  0.00     0.056 C 
BRANCH   7   8
ATOM      8  C1  UNL d   1      -2.257   0.783  -0.903  0.00  0.00     0.007 C 
ATOM      9  C   UNL d   1      -2.643   0.751  -2.376  0.00  0.00     0.009 C 
ENDBRANCH   7   8
ENDBRANCH   1   7
TORSDOF 2
ENDMDL
