MODEL 1
REMARK minimizedAffinity 12.2958221
REMARK minimizedRMSD -1
REMARK  0 active torsions:
REMARK  status: ('A' for Active; 'I' for Inactive)
ROOT
ATOM      1  C2' OXE d   1      -4.504  -2.150  -3.524  0.00  0.00     0.078 C 
ATOM      2  C1' OXE d   1      -5.998  -2.133  -5.901  0.00  0.00     0.078 C 
ATOM      3  C1  OXE d   1      -5.556  -3.469  -5.357  0.00  0.00    -0.078 A 
ATOM      4  C2  OXE d   1      -4.786  -3.465  -4.219  0.00  0.00    -0.078 A 
ATOM      5  C3  OXE d   1      -4.398  -4.672  -3.644  0.00  0.00     0.003 A 
ATOM      6  C4  OXE d   1      -4.654  -5.883  -4.298  0.00  0.00    -0.002 A 
ATOM      7  C5  OXE d   1      -5.403  -5.907  -5.480  0.00  0.00    -0.002 A 
ATOM      8  C6  OXE d   1      -5.897  -4.715  -5.998  0.00  0.00     0.003 A 
ENDROOT
TORSDOF 0
ENDMDL
