MODEL 1
REMARK minimizedAffinity 16.4332619
REMARK minimizedRMSD -1
REMARK  0 active torsions:
REMARK  status: ('A' for Active; 'I' for Inactive)
ROOT
ATOM      1  C2' OXE d   1       0.725   4.789  -0.436  0.00  0.00     0.078 C 
ATOM      2  C1' OXE d   1       0.230   3.690   2.099  0.00  0.00     0.078 C 
ATOM      3  C1  OXE d   1      -0.471   3.072   0.915  0.00  0.00    -0.078 A 
ATOM      4  C2  OXE d   1      -0.260   3.646  -0.315  0.00  0.00    -0.078 A 
ATOM      5  C3  OXE d   1      -0.839   3.081  -1.448  0.00  0.00     0.003 A 
ATOM      6  C4  OXE d   1      -1.756   2.030  -1.326  0.00  0.00    -0.002 A 
ATOM      7  C5  OXE d   1      -2.016   1.456  -0.077  0.00  0.00    -0.002 A 
ATOM      8  C6  OXE d   1      -1.351   1.937   1.045  0.00  0.00     0.003 A 
ENDROOT
TORSDOF 0
ENDMDL
