MODEL 1
REMARK minimizedAffinity 12.6902208
REMARK minimizedRMSD -1
REMARK  0 active torsions:
REMARK  status: ('A' for Active; 'I' for Inactive)
ROOT
ATOM      1  C2' OXE d   1       2.244  -1.021  -0.403  0.00  0.00     0.078 C 
ATOM      2  C1' OXE d   1       1.148  -1.470   2.142  0.00  0.00     0.078 C 
ATOM      3  C1  OXE d   1       1.738  -0.111   1.860  0.00  0.00    -0.078 A 
ATOM      4  C2  OXE d   1       2.313   0.085   0.628  0.00  0.00    -0.078 A 
ATOM      5  C3  OXE d   1       2.823   1.338   0.296  0.00  0.00     0.003 A 
ATOM      6  C4  OXE d   1       2.893   2.352   1.259  0.00  0.00    -0.002 A 
ATOM      7  C5  OXE d   1       2.348   2.160   2.533  0.00  0.00    -0.002 A 
ATOM      8  C6  OXE d   1       1.730   0.952   2.835  0.00  0.00     0.003 A 
ENDROOT
TORSDOF 0
ENDMDL
