MODEL 1
REMARK minimizedAffinity 9.24353218
REMARK minimizedRMSD -1
REMARK  0 active torsions:
REMARK  status: ('A' for Active; 'I' for Inactive)
ROOT
ATOM      1  C2' OXE d   1       2.393  -5.605   2.251  0.00  0.00     0.078 C 
ATOM      2  C1' OXE d   1       2.179  -2.930   3.076  0.00  0.00     0.078 C 
ATOM      3  C1  OXE d   1       3.532  -3.422   2.627  0.00  0.00    -0.078 A 
ATOM      4  C2  OXE d   1       3.638  -4.745   2.269  0.00  0.00    -0.078 A 
ATOM      5  C3  OXE d   1       4.851  -5.236   1.795  0.00  0.00     0.003 A 
ATOM      6  C4  OXE d   1       6.000  -4.437   1.824  0.00  0.00    -0.002 A 
ATOM      7  C5  OXE d   1       5.923  -3.098   2.223  0.00  0.00    -0.002 A 
ATOM      8  C6  OXE d   1       4.691  -2.565   2.586  0.00  0.00     0.003 A 
ENDROOT
TORSDOF 0
ENDMDL
