MODEL 1
REMARK minimizedAffinity 7.17513275
REMARK minimizedRMSD -1
REMARK  0 active torsions:
REMARK  status: ('A' for Active; 'I' for Inactive)
ROOT
ATOM      1  C2' OXE d   1      -5.914   4.628   0.308  0.00  0.00     0.078 C 
ATOM      2  C1' OXE d   1      -5.251   3.951   2.950  0.00  0.00     0.078 C 
ATOM      3  C1  OXE d   1      -4.329   3.483   1.852  0.00  0.00    -0.078 A 
ATOM      4  C2  OXE d   1      -4.686   3.779   0.558  0.00  0.00    -0.078 A 
ATOM      5  C3  OXE d   1      -3.843   3.418  -0.489  0.00  0.00     0.003 A 
ATOM      6  C4  OXE d   1      -2.715   2.625  -0.249  0.00  0.00    -0.002 A 
ATOM      7  C5  OXE d   1      -2.355   2.279   1.058  0.00  0.00    -0.002 A 
ATOM      8  C6  OXE d   1      -3.126   2.735   2.121  0.00  0.00     0.003 A 
ENDROOT
TORSDOF 0
ENDMDL
