MODEL 1
REMARK minimizedAffinity 6.60525274
REMARK minimizedRMSD -1
REMARK  0 active torsions:
REMARK  status: ('A' for Active; 'I' for Inactive)
ROOT
ATOM      1  C2' OXE d   1       3.617   1.093  -4.121  0.00  0.00     0.078 C 
ATOM      2  C1' OXE d   1       5.980   0.869  -5.618  0.00  0.00     0.078 C 
ATOM      3  C1  OXE d   1       5.385   2.244  -5.445  0.00  0.00    -0.078 A 
ATOM      4  C2  OXE d   1       4.203   2.338  -4.750  0.00  0.00    -0.078 A 
ATOM      5  C3  OXE d   1       3.640   3.589  -4.514  0.00  0.00     0.003 A 
ATOM      6  C4  OXE d   1       4.183   4.735  -5.109  0.00  0.00    -0.002 A 
ATOM      7  C5  OXE d   1       5.364   4.655  -5.854  0.00  0.00    -0.002 A 
ATOM      8  C6  OXE d   1       6.000   3.427  -5.995  0.00  0.00     0.003 A 
ENDROOT
TORSDOF 0
ENDMDL
