MODEL 1
REMARK minimizedAffinity 10.0260839
REMARK minimizedRMSD -1
REMARK  0 active torsions:
REMARK  status: ('A' for Active; 'I' for Inactive)
ROOT
ATOM      1  C2' OXE d   1       2.207  -3.348   3.860  0.00  0.00     0.078 C 
ATOM      2  C1' OXE d   1       2.406  -5.580   2.169  0.00  0.00     0.078 C 
ATOM      3  C1  OXE d   1       3.646  -4.748   2.385  0.00  0.00    -0.078 A 
ATOM      4  C2  OXE d   1       3.527  -3.631   3.176  0.00  0.00    -0.078 A 
ATOM      5  C3  OXE d   1       4.652  -2.859   3.452  0.00  0.00     0.003 A 
ATOM      6  C4  OXE d   1       5.867  -3.122   2.808  0.00  0.00    -0.002 A 
ATOM      7  C5  OXE d   1       5.999  -4.232   1.967  0.00  0.00    -0.002 A 
ATOM      8  C6  OXE d   1       4.912  -5.077   1.778  0.00  0.00     0.003 A 
ENDROOT
TORSDOF 0
ENDMDL
