MODEL 1
REMARK minimizedAffinity 1.40539014
REMARK minimizedRMSD -1
REMARK  0 active torsions:
REMARK  status: ('A' for Active; 'I' for Inactive)
ROOT
ATOM      1  C   UNL d   1      -3.125   0.380   2.624  0.00  0.00     0.172 C 
ATOM      2  N   UNL d   1      -3.367   1.095   3.855  0.00  0.00    -0.070 N 
ATOM      3  C1  UNL d   1      -2.904   0.734   5.093  0.00  0.00    -0.004 A 
ATOM      4  C2  UNL d   1      -3.349   1.671   6.000  0.00  0.00    -0.047 A 
ATOM      5  C3  UNL d   1      -4.106   2.628   5.283  0.00  0.00    -0.047 A 
ATOM      6  C4  UNL d   1      -4.101   2.247   3.958  0.00  0.00    -0.004 A 
ENDROOT
TORSDOF 0
ENDMDL
