MODEL 1
REMARK minimizedAffinity 3.14847469
REMARK minimizedRMSD -1
REMARK  0 active torsions:
REMARK  status: ('A' for Active; 'I' for Inactive)
ROOT
ATOM      1  C   UNL d   1      -2.609   5.981  -4.514  0.00  0.00     0.172 C 
ATOM      2  N   UNL d   1      -2.632   4.586  -4.888  0.00  0.00    -0.070 N 
ATOM      3  C1  UNL d   1      -3.241   4.068  -6.000  0.00  0.00    -0.004 A 
ATOM      4  C2  UNL d   1      -3.035   2.705  -5.997  0.00  0.00    -0.047 A 
ATOM      5  C3  UNL d   1      -2.277   2.394  -4.844  0.00  0.00    -0.047 A 
ATOM      6  C4  UNL d   1      -2.041   3.576  -4.176  0.00  0.00    -0.004 A 
ENDROOT
TORSDOF 0
ENDMDL
