MODEL 1
REMARK minimizedAffinity 9.20858383
REMARK minimizedRMSD -1
REMARK  0 active torsions:
REMARK  status: ('A' for Active; 'I' for Inactive)
ROOT
ATOM      1  C   UNL d   1       1.108   1.117   6.000  0.00  0.00     0.172 C 
ATOM      2  N   UNL d   1       0.981   1.048   4.563  0.00  0.00    -0.070 N 
ATOM      3  C1  UNL d   1       2.005   1.181   3.664  0.00  0.00    -0.004 A 
ATOM      4  C2  UNL d   1       1.474   1.054   2.398  0.00  0.00    -0.047 A 
ATOM      5  C3  UNL d   1       0.083   0.838   2.542  0.00  0.00    -0.047 A 
ATOM      6  C4  UNL d   1      -0.196   0.839   3.892  0.00  0.00    -0.004 A 
ENDROOT
TORSDOF 0
ENDMDL
