MODEL 1
REMARK minimizedAffinity 12.1560173
REMARK minimizedRMSD -1
REMARK  0 active torsions:
REMARK  status: ('A' for Active; 'I' for Inactive)
ROOT
ATOM      1  C   UNL d   1      -3.374   1.124   2.711  0.00  0.00     0.172 C 
ATOM      2  N   UNL d   1      -3.637   1.891   3.906  0.00  0.00    -0.070 N 
ATOM      3  C1  UNL d   1      -4.553   2.902   4.020  0.00  0.00    -0.004 A 
ATOM      4  C2  UNL d   1      -4.500   3.375   5.313  0.00  0.00    -0.047 A 
ATOM      5  C3  UNL d   1      -3.518   2.623   6.000  0.00  0.00    -0.047 A 
ATOM      6  C4  UNL d   1      -2.999   1.711   5.105  0.00  0.00    -0.004 A 
ENDROOT
TORSDOF 0
ENDMDL
