MODEL 1
REMARK minimizedAffinity 4.07088709
REMARK minimizedRMSD -1
REMARK  0 active torsions:
REMARK  status: ('A' for Active; 'I' for Inactive)
ROOT
ATOM      1  C   UNL d   1       4.904   1.784  -1.106  0.00  0.00     0.172 C 
ATOM      2  N   UNL d   1       4.356   0.456  -0.959  0.00  0.00    -0.070 N 
ATOM      3  C1  UNL d   1       3.159   0.025  -1.466  0.00  0.00    -0.004 A 
ATOM      4  C2  UNL d   1       3.001  -1.296  -1.110  0.00  0.00    -0.047 A 
ATOM      5  C3  UNL d   1       4.142  -1.673  -0.362  0.00  0.00    -0.047 A 
ATOM      6  C4  UNL d   1       4.964  -0.569  -0.284  0.00  0.00    -0.004 A 
ENDROOT
TORSDOF 0
ENDMDL
