MODEL 1
REMARK minimizedAffinity 9.49225521
REMARK minimizedRMSD -1
REMARK  0 active torsions:
REMARK  status: ('A' for Active; 'I' for Inactive)
ROOT
ATOM      1  C   UNL d   1      -2.696   5.261  -5.999  0.00  0.00     0.172 C 
ATOM      2  N   UNL d   1      -2.263   4.027  -5.385  0.00  0.00    -0.070 N 
ATOM      3  C1  UNL d   1      -2.213   2.804  -6.000  0.00  0.00    -0.004 A 
ATOM      4  C2  UNL d   1      -1.747   1.889  -5.080  0.00  0.00    -0.047 A 
ATOM      5  C3  UNL d   1      -1.511   2.586  -3.871  0.00  0.00    -0.047 A 
ATOM      6  C4  UNL d   1      -1.839   3.907  -4.088  0.00  0.00    -0.004 A 
ENDROOT
TORSDOF 0
ENDMDL
