MODEL 1
REMARK minimizedAffinity 3.73130345
REMARK minimizedRMSD -1
REMARK  0 active torsions:
REMARK  status: ('A' for Active; 'I' for Inactive)
ROOT
ATOM      1  C   UNL d   1      -4.074  -5.891  -5.982  0.00  0.00     0.172 C 
ATOM      2  N   UNL d   1      -4.589  -4.559  -5.770  0.00  0.00    -0.070 N 
ATOM      3  C1  UNL d   1      -3.868  -3.487  -5.314  0.00  0.00    -0.004 A 
ATOM      4  C2  UNL d   1      -4.717  -2.404  -5.251  0.00  0.00    -0.047 A 
ATOM      5  C3  UNL d   1      -5.993  -2.839  -5.683  0.00  0.00    -0.047 A 
ATOM      6  C4  UNL d   1      -5.885  -4.177  -5.999  0.00  0.00    -0.004 A 
ENDROOT
TORSDOF 0
ENDMDL
