MODEL 1
REMARK minimizedAffinity 13.077054
REMARK minimizedRMSD -1
REMARK  0 active torsions:
REMARK  status: ('A' for Active; 'I' for Inactive)
ROOT
ATOM      1  C   UNL d   1      -4.869   3.538   5.999  0.00  0.00     0.172 C 
ATOM      2  N   UNL d   1      -4.468   2.640   4.941  0.00  0.00    -0.070 N 
ATOM      3  C1  UNL d   1      -5.122   2.467   3.751  0.00  0.00    -0.004 A 
ATOM      4  C2  UNL d   1      -4.426   1.530   3.019  0.00  0.00    -0.047 A 
ATOM      5  C3  UNL d   1      -3.315   1.124   3.797  0.00  0.00    -0.047 A 
ATOM      6  C4  UNL d   1      -3.366   1.828   4.982  0.00  0.00    -0.004 A 
ENDROOT
TORSDOF 0
ENDMDL
