MODEL 1
REMARK minimizedAffinity 10.5344887
REMARK minimizedRMSD -1
REMARK  0 active torsions:
REMARK  status: ('A' for Active; 'I' for Inactive)
ROOT
ATOM      1  C   UNL d   1      -3.599   1.093   2.663  0.00  0.00     0.172 C 
ATOM      2  N   UNL d   1      -4.097   1.746   3.850  0.00  0.00    -0.070 N 
ATOM      3  C1  UNL d   1      -5.187   2.572   3.909  0.00  0.00    -0.004 A 
ATOM      4  C2  UNL d   1      -5.331   2.988   5.215  0.00  0.00    -0.047 A 
ATOM      5  C3  UNL d   1      -4.291   2.392   5.967  0.00  0.00    -0.047 A 
ATOM      6  C4  UNL d   1      -3.542   1.628   5.097  0.00  0.00    -0.004 A 
ENDROOT
TORSDOF 0
ENDMDL
