MODEL 1
REMARK minimizedAffinity 10.1189051
REMARK minimizedRMSD -1
REMARK  0 active torsions:
REMARK  status: ('A' for Active; 'I' for Inactive)
ROOT
ATOM      1  C   UNL d   1       1.128   1.581   5.509  0.00  0.00     0.172 C 
ATOM      2  N   UNL d   1       0.933   1.716   4.084  0.00  0.00    -0.070 N 
ATOM      3  C1  UNL d   1       1.862   2.181   3.192  0.00  0.00    -0.004 A 
ATOM      4  C2  UNL d   1       1.293   2.155   1.937  0.00  0.00    -0.047 A 
ATOM      5  C3  UNL d   1      -0.025   1.658   2.080  0.00  0.00    -0.047 A 
ATOM      6  C4  UNL d   1      -0.221   1.394   3.420  0.00  0.00    -0.004 A 
ENDROOT
TORSDOF 0
ENDMDL
