MODEL 1
REMARK minimizedAffinity 4.90746498
REMARK minimizedRMSD -1
REMARK  0 active torsions:
REMARK  status: ('A' for Active; 'I' for Inactive)
ROOT
ATOM      1  C   UNL d   1       6.000   2.245  -1.130  0.00  0.00     0.172 C 
ATOM      2  N   UNL d   1       4.864   2.261  -0.239  0.00  0.00    -0.070 N 
ATOM      3  C1  UNL d   1       4.749   3.021   0.894  0.00  0.00    -0.004 A 
ATOM      4  C2  UNL d   1       3.522   2.751   1.461  0.00  0.00    -0.047 A 
ATOM      5  C3  UNL d   1       2.877   1.796   0.639  0.00  0.00    -0.047 A 
ATOM      6  C4  UNL d   1       3.730   1.511  -0.406  0.00  0.00    -0.004 A 
ENDROOT
TORSDOF 0
ENDMDL
