MODEL 1
REMARK minimizedAffinity -0.719289899
REMARK minimizedRMSD -1
REMARK  0 active torsions:
REMARK  status: ('A' for Active; 'I' for Inactive)
ROOT
ATOM      1  C   UNL d   1      -1.432   2.598  -4.876  0.00  0.00     0.172 C 
ATOM      2  N   UNL d   1      -2.100   3.861  -5.088  0.00  0.00    -0.070 N 
ATOM      3  C1  UNL d   1      -3.095   4.094  -5.999  0.00  0.00    -0.004 A 
ATOM      4  C2  UNL d   1      -3.465   5.418  -5.890  0.00  0.00    -0.047 A 
ATOM      5  C3  UNL d   1      -2.662   6.000  -4.880  0.00  0.00    -0.047 A 
ATOM      6  C4  UNL d   1      -1.826   5.014  -4.401  0.00  0.00    -0.004 A 
ENDROOT
TORSDOF 0
ENDMDL
