MODEL 1
REMARK minimizedAffinity 2.24765301
REMARK minimizedRMSD -1
REMARK  0 active torsions:
REMARK  status: ('A' for Active; 'I' for Inactive)
ROOT
ATOM      1  C   UNL d   1       3.751  -4.129  -0.163  0.00  0.00     0.172 C 
ATOM      2  N   UNL d   1       2.881  -3.168  -0.798  0.00  0.00    -0.070 N 
ATOM      3  C1  UNL d   1       2.459  -1.987  -0.248  0.00  0.00    -0.004 A 
ATOM      4  C2  UNL d   1       1.646  -1.359  -1.167  0.00  0.00    -0.047 A 
ATOM      5  C3  UNL d   1       1.576  -2.193  -2.309  0.00  0.00    -0.047 A 
ATOM      6  C4  UNL d   1       2.350  -3.305  -2.053  0.00  0.00    -0.004 A 
ENDROOT
TORSDOF 0
ENDMDL
