MODEL 1
REMARK minimizedAffinity 6.31512547
REMARK minimizedRMSD -1
REMARK  0 active torsions:
REMARK  status: ('A' for Active; 'I' for Inactive)
ROOT
ATOM      1  C   UNL d   1       2.882  -3.455   0.069  0.00  0.00     0.172 C 
ATOM      2  N   UNL d   1       2.236  -2.356  -0.609  0.00  0.00    -0.070 N 
ATOM      3  C1  UNL d   1       2.044  -1.102  -0.093  0.00  0.00    -0.004 A 
ATOM      4  C2  UNL d   1       1.394  -0.348  -1.047  0.00  0.00    -0.047 A 
ATOM      5  C3  UNL d   1       1.187  -1.179  -2.174  0.00  0.00    -0.047 A 
ATOM      6  C4  UNL d   1       1.718  -2.416  -1.875  0.00  0.00    -0.004 A 
ENDROOT
TORSDOF 0
ENDMDL
