MODEL 1
REMARK minimizedAffinity -0.631858289
REMARK minimizedRMSD -1
REMARK  0 active torsions:
REMARK  status: ('A' for Active; 'I' for Inactive)
ROOT
ATOM      1  C   UNL d   1      -5.639  -2.982  -5.998  0.00  0.00     0.172 C 
ATOM      2  N   UNL d   1      -4.622  -4.000  -5.879  0.00  0.00    -0.070 N 
ATOM      3  C1  UNL d   1      -3.294  -3.776  -5.632  0.00  0.00    -0.004 A 
ATOM      4  C2  UNL d   1      -2.660  -4.999  -5.593  0.00  0.00    -0.047 A 
ATOM      5  C3  UNL d   1      -3.641  -5.992  -5.826  0.00  0.00    -0.047 A 
ATOM      6  C4  UNL d   1      -4.846  -5.346  -6.000  0.00  0.00    -0.004 A 
ENDROOT
TORSDOF 0
ENDMDL
