MODEL 1
REMARK minimizedAffinity 4.40569448
REMARK minimizedRMSD -1
REMARK  0 active torsions:
REMARK  status: ('A' for Active; 'I' for Inactive)
ROOT
ATOM      1  C   UNL d   1      -3.727  -5.998  -6.000  0.00  0.00     0.172 C 
ATOM      2  N   UNL d   1      -3.170  -4.904  -5.240  0.00  0.00    -0.070 N 
ATOM      3  C1  UNL d   1      -2.569  -5.009  -4.013  0.00  0.00    -0.004 A 
ATOM      4  C2  UNL d   1      -2.174  -3.746  -3.628  0.00  0.00    -0.047 A 
ATOM      5  C3  UNL d   1      -2.550  -2.852  -4.659  0.00  0.00    -0.047 A 
ATOM      6  C4  UNL d   1      -3.165  -3.595  -5.644  0.00  0.00    -0.004 A 
ENDROOT
TORSDOF 0
ENDMDL
