MODEL 1
REMARK minimizedAffinity 5.79416084
REMARK minimizedRMSD -1
REMARK  0 active torsions:
REMARK  status: ('A' for Active; 'I' for Inactive)
ROOT
ATOM      1  C   UNL d   1      -3.880  -2.022   4.031  0.00  0.00     0.172 C 
ATOM      2  N   UNL d   1      -3.853  -0.587   4.192  0.00  0.00    -0.070 N 
ATOM      3  C1  UNL d   1      -4.168   0.331   3.225  0.00  0.00    -0.004 A 
ATOM      4  C2  UNL d   1      -4.019   1.587   3.771  0.00  0.00    -0.047 A 
ATOM      5  C3  UNL d   1      -3.599   1.419   5.112  0.00  0.00    -0.047 A 
ATOM      6  C4  UNL d   1      -3.504   0.063   5.346  0.00  0.00    -0.004 A 
ENDROOT
TORSDOF 0
ENDMDL
