MODEL 1
REMARK minimizedAffinity -1.76997697
REMARK minimizedRMSD -1
REMARK  0 active torsions:
REMARK  status: ('A' for Active; 'I' for Inactive)
ROOT
ATOM      1  C   UNL d   1      -5.780   4.954  -5.999  0.00  0.00     0.172 C 
ATOM      2  N   UNL d   1      -4.411   4.783  -5.572  0.00  0.00    -0.070 N 
ATOM      3  C1  UNL d   1      -3.580   5.780  -5.139  0.00  0.00    -0.004 A 
ATOM      4  C2  UNL d   1      -2.365   5.211  -4.825  0.00  0.00    -0.047 A 
ATOM      5  C3  UNL d   1      -2.470   3.823  -5.079  0.00  0.00    -0.047 A 
ATOM      6  C4  UNL d   1      -3.747   3.585  -5.541  0.00  0.00    -0.004 A 
ENDROOT
TORSDOF 0
ENDMDL
