MODEL 1
REMARK minimizedAffinity 23.9537754
REMARK minimizedRMSD -1
REMARK  0 active torsions:
REMARK  status: ('A' for Active; 'I' for Inactive)
ROOT
ATOM      1  C   UNL d   1      -2.511  -2.025  -2.049  0.00  0.00     0.124 A 
ATOM      2  C1  UNL d   1      -3.216  -3.120  -2.529  0.00  0.00     0.062 A 
ATOM      3  C2  UNL d   1      -3.680  -4.094  -1.649  0.00  0.00     0.162 A 
ATOM      4  C3  UNL d   1      -3.442  -3.977  -0.280  0.00  0.00    -0.034 A 
ATOM      5  C4  UNL d   1      -2.731  -2.873   0.195  0.00  0.00     0.162 A 
ATOM      6  C5  UNL d   1      -2.269  -1.903  -0.688  0.00  0.00     0.062 A 
ATOM      7  F   UNL d   1      -1.588  -0.845  -0.223  0.00  0.00    -0.097 F 
ATOM      8  F1  UNL d   1      -2.485  -2.729   1.506  0.00  0.00    -0.096 F 
ATOM      9  I   UNL d   1      -4.135  -5.430   1.039  0.00  0.00    -0.060 I 
ATOM     10  F2  UNL d   1      -4.359  -5.141  -2.141  0.00  0.00    -0.096 F 
ATOM     11  F3  UNL d   1      -3.449  -3.242  -3.844  0.00  0.00    -0.097 F 
ATOM     12  F4  UNL d   1      -2.064  -1.091  -2.898  0.00  0.00    -0.092 F 
ENDROOT
TORSDOF 0
ENDMDL
