MODEL 1
REMARK minimizedAffinity 17.550684
REMARK minimizedRMSD -1
REMARK  0 active torsions:
REMARK  status: ('A' for Active; 'I' for Inactive)
ROOT
ATOM      1  C   UNL d   1       2.649   1.252   0.406  0.00  0.00     0.124 A 
ATOM      2  C1  UNL d   1       3.382   0.391   1.210  0.00  0.00     0.062 A 
ATOM      3  C2  UNL d   1       2.949   0.097   2.499  0.00  0.00     0.162 A 
ATOM      4  C3  UNL d   1       1.774   0.665   2.993  0.00  0.00    -0.034 A 
ATOM      5  C4  UNL d   1       1.042   1.531   2.179  0.00  0.00     0.162 A 
ATOM      6  C5  UNL d   1       1.480   1.821   0.891  0.00  0.00     0.062 A 
ATOM      7  F   UNL d   1       0.770   2.654   0.115  0.00  0.00    -0.097 F 
ATOM      8  F1  UNL d   1      -0.092   2.095   2.622  0.00  0.00    -0.096 F 
ATOM      9  I   UNL d   1       1.122   0.229   4.921  0.00  0.00    -0.060 I 
ATOM     10  F2  UNL d   1       3.677  -0.738   3.254  0.00  0.00    -0.096 F 
ATOM     11  F3  UNL d   1       4.513  -0.160   0.744  0.00  0.00    -0.097 F 
ATOM     12  F4  UNL d   1       3.069   1.533  -0.835  0.00  0.00    -0.092 F 
ENDROOT
TORSDOF 0
ENDMDL
