MODEL 1
REMARK minimizedAffinity 20.5679035
REMARK minimizedRMSD -1
REMARK  0 active torsions:
REMARK  status: ('A' for Active; 'I' for Inactive)
ROOT
ATOM      1  C   UNL d   1       2.200   0.694   3.588  0.00  0.00     0.124 A 
ATOM      2  C1  UNL d   1       3.375   0.166   3.073  0.00  0.00     0.062 A 
ATOM      3  C2  UNL d   1       3.690   0.338   1.728  0.00  0.00     0.162 A 
ATOM      4  C3  UNL d   1       2.828   1.043   0.888  0.00  0.00    -0.034 A 
ATOM      5  C4  UNL d   1       1.647   1.570   1.413  0.00  0.00     0.162 A 
ATOM      6  C5  UNL d   1       1.337   1.396   2.758  0.00  0.00     0.062 A 
ATOM      7  F   UNL d   1       0.200   1.907   3.254  0.00  0.00    -0.097 F 
ATOM      8  F1  UNL d   1       0.795   2.254   0.634  0.00  0.00    -0.096 F 
ATOM      9  I   UNL d   1       3.294   1.302  -1.124  0.00  0.00    -0.060 I 
ATOM     10  F2  UNL d   1       4.833  -0.184   1.257  0.00  0.00    -0.096 F 
ATOM     11  F3  UNL d   1       4.210  -0.513   3.872  0.00  0.00    -0.097 F 
ATOM     12  F4  UNL d   1       1.899   0.526   4.882  0.00  0.00    -0.092 F 
ENDROOT
TORSDOF 0
ENDMDL
