MODEL 1
REMARK minimizedAffinity 21.9118099
REMARK minimizedRMSD -1
REMARK  0 active torsions:
REMARK  status: ('A' for Active; 'I' for Inactive)
ROOT
ATOM      1  C   UNL d   1       4.782   0.770  -0.314  0.00  0.00     0.124 A 
ATOM      2  C1  UNL d   1       3.638   1.538  -0.484  0.00  0.00     0.062 A 
ATOM      3  C2  UNL d   1       2.603   1.467   0.444  0.00  0.00     0.162 A 
ATOM      4  C3  UNL d   1       2.708   0.625   1.552  0.00  0.00    -0.034 A 
ATOM      5  C4  UNL d   1       3.862  -0.144   1.716  0.00  0.00     0.162 A 
ATOM      6  C5  UNL d   1       4.893  -0.070   0.785  0.00  0.00     0.062 A 
ATOM      7  F   UNL d   1       5.997  -0.812   0.950  0.00  0.00    -0.097 F 
ATOM      8  F1  UNL d   1       3.995  -0.963   2.769  0.00  0.00    -0.096 F 
ATOM      9  I   UNL d   1       1.164   0.516   2.943  0.00  0.00    -0.060 I 
ATOM     10  F2  UNL d   1       1.509   2.219   0.255  0.00  0.00    -0.096 F 
ATOM     11  F3  UNL d   1       3.528   2.349  -1.546  0.00  0.00    -0.097 F 
ATOM     12  F4  UNL d   1       5.775   0.840  -1.210  0.00  0.00    -0.092 F 
ENDROOT
TORSDOF 0
ENDMDL
