MODEL 1
REMARK minimizedAffinity 13.9873114
REMARK minimizedRMSD -1
REMARK  0 active torsions:
REMARK  status: ('A' for Active; 'I' for Inactive)
ROOT
ATOM      1  C   UNL d   1       4.718   0.447  -0.435  0.00  0.00     0.124 A 
ATOM      2  C1  UNL d   1       4.809  -0.410   0.653  0.00  0.00     0.062 A 
ATOM      3  C2  UNL d   1       3.796  -0.441   1.606  0.00  0.00     0.162 A 
ATOM      4  C3  UNL d   1       2.681   0.387   1.476  0.00  0.00    -0.034 A 
ATOM      5  C4  UNL d   1       2.597   1.248   0.380  0.00  0.00     0.162 A 
ATOM      6  C5  UNL d   1       3.613   1.275  -0.570  0.00  0.00     0.062 A 
ATOM      7  F   UNL d   1       3.524   2.104  -1.621  0.00  0.00    -0.097 F 
ATOM      8  F1  UNL d   1       1.540   2.058   0.223  0.00  0.00    -0.096 F 
ATOM      9  I   UNL d   1       1.163   0.344   2.899  0.00  0.00    -0.060 I 
ATOM     10  F2  UNL d   1       3.910  -1.280   2.647  0.00  0.00    -0.096 F 
ATOM     11  F3  UNL d   1       5.877  -1.211   0.787  0.00  0.00    -0.097 F 
ATOM     12  F4  UNL d   1       5.696   0.476  -1.350  0.00  0.00    -0.092 F 
ENDROOT
TORSDOF 0
ENDMDL
