MODEL 1
REMARK minimizedAffinity 22.239315
REMARK minimizedRMSD -1
REMARK  0 active torsions:
REMARK  status: ('A' for Active; 'I' for Inactive)
ROOT
ATOM      1  C   UNL d   1      -2.744  -2.508  -2.382  0.00  0.00     0.124 A 
ATOM      2  C1  UNL d   1      -1.943  -1.890  -3.333  0.00  0.00     0.062 A 
ATOM      3  C2  UNL d   1      -1.207  -2.656  -4.232  0.00  0.00     0.162 A 
ATOM      4  C3  UNL d   1      -1.267  -4.048  -4.185  0.00  0.00    -0.034 A 
ATOM      5  C4  UNL d   1      -2.074  -4.663  -3.226  0.00  0.00     0.162 A 
ATOM      6  C5  UNL d   1      -2.808  -3.893  -2.329  0.00  0.00     0.062 A 
ATOM      7  F   UNL d   1      -3.581  -4.492  -1.411  0.00  0.00    -0.097 F 
ATOM      8  F1  UNL d   1      -2.155  -6.000  -3.153  0.00  0.00    -0.096 F 
ATOM      9  I   UNL d   1      -0.167  -5.197  -5.528  0.00  0.00    -0.060 I 
ATOM     10  F2  UNL d   1      -0.442  -2.032  -5.140  0.00  0.00    -0.096 F 
ATOM     11  F3  UNL d   1      -1.879  -0.552  -3.385  0.00  0.00    -0.097 F 
ATOM     12  F4  UNL d   1      -3.451  -1.769  -1.518  0.00  0.00    -0.092 F 
ENDROOT
TORSDOF 0
ENDMDL
