MODEL 1
REMARK minimizedAffinity 26.1850395
REMARK minimizedRMSD -1
REMARK  0 active torsions:
REMARK  status: ('A' for Active; 'I' for Inactive)
ROOT
ATOM      1  C   UNL d   1      -2.698  -3.863  -2.121  0.00  0.00     0.124 A 
ATOM      2  C1  UNL d   1      -2.123  -4.664  -3.098  0.00  0.00     0.062 A 
ATOM      3  C2  UNL d   1      -1.509  -4.086  -4.205  0.00  0.00     0.162 A 
ATOM      4  C3  UNL d   1      -1.466  -2.698  -4.341  0.00  0.00    -0.034 A 
ATOM      5  C4  UNL d   1      -2.048  -1.899  -3.355  0.00  0.00     0.162 A 
ATOM      6  C5  UNL d   1      -2.660  -2.482  -2.250  0.00  0.00     0.062 A 
ATOM      7  F   UNL d   1      -3.215  -1.707  -1.307  0.00  0.00    -0.097 F 
ATOM      8  F1  UNL d   1      -2.024  -0.562  -3.454  0.00  0.00    -0.096 F 
ATOM      9  I   UNL d   1      -0.549  -1.829  -5.995  0.00  0.00    -0.060 I 
ATOM     10  F2  UNL d   1      -0.962  -4.884  -5.134  0.00  0.00    -0.096 F 
ATOM     11  F3  UNL d   1      -2.160  -5.999  -2.976  0.00  0.00    -0.097 F 
ATOM     12  F4  UNL d   1      -3.289  -4.423  -1.057  0.00  0.00    -0.092 F 
ENDROOT
TORSDOF 0
ENDMDL
