MODEL 1
REMARK minimizedAffinity 28.0842705
REMARK minimizedRMSD -1
REMARK  0 active torsions:
REMARK  status: ('A' for Active; 'I' for Inactive)
ROOT
ATOM      1  C   UNL d   1      -0.322  -1.874   3.438  0.00  0.00     0.124 A 
ATOM      2  C1  UNL d   1      -0.941  -3.099   3.228  0.00  0.00     0.062 A 
ATOM      3  C2  UNL d   1      -1.572  -3.365   2.017  0.00  0.00     0.162 A 
ATOM      4  C3  UNL d   1      -1.586  -2.405   1.004  0.00  0.00    -0.034 A 
ATOM      5  C4  UNL d   1      -0.962  -1.176   1.223  0.00  0.00     0.162 A 
ATOM      6  C5  UNL d   1      -0.332  -0.915   2.436  0.00  0.00     0.062 A 
ATOM      7  F   UNL d   1       0.266   0.269   2.637  0.00  0.00    -0.097 F 
ATOM      8  F1  UNL d   1      -0.956  -0.231   0.271  0.00  0.00    -0.096 F 
ATOM      9  I   UNL d   1      -2.529  -2.800  -0.809  0.00  0.00    -0.060 I 
ATOM     10  F2  UNL d   1      -2.163  -4.556   1.841  0.00  0.00    -0.096 F 
ATOM     11  F3  UNL d   1      -0.933  -4.027   4.195  0.00  0.00    -0.097 F 
ATOM     12  F4  UNL d   1       0.284  -1.620   4.605  0.00  0.00    -0.092 F 
ENDROOT
TORSDOF 0
ENDMDL
