MODEL 1
REMARK minimizedAffinity 13.9540377
REMARK minimizedRMSD -1
REMARK  0 active torsions:
REMARK  status: ('A' for Active; 'I' for Inactive)
ROOT
ATOM      1  C   UNL d   1       4.903   1.018  -0.171  0.00  0.00     0.124 A 
ATOM      2  C1  UNL d   1       4.902   0.104   0.874  0.00  0.00     0.062 A 
ATOM      3  C2  UNL d   1       3.764  -0.061   1.658  0.00  0.00     0.162 A 
ATOM      4  C3  UNL d   1       2.617   0.690   1.401  0.00  0.00    -0.034 A 
ATOM      5  C4  UNL d   1       2.626   1.609   0.350  0.00  0.00     0.162 A 
ATOM      6  C5  UNL d   1       3.766   1.769  -0.432  0.00  0.00     0.062 A 
ATOM      7  F   UNL d   1       3.766   2.653  -1.440  0.00  0.00    -0.097 F 
ATOM      8  F1  UNL d   1       1.541   2.347   0.075  0.00  0.00    -0.096 F 
ATOM      9  I   UNL d   1       0.914   0.447   2.572  0.00  0.00    -0.060 I 
ATOM     10  F2  UNL d   1       3.791  -0.951   2.661  0.00  0.00    -0.096 F 
ATOM     11  F3  UNL d   1       6.000  -0.623   1.128  0.00  0.00    -0.097 F 
ATOM     12  F4  UNL d   1       6.000   1.175  -0.924  0.00  0.00    -0.092 F 
ENDROOT
TORSDOF 0
ENDMDL
