MODEL 1
REMARK minimizedAffinity 26.4840279
REMARK minimizedRMSD -1
REMARK  0 active torsions:
REMARK  status: ('A' for Active; 'I' for Inactive)
ROOT
ATOM      1  C   UNL d   1       1.562  -0.259   3.318  0.00  0.00     0.124 A 
ATOM      2  C1  UNL d   1       0.823   0.621   2.539  0.00  0.00     0.062 A 
ATOM      3  C2  UNL d   1       1.321   1.060   1.315  0.00  0.00     0.162 A 
ATOM      4  C3  UNL d   1       2.565   0.620   0.863  0.00  0.00    -0.034 A 
ATOM      5  C4  UNL d   1       3.303  -0.264   1.652  0.00  0.00     0.162 A 
ATOM      6  C5  UNL d   1       2.801  -0.700   2.874  0.00  0.00     0.062 A 
ATOM      7  F   UNL d   1       3.516  -1.549   3.626  0.00  0.00    -0.097 F 
ATOM      8  F1  UNL d   1       4.502  -0.706   1.247  0.00  0.00    -0.096 F 
ATOM      9  I   UNL d   1       3.312   1.275  -0.966  0.00  0.00    -0.060 I 
ATOM     10  F2  UNL d   1       0.585   1.910   0.583  0.00  0.00    -0.096 F 
ATOM     11  F3  UNL d   1      -0.374   1.049   2.966  0.00  0.00    -0.097 F 
ATOM     12  F4  UNL d   1       1.081  -0.679   4.495  0.00  0.00    -0.092 F 
ENDROOT
TORSDOF 0
ENDMDL
