MODEL 1
REMARK minimizedAffinity 21.2262764
REMARK minimizedRMSD -1
REMARK  0 active torsions:
REMARK  status: ('A' for Active; 'I' for Inactive)
ROOT
ATOM      1  C   UNL d   1       1.934   1.540  -0.074  0.00  0.00     0.124 A 
ATOM      2  C1  UNL d   1       1.835   0.593   0.935  0.00  0.00     0.062 A 
ATOM      3  C2  UNL d   1       2.940  -0.180   1.281  0.00  0.00     0.162 A 
ATOM      4  C3  UNL d   1       4.154  -0.007   0.618  0.00  0.00    -0.034 A 
ATOM      5  C4  UNL d   1       4.246   0.947  -0.397  0.00  0.00     0.162 A 
ATOM      6  C5  UNL d   1       3.139   1.717  -0.739  0.00  0.00     0.062 A 
ATOM      7  F   UNL d   1       3.236   2.632  -1.714  0.00  0.00    -0.097 F 
ATOM      8  F1  UNL d   1       5.399   1.139  -1.055  0.00  0.00    -0.096 F 
ATOM      9  I   UNL d   1       5.809  -1.160   1.131  0.00  0.00    -0.060 I 
ATOM     10  F2  UNL d   1       2.815  -1.088   2.260  0.00  0.00    -0.096 F 
ATOM     11  F3  UNL d   1       0.671   0.420   1.579  0.00  0.00    -0.097 F 
ATOM     12  F4  UNL d   1       0.869   2.282  -0.405  0.00  0.00    -0.092 F 
ENDROOT
TORSDOF 0
ENDMDL
