MODEL 1
REMARK minimizedAffinity 19.6256523
REMARK minimizedRMSD -1
REMARK  0 active torsions:
REMARK  status: ('A' for Active; 'I' for Inactive)
ROOT
ATOM      1  C   UNL d   1       4.144   0.407  -0.432  0.00  0.00     0.124 A 
ATOM      2  C1  UNL d   1       4.395  -0.544   0.548  0.00  0.00     0.062 A 
ATOM      3  C2  UNL d   1       3.630  -0.569   1.710  0.00  0.00     0.162 A 
ATOM      4  C3  UNL d   1       2.606   0.359   1.899  0.00  0.00    -0.034 A 
ATOM      5  C4  UNL d   1       2.360   1.312   0.910  0.00  0.00     0.162 A 
ATOM      6  C5  UNL d   1       3.127   1.334  -0.250  0.00  0.00     0.062 A 
ATOM      7  F   UNL d   1       2.884   2.253  -1.196  0.00  0.00    -0.097 F 
ATOM      8  F1  UNL d   1       1.383   2.219   1.059  0.00  0.00    -0.096 F 
ATOM      9  I   UNL d   1       1.460   0.324   3.636  0.00  0.00    -0.060 I 
ATOM     10  F2  UNL d   1       3.894  -1.499   2.641  0.00  0.00    -0.096 F 
ATOM     11  F3  UNL d   1       5.377  -1.440   0.375  0.00  0.00    -0.097 F 
ATOM     12  F4  UNL d   1       4.882   0.429  -1.549  0.00  0.00    -0.092 F 
ENDROOT
TORSDOF 0
ENDMDL
