MODEL 1
REMARK minimizedAffinity 25.1653748
REMARK minimizedRMSD -1
REMARK  0 active torsions:
REMARK  status: ('A' for Active; 'I' for Inactive)
ROOT
ATOM      1  C   UNL d   1       3.106   0.006   1.119  0.00  0.00     0.124 A 
ATOM      2  C1  UNL d   1       3.983  -0.090   0.047  0.00  0.00     0.062 A 
ATOM      3  C2  UNL d   1       3.880   0.794  -1.023  0.00  0.00     0.162 A 
ATOM      4  C3  UNL d   1       2.898   1.785  -1.026  0.00  0.00    -0.034 A 
ATOM      5  C4  UNL d   1       2.019   1.875   0.056  0.00  0.00     0.162 A 
ATOM      6  C5  UNL d   1       2.126   0.988   1.122  0.00  0.00     0.062 A 
ATOM      7  F   UNL d   1       1.278   1.083   2.157  0.00  0.00    -0.097 F 
ATOM      8  F1  UNL d   1       1.063   2.815   0.085  0.00  0.00    -0.096 F 
ATOM      9  I   UNL d   1       2.741   3.109  -2.623  0.00  0.00    -0.060 I 
ATOM     10  F2  UNL d   1       4.741   0.678  -2.045  0.00  0.00    -0.096 F 
ATOM     11  F3  UNL d   1       4.930  -1.039   0.041  0.00  0.00    -0.097 F 
ATOM     12  F4  UNL d   1       3.206  -0.847   2.146  0.00  0.00    -0.092 F 
ENDROOT
TORSDOF 0
ENDMDL
