MODEL 1
REMARK minimizedAffinity 30.9438534
REMARK minimizedRMSD -1
REMARK  0 active torsions:
REMARK  status: ('A' for Active; 'I' for Inactive)
ROOT
ATOM      1  C   UNL d   1       4.010  -0.221   1.789  0.00  0.00     0.124 A 
ATOM      2  C1  UNL d   1       4.914  -0.355   0.745  0.00  0.00     0.062 A 
ATOM      3  C2  UNL d   1       4.760   0.397  -0.416  0.00  0.00     0.162 A 
ATOM      4  C3  UNL d   1       3.697   1.292  -0.539  0.00  0.00    -0.034 A 
ATOM      5  C4  UNL d   1       2.791   1.421   0.516  0.00  0.00     0.162 A 
ATOM      6  C5  UNL d   1       2.949   0.666   1.673  0.00  0.00     0.062 A 
ATOM      7  F   UNL d   1       2.074   0.797   2.681  0.00  0.00    -0.097 F 
ATOM      8  F1  UNL d   1       1.757   2.272   0.431  0.00  0.00    -0.096 F 
ATOM      9  I   UNL d   1       3.463   2.419  -2.272  0.00  0.00    -0.060 I 
ATOM     10  F2  UNL d   1       5.649   0.247  -1.409  0.00  0.00    -0.096 F 
ATOM     11  F3  UNL d   1       5.939  -1.213   0.853  0.00  0.00    -0.097 F 
ATOM     12  F4  UNL d   1       4.160  -0.947   2.904  0.00  0.00    -0.092 F 
ENDROOT
TORSDOF 0
ENDMDL
