MODEL 1
REMARK minimizedAffinity 25.0490551
REMARK minimizedRMSD -1
REMARK  0 active torsions:
REMARK  status: ('A' for Active; 'I' for Inactive)
ROOT
ATOM      1  C   UNL d   1       5.031   0.758  -0.324  0.00  0.00     0.124 A 
ATOM      2  C1  UNL d   1       4.025   1.713  -0.385  0.00  0.00     0.062 A 
ATOM      3  C2  UNL d   1       3.016   1.730   0.574  0.00  0.00     0.162 A 
ATOM      4  C3  UNL d   1       3.008   0.788   1.603  0.00  0.00    -0.034 A 
ATOM      5  C4  UNL d   1       4.022  -0.170   1.657  0.00  0.00     0.162 A 
ATOM      6  C5  UNL d   1       5.029  -0.182   0.697  0.00  0.00     0.062 A 
ATOM      7  F   UNL d   1       5.999  -1.105   0.757  0.00  0.00    -0.097 F 
ATOM      8  F1  UNL d   1       4.045  -1.090   2.633  0.00  0.00    -0.096 F 
ATOM      9  I   UNL d   1       1.502   0.809   3.039  0.00  0.00    -0.060 I 
ATOM     10  F2  UNL d   1       2.057   2.664   0.490  0.00  0.00    -0.096 F 
ATOM     11  F3  UNL d   1       4.025   2.622  -1.370  0.00  0.00    -0.097 F 
ATOM     12  F4  UNL d   1       6.000   0.744  -1.248  0.00  0.00    -0.092 F 
ENDROOT
TORSDOF 0
ENDMDL
