MODEL 1
REMARK minimizedAffinity 37.5707397
REMARK minimizedRMSD -1
REMARK  0 active torsions:
REMARK  status: ('A' for Active; 'I' for Inactive)
ROOT
ATOM      1  C   UNL d   1      -2.188  -3.049  -0.471  0.00  0.00     0.124 A 
ATOM      2  C1  UNL d   1      -2.672  -2.771  -1.742  0.00  0.00     0.062 A 
ATOM      3  C2  UNL d   1      -3.650  -3.582  -2.312  0.00  0.00     0.162 A 
ATOM      4  C3  UNL d   1      -4.151  -4.679  -1.611  0.00  0.00    -0.034 A 
ATOM      5  C4  UNL d   1      -3.658  -4.953  -0.333  0.00  0.00     0.162 A 
ATOM      6  C5  UNL d   1      -2.682  -4.140   0.232  0.00  0.00     0.062 A 
ATOM      7  F   UNL d   1      -2.215  -4.410   1.460  0.00  0.00    -0.097 F 
ATOM      8  F1  UNL d   1      -4.118  -5.999   0.368  0.00  0.00    -0.096 F 
ATOM      9  I   UNL d   1      -5.612  -5.893  -2.459  0.00  0.00    -0.060 I 
ATOM     10  F2  UNL d   1      -4.099  -3.289  -3.541  0.00  0.00    -0.096 F 
ATOM     11  F3  UNL d   1      -2.197  -1.719  -2.423  0.00  0.00    -0.097 F 
ATOM     12  F4  UNL d   1      -1.247  -2.268   0.074  0.00  0.00    -0.092 F 
ENDROOT
TORSDOF 0
ENDMDL
