MODEL 1
REMARK minimizedAffinity -2.96184421
REMARK minimizedRMSD -1
REMARK  1 active torsions:
REMARK  status: ('A' for Active; 'I' for Inactive)
REMARK    1  A    between atoms: C1_2  and  C2_3 
ROOT
ATOM      1  C2  UNL d   1       5.980  -3.306   3.023  0.00  0.00    -0.073 A 
ATOM      2  C3  UNL d   1       5.998  -2.075   3.689  0.00  0.00    -0.002 A 
ATOM      3  C4  UNL d   1       6.000  -2.028   5.084  0.00  0.00     0.004 A 
ATOM      4  C5  UNL d   1       5.991  -3.209   5.826  0.00  0.00    -0.004 A 
ATOM      5  C6  UNL d   1       5.985  -4.449   5.179  0.00  0.00    -0.075 A 
ATOM      6  C7  UNL d   1       5.973  -5.728   5.963  0.00  0.00     0.076 C 
ATOM      7  C8  UNL d   1       5.980  -4.488   3.778  0.00  0.00     0.001 A 
ENDROOT
BRANCH   1   8
ATOM      8  C1  UNL d   1       5.985  -3.362   1.518  0.00  0.00     0.053 C 
ATOM      9  C   UNL d   1       6.000  -4.792   1.000  0.00  0.00     0.018 C 
ENDBRANCH   1   8
TORSDOF 1
ENDMDL
