MODEL 1
REMARK minimizedAffinity -2.5876596
REMARK minimizedRMSD -1
REMARK  1 active torsions:
REMARK  status: ('A' for Active; 'I' for Inactive)
REMARK    1  A    between atoms: C1_2  and  C2_3 
ROOT
ATOM      1  C2  UNL d   1       5.903  -2.888   3.136  0.00  0.00    -0.073 A 
ATOM      2  C3  UNL d   1       6.000  -1.682   3.839  0.00  0.00    -0.002 A 
ATOM      3  C4  UNL d   1       5.969  -1.675   5.234  0.00  0.00     0.004 A 
ATOM      4  C5  UNL d   1       5.849  -2.872   5.940  0.00  0.00    -0.004 A 
ATOM      5  C6  UNL d   1       5.763  -4.088   5.256  0.00  0.00    -0.075 A 
ATOM      6  C7  UNL d   1       5.631  -5.385   6.000  0.00  0.00     0.076 C 
ATOM      7  C8  UNL d   1       5.792  -4.087   3.855  0.00  0.00     0.001 A 
ENDROOT
BRANCH   1   8
ATOM      8  C1  UNL d   1       5.942  -2.901   1.630  0.00  0.00     0.053 C 
ATOM      9  C   UNL d   1       6.000  -4.315   1.074  0.00  0.00     0.018 C 
ENDBRANCH   1   8
TORSDOF 1
ENDMDL
