MODEL 1
REMARK minimizedAffinity -3.55603552
REMARK minimizedRMSD -1
REMARK  1 active torsions:
REMARK  status: ('A' for Active; 'I' for Inactive)
REMARK    1  A    between atoms: C1_2  and  C2_3 
ROOT
ATOM      1  C2  UNL d   1       5.815  -3.889   4.657  0.00  0.00    -0.073 A 
ATOM      2  C3  UNL d   1       5.856  -2.493   4.564  0.00  0.00    -0.002 A 
ATOM      3  C4  UNL d   1       5.952  -1.873   3.317  0.00  0.00     0.004 A 
ATOM      4  C5  UNL d   1       6.000  -2.639   2.153  0.00  0.00    -0.004 A 
ATOM      5  C6  UNL d   1       5.947  -4.035   2.225  0.00  0.00    -0.075 A 
ATOM      6  C7  UNL d   1       6.000  -4.874   0.982  0.00  0.00     0.076 C 
ATOM      7  C8  UNL d   1       5.854  -4.651   3.480  0.00  0.00     0.001 A 
ENDROOT
BRANCH   1   8
ATOM      8  C1  UNL d   1       5.705  -4.563   6.000  0.00  0.00     0.053 C 
ATOM      9  C   UNL d   1       4.876  -5.836   5.932  0.00  0.00     0.018 C 
ENDBRANCH   1   8
TORSDOF 1
ENDMDL
