MODEL 1
REMARK minimizedAffinity -2.47305083
REMARK minimizedRMSD -1
REMARK  1 active torsions:
REMARK  status: ('A' for Active; 'I' for Inactive)
REMARK    1  A    between atoms: C1_2  and  C2_3 
ROOT
ATOM      1  C2  UNL d   1       5.990  -3.220   3.033  0.00  0.00    -0.073 A 
ATOM      2  C3  UNL d   1       6.000  -2.078   3.842  0.00  0.00    -0.002 A 
ATOM      3  C4  UNL d   1       5.998  -2.198   5.232  0.00  0.00     0.004 A 
ATOM      4  C5  UNL d   1       5.993  -3.459   5.828  0.00  0.00    -0.004 A 
ATOM      5  C6  UNL d   1       5.995  -4.613   5.037  0.00  0.00    -0.075 A 
ATOM      6  C7  UNL d   1       5.988  -5.977   5.662  0.00  0.00     0.076 C 
ATOM      7  C8  UNL d   1       5.995  -4.484   3.641  0.00  0.00     0.001 A 
ENDROOT
BRANCH   1   8
ATOM      8  C1  UNL d   1       5.999  -3.095   1.532  0.00  0.00     0.053 C 
ATOM      9  C   UNL d   1       5.946  -4.452   0.847  0.00  0.00     0.018 C 
ENDBRANCH   1   8
TORSDOF 1
ENDMDL
