MODEL 1
REMARK minimizedAffinity -3.80115128
REMARK minimizedRMSD -1
REMARK  1 active torsions:
REMARK  status: ('A' for Active; 'I' for Inactive)
REMARK    1  A    between atoms: C1_2  and  C2_3 
ROOT
ATOM      1  C2  UNL d   1       5.641  -3.212   3.206  0.00  0.00    -0.073 A 
ATOM      2  C3  UNL d   1       5.032  -2.155   3.892  0.00  0.00    -0.002 A 
ATOM      3  C4  UNL d   1       4.730  -2.276   5.249  0.00  0.00     0.004 A 
ATOM      4  C5  UNL d   1       5.040  -3.450   5.935  0.00  0.00    -0.004 A 
ATOM      5  C6  UNL d   1       5.660  -4.513   5.270  0.00  0.00    -0.075 A 
ATOM      6  C7  UNL d   1       5.998  -5.784   5.993  0.00  0.00     0.076 C 
ATOM      7  C8  UNL d   1       5.957  -4.385   3.907  0.00  0.00     0.001 A 
ENDROOT
BRANCH   1   8
ATOM      8  C1  UNL d   1       5.975  -3.084   1.742  0.00  0.00     0.053 C 
ATOM      9  C   UNL d   1       5.999  -4.433   1.042  0.00  0.00     0.018 C 
ENDBRANCH   1   8
TORSDOF 1
ENDMDL
