MODEL 1
REMARK minimizedAffinity -2.26397157
REMARK minimizedRMSD -1
REMARK  1 active torsions:
REMARK  status: ('A' for Active; 'I' for Inactive)
REMARK    1  A    between atoms: C1_2  and  C2_3 
ROOT
ATOM      1  C2  UNL d   1       5.506  -3.454   2.442  0.00  0.00    -0.073 A 
ATOM      2  C3  UNL d   1       5.999  -2.367   3.172  0.00  0.00    -0.002 A 
ATOM      3  C4  UNL d   1       5.549  -2.128   4.471  0.00  0.00     0.004 A 
ATOM      4  C5  UNL d   1       4.609  -2.976   5.056  0.00  0.00    -0.004 A 
ATOM      5  C6  UNL d   1       4.112  -4.074   4.346  0.00  0.00    -0.075 A 
ATOM      6  C7  UNL d   1       3.098  -4.995   4.960  0.00  0.00     0.076 C 
ATOM      7  C8  UNL d   1       4.567  -4.306   3.041  0.00  0.00     0.001 A 
ENDROOT
BRANCH   1   8
ATOM      8  C1  UNL d   1       5.993  -3.720   1.041  0.00  0.00     0.053 C 
ATOM      9  C   UNL d   1       5.999  -5.205   0.712  0.00  0.00     0.018 C 
ENDBRANCH   1   8
TORSDOF 1
ENDMDL
