MODEL 1
REMARK minimizedAffinity -3.31896257
REMARK minimizedRMSD -1
REMARK  1 active torsions:
REMARK  status: ('A' for Active; 'I' for Inactive)
REMARK    1  A    between atoms: C1_2  and  C2_3 
ROOT
ATOM      1  C2  UNL d   1       4.463  -3.559   4.733  0.00  0.00    -0.073 A 
ATOM      2  C3  UNL d   1       4.859  -2.270   4.358  0.00  0.00    -0.002 A 
ATOM      3  C4  UNL d   1       5.627  -2.075   3.210  0.00  0.00     0.004 A 
ATOM      4  C5  UNL d   1       6.000  -3.163   2.421  0.00  0.00    -0.004 A 
ATOM      5  C6  UNL d   1       5.604  -4.457   2.772  0.00  0.00    -0.075 A 
ATOM      6  C7  UNL d   1       5.998  -5.639   1.935  0.00  0.00     0.076 C 
ATOM      7  C8  UNL d   1       4.835  -4.646   3.928  0.00  0.00     0.001 A 
ENDROOT
BRANCH   1   8
ATOM      8  C1  UNL d   1       3.628  -3.775   5.969  0.00  0.00     0.053 C 
ATOM      9  C   UNL d   1       2.981  -5.151   5.987  0.00  0.00     0.018 C 
ENDBRANCH   1   8
TORSDOF 1
ENDMDL
