MODEL 1
REMARK minimizedAffinity 4.27386713
REMARK minimizedRMSD -1
REMARK  1 active torsions:
REMARK  status: ('A' for Active; 'I' for Inactive)
REMARK    1  A    between atoms: C1_2  and  C2_3 
ROOT
ATOM      1  C2  UNL d   1       5.815  -4.541   3.338  0.00  0.00    -0.073 A 
ATOM      2  C3  UNL d   1       5.460  -3.505   4.209  0.00  0.00    -0.002 A 
ATOM      3  C4  UNL d   1       5.288  -2.207   3.726  0.00  0.00     0.004 A 
ATOM      4  C5  UNL d   1       5.463  -1.933   2.369  0.00  0.00    -0.004 A 
ATOM      5  C6  UNL d   1       5.806  -2.958   1.482  0.00  0.00    -0.075 A 
ATOM      6  C7  UNL d   1       6.000  -2.680   0.020  0.00  0.00     0.076 C 
ATOM      7  C8  UNL d   1       5.979  -4.258   1.974  0.00  0.00     0.001 A 
ENDROOT
BRANCH   1   8
ATOM      8  C1  UNL d   1       5.995  -5.946   3.853  0.00  0.00     0.053 C 
ATOM      9  C   UNL d   1       5.995  -6.000   5.373  0.00  0.00     0.018 C 
ENDBRANCH   1   8
TORSDOF 1
ENDMDL
