MODEL 1
REMARK minimizedAffinity -2.12239671
REMARK minimizedRMSD -1
REMARK  1 active torsions:
REMARK  status: ('A' for Active; 'I' for Inactive)
REMARK    1  A    between atoms: C1_2  and  C2_3 
ROOT
ATOM      1  C2  UNL d   1       5.573  -4.467   4.416  0.00  0.00    -0.073 A 
ATOM      2  C3  UNL d   1       5.636  -3.435   5.358  0.00  0.00    -0.002 A 
ATOM      3  C4  UNL d   1       5.823  -2.115   4.946  0.00  0.00     0.004 A 
ATOM      4  C5  UNL d   1       5.943  -1.813   3.590  0.00  0.00    -0.004 A 
ATOM      5  C6  UNL d   1       5.871  -2.829   2.632  0.00  0.00    -0.075 A 
ATOM      6  C7  UNL d   1       6.000  -2.522   1.169  0.00  0.00     0.076 C 
ATOM      7  C8  UNL d   1       5.685  -4.153   3.054  0.00  0.00     0.001 A 
ENDROOT
BRANCH   1   8
ATOM      8  C1  UNL d   1       5.365  -5.893   4.855  0.00  0.00     0.053 C 
ATOM      9  C   UNL d   1       4.352  -5.999   5.985  0.00  0.00     0.018 C 
ENDBRANCH   1   8
TORSDOF 1
ENDMDL
