MODEL 1
REMARK minimizedAffinity -2.61164379
REMARK minimizedRMSD -1
REMARK  1 active torsions:
REMARK  status: ('A' for Active; 'I' for Inactive)
REMARK    1  A    between atoms: C1_2  and  C2_3 
ROOT
ATOM      1  C2  UNL d   1       5.996  -4.292   4.146  0.00  0.00    -0.073 A 
ATOM      2  C3  UNL d   1       5.990  -3.329   5.161  0.00  0.00    -0.002 A 
ATOM      3  C4  UNL d   1       5.995  -1.970   4.843  0.00  0.00     0.004 A 
ATOM      4  C5  UNL d   1       5.999  -1.560   3.510  0.00  0.00    -0.004 A 
ATOM      5  C6  UNL d   1       5.993  -2.508   2.481  0.00  0.00    -0.075 A 
ATOM      6  C7  UNL d   1       5.999  -2.084   1.042  0.00  0.00     0.076 C 
ATOM      7  C8  UNL d   1       5.991  -3.871   2.808  0.00  0.00     0.001 A 
ENDROOT
BRANCH   1   8
ATOM      8  C1  UNL d   1       5.985  -5.760   4.483  0.00  0.00     0.053 C 
ATOM      9  C   UNL d   1       5.980  -6.000   5.985  0.00  0.00     0.018 C 
ENDBRANCH   1   8
TORSDOF 1
ENDMDL
