MODEL 1
REMARK minimizedAffinity -3.27641964
REMARK minimizedRMSD -1
REMARK  1 active torsions:
REMARK  status: ('A' for Active; 'I' for Inactive)
REMARK    1  A    between atoms: C1_2  and  C2_3 
ROOT
ATOM      1  C2  UNL d   1       5.238  -3.571   4.592  0.00  0.00    -0.073 A 
ATOM      2  C3  UNL d   1       5.443  -4.722   5.362  0.00  0.00    -0.002 A 
ATOM      3  C4  UNL d   1       5.819  -5.920   4.754  0.00  0.00     0.004 A 
ATOM      4  C5  UNL d   1       6.000  -5.979   3.372  0.00  0.00    -0.004 A 
ATOM      5  C6  UNL d   1       5.811  -4.837   2.586  0.00  0.00    -0.075 A 
ATOM      6  C7  UNL d   1       6.000  -4.885   1.099  0.00  0.00     0.076 C 
ATOM      7  C8  UNL d   1       5.431  -3.638   3.205  0.00  0.00     0.001 A 
ENDROOT
BRANCH   1   8
ATOM      8  C1  UNL d   1       4.839  -2.274   5.245  0.00  0.00     0.053 C 
ATOM      9  C   UNL d   1       5.994  -1.636   6.000  0.00  0.00     0.018 C 
ENDBRANCH   1   8
TORSDOF 1
ENDMDL
