MODEL 1
REMARK minimizedAffinity -3.18067765
REMARK minimizedRMSD -1
REMARK  1 active torsions:
REMARK  status: ('A' for Active; 'I' for Inactive)
REMARK    1  A    between atoms: C1_2  and  C2_3 
ROOT
ATOM      1  C2  UNL d   1       5.639  -3.674   2.934  0.00  0.00    -0.073 A 
ATOM      2  C3  UNL d   1       5.254  -2.470   3.534  0.00  0.00    -0.002 A 
ATOM      3  C4  UNL d   1       5.015  -2.412   4.907  0.00  0.00     0.004 A 
ATOM      4  C5  UNL d   1       5.165  -3.553   5.695  0.00  0.00    -0.004 A 
ATOM      5  C6  UNL d   1       5.562  -4.763   5.116  0.00  0.00    -0.075 A 
ATOM      6  C7  UNL d   1       5.726  -6.000   5.949  0.00  0.00     0.076 C 
ATOM      7  C8  UNL d   1       5.797  -4.814   3.735  0.00  0.00     0.001 A 
ENDROOT
BRANCH   1   8
ATOM      8  C1  UNL d   1       5.905  -3.740   1.452  0.00  0.00     0.053 C 
ATOM      9  C   UNL d   1       6.000  -5.174   0.953  0.00  0.00     0.018 C 
ENDBRANCH   1   8
TORSDOF 1
ENDMDL
