MODEL 1
REMARK minimizedAffinity -1.90773416
REMARK minimizedRMSD -1
REMARK  1 active torsions:
REMARK  status: ('A' for Active; 'I' for Inactive)
REMARK    1  A    between atoms: C1_2  and  C2_3 
ROOT
ATOM      1  C2  UNL d   1       5.021  -3.486   4.837  0.00  0.00    -0.073 A 
ATOM      2  C3  UNL d   1       3.623  -3.489   4.907  0.00  0.00    -0.002 A 
ATOM      3  C4  UNL d   1       2.862  -3.038   3.828  0.00  0.00     0.004 A 
ATOM      4  C5  UNL d   1       3.489  -2.588   2.666  0.00  0.00    -0.004 A 
ATOM      5  C6  UNL d   1       4.885  -2.588   2.572  0.00  0.00    -0.075 A 
ATOM      6  C7  UNL d   1       5.575  -2.105   1.331  0.00  0.00     0.076 C 
ATOM      7  C8  UNL d   1       5.642  -3.040   3.662  0.00  0.00     0.001 A 
ENDROOT
BRANCH   1   8
ATOM      8  C1  UNL d   1       5.847  -3.978   5.998  0.00  0.00     0.053 C 
ATOM      9  C   UNL d   1       6.000  -5.491   5.988  0.00  0.00     0.018 C 
ENDBRANCH   1   8
TORSDOF 1
ENDMDL
