MODEL 1
REMARK minimizedAffinity -1.25053883
REMARK minimizedRMSD -1
REMARK  1 active torsions:
REMARK  status: ('A' for Active; 'I' for Inactive)
REMARK    1  A    between atoms: C1_2  and  C2_3 
ROOT
ATOM      1  C2  UNL d   1       4.261  -3.628   2.839  0.00  0.00    -0.073 A 
ATOM      2  C3  UNL d   1       3.013  -3.251   3.347  0.00  0.00    -0.002 A 
ATOM      3  C4  UNL d   1       2.732  -3.398   4.706  0.00  0.00     0.004 A 
ATOM      4  C5  UNL d   1       3.695  -3.917   5.570  0.00  0.00    -0.004 A 
ATOM      5  C6  UNL d   1       4.953  -4.289   5.083  0.00  0.00    -0.075 A 
ATOM      6  C7  UNL d   1       6.000  -4.850   6.000  0.00  0.00     0.076 C 
ATOM      7  C8  UNL d   1       5.227  -4.140   3.717  0.00  0.00     0.001 A 
ENDROOT
BRANCH   1   8
ATOM      8  C1  UNL d   1       4.572  -3.464   1.374  0.00  0.00     0.053 C 
ATOM      9  C   UNL d   1       5.994  -2.976   1.144  0.00  0.00     0.018 C 
ENDBRANCH   1   8
TORSDOF 1
ENDMDL
