MODEL 1
REMARK minimizedAffinity -1.53460872
REMARK minimizedRMSD -1
REMARK  1 active torsions:
REMARK  status: ('A' for Active; 'I' for Inactive)
REMARK    1  A    between atoms: C1_2  and  C2_3 
ROOT
ATOM      1  C2  UNL d   1       5.597  -4.523   4.682  0.00  0.00    -0.073 A 
ATOM      2  C3  UNL d   1       5.695  -3.146   4.910  0.00  0.00    -0.002 A 
ATOM      3  C4  UNL d   1       5.899  -2.268   3.845  0.00  0.00     0.004 A 
ATOM      4  C5  UNL d   1       5.999  -2.756   2.542  0.00  0.00    -0.004 A 
ATOM      5  C6  UNL d   1       5.892  -4.128   2.293  0.00  0.00    -0.075 A 
ATOM      6  C7  UNL d   1       6.000  -4.669   0.897  0.00  0.00     0.076 C 
ATOM      7  C8  UNL d   1       5.690  -5.003   3.368  0.00  0.00     0.001 A 
ENDROOT
BRANCH   1   8
ATOM      8  C1  UNL d   1       5.371  -5.475   5.828  0.00  0.00     0.053 C 
ATOM      9  C   UNL d   1       3.903  -5.838   5.987  0.00  0.00     0.018 C 
ENDBRANCH   1   8
TORSDOF 1
ENDMDL
