MODEL 1
REMARK minimizedAffinity -3.15052462
REMARK minimizedRMSD -1
REMARK  1 active torsions:
REMARK  status: ('A' for Active; 'I' for Inactive)
REMARK    1  A    between atoms: C1_2  and  C2_3 
ROOT
ATOM      1  C2  UNL d   1       5.915  -3.603   2.796  0.00  0.00    -0.073 A 
ATOM      2  C3  UNL d   1       5.989  -2.372   3.457  0.00  0.00    -0.002 A 
ATOM      3  C4  UNL d   1       5.918  -2.315   4.850  0.00  0.00     0.004 A 
ATOM      4  C5  UNL d   1       5.779  -3.486   5.594  0.00  0.00    -0.004 A 
ATOM      5  C6  UNL d   1       5.715  -4.727   4.952  0.00  0.00    -0.075 A 
ATOM      6  C7  UNL d   1       5.564  -5.996   5.738  0.00  0.00     0.076 C 
ATOM      7  C8  UNL d   1       5.785  -4.776   3.553  0.00  0.00     0.001 A 
ENDROOT
BRANCH   1   8
ATOM      8  C1  UNL d   1       5.998  -3.670   1.293  0.00  0.00     0.053 C 
ATOM      9  C   UNL d   1       5.977  -2.289   0.658  0.00  0.00     0.018 C 
ENDBRANCH   1   8
TORSDOF 1
ENDMDL
