MODEL 1
REMARK minimizedAffinity 7.03998232
REMARK minimizedRMSD -1
REMARK  0 active torsions:
REMARK  status: ('A' for Active; 'I' for Inactive)
ROOT
ATOM      1  C   UNL d   1       1.885  -0.946  -1.099  0.00  0.00     0.172 C 
ATOM      2  N   UNL d   1       2.740   0.178  -0.797  0.00  0.00    -0.070 N 
ATOM      3  C1  UNL d   1       3.335   0.999  -1.718  0.00  0.00    -0.004 A 
ATOM      4  C2  UNL d   1       4.066   1.944  -1.031  0.00  0.00    -0.047 A 
ATOM      5  C3  UNL d   1       3.905   1.682   0.351  0.00  0.00    -0.047 A 
ATOM      6  C4  UNL d   1       3.080   0.583   0.467  0.00  0.00    -0.004 A 
ENDROOT
TORSDOF 0
ENDMDL
