MODEL 1
REMARK minimizedAffinity 4.34270191
REMARK minimizedRMSD -1
REMARK  0 active torsions:
REMARK  status: ('A' for Active; 'I' for Inactive)
ROOT
ATOM      1  C   UNL d   1       2.147  -0.669   0.066  0.00  0.00     0.172 C 
ATOM      2  N   UNL d   1       2.918   0.541  -0.094  0.00  0.00    -0.070 N 
ATOM      3  C1  UNL d   1       3.857   1.012   0.785  0.00  0.00    -0.004 A 
ATOM      4  C2  UNL d   1       4.364   2.187   0.272  0.00  0.00    -0.047 A 
ATOM      5  C3  UNL d   1       3.705   2.431  -0.957  0.00  0.00    -0.047 A 
ATOM      6  C4  UNL d   1       2.816   1.397  -1.159  0.00  0.00    -0.004 A 
ENDROOT
TORSDOF 0
ENDMDL
