MODEL 1
REMARK minimizedAffinity 1.77583694
REMARK minimizedRMSD -1
REMARK  0 active torsions:
REMARK  status: ('A' for Active; 'I' for Inactive)
ROOT
ATOM      1  C   UNL d   1       3.954   2.905  -1.681  0.00  0.00     0.172 C 
ATOM      2  N   UNL d   1       3.416   1.841  -0.868  0.00  0.00    -0.070 N 
ATOM      3  C1  UNL d   1       3.735   1.598   0.442  0.00  0.00    -0.004 A 
ATOM      4  C2  UNL d   1       3.012   0.499   0.855  0.00  0.00    -0.047 A 
ATOM      5  C3  UNL d   1       2.233   0.067  -0.244  0.00  0.00    -0.047 A 
ATOM      6  C4  UNL d   1       2.502   0.915  -1.297  0.00  0.00    -0.004 A 
ENDROOT
TORSDOF 0
ENDMDL
