MODEL 1
REMARK minimizedAffinity 3.76219511
REMARK minimizedRMSD -1
REMARK  0 active torsions:
REMARK  status: ('A' for Active; 'I' for Inactive)
ROOT
ATOM      1  C   UNL d   1       1.298  -4.806   5.938  0.00  0.00     0.172 C 
ATOM      2  N   UNL d   1      -0.035  -5.081   5.456  0.00  0.00    -0.070 N 
ATOM      3  C1  UNL d   1      -0.909  -5.986   5.998  0.00  0.00    -0.004 A 
ATOM      4  C2  UNL d   1      -2.069  -5.950   5.255  0.00  0.00    -0.047 A 
ATOM      5  C3  UNL d   1      -1.885  -4.991   4.230  0.00  0.00    -0.047 A 
ATOM      6  C4  UNL d   1      -0.617  -4.469   4.378  0.00  0.00    -0.004 A 
ENDROOT
TORSDOF 0
ENDMDL
