MODEL 1
REMARK minimizedAffinity 4.20241785
REMARK minimizedRMSD -1
REMARK  0 active torsions:
REMARK  status: ('A' for Active; 'I' for Inactive)
ROOT
ATOM      1  C   UNL d   1       3.424   1.601  -1.800  0.00  0.00     0.172 C 
ATOM      2  N   UNL d   1       2.995   0.522  -0.941  0.00  0.00    -0.070 N 
ATOM      3  C1  UNL d   1       2.223  -0.542  -1.321  0.00  0.00    -0.004 A 
ATOM      4  C2  UNL d   1       2.037  -1.345  -0.216  0.00  0.00    -0.047 A 
ATOM      5  C3  UNL d   1       2.720  -0.740   0.866  0.00  0.00    -0.047 A 
ATOM      6  C4  UNL d   1       3.305   0.414   0.389  0.00  0.00    -0.004 A 
ENDROOT
TORSDOF 0
ENDMDL
