MODEL 1
REMARK minimizedAffinity 2.13818789
REMARK minimizedRMSD -1
REMARK  0 active torsions:
REMARK  status: ('A' for Active; 'I' for Inactive)
ROOT
ATOM      1  C   UNL d   1      -2.718   5.650   4.906  0.00  0.00     0.172 C 
ATOM      2  N   UNL d   1      -3.912   5.009   4.408  0.00  0.00    -0.070 N 
ATOM      3  C1  UNL d   1      -5.123   4.969   5.046  0.00  0.00    -0.004 A 
ATOM      4  C2  UNL d   1      -5.999   4.268   4.247  0.00  0.00    -0.047 A 
ATOM      5  C3  UNL d   1      -5.290   3.871   3.088  0.00  0.00    -0.047 A 
ATOM      6  C4  UNL d   1      -4.001   4.343   3.214  0.00  0.00    -0.004 A 
ENDROOT
TORSDOF 0
ENDMDL
