MODEL 1
REMARK minimizedAffinity 14.1250467
REMARK minimizedRMSD -1
REMARK  0 active torsions:
REMARK  status: ('A' for Active; 'I' for Inactive)
ROOT
ATOM      1  C   UNL d   1      -4.152   3.688  -0.180  0.00  0.00     0.172 C 
ATOM      2  N   UNL d   1      -4.322   2.306  -0.562  0.00  0.00    -0.070 N 
ATOM      3  C1  UNL d   1      -3.356   1.337  -0.503  0.00  0.00    -0.004 A 
ATOM      4  C2  UNL d   1      -3.912   0.159  -0.952  0.00  0.00    -0.047 A 
ATOM      5  C3  UNL d   1      -5.258   0.429  -1.294  0.00  0.00    -0.047 A 
ATOM      6  C4  UNL d   1      -5.485   1.766  -1.043  0.00  0.00    -0.004 A 
ENDROOT
TORSDOF 0
ENDMDL
