MODEL 1
REMARK minimizedAffinity 4.42181969
REMARK minimizedRMSD -1
REMARK  0 active torsions:
REMARK  status: ('A' for Active; 'I' for Inactive)
ROOT
ATOM      1  C   UNL d   1      -4.515   3.679   3.136  0.00  0.00     0.172 C 
ATOM      2  N   UNL d   1      -4.806   4.497   4.290  0.00  0.00    -0.070 N 
ATOM      3  C1  UNL d   1      -3.942   5.379   4.882  0.00  0.00    -0.004 A 
ATOM      4  C2  UNL d   1      -4.595   5.959   5.948  0.00  0.00    -0.047 A 
ATOM      5  C3  UNL d   1      -5.896   5.404   6.000  0.00  0.00    -0.047 A 
ATOM      6  C4  UNL d   1      -6.000   4.502   4.962  0.00  0.00    -0.004 A 
ENDROOT
TORSDOF 0
ENDMDL
