MODEL 1
REMARK minimizedAffinity -0.588935733
REMARK minimizedRMSD -1
REMARK  0 active torsions:
REMARK  status: ('A' for Active; 'I' for Inactive)
ROOT
ATOM      1  C   UNL d   1      -6.000   1.394  -3.335  0.00  0.00     0.172 C 
ATOM      2  N   UNL d   1      -5.418   1.771  -2.068  0.00  0.00    -0.070 N 
ATOM      3  C1  UNL d   1      -5.196   3.053  -1.642  0.00  0.00    -0.004 A 
ATOM      4  C2  UNL d   1      -4.631   2.989  -0.387  0.00  0.00    -0.047 A 
ATOM      5  C3  UNL d   1      -4.509   1.620  -0.047  0.00  0.00    -0.047 A 
ATOM      6  C4  UNL d   1      -5.004   0.889  -1.106  0.00  0.00    -0.004 A 
ENDROOT
TORSDOF 0
ENDMDL
