MODEL 1
REMARK minimizedAffinity -6.02414989
REMARK minimizedRMSD -1
REMARK  2 active torsions:
REMARK  status: ('A' for Active; 'I' for Inactive)
REMARK    1  A    between atoms: C2'_3  and  C1'_4 
REMARK    2  A    between atoms: C1'_4  and  C1_5 
ROOT
ATOM      1  C1  I4B d   1      -0.120  -1.034   0.069  0.00  0.00    -0.075 A 
ATOM      2  C2  I4B d   1      -0.117  -1.697   1.270  0.00  0.00     0.003 A 
ATOM      3  C3  I4B d   1      -1.010  -2.773   1.493  0.00  0.00     0.002 A 
ATOM      4  C4  I4B d   1      -1.917  -3.118   0.512  0.00  0.00    -0.004 A 
ATOM      5  C5  I4B d   1      -1.903  -2.460  -0.715  0.00  0.00     0.002 A 
ATOM      6  C6  I4B d   1      -0.991  -1.419  -0.943  0.00  0.00     0.003 A 
ENDROOT
BRANCH   1   7
ATOM      7  C1' I4B d   1       0.813   0.119  -0.121  0.00  0.00     0.060 C 
BRANCH   7   8
ATOM      8  C2' I4B d   1       0.000   1.304  -0.603  0.00  0.00    -0.013 C 
ATOM      9  C4' I4B d   1      -0.341   2.230   0.534  0.00  0.00     0.013 C 
ATOM     10  C3' I4B d   1       0.796   2.012  -1.658  0.00  0.00     0.013 C 
ENDBRANCH   7   8
ENDBRANCH   1   7
TORSDOF 2
ENDMDL
