MODEL 1
REMARK minimizedAffinity -1.4600352
REMARK minimizedRMSD -1
REMARK  2 active torsions:
REMARK  status: ('A' for Active; 'I' for Inactive)
REMARK    1  A    between atoms: C2'_3  and  C1'_4 
REMARK    2  A    between atoms: C1'_4  and  C1_5 
ROOT
ATOM      1  C1  I4B d   1       0.278   0.591   0.001  0.00  0.00    -0.075 A 
ATOM      2  C2  I4B d   1       0.738  -0.532  -0.639  0.00  0.00     0.003 A 
ATOM      3  C3  I4B d   1       0.318  -1.816  -0.217  0.00  0.00     0.002 A 
ATOM      4  C4  I4B d   1      -0.518  -1.933   0.875  0.00  0.00    -0.004 A 
ATOM      5  C5  I4B d   1      -1.002  -0.792   1.509  0.00  0.00     0.002 A 
ATOM      6  C6  I4B d   1      -0.612   0.479   1.062  0.00  0.00     0.003 A 
ENDROOT
BRANCH   1   7
ATOM      7  C1' I4B d   1       0.768   1.931  -0.450  0.00  0.00     0.060 C 
BRANCH   7   8
ATOM      8  C2' I4B d   1       1.248   1.794  -1.881  0.00  0.00    -0.013 C 
ATOM      9  C4' I4B d   1       0.500   2.726  -2.798  0.00  0.00     0.013 C 
ATOM     10  C3' I4B d   1       2.720   2.077  -1.904  0.00  0.00     0.013 C 
ENDBRANCH   7   8
ENDBRANCH   1   7
TORSDOF 2
ENDMDL
