MODEL 1
REMARK minimizedAffinity -4.4144969
REMARK minimizedRMSD -1
REMARK  2 active torsions:
REMARK  status: ('A' for Active; 'I' for Inactive)
REMARK    1  A    between atoms: C2'_3  and  C1'_4 
REMARK    2  A    between atoms: C1'_4  and  C1_5 
ROOT
ATOM      1  C1  I4B d   1      -0.578   0.729   0.410  0.00  0.00    -0.075 A 
ATOM      2  C2  I4B d   1       0.122  -0.399   0.060  0.00  0.00     0.003 A 
ATOM      3  C3  I4B d   1      -0.188  -1.644   0.657  0.00  0.00     0.002 A 
ATOM      4  C4  I4B d   1      -1.164  -1.707   1.631  0.00  0.00    -0.004 A 
ATOM      5  C5  I4B d   1      -1.888  -0.567   1.969  0.00  0.00     0.002 A 
ATOM      6  C6  I4B d   1      -1.602   0.657   1.346  0.00  0.00     0.003 A 
ENDROOT
BRANCH   1   7
ATOM      7  C1' I4B d   1      -0.202   2.034  -0.217  0.00  0.00     0.060 C 
BRANCH   7   8
ATOM      8  C2' I4B d   1       0.681   1.741  -1.413  0.00  0.00    -0.013 C 
ATOM      9  C4' I4B d   1       0.071   2.271  -2.683  0.00  0.00     0.013 C 
ATOM     10  C3' I4B d   1       2.024   2.356  -1.159  0.00  0.00     0.013 C 
ENDBRANCH   7   8
ENDBRANCH   1   7
TORSDOF 2
ENDMDL
