MODEL 1
REMARK minimizedAffinity -0.861083269
REMARK minimizedRMSD -1
REMARK  2 active torsions:
REMARK  status: ('A' for Active; 'I' for Inactive)
REMARK    1  A    between atoms: C2'_3  and  C1'_4 
REMARK    2  A    between atoms: C1'_4  and  C1_5 
ROOT
ATOM      1  C1  I4B d   1       0.157   0.390  -0.095  0.00  0.00    -0.075 A 
ATOM      2  C2  I4B d   1       0.565  -0.619  -0.931  0.00  0.00     0.003 A 
ATOM      3  C3  I4B d   1       0.406  -1.972  -0.547  0.00  0.00     0.002 A 
ATOM      4  C4  I4B d   1      -0.117  -2.269   0.696  0.00  0.00    -0.004 A 
ATOM      5  C5  I4B d   1      -0.552  -1.245   1.533  0.00  0.00     0.002 A 
ATOM      6  C6  I4B d   1      -0.426   0.093   1.130  0.00  0.00     0.003 A 
ENDROOT
BRANCH   1   7
ATOM      7  C1' I4B d   1       0.370   1.808  -0.519  0.00  0.00     0.060 C 
BRANCH   7   8
ATOM      8  C2' I4B d   1       0.673   1.811  -2.003  0.00  0.00    -0.013 C 
ATOM      9  C4' I4B d   1      -0.436   2.464  -2.785  0.00  0.00     0.013 C 
ATOM     10  C3' I4B d   1       1.974   2.529  -2.209  0.00  0.00     0.013 C 
ENDBRANCH   7   8
ENDBRANCH   1   7
TORSDOF 2
ENDMDL
