MODEL 1
REMARK minimizedAffinity -0.650340438
REMARK minimizedRMSD -1
REMARK  2 active torsions:
REMARK  status: ('A' for Active; 'I' for Inactive)
REMARK    1  A    between atoms: C2'_3  and  C1'_4 
REMARK    2  A    between atoms: C1'_4  and  C1_5 
ROOT
ATOM      1  C1  I4B d   1      -0.030   0.577  -0.347  0.00  0.00    -0.075 A 
ATOM      2  C2  I4B d   1      -1.234   1.085   0.073  0.00  0.00     0.003 A 
ATOM      3  C3  I4B d   1      -2.178   0.244   0.711  0.00  0.00     0.002 A 
ATOM      4  C4  I4B d   1      -1.900  -1.099   0.861  0.00  0.00    -0.004 A 
ATOM      5  C5  I4B d   1      -0.670  -1.607   0.455  0.00  0.00     0.002 A 
ATOM      6  C6  I4B d   1       0.277  -0.762  -0.142  0.00  0.00     0.003 A 
ENDROOT
BRANCH   1   7
ATOM      7  C1' I4B d   1       0.931   1.486  -1.046  0.00  0.00     0.060 C 
BRANCH   7   8
ATOM      8  C2' I4B d   1       0.762   1.285  -2.538  0.00  0.00    -0.013 C 
ATOM      9  C4' I4B d   1      -0.035   2.405  -3.153  0.00  0.00     0.013 C 
ATOM     10  C3' I4B d   1       2.128   1.192  -3.150  0.00  0.00     0.013 C 
ENDBRANCH   7   8
ENDBRANCH   1   7
TORSDOF 2
ENDMDL
