MODEL 1
REMARK minimizedAffinity -5.98078156
REMARK minimizedRMSD -1
REMARK  2 active torsions:
REMARK  status: ('A' for Active; 'I' for Inactive)
REMARK    1  A    between atoms: C2'_3  and  C1'_4 
REMARK    2  A    between atoms: C1'_4  and  C1_5 
ROOT
ATOM      1  C1  I4B d   1      -0.320   0.185   0.040  0.00  0.00    -0.075 A 
ATOM      2  C2  I4B d   1      -1.644   0.112   0.393  0.00  0.00     0.003 A 
ATOM      3  C3  I4B d   1      -2.212  -1.127   0.776  0.00  0.00     0.002 A 
ATOM      4  C4  I4B d   1      -1.437  -2.269   0.744  0.00  0.00    -0.004 A 
ATOM      5  C5  I4B d   1      -0.089  -2.189   0.408  0.00  0.00     0.002 A 
ATOM      6  C6  I4B d   1       0.477  -0.952   0.065  0.00  0.00     0.003 A 
ENDROOT
BRANCH   1   7
ATOM      7  C1' I4B d   1       0.239   1.504  -0.391  0.00  0.00     0.060 C 
BRANCH   7   8
ATOM      8  C2' I4B d   1       0.730   1.360  -1.817  0.00  0.00    -0.013 C 
ATOM      9  C4' I4B d   1      -0.259   1.938  -2.795  0.00  0.00     0.013 C 
ATOM     10  C3' I4B d   1       2.059   2.046  -1.921  0.00  0.00     0.013 C 
ENDBRANCH   7   8
ENDBRANCH   1   7
TORSDOF 2
ENDMDL
