MODEL 1
REMARK minimizedAffinity -4.50325251
REMARK minimizedRMSD -1
REMARK  2 active torsions:
REMARK  status: ('A' for Active; 'I' for Inactive)
REMARK    1  A    between atoms: C2'_3  and  C1'_4 
REMARK    2  A    between atoms: C1'_4  and  C1_5 
ROOT
ATOM      1  C1  I4B d   1      -0.077  -0.176  -0.195  0.00  0.00    -0.075 A 
ATOM      2  C2  I4B d   1      -1.325  -0.667  -0.487  0.00  0.00     0.003 A 
ATOM      3  C3  I4B d   1      -1.722  -1.938  -0.007  0.00  0.00     0.002 A 
ATOM      4  C4  I4B d   1      -0.827  -2.702   0.714  0.00  0.00    -0.004 A 
ATOM      5  C5  I4B d   1       0.430  -2.193   1.029  0.00  0.00     0.002 A 
ATOM      6  C6  I4B d   1       0.803  -0.917   0.583  0.00  0.00     0.003 A 
ENDROOT
BRANCH   1   7
ATOM      7  C1' I4B d   1       0.320   1.157  -0.745  0.00  0.00     0.060 C 
BRANCH   7   8
ATOM      8  C2' I4B d   1       0.509   1.006  -2.241  0.00  0.00    -0.013 C 
ATOM      9  C4' I4B d   1      -0.406   1.930  -3.002  0.00  0.00     0.013 C 
ATOM     10  C3' I4B d   1       1.948   1.288  -2.557  0.00  0.00     0.013 C 
ENDBRANCH   7   8
ENDBRANCH   1   7
TORSDOF 2
ENDMDL
