MODEL 1
REMARK minimizedAffinity -6.00162125
REMARK minimizedRMSD -1
REMARK  2 active torsions:
REMARK  status: ('A' for Active; 'I' for Inactive)
REMARK    1  A    between atoms: C2'_3  and  C1'_4 
REMARK    2  A    between atoms: C1'_4  and  C1_5 
ROOT
ATOM      1  C1  I4B d   1       0.074   0.481   0.138  0.00  0.00    -0.075 A 
ATOM      2  C2  I4B d   1      -1.243   0.351   0.501  0.00  0.00     0.003 A 
ATOM      3  C3  I4B d   1      -1.761  -0.917   0.862  0.00  0.00     0.002 A 
ATOM      4  C4  I4B d   1      -0.945  -2.028   0.798  0.00  0.00    -0.004 A 
ATOM      5  C5  I4B d   1       0.396  -1.890   0.452  0.00  0.00     0.002 A 
ATOM      6  C6  I4B d   1       0.913  -0.626   0.132  0.00  0.00     0.003 A 
ENDROOT
BRANCH   1   7
ATOM      7  C1' I4B d   1       0.579   1.829  -0.269  0.00  0.00     0.060 C 
BRANCH   7   8
ATOM      8  C2' I4B d   1       1.259   1.685  -1.616  0.00  0.00    -0.013 C 
ATOM      9  C4' I4B d   1       0.354   2.134  -2.734  0.00  0.00     0.013 C 
ATOM     10  C3' I4B d   1       2.523   2.492  -1.585  0.00  0.00     0.013 C 
ENDBRANCH   7   8
ENDBRANCH   1   7
TORSDOF 2
ENDMDL
