MODEL 1
REMARK minimizedAffinity -6.72401142
REMARK minimizedRMSD -1
REMARK  2 active torsions:
REMARK  status: ('A' for Active; 'I' for Inactive)
REMARK    1  A    between atoms: C2'_3  and  C1'_4 
REMARK    2  A    between atoms: C1'_4  and  C1_5 
ROOT
ATOM      1  C1  I4B d   1      -0.216   0.504   0.007  0.00  0.00    -0.075 A 
ATOM      2  C2  I4B d   1      -1.511   0.536   0.461  0.00  0.00     0.003 A 
ATOM      3  C3  I4B d   1      -2.141  -0.653   0.902  0.00  0.00     0.002 A 
ATOM      4  C4  I4B d   1      -1.461  -1.851   0.824  0.00  0.00    -0.004 A 
ATOM      5  C5  I4B d   1      -0.141  -1.878   0.385  0.00  0.00     0.002 A 
ATOM      6  C6  I4B d   1       0.490  -0.691  -0.015  0.00  0.00     0.003 A 
ENDROOT
BRANCH   1   7
ATOM      7  C1' I4B d   1       0.408   1.773  -0.482  0.00  0.00     0.060 C 
BRANCH   7   8
ATOM      8  C2' I4B d   1       0.732   1.598  -1.951  0.00  0.00    -0.013 C 
ATOM      9  C4' I4B d   1      -0.228   2.371  -2.817  0.00  0.00     0.013 C 
ATOM     10  C3' I4B d   1       2.144   2.051  -2.171  0.00  0.00     0.013 C 
ENDBRANCH   7   8
ENDBRANCH   1   7
TORSDOF 2
ENDMDL
