MODEL 1
REMARK minimizedAffinity -0.521151006
REMARK minimizedRMSD -1
REMARK  2 active torsions:
REMARK  status: ('A' for Active; 'I' for Inactive)
REMARK    1  A    between atoms: C2'_3  and  C1'_4 
REMARK    2  A    between atoms: C1'_4  and  C1_5 
ROOT
ATOM      1  C1  I4B d   1      -0.558   0.150   0.255  0.00  0.00    -0.075 A 
ATOM      2  C2  I4B d   1      -1.692  -0.579   0.000  0.00  0.00     0.003 A 
ATOM      3  C3  I4B d   1      -2.959  -0.091   0.403  0.00  0.00     0.002 A 
ATOM      4  C4  I4B d   1      -3.039   1.099   1.098  0.00  0.00    -0.004 A 
ATOM      5  C5  I4B d   1      -1.890   1.847   1.336  0.00  0.00     0.002 A 
ATOM      6  C6  I4B d   1      -0.643   1.377   0.901  0.00  0.00     0.003 A 
ENDROOT
BRANCH   1   7
ATOM      7  C1' I4B d   1       0.767  -0.411  -0.156  0.00  0.00     0.060 C 
BRANCH   7   8
ATOM      8  C2' I4B d   1       1.389  -1.074   1.057  0.00  0.00    -0.013 C 
ATOM      9  C4' I4B d   1       0.404  -1.979   1.748  0.00  0.00     0.013 C 
ATOM     10  C3' I4B d   1       2.596  -1.837   0.599  0.00  0.00     0.013 C 
ENDBRANCH   7   8
ENDBRANCH   1   7
TORSDOF 2
ENDMDL
