MODEL 1
REMARK minimizedAffinity -3.91008186
REMARK minimizedRMSD -1
REMARK  2 active torsions:
REMARK  status: ('A' for Active; 'I' for Inactive)
REMARK    1  A    between atoms: C2'_3  and  C1'_4 
REMARK    2  A    between atoms: C1'_4  and  C1_5 
ROOT
ATOM      1  C1  I4B d   1      -0.116   0.071  -0.057  0.00  0.00    -0.075 A 
ATOM      2  C2  I4B d   1       0.737  -0.988   0.132  0.00  0.00     0.003 A 
ATOM      3  C3  I4B d   1       0.244  -2.224   0.615  0.00  0.00     0.002 A 
ATOM      4  C4  I4B d   1      -1.092  -2.341   0.943  0.00  0.00    -0.004 A 
ATOM      5  C5  I4B d   1      -1.959  -1.273   0.729  0.00  0.00     0.002 A 
ATOM      6  C6  I4B d   1      -1.471  -0.064   0.215  0.00  0.00     0.003 A 
ENDROOT
BRANCH   1   7
ATOM      7  C1' I4B d   1       0.445   1.372  -0.537  0.00  0.00     0.060 C 
BRANCH   7   8
ATOM      8  C2' I4B d   1       0.667   1.261  -2.032  0.00  0.00    -0.013 C 
ATOM      9  C4' I4B d   1      -0.490   1.846  -2.799  0.00  0.00     0.013 C 
ATOM     10  C3' I4B d   1       1.948   1.965  -2.364  0.00  0.00     0.013 C 
ENDBRANCH   7   8
ENDBRANCH   1   7
TORSDOF 2
ENDMDL
