MODEL 1
REMARK minimizedAffinity 4.99670029
REMARK minimizedRMSD -1
REMARK  2 active torsions:
REMARK  status: ('A' for Active; 'I' for Inactive)
REMARK    1  A    between atoms: C2'_3  and  C1'_4 
REMARK    2  A    between atoms: C1'_4  and  C1_5 
ROOT
ATOM      1  C1  I4B d   1      -4.490  -2.430  -4.934  0.00  0.00    -0.075 A 
ATOM      2  C2  I4B d   1      -4.213  -2.709  -3.619  0.00  0.00     0.003 A 
ATOM      3  C3  I4B d   1      -4.844  -1.975  -2.586  0.00  0.00     0.002 A 
ATOM      4  C4  I4B d   1      -5.702  -0.944  -2.912  0.00  0.00    -0.004 A 
ATOM      5  C5  I4B d   1      -6.000  -0.678  -4.245  0.00  0.00     0.002 A 
ATOM      6  C6  I4B d   1      -5.400  -1.434  -5.263  0.00  0.00     0.003 A 
ENDROOT
BRANCH   1   7
ATOM      7  C1' I4B d   1      -3.780  -3.203  -6.000  0.00  0.00     0.060 C 
BRANCH   7   8
ATOM      8  C2' I4B d   1      -3.287  -4.499  -5.387  0.00  0.00    -0.013 C 
ATOM      9  C4' I4B d   1      -4.014  -5.685  -5.964  0.00  0.00     0.013 C 
ATOM     10  C3' I4B d   1      -1.811  -4.595  -5.634  0.00  0.00     0.013 C 
ENDBRANCH   7   8
ENDBRANCH   1   7
TORSDOF 2
ENDMDL
