MODEL 1
REMARK minimizedAffinity -1.46501577
REMARK minimizedRMSD -1
REMARK  0 active torsions:
REMARK  status: ('A' for Active; 'I' for Inactive)
ROOT
ATOM      1  C2' OXE d   1       5.452   5.876   3.138  0.00  0.00     0.078 C 
ATOM      2  C1' OXE d   1       3.036   5.841   1.709  0.00  0.00     0.078 C 
ATOM      3  C1  OXE d   1       2.962   5.912   3.214  0.00  0.00    -0.078 A 
ATOM      4  C2  OXE d   1       4.149   5.882   3.907  0.00  0.00    -0.078 A 
ATOM      5  C3  OXE d   1       4.140   6.000   5.294  0.00  0.00     0.003 A 
ATOM      6  C4  OXE d   1       2.930   5.995   5.998  0.00  0.00    -0.002 A 
ATOM      7  C5  OXE d   1       1.710   5.986   5.314  0.00  0.00    -0.002 A 
ATOM      8  C6  OXE d   1       1.709   5.988   3.923  0.00  0.00     0.003 A 
ENDROOT
TORSDOF 0
ENDMDL
