MODEL 1
REMARK minimizedAffinity -0.518801451
REMARK minimizedRMSD -1
REMARK  0 active torsions:
REMARK  status: ('A' for Active; 'I' for Inactive)
ROOT
ATOM      1  C2' OXE d   1       1.128   5.993   3.809  0.00  0.00     0.078 C 
ATOM      2  C1' OXE d   1       2.945   5.974   5.949  0.00  0.00     0.078 C 
ATOM      3  C1  OXE d   1       3.507   5.978   4.549  0.00  0.00    -0.078 A 
ATOM      4  C2  OXE d   1       2.610   5.940   3.508  0.00  0.00    -0.078 A 
ATOM      5  C3  OXE d   1       3.074   5.997   2.197  0.00  0.00     0.003 A 
ATOM      6  C4  OXE d   1       4.447   5.937   1.927  0.00  0.00    -0.002 A 
ATOM      7  C5  OXE d   1       5.376   5.935   2.972  0.00  0.00    -0.002 A 
ATOM      8  C6  OXE d   1       4.924   5.998   4.286  0.00  0.00     0.003 A 
ENDROOT
TORSDOF 0
ENDMDL
