MODEL 1
REMARK minimizedAffinity 3.49927521
REMARK minimizedRMSD -1
REMARK  0 active torsions:
REMARK  status: ('A' for Active; 'I' for Inactive)
ROOT
ATOM      1  C2' OXE d   1       2.836  -1.317   0.856  0.00  0.00     0.078 C 
ATOM      2  C1' OXE d   1       1.544  -0.396   3.171  0.00  0.00     0.078 C 
ATOM      3  C1  OXE d   1       0.719  -0.547   1.918  0.00  0.00    -0.078 A 
ATOM      4  C2  OXE d   1       1.369  -0.954   0.778  0.00  0.00    -0.078 A 
ATOM      5  C3  OXE d   1       0.645  -1.162  -0.392  0.00  0.00     0.003 A 
ATOM      6  C4  OXE d   1      -0.710  -0.814  -0.458  0.00  0.00    -0.002 A 
ATOM      7  C5  OXE d   1      -1.383  -0.360   0.681  0.00  0.00    -0.002 A 
ATOM      8  C6  OXE d   1      -0.694  -0.262   1.885  0.00  0.00     0.003 A 
ENDROOT
TORSDOF 0
ENDMDL
