MODEL 1
REMARK minimizedAffinity -0.0792545006
REMARK minimizedRMSD -1
REMARK  0 active torsions:
REMARK  status: ('A' for Active; 'I' for Inactive)
ROOT
ATOM      1  C2' OXE d   1       5.333   6.000   3.639  0.00  0.00     0.078 C 
ATOM      2  C1' OXE d   1       3.337   5.999   1.666  0.00  0.00     0.078 C 
ATOM      3  C1  OXE d   1       2.899   5.980   3.109  0.00  0.00    -0.078 A 
ATOM      4  C2  OXE d   1       3.883   5.933   4.068  0.00  0.00    -0.078 A 
ATOM      5  C3  OXE d   1       3.536   5.969   5.415  0.00  0.00     0.003 A 
ATOM      6  C4  OXE d   1       2.192   5.897   5.802  0.00  0.00    -0.002 A 
ATOM      7  C5  OXE d   1       1.175   5.904   4.842  0.00  0.00    -0.002 A 
ATOM      8  C6  OXE d   1       1.510   5.988   3.495  0.00  0.00     0.003 A 
ENDROOT
TORSDOF 0
ENDMDL
