MODEL 1
REMARK minimizedAffinity 1.0422256
REMARK minimizedRMSD -1
REMARK  0 active torsions:
REMARK  status: ('A' for Active; 'I' for Inactive)
ROOT
ATOM      1  C2' OXE d   1       0.805  -1.817   2.804  0.00  0.00     0.078 C 
ATOM      2  C1' OXE d   1       2.357  -2.128   0.486  0.00  0.00     0.078 C 
ATOM      3  C1  OXE d   1       1.118  -1.273   0.394  0.00  0.00    -0.078 A 
ATOM      4  C2  OXE d   1       0.339  -1.165   1.520  0.00  0.00    -0.078 A 
ATOM      5  C3  OXE d   1      -0.785  -0.344   1.505  0.00  0.00     0.003 A 
ATOM      6  C4  OXE d   1      -1.215   0.247   0.311  0.00  0.00    -0.002 A 
ATOM      7  C5  OXE d   1      -0.458   0.117  -0.858  0.00  0.00    -0.002 A 
ATOM      8  C6  OXE d   1       0.731  -0.603  -0.824  0.00  0.00     0.003 A 
ENDROOT
TORSDOF 0
ENDMDL
