MODEL 1
REMARK minimizedAffinity 5.69191504
REMARK minimizedRMSD -1
REMARK  0 active torsions:
REMARK  status: ('A' for Active; 'I' for Inactive)
ROOT
ATOM      1  C4' PXY d   1       1.295  -1.833   1.131  0.00  0.00     0.077 C 
ATOM      2  C1' PXY d   1      -3.032   1.696   2.627  0.00  0.00     0.077 C 
ATOM      3  C1  PXY d   1      -1.890   0.777   2.243  0.00  0.00    -0.082 A 
ATOM      4  C2  PXY d   1      -1.908   0.165   1.070  0.00  0.00     0.003 A 
ATOM      5  C3  PXY d   1      -0.898  -0.694   0.720  0.00  0.00     0.003 A 
ATOM      6  C4  PXY d   1       0.167  -0.889   1.557  0.00  0.00    -0.082 A 
ATOM      7  C5  PXY d   1       0.198  -0.260   2.751  0.00  0.00     0.003 A 
ATOM      8  C6  PXY d   1      -0.856   0.576   3.105  0.00  0.00     0.003 A 
ENDROOT
TORSDOF 0
ENDMDL
