MODEL 1
REMARK minimizedAffinity 5.64052486
REMARK minimizedRMSD -1
REMARK  0 active torsions:
REMARK  status: ('A' for Active; 'I' for Inactive)
ROOT
ATOM      1  C4' PXY d   1       0.670  -1.415   1.574  0.00  0.00     0.077 C 
ATOM      2  C1' PXY d   1      -5.102  -1.331   1.279  0.00  0.00     0.077 C 
ATOM      3  C1  PXY d   1      -3.589  -1.362   1.365  0.00  0.00    -0.082 A 
ATOM      4  C2  PXY d   1      -2.892  -0.288   1.031  0.00  0.00     0.003 A 
ATOM      5  C3  PXY d   1      -1.522  -0.310   1.073  0.00  0.00     0.003 A 
ATOM      6  C4  PXY d   1      -0.860  -1.425   1.511  0.00  0.00    -0.082 A 
ATOM      7  C5  PXY d   1      -1.564  -2.521   1.864  0.00  0.00     0.003 A 
ATOM      8  C6  PXY d   1      -2.952  -2.493   1.775  0.00  0.00     0.003 A 
ENDROOT
TORSDOF 0
ENDMDL
