MODEL 1
REMARK minimizedAffinity 8.5045948
REMARK minimizedRMSD -1
REMARK  0 active torsions:
REMARK  status: ('A' for Active; 'I' for Inactive)
ROOT
ATOM      1  C4' PXY d   1      -1.700  -3.338   2.623  0.00  0.00     0.077 C 
ATOM      2  C1' PXY d   1       3.237  -4.145  -0.273  0.00  0.00     0.077 C 
ATOM      3  C1  PXY d   1       1.948  -3.924   0.494  0.00  0.00    -0.082 A 
ATOM      4  C2  PXY d   1       1.027  -4.875   0.513  0.00  0.00     0.003 A 
ATOM      5  C3  PXY d   1      -0.157  -4.679   1.175  0.00  0.00     0.003 A 
ATOM      6  C4  PXY d   1      -0.380  -3.521   1.870  0.00  0.00    -0.082 A 
ATOM      7  C5  PXY d   1       0.559  -2.551   1.865  0.00  0.00     0.003 A 
ATOM      8  C6  PXY d   1       1.738  -2.752   1.152  0.00  0.00     0.003 A 
ENDROOT
TORSDOF 0
ENDMDL
