MODEL 1
REMARK minimizedAffinity 4.63169527
REMARK minimizedRMSD -1
REMARK  0 active torsions:
REMARK  status: ('A' for Active; 'I' for Inactive)
ROOT
ATOM      1  C4' PXY d   1       5.997   5.999   3.346  0.00  0.00     0.077 C 
ATOM      2  C1' PXY d   1       0.898   5.368   5.995  0.00  0.00     0.077 C 
ATOM      3  C1  PXY d   1       2.230   5.530   5.289  0.00  0.00    -0.082 A 
ATOM      4  C2  PXY d   1       3.353   5.455   5.985  0.00  0.00     0.003 A 
ATOM      5  C3  PXY d   1       4.564   5.631   5.368  0.00  0.00     0.003 A 
ATOM      6  C4  PXY d   1       4.630   5.833   4.015  0.00  0.00    -0.082 A 
ATOM      7  C5  PXY d   1       3.490   5.900   3.296  0.00  0.00     0.003 A 
ATOM      8  C6  PXY d   1       2.268   5.760   3.948  0.00  0.00     0.003 A 
ENDROOT
TORSDOF 0
ENDMDL
