MODEL 1
REMARK minimizedAffinity 11.3220806
REMARK minimizedRMSD -1
REMARK  0 active torsions:
REMARK  status: ('A' for Active; 'I' for Inactive)
ROOT
ATOM      1  C4' PXY d   1       5.932   6.000   5.918  0.00  0.00     0.077 C 
ATOM      2  C1' PXY d   1       0.864   4.551   3.543  0.00  0.00     0.077 C 
ATOM      3  C1  PXY d   1       2.199   4.932   4.154  0.00  0.00    -0.082 A 
ATOM      4  C2  PXY d   1       2.474   4.576   5.398  0.00  0.00     0.003 A 
ATOM      5  C3  PXY d   1       3.662   4.940   5.977  0.00  0.00     0.003 A 
ATOM      6  C4  PXY d   1       4.601   5.629   5.257  0.00  0.00    -0.082 A 
ATOM      7  C5  PXY d   1       4.332   5.986   3.983  0.00  0.00     0.003 A 
ATOM      8  C6  PXY d   1       3.103   5.643   3.428  0.00  0.00     0.003 A 
ENDROOT
TORSDOF 0
ENDMDL
