MODEL 1
REMARK minimizedAffinity 8.76999092
REMARK minimizedRMSD -1
REMARK  0 active torsions:
REMARK  status: ('A' for Active; 'I' for Inactive)
ROOT
ATOM      1  C4' PXY d   1       1.434   3.620   3.244  0.00  0.00     0.077 C 
ATOM      2  C1' PXY d   1       6.000   5.851   5.999  0.00  0.00     0.077 C 
ATOM      3  C1  PXY d   1       4.799   5.260   5.288  0.00  0.00    -0.082 A 
ATOM      4  C2  PXY d   1       4.821   5.122   3.972  0.00  0.00     0.003 A 
ATOM      5  C3  PXY d   1       3.731   4.619   3.309  0.00  0.00     0.003 A 
ATOM      6  C4  PXY d   1       2.628   4.204   4.005  0.00  0.00    -0.082 A 
ATOM      7  C5  PXY d   1       2.602   4.331   5.349  0.00  0.00     0.003 A 
ATOM      8  C6  PXY d   1       3.702   4.883   5.999  0.00  0.00     0.003 A 
ENDROOT
TORSDOF 0
ENDMDL
