MODEL 1
REMARK minimizedAffinity 10.1104584
REMARK minimizedRMSD -1
REMARK  0 active torsions:
REMARK  status: ('A' for Active; 'I' for Inactive)
ROOT
ATOM      1  C4' PXY d   1       1.572   3.631  -5.664  0.00  0.00     0.077 C 
ATOM      2  C1' PXY d   1      -2.511   1.469  -2.190  0.00  0.00     0.077 C 
ATOM      3  C1  PXY d   1      -1.443   2.027  -3.110  0.00  0.00    -0.082 A 
ATOM      4  C2  PXY d   1      -0.459   2.753  -2.605  0.00  0.00     0.003 A 
ATOM      5  C3  PXY d   1       0.497   3.292  -3.427  0.00  0.00     0.003 A 
ATOM      6  C4  PXY d   1       0.477   3.040  -4.772  0.00  0.00    -0.082 A 
ATOM      7  C5  PXY d   1      -0.518   2.291  -5.294  0.00  0.00     0.003 A 
ATOM      8  C6  PXY d   1      -1.502   1.787  -4.448  0.00  0.00     0.003 A 
ENDROOT
TORSDOF 0
ENDMDL
