MODEL 1
REMARK minimizedAffinity 3.5659709
REMARK minimizedRMSD -1
REMARK  0 active torsions:
REMARK  status: ('A' for Active; 'I' for Inactive)
ROOT
ATOM      1  C4' PXY d   1       0.966   4.006   3.658  0.00  0.00     0.077 C 
ATOM      2  C1' PXY d   1       5.993   5.993   5.707  0.00  0.00     0.077 C 
ATOM      3  C1  PXY d   1       4.671   5.469   5.182  0.00  0.00    -0.082 A 
ATOM      4  C2  PXY d   1       4.581   5.064   3.925  0.00  0.00     0.003 A 
ATOM      5  C3  PXY d   1       3.385   4.617   3.425  0.00  0.00     0.003 A 
ATOM      6  C4  PXY d   1       2.283   4.533   4.234  0.00  0.00    -0.082 A 
ATOM      7  C5  PXY d   1       2.370   4.934   5.520  0.00  0.00     0.003 A 
ATOM      8  C6  PXY d   1       3.583   5.424   5.997  0.00  0.00     0.003 A 
ENDROOT
TORSDOF 0
ENDMDL
