MODEL 1
REMARK minimizedAffinity 16.1472282
REMARK minimizedRMSD -1
REMARK  0 active torsions:
REMARK  status: ('A' for Active; 'I' for Inactive)
ROOT
ATOM      1  C4' PXY d   1      -3.862   0.402  -3.030  0.00  0.00     0.077 C 
ATOM      2  C1' PXY d   1      -4.983   5.234  -6.000  0.00  0.00     0.077 C 
ATOM      3  C1  PXY d   1      -4.701   3.962  -5.225  0.00  0.00    -0.082 A 
ATOM      4  C2  PXY d   1      -3.852   3.989  -4.210  0.00  0.00     0.003 A 
ATOM      5  C3  PXY d   1      -3.561   2.841  -3.518  0.00  0.00     0.003 A 
ATOM      6  C4  PXY d   1      -4.185   1.664  -3.835  0.00  0.00    -0.082 A 
ATOM      7  C5  PXY d   1      -5.060   1.631  -4.863  0.00  0.00     0.003 A 
ATOM      8  C6  PXY d   1      -5.310   2.798  -5.578  0.00  0.00     0.003 A 
ENDROOT
TORSDOF 0
ENDMDL
