MODEL 1
REMARK minimizedAffinity -5.38269663
REMARK minimizedRMSD -1
REMARK  0 active torsions:
REMARK  status: ('A' for Active; 'I' for Inactive)
ROOT
ATOM      1  C   UNL d   1       0.476  -0.665  -0.305  0.00  0.00     0.078 C 
ATOM      2  C1  UNL d   1       0.837   0.778  -0.113  0.00  0.00    -0.077 A 
ATOM      3  C2  UNL d   1       2.145   1.157   0.212  0.00  0.00    -0.001 A 
ATOM      4  C3  UNL d   1       2.464   2.503   0.397  0.00  0.00     0.003 A 
ATOM      5  C4  UNL d   1       1.480   3.481   0.261  0.00  0.00    -0.005 A 
ATOM      6  C5  UNL d   1       0.175   3.112  -0.060  0.00  0.00     0.003 A 
ATOM      7  C6  UNL d   1      -0.146   1.767  -0.246  0.00  0.00    -0.001 A 
ENDROOT
TORSDOF 0
ENDMDL
