MODEL 1
REMARK minimizedAffinity -5.05918503
REMARK minimizedRMSD -1
REMARK  0 active torsions:
REMARK  status: ('A' for Active; 'I' for Inactive)
ROOT
ATOM      1  C   UNL d   1       0.662   3.334   0.315  0.00  0.00     0.078 C 
ATOM      2  C1  UNL d   1       0.592   1.837   0.339  0.00  0.00    -0.077 A 
ATOM      3  C2  UNL d   1       1.751   1.058   0.231  0.00  0.00    -0.001 A 
ATOM      4  C3  UNL d   1       1.669  -0.335   0.245  0.00  0.00     0.003 A 
ATOM      5  C4  UNL d   1       0.431  -0.962   0.366  0.00  0.00    -0.005 A 
ATOM      6  C5  UNL d   1      -0.728  -0.196   0.472  0.00  0.00     0.003 A 
ATOM      7  C6  UNL d   1      -0.649   1.197   0.458  0.00  0.00    -0.001 A 
ENDROOT
TORSDOF 0
ENDMDL
