MODEL 1
REMARK minimizedAffinity -5.48842669
REMARK minimizedRMSD -1
REMARK  0 active torsions:
REMARK  status: ('A' for Active; 'I' for Inactive)
ROOT
ATOM      1  C   UNL d   1      -0.144  -0.531   0.061  0.00  0.00     0.078 C 
ATOM      2  C1  UNL d   1       0.136   0.940   0.137  0.00  0.00    -0.077 A 
ATOM      3  C2  UNL d   1      -0.870   1.880  -0.122  0.00  0.00    -0.001 A 
ATOM      4  C3  UNL d   1      -0.593   3.246  -0.058  0.00  0.00     0.003 A 
ATOM      5  C4  UNL d   1       0.690   3.686   0.264  0.00  0.00    -0.005 A 
ATOM      6  C5  UNL d   1       1.697   2.758   0.522  0.00  0.00     0.003 A 
ATOM      7  C6  UNL d   1       1.422   1.391   0.458  0.00  0.00    -0.001 A 
ENDROOT
TORSDOF 0
ENDMDL
