MODEL 1
REMARK minimizedAffinity -3.94058156
REMARK minimizedRMSD -1
REMARK  0 active torsions:
REMARK  status: ('A' for Active; 'I' for Inactive)
ROOT
ATOM      1  C   UNL d   1       0.595  -1.256   0.283  0.00  0.00     0.078 C 
ATOM      2  C1  UNL d   1      -0.014  -2.104  -0.793  0.00  0.00    -0.077 A 
ATOM      3  C2  UNL d   1      -1.331  -2.567  -0.688  0.00  0.00    -0.001 A 
ATOM      4  C3  UNL d   1      -1.882  -3.363  -1.693  0.00  0.00     0.003 A 
ATOM      5  C4  UNL d   1      -1.122  -3.705  -2.810  0.00  0.00    -0.005 A 
ATOM      6  C5  UNL d   1       0.190  -3.252  -2.923  0.00  0.00     0.003 A 
ATOM      7  C6  UNL d   1       0.743  -2.455  -1.919  0.00  0.00    -0.001 A 
ENDROOT
TORSDOF 0
ENDMDL
