MODEL 1
REMARK minimizedAffinity -3.61574364
REMARK minimizedRMSD -1
REMARK  0 active torsions:
REMARK  status: ('A' for Active; 'I' for Inactive)
ROOT
ATOM      1  C   UNL d   1       1.083   3.488   0.069  0.00  0.00     0.078 C 
ATOM      2  C1  UNL d   1       1.142   1.989   0.062  0.00  0.00    -0.077 A 
ATOM      3  C2  UNL d   1       2.361   1.315   0.202  0.00  0.00    -0.001 A 
ATOM      4  C3  UNL d   1       2.402  -0.080   0.184  0.00  0.00     0.003 A 
ATOM      5  C4  UNL d   1       1.227  -0.813   0.026  0.00  0.00    -0.005 A 
ATOM      6  C5  UNL d   1       0.010  -0.151  -0.117  0.00  0.00     0.003 A 
ATOM      7  C6  UNL d   1      -0.033   1.244  -0.099  0.00  0.00    -0.001 A 
ENDROOT
TORSDOF 0
ENDMDL
