MODEL 1
REMARK minimizedAffinity -5.62222576
REMARK minimizedRMSD -1
REMARK  0 active torsions:
REMARK  status: ('A' for Active; 'I' for Inactive)
ROOT
ATOM      1  C   UNL d   1       2.480   2.862   1.084  0.00  0.00     0.078 C 
ATOM      2  C1  UNL d   1       1.163   2.284   0.658  0.00  0.00    -0.077 A 
ATOM      3  C2  UNL d   1       0.019   3.086   0.569  0.00  0.00    -0.001 A 
ATOM      4  C3  UNL d   1      -1.202   2.532   0.179  0.00  0.00     0.003 A 
ATOM      5  C4  UNL d   1      -1.290   1.175  -0.123  0.00  0.00    -0.005 A 
ATOM      6  C5  UNL d   1      -0.157   0.369  -0.036  0.00  0.00     0.003 A 
ATOM      7  C6  UNL d   1       1.065   0.921   0.354  0.00  0.00    -0.001 A 
ENDROOT
TORSDOF 0
ENDMDL
