MODEL 1
REMARK minimizedAffinity -4.81340313
REMARK minimizedRMSD -1
REMARK  0 active torsions:
REMARK  status: ('A' for Active; 'I' for Inactive)
ROOT
ATOM      1  C   UNL d   1       0.284   3.050  -0.028  0.00  0.00     0.078 C 
ATOM      2  C1  UNL d   1      -0.114   1.614   0.139  0.00  0.00    -0.077 A 
ATOM      3  C2  UNL d   1       0.744   0.578  -0.251  0.00  0.00    -0.001 A 
ATOM      4  C3  UNL d   1       0.356  -0.754  -0.099  0.00  0.00     0.003 A 
ATOM      5  C4  UNL d   1      -0.890  -1.063   0.443  0.00  0.00    -0.005 A 
ATOM      6  C5  UNL d   1      -1.751  -0.038   0.831  0.00  0.00     0.003 A 
ATOM      7  C6  UNL d   1      -1.365   1.294   0.680  0.00  0.00    -0.001 A 
ENDROOT
TORSDOF 0
ENDMDL
