MODEL 1
REMARK minimizedAffinity -4.8867116
REMARK minimizedRMSD -1
REMARK  0 active torsions:
REMARK  status: ('A' for Active; 'I' for Inactive)
ROOT
ATOM      1  C   UNL d   1       0.059  -0.957  -0.359  0.00  0.00     0.078 C 
ATOM      2  C1  UNL d   1       0.557   0.440  -0.139  0.00  0.00    -0.077 A 
ATOM      3  C2  UNL d   1       1.917   0.696   0.077  0.00  0.00    -0.001 A 
ATOM      4  C3  UNL d   1       2.364   2.001   0.290  0.00  0.00     0.003 A 
ATOM      5  C4  UNL d   1       1.459   3.060   0.291  0.00  0.00    -0.005 A 
ATOM      6  C5  UNL d   1       0.104   2.815   0.080  0.00  0.00     0.003 A 
ATOM      7  C6  UNL d   1      -0.346   1.511  -0.134  0.00  0.00    -0.001 A 
ENDROOT
TORSDOF 0
ENDMDL
