MODEL 1
REMARK minimizedAffinity -3.56266737
REMARK minimizedRMSD -1
REMARK  0 active torsions:
REMARK  status: ('A' for Active; 'I' for Inactive)
ROOT
ATOM      1  C   UNL d   1      -0.394   3.072   0.397  0.00  0.00     0.078 C 
ATOM      2  C1  UNL d   1      -0.124   1.598   0.437  0.00  0.00    -0.077 A 
ATOM      3  C2  UNL d   1       1.176   1.098   0.297  0.00  0.00    -0.001 A 
ATOM      4  C3  UNL d   1       1.411  -0.277   0.326  0.00  0.00     0.003 A 
ATOM      5  C4  UNL d   1       0.351  -1.165   0.495  0.00  0.00    -0.005 A 
ATOM      6  C5  UNL d   1      -0.947  -0.677   0.633  0.00  0.00     0.003 A 
ATOM      7  C6  UNL d   1      -1.184   0.698   0.604  0.00  0.00    -0.001 A 
ENDROOT
TORSDOF 0
ENDMDL
