MODEL 1
REMARK minimizedAffinity -5.23388815
REMARK minimizedRMSD -1
REMARK  0 active torsions:
REMARK  status: ('A' for Active; 'I' for Inactive)
ROOT
ATOM      1  C   UNL d   1       3.479   1.127   0.528  0.00  0.00     0.078 C 
ATOM      2  C1  UNL d   1       2.274   1.835  -0.014  0.00  0.00    -0.077 A 
ATOM      3  C2  UNL d   1       1.225   1.122  -0.609  0.00  0.00    -0.001 A 
ATOM      4  C3  UNL d   1       0.114   1.796  -1.119  0.00  0.00     0.003 A 
ATOM      5  C4  UNL d   1       0.040   3.185  -1.040  0.00  0.00    -0.005 A 
ATOM      6  C5  UNL d   1       1.080   3.903  -0.451  0.00  0.00     0.003 A 
ATOM      7  C6  UNL d   1       2.192   3.231   0.058  0.00  0.00    -0.001 A 
ENDROOT
TORSDOF 0
ENDMDL
