MODEL 1
REMARK minimizedAffinity -5.38472748
REMARK minimizedRMSD -1
REMARK  0 active torsions:
REMARK  status: ('A' for Active; 'I' for Inactive)
ROOT
ATOM      1  C   UNL d   1       0.026  -0.592   0.015  0.00  0.00     0.078 C 
ATOM      2  C1  UNL d   1       0.082   0.906   0.053  0.00  0.00    -0.077 A 
ATOM      3  C2  UNL d   1      -1.043   1.678  -0.263  0.00  0.00    -0.001 A 
ATOM      4  C3  UNL d   1      -0.973   3.072  -0.232  0.00  0.00     0.003 A 
ATOM      5  C4  UNL d   1       0.219   3.705   0.113  0.00  0.00    -0.005 A 
ATOM      6  C5  UNL d   1       1.344   2.945   0.426  0.00  0.00     0.003 A 
ATOM      7  C6  UNL d   1       1.276   1.551   0.396  0.00  0.00    -0.001 A 
ENDROOT
TORSDOF 0
ENDMDL
