MODEL 1
REMARK minimizedAffinity -4.86854172
REMARK minimizedRMSD -1
REMARK  0 active torsions:
REMARK  status: ('A' for Active; 'I' for Inactive)
ROOT
ATOM      1  C   UNL d   1      -0.176  -0.855  -0.171  0.00  0.00     0.078 C 
ATOM      2  C1  UNL d   1       0.099   0.619  -0.136  0.00  0.00    -0.077 A 
ATOM      3  C2  UNL d   1      -0.901   1.531   0.221  0.00  0.00    -0.001 A 
ATOM      4  C3  UNL d   1      -0.634   2.901   0.240  0.00  0.00     0.003 A 
ATOM      5  C4  UNL d   1       0.634   3.371  -0.099  0.00  0.00    -0.005 A 
ATOM      6  C5  UNL d   1       1.635   2.471  -0.457  0.00  0.00     0.003 A 
ATOM      7  C6  UNL d   1       1.369   1.101  -0.477  0.00  0.00    -0.001 A 
ENDROOT
TORSDOF 0
ENDMDL
