MODEL 1
REMARK minimizedAffinity -3.04472017
REMARK minimizedRMSD -1
REMARK  0 active torsions:
REMARK  status: ('A' for Active; 'I' for Inactive)
ROOT
ATOM      1  C   UNL d   1      -0.179  -3.225  -2.051  0.00  0.00     0.172 C 
ATOM      2  N   UNL d   1      -0.145  -2.077  -1.175  0.00  0.00    -0.070 N 
ATOM      3  C1  UNL d   1      -0.418  -0.786  -1.541  0.00  0.00    -0.004 A 
ATOM      4  C2  UNL d   1      -0.278   0.008  -0.423  0.00  0.00    -0.047 A 
ATOM      5  C3  UNL d   1       0.093  -0.835   0.651  0.00  0.00    -0.047 A 
ATOM      6  C4  UNL d   1       0.168  -2.120   0.158  0.00  0.00    -0.004 A 
ENDROOT
TORSDOF 0
ENDMDL
