MODEL 1
REMARK minimizedAffinity -3.24185205
REMARK minimizedRMSD -1
REMARK  0 active torsions:
REMARK  status: ('A' for Active; 'I' for Inactive)
ROOT
ATOM      1  C   UNL d   1       0.083  -1.309  -0.175  0.00  0.00     0.172 C 
ATOM      2  N   UNL d   1      -0.265   0.074   0.055  0.00  0.00    -0.070 N 
ATOM      3  C1  UNL d   1       0.407   1.159  -0.441  0.00  0.00    -0.004 A 
ATOM      4  C2  UNL d   1      -0.237   2.293   0.004  0.00  0.00    -0.047 A 
ATOM      5  C3  UNL d   1      -1.334   1.875   0.795  0.00  0.00    -0.047 A 
ATOM      6  C4  UNL d   1      -1.327   0.496   0.810  0.00  0.00    -0.004 A 
ENDROOT
TORSDOF 0
ENDMDL
