MODEL 1
REMARK minimizedAffinity -2.7532239
REMARK minimizedRMSD -1
REMARK  0 active torsions:
REMARK  status: ('A' for Active; 'I' for Inactive)
ROOT
ATOM      1  C   UNL d   1       1.413   0.320   0.411  0.00  0.00     0.172 C 
ATOM      2  N   UNL d   1       0.021   0.664   0.241  0.00  0.00    -0.070 N 
ATOM      3  C1  UNL d   1      -1.007  -0.226   0.071  0.00  0.00    -0.004 A 
ATOM      4  C2  UNL d   1      -2.174   0.496  -0.055  0.00  0.00    -0.047 A 
ATOM      5  C3  UNL d   1      -1.836   1.867   0.041  0.00  0.00    -0.047 A 
ATOM      6  C4  UNL d   1      -0.472   1.942   0.224  0.00  0.00    -0.004 A 
ENDROOT
TORSDOF 0
ENDMDL
