MODEL 1
REMARK minimizedAffinity -2.6618185
REMARK minimizedRMSD -1
REMARK  0 active torsions:
REMARK  status: ('A' for Active; 'I' for Inactive)
ROOT
ATOM      1  C   UNL d   1      -0.673   2.756   0.374  0.00  0.00     0.172 C 
ATOM      2  N   UNL d   1      -0.294   1.364   0.436  0.00  0.00    -0.070 N 
ATOM      3  C1  UNL d   1      -1.144   0.315   0.661  0.00  0.00    -0.004 A 
ATOM      4  C2  UNL d   1      -0.399  -0.844   0.644  0.00  0.00    -0.047 A 
ATOM      5  C3  UNL d   1       0.947  -0.478   0.401  0.00  0.00    -0.047 A 
ATOM      6  C4  UNL d   1       0.983   0.895   0.276  0.00  0.00    -0.004 A 
ENDROOT
TORSDOF 0
ENDMDL
