MODEL 1
REMARK minimizedAffinity -3.09301758
REMARK minimizedRMSD -1
REMARK  0 active torsions:
REMARK  status: ('A' for Active; 'I' for Inactive)
ROOT
ATOM      1  C   UNL d   1      -1.629   0.703   0.690  0.00  0.00     0.172 C 
ATOM      2  N   UNL d   1      -0.504   1.601   0.574  0.00  0.00    -0.070 N 
ATOM      3  C1  UNL d   1       0.568   1.434  -0.262  0.00  0.00    -0.004 A 
ATOM      4  C2  UNL d   1       1.419   2.501  -0.076  0.00  0.00    -0.047 A 
ATOM      5  C3  UNL d   1       0.840   3.338   0.908  0.00  0.00    -0.047 A 
ATOM      6  C4  UNL d   1      -0.350   2.757   1.292  0.00  0.00    -0.004 A 
ENDROOT
TORSDOF 0
ENDMDL
