MODEL 1
REMARK minimizedAffinity -1.34932935
REMARK minimizedRMSD -1
REMARK  0 active torsions:
REMARK  status: ('A' for Active; 'I' for Inactive)
ROOT
ATOM      1  C   UNL d   1      -0.012   2.563   0.644  0.00  0.00     0.172 C 
ATOM      2  N   UNL d   1       0.301   1.170   0.425  0.00  0.00    -0.070 N 
ATOM      3  C1  UNL d   1       1.560   0.640   0.330  0.00  0.00    -0.004 A 
ATOM      4  C2  UNL d   1       1.432  -0.716   0.121  0.00  0.00    -0.047 A 
ATOM      5  C3  UNL d   1       0.049  -1.011   0.088  0.00  0.00    -0.047 A 
ATOM      6  C4  UNL d   1      -0.629   0.175   0.279  0.00  0.00    -0.004 A 
ENDROOT
TORSDOF 0
ENDMDL
