MODEL 1
REMARK minimizedAffinity -3.32291675
REMARK minimizedRMSD -1
REMARK  0 active torsions:
REMARK  status: ('A' for Active; 'I' for Inactive)
ROOT
ATOM      1  C   UNL d   1       0.253   1.449   0.693  0.00  0.00     0.172 C 
ATOM      2  N   UNL d   1       0.130   0.015   0.803  0.00  0.00    -0.070 N 
ATOM      3  C1  UNL d   1      -0.978  -0.661   1.239  0.00  0.00    -0.004 A 
ATOM      4  C2  UNL d   1      -0.694  -2.009   1.195  0.00  0.00    -0.047 A 
ATOM      5  C3  UNL d   1       0.630  -2.148   0.717  0.00  0.00    -0.047 A 
ATOM      6  C4  UNL d   1       1.117  -0.880   0.482  0.00  0.00    -0.004 A 
ENDROOT
TORSDOF 0
ENDMDL
