MODEL 1
REMARK minimizedAffinity -3.55076289
REMARK minimizedRMSD -1
REMARK  0 active torsions:
REMARK  status: ('A' for Active; 'I' for Inactive)
ROOT
ATOM      1  C   UNL d   1       0.141  -1.288   0.314  0.00  0.00     0.172 C 
ATOM      2  N   UNL d   1      -0.054   0.142   0.265  0.00  0.00    -0.070 N 
ATOM      3  C1  UNL d   1       0.905   1.069  -0.047  0.00  0.00    -0.004 A 
ATOM      4  C2  UNL d   1       0.323   2.316   0.016  0.00  0.00    -0.047 A 
ATOM      5  C3  UNL d   1      -1.033   2.133   0.378  0.00  0.00    -0.047 A 
ATOM      6  C4  UNL d   1      -1.239   0.778   0.526  0.00  0.00    -0.004 A 
ENDROOT
TORSDOF 0
ENDMDL
