MODEL 1
REMARK minimizedAffinity -3.53994513
REMARK minimizedRMSD -1
REMARK  0 active torsions:
REMARK  status: ('A' for Active; 'I' for Inactive)
ROOT
ATOM      1  C   UNL d   1       0.462  -1.721   0.217  0.00  0.00     0.172 C 
ATOM      2  N   UNL d   1       0.017  -0.348   0.207  0.00  0.00    -0.070 N 
ATOM      3  C1  UNL d   1       0.792   0.741  -0.091  0.00  0.00    -0.004 A 
ATOM      4  C2  UNL d   1       0.001   1.864   0.011  0.00  0.00    -0.047 A 
ATOM      5  C3  UNL d   1      -1.295   1.436   0.384  0.00  0.00    -0.047 A 
ATOM      6  C4  UNL d   1      -1.257   0.062   0.499  0.00  0.00    -0.004 A 
ENDROOT
TORSDOF 0
ENDMDL
