MODEL 1
REMARK minimizedAffinity -2.8455987
REMARK minimizedRMSD -1
REMARK  0 active torsions:
REMARK  status: ('A' for Active; 'I' for Inactive)
ROOT
ATOM      1  C   UNL d   1      -0.146  -1.777   0.048  0.00  0.00     0.172 C 
ATOM      2  N   UNL d   1      -0.389  -0.377   0.303  0.00  0.00    -0.070 N 
ATOM      3  C1  UNL d   1      -1.496   0.142   0.921  0.00  0.00    -0.004 A 
ATOM      4  C2  UNL d   1      -1.347   1.511   0.973  0.00  0.00    -0.047 A 
ATOM      5  C3  UNL d   1      -0.109   1.826   0.364  0.00  0.00    -0.047 A 
ATOM      6  C4  UNL d   1       0.463   0.639  -0.042  0.00  0.00    -0.004 A 
ENDROOT
TORSDOF 0
ENDMDL
