MODEL 1
REMARK minimizedAffinity -2.15410137
REMARK minimizedRMSD -1
REMARK  0 active torsions:
REMARK  status: ('A' for Active; 'I' for Inactive)
ROOT
ATOM      1  C   UNL d   1      -0.430  -2.351  -1.859  0.00  0.00     0.172 C 
ATOM      2  N   UNL d   1      -0.493  -1.223  -0.960  0.00  0.00    -0.070 N 
ATOM      3  C1  UNL d   1       0.480  -0.855  -0.070  0.00  0.00    -0.004 A 
ATOM      4  C2  UNL d   1       0.041   0.268   0.596  0.00  0.00    -0.047 A 
ATOM      5  C3  UNL d   1      -1.242   0.586   0.089  0.00  0.00    -0.047 A 
ATOM      6  C4  UNL d   1      -1.547  -0.353  -0.873  0.00  0.00    -0.004 A 
ENDROOT
TORSDOF 0
ENDMDL
