MODEL 1
REMARK minimizedAffinity -4.07669163
REMARK minimizedRMSD -1
REMARK  0 active torsions:
REMARK  status: ('A' for Active; 'I' for Inactive)
ROOT
ATOM      1  C   UNL d   1       0.032  -0.755   0.346  0.00  0.00     0.172 C 
ATOM      2  N   UNL d   1       0.254   0.642   0.056  0.00  0.00    -0.070 N 
ATOM      3  C1  UNL d   1      -0.556   1.676   0.440  0.00  0.00    -0.004 A 
ATOM      4  C2  UNL d   1      -0.000   2.846  -0.030  0.00  0.00    -0.047 A 
ATOM      5  C3  UNL d   1       1.186   2.503  -0.722  0.00  0.00    -0.047 A 
ATOM      6  C4  UNL d   1       1.319   1.132  -0.654  0.00  0.00    -0.004 A 
ENDROOT
TORSDOF 0
ENDMDL
