MODEL 1
REMARK minimizedAffinity -3.19050956
REMARK minimizedRMSD -1
REMARK  0 active torsions:
REMARK  status: ('A' for Active; 'I' for Inactive)
ROOT
ATOM      1  C   UNL d   1       0.386   2.643   0.158  0.00  0.00     0.172 C 
ATOM      2  N   UNL d   1       0.595   1.223   0.314  0.00  0.00    -0.070 N 
ATOM      3  C1  UNL d   1      -0.389   0.278   0.423  0.00  0.00    -0.004 A 
ATOM      4  C2  UNL d   1       0.219  -0.952   0.556  0.00  0.00    -0.047 A 
ATOM      5  C3  UNL d   1       1.617  -0.738   0.527  0.00  0.00    -0.047 A 
ATOM      6  C4  UNL d   1       1.823   0.617   0.377  0.00  0.00    -0.004 A 
ENDROOT
TORSDOF 0
ENDMDL
