MODEL 1
REMARK minimizedAffinity -3.97233701
REMARK minimizedRMSD -1
REMARK  0 active torsions:
REMARK  status: ('A' for Active; 'I' for Inactive)
ROOT
ATOM      1  C   UNL d   1       0.019  -0.886  -0.003  0.00  0.00     0.172 C 
ATOM      2  N   UNL d   1       0.141   0.552   0.058  0.00  0.00    -0.070 N 
ATOM      3  C1  UNL d   1       1.238   1.277  -0.325  0.00  0.00    -0.004 A 
ATOM      4  C2  UNL d   1       0.959   2.609  -0.112  0.00  0.00    -0.047 A 
ATOM      5  C3  UNL d   1      -0.351   2.688   0.418  0.00  0.00    -0.047 A 
ATOM      6  C4  UNL d   1      -0.834   1.400   0.513  0.00  0.00    -0.004 A 
ENDROOT
TORSDOF 0
ENDMDL
