MODEL 1
REMARK minimizedAffinity -2.42644215
REMARK minimizedRMSD -1
REMARK  0 active torsions:
REMARK  status: ('A' for Active; 'I' for Inactive)
ROOT
ATOM      1  C   UNL d   1       0.079  -1.005  -0.515  0.00  0.00     0.172 C 
ATOM      2  N   UNL d   1       0.186   0.409  -0.243  0.00  0.00    -0.070 N 
ATOM      3  C1  UNL d   1       1.179   1.236  -0.696  0.00  0.00    -0.004 A 
ATOM      4  C2  UNL d   1       0.922   2.504  -0.221  0.00  0.00    -0.047 A 
ATOM      5  C3  UNL d   1      -0.266   2.437   0.544  0.00  0.00    -0.047 A 
ATOM      6  C4  UNL d   1      -0.701   1.128   0.514  0.00  0.00    -0.004 A 
ENDROOT
TORSDOF 0
ENDMDL
