MODEL 1
REMARK minimizedAffinity -1.56178176
REMARK minimizedRMSD -1
REMARK  0 active torsions:
REMARK  status: ('A' for Active; 'I' for Inactive)
ROOT
ATOM      1  C   UNL d   1       1.470  -0.042   0.442  0.00  0.00     0.172 C 
ATOM      2  N   UNL d   1       0.295   0.798   0.465  0.00  0.00    -0.070 N 
ATOM      3  C1  UNL d   1      -0.997   0.359   0.580  0.00  0.00    -0.004 A 
ATOM      4  C2  UNL d   1      -1.821   1.464   0.563  0.00  0.00    -0.047 A 
ATOM      5  C3  UNL d   1      -0.995   2.606   0.434  0.00  0.00    -0.047 A 
ATOM      6  C4  UNL d   1       0.310   2.164   0.376  0.00  0.00    -0.004 A 
ENDROOT
TORSDOF 0
ENDMDL
