MODEL 1
REMARK minimizedAffinity -1.92389417
REMARK minimizedRMSD -1
REMARK  0 active torsions:
REMARK  status: ('A' for Active; 'I' for Inactive)
ROOT
ATOM      1  C   UNL d   1      -0.115  -1.029   0.006  0.00  0.00     0.172 C 
ATOM      2  N   UNL d   1      -0.529  -2.086  -0.886  0.00  0.00    -0.070 N 
ATOM      3  C1  UNL d   1      -1.654  -2.854  -0.747  0.00  0.00    -0.004 A 
ATOM      4  C2  UNL d   1      -1.691  -3.744  -1.798  0.00  0.00    -0.047 A 
ATOM      5  C3  UNL d   1      -0.547  -3.504  -2.596  0.00  0.00    -0.047 A 
ATOM      6  C4  UNL d   1       0.154  -2.473  -2.009  0.00  0.00    -0.004 A 
ENDROOT
TORSDOF 0
ENDMDL
