MODEL 1
REMARK minimizedAffinity -3.9356997
REMARK minimizedRMSD -1
REMARK  0 active torsions:
REMARK  status: ('A' for Active; 'I' for Inactive)
ROOT
ATOM      1  C   UNL d   1      -1.576   0.451   0.423  0.00  0.00     0.172 C 
ATOM      2  N   UNL d   1      -0.623   1.528   0.286  0.00  0.00    -0.070 N 
ATOM      3  C1  UNL d   1      -0.661   2.717   0.963  0.00  0.00    -0.004 A 
ATOM      4  C2  UNL d   1       0.419   3.470   0.554  0.00  0.00    -0.047 A 
ATOM      5  C3  UNL d   1       1.130   2.706  -0.402  0.00  0.00    -0.047 A 
ATOM      6  C4  UNL d   1       0.462   1.508  -0.549  0.00  0.00    -0.004 A 
ENDROOT
TORSDOF 0
ENDMDL
