MODEL 1
REMARK minimizedAffinity -2.71637559
REMARK minimizedRMSD -1
REMARK  1 active torsions:
REMARK  status: ('A' for Active; 'I' for Inactive)
REMARK    1  A    between atoms: C1_2  and  C2_3 
ROOT
ATOM      1  C2  UNL d   1      -0.236   0.320   0.309  0.00  0.00    -0.076 A 
ATOM      2  C3  UNL d   1      -1.542   0.840   0.281  0.00  0.00     0.004 A 
ATOM      3  C4  UNL d   1      -2.254   1.054   1.460  0.00  0.00    -0.003 A 
ATOM      4  C5  UNL d   1      -1.672   0.752   2.686  0.00  0.00     0.000 A 
ATOM      5  C6  UNL d   1      -0.371   0.252   2.733  0.00  0.00     0.000 A 
ATOM      6  C7  UNL d   1       0.367   0.046   1.555  0.00  0.00    -0.073 A 
ATOM      7  C8  UNL d   1       1.763  -0.501   1.664  0.00  0.00     0.078 C 
ENDROOT
BRANCH   1   8
ATOM      8  C1  UNL d   1       0.477   0.084  -1.003  0.00  0.00     0.053 C 
ATOM      9  C   UNL d   1      -0.251  -0.914  -1.891  0.00  0.00     0.018 C 
ENDBRANCH   1   8
TORSDOF 1
ENDMDL
