MODEL 1
REMARK minimizedAffinity -4.94325209
REMARK minimizedRMSD -1
REMARK  1 active torsions:
REMARK  status: ('A' for Active; 'I' for Inactive)
REMARK    1  A    between atoms: C1_2  and  C2_3 
ROOT
ATOM      1  C2  UNL d   1      -0.008   0.084  -1.952  0.00  0.00    -0.076 A 
ATOM      2  C3  UNL d   1      -0.994   1.086  -1.955  0.00  0.00     0.004 A 
ATOM      3  C4  UNL d   1      -1.606   1.493  -0.770  0.00  0.00    -0.003 A 
ATOM      4  C5  UNL d   1      -1.241   0.906   0.436  0.00  0.00     0.000 A 
ATOM      5  C6  UNL d   1      -0.252  -0.077   0.459  0.00  0.00     0.000 A 
ATOM      6  C7  UNL d   1       0.386  -0.488  -0.724  0.00  0.00    -0.073 A 
ATOM      7  C8  UNL d   1       1.442  -1.556  -0.641  0.00  0.00     0.078 C 
ENDROOT
BRANCH   1   8
ATOM      8  C1  UNL d   1       0.600  -0.337  -3.271  0.00  0.00     0.053 C 
ATOM      9  C   UNL d   1       1.841   0.469  -3.623  0.00  0.00     0.018 C 
ENDBRANCH   1   8
TORSDOF 1
ENDMDL
