MODEL 1
REMARK minimizedAffinity -2.07422519
REMARK minimizedRMSD -1
REMARK  1 active torsions:
REMARK  status: ('A' for Active; 'I' for Inactive)
REMARK    1  A    between atoms: C1_2  and  C2_3 
ROOT
ATOM      1  C2  UNL d   1      -0.051  -0.337  -0.347  0.00  0.00    -0.076 A 
ATOM      2  C3  UNL d   1      -1.390   0.089  -0.302  0.00  0.00     0.004 A 
ATOM      3  C4  UNL d   1      -1.966   0.517   0.892  0.00  0.00    -0.003 A 
ATOM      4  C5  UNL d   1      -1.213   0.526   2.061  0.00  0.00     0.000 A 
ATOM      5  C6  UNL d   1       0.121   0.123   2.031  0.00  0.00     0.000 A 
ATOM      6  C7  UNL d   1       0.723  -0.296   0.832  0.00  0.00    -0.073 A 
ATOM      7  C8  UNL d   1       2.164  -0.725   0.859  0.00  0.00     0.078 C 
ENDROOT
BRANCH   1   8
ATOM      8  C1  UNL d   1       0.512  -0.816  -1.666  0.00  0.00     0.053 C 
ATOM      9  C   UNL d   1       1.013   0.326  -2.536  0.00  0.00     0.018 C 
ENDBRANCH   1   8
TORSDOF 1
ENDMDL
