MODEL 1
REMARK minimizedAffinity -2.42969251
REMARK minimizedRMSD -1
REMARK  1 active torsions:
REMARK  status: ('A' for Active; 'I' for Inactive)
REMARK    1  A    between atoms: C1_2  and  C2_3 
ROOT
ATOM      1  C2  UNL d   1       0.014  -0.404  -0.337  0.00  0.00    -0.076 A 
ATOM      2  C3  UNL d   1      -1.243   0.224  -0.397  0.00  0.00     0.004 A 
ATOM      3  C4  UNL d   1      -1.865   0.695   0.758  0.00  0.00    -0.003 A 
ATOM      4  C5  UNL d   1      -1.240   0.546   1.992  0.00  0.00     0.000 A 
ATOM      5  C6  UNL d   1       0.014  -0.059   2.067  0.00  0.00     0.000 A 
ATOM      6  C7  UNL d   1       0.662  -0.525   0.910  0.00  0.00    -0.073 A 
ATOM      7  C8  UNL d   1       2.012  -1.174   1.051  0.00  0.00     0.078 C 
ENDROOT
BRANCH   1   8
ATOM      8  C1  UNL d   1       0.627  -0.919  -1.620  0.00  0.00     0.053 C 
ATOM      9  C   UNL d   1       0.865   0.186  -2.637  0.00  0.00     0.018 C 
ENDBRANCH   1   8
TORSDOF 1
ENDMDL
