MODEL 1
REMARK minimizedAffinity 16.2069016
REMARK minimizedRMSD -1
REMARK  1 active torsions:
REMARK  status: ('A' for Active; 'I' for Inactive)
REMARK    1  A    between atoms: C3_4  and  O_7 
ROOT
ATOM      1  C   UNL d   1       3.345   1.549  -1.255  0.00  0.00    -0.033 A 
ATOM      2  C1  UNL d   1       2.574   0.397  -1.419  0.00  0.00     0.039 A 
ATOM      3  C2  UNL d   1       3.082  -0.846  -1.035  0.00  0.00    -0.080 A 
ATOM      4  C3  UNL d   1       4.360  -0.923  -0.489  0.00  0.00     0.150 A 
ATOM      5  C4  UNL d   1       5.132   0.222  -0.320  0.00  0.00    -0.007 A 
ATOM      6  C5  UNL d   1       4.624   1.462  -0.704  0.00  0.00     0.039 A 
ENDROOT
BRANCH   4   7
ATOM      7  O   UNL d   1       4.900  -2.113  -0.104  0.00  0.00    -0.526 OA
ATOM      8  H5  UNL d   1       4.264  -2.820  -0.307  0.00  0.00     0.418 HD
ENDBRANCH   4   7
TORSDOF 1
ENDMDL
