MODEL 1
REMARK minimizedAffinity 0.184555411
REMARK minimizedRMSD -1
REMARK  1 active torsions:
REMARK  status: ('A' for Active; 'I' for Inactive)
REMARK    1  A    between atoms: C3_4  and  O_7 
ROOT
ATOM      1  C   UNL d   1       2.260  -3.608  -3.857  0.00  0.00    -0.033 A 
ATOM      2  C1  UNL d   1       3.069  -4.415  -3.054  0.00  0.00     0.039 A 
ATOM      3  C2  UNL d   1       3.047  -4.267  -1.666  0.00  0.00    -0.080 A 
ATOM      4  C3  UNL d   1       2.212  -3.311  -1.094  0.00  0.00     0.150 A 
ATOM      5  C4  UNL d   1       1.400  -2.507  -1.887  0.00  0.00    -0.007 A 
ATOM      6  C5  UNL d   1       1.424  -2.656  -3.273  0.00  0.00     0.039 A 
ENDROOT
BRANCH   4   7
ATOM      7  O   UNL d   1       2.160  -3.127   0.256  0.00  0.00    -0.526 OA
ATOM      8  H5  UNL d   1       2.795  -3.732   0.674  0.00  0.00     0.418 HD
ENDBRANCH   4   7
TORSDOF 1
ENDMDL
