MODEL 1
REMARK minimizedAffinity -2.78633571
REMARK minimizedRMSD -1
REMARK  1 active torsions:
REMARK  status: ('A' for Active; 'I' for Inactive)
REMARK    1  A    between atoms: C3_4  and  O_7 
ROOT
ATOM      1  C   UNL d   1      -5.485  -2.250   3.018  0.00  0.00    -0.033 A 
ATOM      2  C1  UNL d   1      -4.466  -2.357   3.966  0.00  0.00     0.039 A 
ATOM      3  C2  UNL d   1      -3.962  -3.612   4.313  0.00  0.00    -0.080 A 
ATOM      4  C3  UNL d   1      -4.485  -4.750   3.705  0.00  0.00     0.150 A 
ATOM      5  C4  UNL d   1      -5.498  -4.650   2.756  0.00  0.00    -0.007 A 
ATOM      6  C5  UNL d   1      -6.000  -3.396   2.412  0.00  0.00     0.039 A 
ENDROOT
BRANCH   4   7
ATOM      7  O   UNL d   1      -4.029  -5.997   4.014  0.00  0.00    -0.526 OA
ATOM      8  H5  UNL d   1      -3.350  -5.914   4.705  0.00  0.00     0.418 HD
ENDBRANCH   4   7
TORSDOF 1
ENDMDL
