MODEL 1
REMARK minimizedAffinity 4.16540337
REMARK minimizedRMSD -1
REMARK  1 active torsions:
REMARK  status: ('A' for Active; 'I' for Inactive)
REMARK    1  A    between atoms: C3_4  and  O_7 
ROOT
ATOM      1  C   UNL d   1       1.723  -0.459  -2.287  0.00  0.00    -0.033 A 
ATOM      2  C1  UNL d   1       2.318   0.081  -1.145  0.00  0.00     0.039 A 
ATOM      3  C2  UNL d   1       3.027  -0.744  -0.270  0.00  0.00    -0.080 A 
ATOM      4  C3  UNL d   1       3.134  -2.104  -0.547  0.00  0.00     0.150 A 
ATOM      5  C4  UNL d   1       2.547  -2.647  -1.685  0.00  0.00    -0.007 A 
ATOM      6  C5  UNL d   1       1.839  -1.823  -2.558  0.00  0.00     0.039 A 
ENDROOT
BRANCH   4   7
ATOM      7  O   UNL d   1       3.812  -2.949   0.280  0.00  0.00    -0.526 OA
ATOM      8  H5  UNL d   1       4.139  -2.439   1.040  0.00  0.00     0.418 HD
ENDBRANCH   4   7
TORSDOF 1
ENDMDL
