MODEL 1
REMARK minimizedAffinity -0.176711664
REMARK minimizedRMSD -1
REMARK  1 active torsions:
REMARK  status: ('A' for Active; 'I' for Inactive)
REMARK    1  A    between atoms: C3_4  and  O_7 
ROOT
ATOM      1  C   UNL d   1      -3.701   2.095   4.795  0.00  0.00    -0.033 A 
ATOM      2  C1  UNL d   1      -3.001   2.008   3.590  0.00  0.00     0.039 A 
ATOM      3  C2  UNL d   1      -1.606   2.042   3.588  0.00  0.00    -0.080 A 
ATOM      4  C3  UNL d   1      -0.923   2.162   4.795  0.00  0.00     0.150 A 
ATOM      5  C4  UNL d   1      -1.613   2.245   5.999  0.00  0.00    -0.007 A 
ATOM      6  C5  UNL d   1      -3.007   2.212   6.000  0.00  0.00     0.039 A 
ENDROOT
BRANCH   4   7
ATOM      7  O   UNL d   1       0.439   2.204   4.842  0.00  0.00    -0.526 OA
ATOM      8  H5  UNL d   1       0.780   2.165   3.932  0.00  0.00     0.418 HD
ENDBRANCH   4   7
TORSDOF 1
ENDMDL
