MODEL 1
REMARK minimizedAffinity -1.77764976
REMARK minimizedRMSD -1
REMARK  1 active torsions:
REMARK  status: ('A' for Active; 'I' for Inactive)
REMARK    1  A    between atoms: C3_4  and  O_7 
ROOT
ATOM      1  C   UNL d   1       2.416  -2.956  -4.089  0.00  0.00    -0.033 A 
ATOM      2  C1  UNL d   1       3.505  -3.822  -3.969  0.00  0.00     0.039 A 
ATOM      3  C2  UNL d   1       3.880  -4.305  -2.714  0.00  0.00    -0.080 A 
ATOM      4  C3  UNL d   1       3.159  -3.915  -1.589  0.00  0.00     0.150 A 
ATOM      5  C4  UNL d   1       2.071  -3.056  -1.701  0.00  0.00    -0.007 A 
ATOM      6  C5  UNL d   1       1.698  -2.575  -2.955  0.00  0.00     0.039 A 
ENDROOT
BRANCH   4   7
ATOM      7  O   UNL d   1       3.491  -4.356  -0.342  0.00  0.00    -0.526 OA
ATOM      8  H5  UNL d   1       4.280  -4.919  -0.414  0.00  0.00     0.418 HD
ENDBRANCH   4   7
TORSDOF 1
ENDMDL
