MODEL 1
REMARK minimizedAffinity 3.9958961
REMARK minimizedRMSD -1
REMARK  1 active torsions:
REMARK  status: ('A' for Active; 'I' for Inactive)
REMARK    1  A    between atoms: C3_4  and  O_7 
ROOT
ATOM      1  C   UNL d   1       0.015   0.863   5.975  0.00  0.00    -0.033 A 
ATOM      2  C1  UNL d   1      -0.019   0.003   4.876  0.00  0.00     0.039 A 
ATOM      3  C2  UNL d   1       0.844   0.210   3.798  0.00  0.00    -0.080 A 
ATOM      4  C3  UNL d   1       1.736   1.279   3.832  0.00  0.00     0.150 A 
ATOM      5  C4  UNL d   1       1.777   2.138   4.925  0.00  0.00    -0.007 A 
ATOM      6  C5  UNL d   1       0.914   1.930   6.000  0.00  0.00     0.039 A 
ENDROOT
BRANCH   4   7
ATOM      7  O   UNL d   1       2.594   1.524   2.801  0.00  0.00    -0.526 OA
ATOM      8  H5  UNL d   1       2.432   0.867   2.103  0.00  0.00     0.418 HD
ENDBRANCH   4   7
TORSDOF 1
ENDMDL
