MODEL 1
REMARK minimizedAffinity 5.4540081
REMARK minimizedRMSD -1
REMARK  1 active torsions:
REMARK  status: ('A' for Active; 'I' for Inactive)
REMARK    1  A    between atoms: C3_4  and  O_7 
ROOT
ATOM      1  C   UNL d   1       2.390  -3.978  -4.070  0.00  0.00    -0.033 A 
ATOM      2  C1  UNL d   1       2.031  -3.635  -2.765  0.00  0.00     0.039 A 
ATOM      3  C2  UNL d   1       2.836  -4.024  -1.693  0.00  0.00    -0.080 A 
ATOM      4  C3  UNL d   1       3.996  -4.754  -1.938  0.00  0.00     0.150 A 
ATOM      5  C4  UNL d   1       4.361  -5.096  -3.236  0.00  0.00    -0.007 A 
ATOM      6  C5  UNL d   1       3.556  -4.707  -4.306  0.00  0.00     0.039 A 
ENDROOT
BRANCH   4   7
ATOM      7  O   UNL d   1       4.810  -5.161  -0.924  0.00  0.00    -0.526 OA
ATOM      8  H5  UNL d   1       4.417  -4.878  -0.081  0.00  0.00     0.418 HD
ENDBRANCH   4   7
TORSDOF 1
ENDMDL
