MODEL 1
REMARK minimizedAffinity 8.14372826
REMARK minimizedRMSD -1
REMARK  1 active torsions:
REMARK  status: ('A' for Active; 'I' for Inactive)
REMARK    1  A    between atoms: C3_4  and  O_7 
ROOT
ATOM      1  C   UNL d   1       1.989  -3.644  -2.285  0.00  0.00    -0.033 A 
ATOM      2  C1  UNL d   1       2.996  -4.225  -1.511  0.00  0.00     0.039 A 
ATOM      3  C2  UNL d   1       4.226  -4.546  -2.089  0.00  0.00    -0.080 A 
ATOM      4  C3  UNL d   1       4.436  -4.280  -3.440  0.00  0.00     0.150 A 
ATOM      5  C4  UNL d   1       3.439  -3.698  -4.215  0.00  0.00    -0.007 A 
ATOM      6  C5  UNL d   1       2.211  -3.380  -3.637  0.00  0.00     0.039 A 
ENDROOT
BRANCH   4   7
ATOM      7  O   UNL d   1       5.618  -4.580  -4.049  0.00  0.00    -0.526 OA
ATOM      8  H5  UNL d   1       6.202  -5.003  -3.397  0.00  0.00     0.418 HD
ENDBRANCH   4   7
TORSDOF 1
ENDMDL
