MODEL 1
REMARK minimizedAffinity 10.0635386
REMARK minimizedRMSD -1
REMARK  1 active torsions:
REMARK  status: ('A' for Active; 'I' for Inactive)
REMARK    1  A    between atoms: C3_4  and  O_7 
ROOT
ATOM      1  C   UNL d   1      -4.104  -1.630   3.443  0.00  0.00    -0.033 A 
ATOM      2  C1  UNL d   1      -4.059  -0.327   2.943  0.00  0.00     0.039 A 
ATOM      3  C2  UNL d   1      -3.730   0.736   3.787  0.00  0.00    -0.080 A 
ATOM      4  C3  UNL d   1      -3.447   0.482   5.126  0.00  0.00     0.150 A 
ATOM      5  C4  UNL d   1      -3.487  -0.814   5.630  0.00  0.00    -0.007 A 
ATOM      6  C5  UNL d   1      -3.816  -1.873   4.787  0.00  0.00     0.039 A 
ENDROOT
BRANCH   4   7
ATOM      7  O   UNL d   1      -3.126   1.488   5.989  0.00  0.00    -0.526 OA
ATOM      8  H5  UNL d   1      -3.166   2.331   5.508  0.00  0.00     0.418 HD
ENDBRANCH   4   7
TORSDOF 1
ENDMDL
