MODEL 1
REMARK minimizedAffinity 14.3787651
REMARK minimizedRMSD -1
REMARK  1 active torsions:
REMARK  status: ('A' for Active; 'I' for Inactive)
REMARK    1  A    between atoms: C3_4  and  O_7 
ROOT
ATOM      1  C   UNL d   1      -4.916   5.296  -5.999  0.00  0.00    -0.033 A 
ATOM      2  C1  UNL d   1      -5.566   4.060  -5.994  0.00  0.00     0.039 A 
ATOM      3  C2  UNL d   1      -4.822   2.878  -5.993  0.00  0.00    -0.080 A 
ATOM      4  C3  UNL d   1      -3.432   2.946  -5.996  0.00  0.00     0.150 A 
ATOM      5  C4  UNL d   1      -2.778   4.173  -5.997  0.00  0.00    -0.007 A 
ATOM      6  C5  UNL d   1      -3.522   5.353  -5.999  0.00  0.00     0.039 A 
ENDROOT
BRANCH   4   7
ATOM      7  O   UNL d   1      -2.663   1.820  -5.999  0.00  0.00    -0.526 OA
ATOM      8  H5  UNL d   1      -3.251   1.046  -6.027  0.00  0.00     0.418 HD
ENDBRANCH   4   7
TORSDOF 1
ENDMDL
