MODEL 1
REMARK minimizedAffinity 12.4973917
REMARK minimizedRMSD -1
REMARK  1 active torsions:
REMARK  status: ('A' for Active; 'I' for Inactive)
REMARK    1  A    between atoms: C3_4  and  O_7 
ROOT
ATOM      1  C   UNL d   1       0.605   2.485   6.000  0.00  0.00    -0.033 A 
ATOM      2  C1  UNL d   1      -0.284   2.965   5.037  0.00  0.00     0.039 A 
ATOM      3  C2  UNL d   1      -0.259   2.446   3.741  0.00  0.00    -0.080 A 
ATOM      4  C3  UNL d   1       0.658   1.449   3.421  0.00  0.00     0.150 A 
ATOM      5  C4  UNL d   1       1.545   0.964   4.377  0.00  0.00    -0.007 A 
ATOM      6  C5  UNL d   1       1.519   1.484   5.670  0.00  0.00     0.039 A 
ENDROOT
BRANCH   4   7
ATOM      7  O   UNL d   1       0.724   0.916   2.169  0.00  0.00    -0.526 OA
ATOM      8  H5  UNL d   1       0.072   1.367   1.607  0.00  0.00     0.418 HD
ENDBRANCH   4   7
TORSDOF 1
ENDMDL
