MODEL 1
REMARK minimizedAffinity 9.87991619
REMARK minimizedRMSD -1
REMARK  1 active torsions:
REMARK  status: ('A' for Active; 'I' for Inactive)
REMARK    1  A    between atoms: C3_4  and  O_7 
ROOT
ATOM      1  C   UNL d   1      -5.167   3.008   5.987  0.00  0.00    -0.033 A 
ATOM      2  C1  UNL d   1      -5.975   2.819   4.865  0.00  0.00     0.039 A 
ATOM      3  C2  UNL d   1      -5.479   2.139   3.751  0.00  0.00    -0.080 A 
ATOM      4  C3  UNL d   1      -4.175   1.652   3.772  0.00  0.00     0.150 A 
ATOM      5  C4  UNL d   1      -3.365   1.833   4.889  0.00  0.00    -0.007 A 
ATOM      6  C5  UNL d   1      -3.862   2.513   6.000  0.00  0.00     0.039 A 
ENDROOT
BRANCH   4   7
ATOM      7  O   UNL d   1      -3.645   0.987   2.707  0.00  0.00    -0.526 OA
ATOM      8  H5  UNL d   1      -4.309   0.962   1.998  0.00  0.00     0.418 HD
ENDBRANCH   4   7
TORSDOF 1
ENDMDL
