MODEL 1
REMARK minimizedAffinity 13.6530132
REMARK minimizedRMSD -1
REMARK  1 active torsions:
REMARK  status: ('A' for Active; 'I' for Inactive)
REMARK    1  A    between atoms: C3_4  and  O_7 
ROOT
ATOM      1  C   UNL d   1      -4.613   3.156   5.837  0.00  0.00    -0.033 A 
ATOM      2  C1  UNL d   1      -5.644   2.890   4.933  0.00  0.00     0.039 A 
ATOM      3  C2  UNL d   1      -5.633   1.709   4.188  0.00  0.00    -0.080 A 
ATOM      4  C3  UNL d   1      -4.588   0.805   4.356  0.00  0.00     0.150 A 
ATOM      5  C4  UNL d   1      -3.560   1.062   5.257  0.00  0.00    -0.007 A 
ATOM      6  C5  UNL d   1      -3.572   2.242   6.000  0.00  0.00     0.039 A 
ENDROOT
BRANCH   4   7
ATOM      7  O   UNL d   1      -4.532  -0.359   3.647  0.00  0.00    -0.526 OA
ATOM      8  H5  UNL d   1      -5.292  -0.388   3.043  0.00  0.00     0.418 HD
ENDBRANCH   4   7
TORSDOF 1
ENDMDL
