MODEL 1
REMARK minimizedAffinity 13.0020666
REMARK minimizedRMSD -1
REMARK  1 active torsions:
REMARK  status: ('A' for Active; 'I' for Inactive)
REMARK    1  A    between atoms: C3_4  and  O_7 
ROOT
ATOM      1  C   UNL d   1      -4.878   3.426   5.725  0.00  0.00    -0.033 A 
ATOM      2  C1  UNL d   1      -5.813   3.074   4.751  0.00  0.00     0.039 A 
ATOM      3  C2  UNL d   1      -5.672   1.877   4.045  0.00  0.00    -0.080 A 
ATOM      4  C3  UNL d   1      -4.593   1.043   4.325  0.00  0.00     0.150 A 
ATOM      5  C4  UNL d   1      -3.659   1.386   5.297  0.00  0.00    -0.007 A 
ATOM      6  C5  UNL d   1      -3.802   2.582   5.999  0.00  0.00     0.039 A 
ENDROOT
BRANCH   4   7
ATOM      7  O   UNL d   1      -4.410  -0.133   3.659  0.00  0.00    -0.526 OA
ATOM      8  H5  UNL d   1      -5.116  -0.225   2.998  0.00  0.00     0.418 HD
ENDBRANCH   4   7
TORSDOF 1
ENDMDL
