MODEL 1
REMARK minimizedAffinity 8.75837135
REMARK minimizedRMSD -1
REMARK  1 active torsions:
REMARK  status: ('A' for Active; 'I' for Inactive)
REMARK    1  A    between atoms: C3_4  and  O_7 
ROOT
ATOM      1  C   UNL d   1      -0.355  -4.497  -3.368  0.00  0.00    -0.033 A 
ATOM      2  C1  UNL d   1      -1.412  -3.720  -2.891  0.00  0.00     0.039 A 
ATOM      3  C2  UNL d   1      -2.414  -3.290  -3.763  0.00  0.00    -0.080 A 
ATOM      4  C3  UNL d   1      -2.349  -3.646  -5.107  0.00  0.00     0.150 A 
ATOM      5  C4  UNL d   1      -1.301  -4.423  -5.589  0.00  0.00    -0.007 A 
ATOM      6  C5  UNL d   1      -0.300  -4.850  -4.717  0.00  0.00     0.039 A 
ENDROOT
BRANCH   4   7
ATOM      7  O   UNL d   1      -3.301  -3.247  -5.997  0.00  0.00    -0.526 OA
ATOM      8  H5  UNL d   1      -3.947  -2.692  -5.528  0.00  0.00     0.418 HD
ENDBRANCH   4   7
TORSDOF 1
ENDMDL
