MODEL 1
REMARK minimizedAffinity 13.8673439
REMARK minimizedRMSD -1
REMARK  1 active torsions:
REMARK  status: ('A' for Active; 'I' for Inactive)
REMARK    1  A    between atoms: C3_4  and  O_7 
ROOT
ATOM      1  C   UNL d   1      -4.149   2.427   4.393  0.00  0.00    -0.033 A 
ATOM      2  C1  UNL d   1      -3.903   2.014   5.704  0.00  0.00     0.039 A 
ATOM      3  C2  UNL d   1      -3.788   0.654   6.000  0.00  0.00    -0.080 A 
ATOM      4  C3  UNL d   1      -3.919  -0.281   4.977  0.00  0.00     0.150 A 
ATOM      5  C4  UNL d   1      -4.161   0.124   3.668  0.00  0.00    -0.007 A 
ATOM      6  C5  UNL d   1      -4.276   1.482   3.375  0.00  0.00     0.039 A 
ENDROOT
BRANCH   4   7
ATOM      7  O   UNL d   1      -3.820  -1.619   5.218  0.00  0.00    -0.526 OA
ATOM      8  H5  UNL d   1      -3.681  -1.751   6.171  0.00  0.00     0.418 HD
ENDBRANCH   4   7
TORSDOF 1
ENDMDL
