MODEL 1
REMARK minimizedAffinity -1.25903714
REMARK minimizedRMSD -1
REMARK  1 active torsions:
REMARK  status: ('A' for Active; 'I' for Inactive)
REMARK    1  A    between atoms: N_2  and  C1_3 
ROOT
ATOM      1  C1  UNL d   1      -0.514   4.702  -5.965  0.00  0.00     0.143 A 
ATOM      2  C2  UNL d   1      -0.811   3.335  -5.980  0.00  0.00    -0.057 A 
ATOM      3  C3  UNL d   1      -2.135   2.880  -5.997  0.00  0.00     0.033 A 
ATOM      4  C4  UNL d   1      -3.189   3.787  -5.972  0.00  0.00    -0.042 A 
ATOM      5  C5  UNL d   1      -2.918   5.150  -5.932  0.00  0.00     0.033 A 
ATOM      6  C6  UNL d   1      -1.593   5.599  -5.921  0.00  0.00    -0.057 A 
ENDROOT
BRANCH   1   7
ATOM      7  N   UNL d   1       0.780   5.216  -5.848  0.00  0.00    -0.732 N 
ATOM      8  C   UNL d   1       1.932   4.354  -5.999  0.00  0.00     0.284 C 
ATOM      9  H3  UNL d   1       0.879   6.125  -6.294  0.00  0.00     0.395 HD
ENDBRANCH   1   7
TORSDOF 1
ENDMDL
