MODEL 1
REMARK minimizedAffinity 4.43668222
REMARK minimizedRMSD -1
REMARK  1 active torsions:
REMARK  status: ('A' for Active; 'I' for Inactive)
REMARK    1  A    between atoms: N_2  and  C1_3 
ROOT
ATOM      1  C1  UNL d   1       3.336  -2.531  -2.610  0.00  0.00     0.143 A 
ATOM      2  C2  UNL d   1       3.339  -2.592  -4.008  0.00  0.00    -0.057 A 
ATOM      3  C3  UNL d   1       2.210  -3.016  -4.718  0.00  0.00     0.033 A 
ATOM      4  C4  UNL d   1       1.063  -3.415  -4.039  0.00  0.00    -0.042 A 
ATOM      5  C5  UNL d   1       1.046  -3.386  -2.649  0.00  0.00     0.033 A 
ATOM      6  C6  UNL d   1       2.175  -2.955  -1.946  0.00  0.00    -0.057 A 
ENDROOT
BRANCH   1   7
ATOM      7  N   UNL d   1       4.460  -2.212  -1.843  0.00  0.00    -0.732 N 
ATOM      8  C   UNL d   1       5.684  -1.771  -2.477  0.00  0.00     0.284 C 
ATOM      9  H3  UNL d   1       4.220  -1.698  -0.998  0.00  0.00     0.395 HD
ENDBRANCH   1   7
TORSDOF 1
ENDMDL
