MODEL 1
REMARK minimizedAffinity 2.3697474
REMARK minimizedRMSD -1
REMARK  1 active torsions:
REMARK  status: ('A' for Active; 'I' for Inactive)
REMARK    1  A    between atoms: N_2  and  C1_3 
ROOT
ATOM      1  C1  UNL d   1      -1.295  -2.976  -2.239  0.00  0.00     0.143 A 
ATOM      2  C2  UNL d   1      -0.697  -3.944  -3.053  0.00  0.00    -0.057 A 
ATOM      3  C3  UNL d   1       0.480  -3.670  -3.761  0.00  0.00     0.033 A 
ATOM      4  C4  UNL d   1       1.065  -2.411  -3.690  0.00  0.00    -0.042 A 
ATOM      5  C5  UNL d   1       0.474  -1.426  -2.906  0.00  0.00     0.033 A 
ATOM      6  C6  UNL d   1      -0.697  -1.707  -2.196  0.00  0.00    -0.057 A 
ENDROOT
BRANCH   1   7
ATOM      7  N   UNL d   1      -2.518  -3.155  -1.588  0.00  0.00    -0.732 N 
ATOM      8  C   UNL d   1      -2.723  -4.280  -0.701  0.00  0.00     0.284 C 
ATOM      9  H3  UNL d   1      -2.908  -2.280  -1.246  0.00  0.00     0.395 HD
ENDBRANCH   1   7
TORSDOF 1
ENDMDL
