MODEL 1
REMARK minimizedAffinity 1.21925926
REMARK minimizedRMSD -1
REMARK  1 active torsions:
REMARK  status: ('A' for Active; 'I' for Inactive)
REMARK    1  A    between atoms: N_2  and  C1_3 
ROOT
ATOM      1  C1  UNL d   1      -1.875   4.298  -5.997  0.00  0.00     0.143 A 
ATOM      2  C2  UNL d   1      -1.290   5.568  -5.979  0.00  0.00    -0.057 A 
ATOM      3  C3  UNL d   1       0.101   5.727  -5.977  0.00  0.00     0.033 A 
ATOM      4  C4  UNL d   1       0.935   4.614  -5.963  0.00  0.00    -0.042 A 
ATOM      5  C5  UNL d   1       0.375   3.341  -5.955  0.00  0.00     0.033 A 
ATOM      6  C6  UNL d   1      -1.014   3.189  -5.964  0.00  0.00    -0.057 A 
ENDROOT
BRANCH   1   7
ATOM      7  N   UNL d   1      -3.250   4.073  -5.900  0.00  0.00    -0.732 N 
ATOM      8  C   UNL d   1      -3.782   2.728  -5.943  0.00  0.00     0.284 C 
ATOM      9  H3  UNL d   1      -3.694   4.674  -5.210  0.00  0.00     0.395 HD
ENDBRANCH   1   7
TORSDOF 1
ENDMDL
