MODEL 1
REMARK minimizedAffinity -1.42375815
REMARK minimizedRMSD -1
REMARK  1 active torsions:
REMARK  status: ('A' for Active; 'I' for Inactive)
REMARK    1  A    between atoms: N_2  and  C1_3 
ROOT
ATOM      1  C1  UNL d   1      -1.692   4.048  -5.998  0.00  0.00     0.143 A 
ATOM      2  C2  UNL d   1      -0.560   4.870  -6.000  0.00  0.00    -0.057 A 
ATOM      3  C3  UNL d   1       0.731   4.328  -5.981  0.00  0.00     0.033 A 
ATOM      4  C4  UNL d   1       0.913   2.950  -5.931  0.00  0.00    -0.042 A 
ATOM      5  C5  UNL d   1      -0.198   2.114  -5.903  0.00  0.00     0.033 A 
ATOM      6  C6  UNL d   1      -1.485   2.661  -5.929  0.00  0.00    -0.057 A 
ENDROOT
BRANCH   1   7
ATOM      7  N   UNL d   1      -3.001   4.528  -5.917  0.00  0.00    -0.732 N 
ATOM      8  C   UNL d   1      -3.273   5.947  -5.998  0.00  0.00     0.284 C 
ATOM      9  H3  UNL d   1      -3.660   3.948  -6.432  0.00  0.00     0.395 HD
ENDBRANCH   1   7
TORSDOF 1
ENDMDL
