MODEL 1
REMARK minimizedAffinity 0.854031384
REMARK minimizedRMSD -1
REMARK  1 active torsions:
REMARK  status: ('A' for Active; 'I' for Inactive)
REMARK    1  A    between atoms: N_2  and  C1_3 
ROOT
ATOM      1  C1  UNL d   1       3.996   4.461  -0.350  0.00  0.00     0.143 A 
ATOM      2  C2  UNL d   1       2.620   4.328  -0.560  0.00  0.00    -0.057 A 
ATOM      3  C3  UNL d   1       2.111   3.400  -1.478  0.00  0.00     0.033 A 
ATOM      4  C4  UNL d   1       2.975   2.607  -2.225  0.00  0.00    -0.042 A 
ATOM      5  C5  UNL d   1       4.348   2.740  -2.051  0.00  0.00     0.033 A 
ATOM      6  C6  UNL d   1       4.850   3.663  -1.129  0.00  0.00    -0.057 A 
ENDROOT
BRANCH   1   7
ATOM      7  N   UNL d   1       4.567   5.432   0.475  0.00  0.00    -0.732 N 
ATOM      8  C   UNL d   1       4.975   5.106   1.825  0.00  0.00     0.284 C 
ATOM      9  H3  UNL d   1       5.222   6.030  -0.024  0.00  0.00     0.395 HD
ENDBRANCH   1   7
TORSDOF 1
ENDMDL
