MODEL 1
REMARK minimizedAffinity 3.61133051
REMARK minimizedRMSD -1
REMARK  1 active torsions:
REMARK  status: ('A' for Active; 'I' for Inactive)
REMARK    1  A    between atoms: N_2  and  C1_3 
ROOT
ATOM      1  C1  UNL d   1       0.635   3.469  -5.922  0.00  0.00     0.143 A 
ATOM      2  C2  UNL d   1      -0.708   3.078  -5.926  0.00  0.00    -0.057 A 
ATOM      3  C3  UNL d   1      -1.739   4.024  -5.979  0.00  0.00     0.033 A 
ATOM      4  C4  UNL d   1      -1.444   5.383  -5.999  0.00  0.00    -0.042 A 
ATOM      5  C5  UNL d   1      -0.117   5.795  -5.970  0.00  0.00     0.033 A 
ATOM      6  C6  UNL d   1       0.909   4.846  -5.924  0.00  0.00    -0.057 A 
ENDROOT
BRANCH   1   7
ATOM      7  N   UNL d   1       1.703   2.581  -5.770  0.00  0.00    -0.732 N 
ATOM      8  C   UNL d   1       3.067   3.034  -5.937  0.00  0.00     0.284 C 
ATOM      9  H3  UNL d   1       1.569   1.942  -4.990  0.00  0.00     0.395 HD
ENDBRANCH   1   7
TORSDOF 1
ENDMDL
