MODEL 1
REMARK minimizedAffinity 1.53211486
REMARK minimizedRMSD -1
REMARK  1 active torsions:
REMARK  status: ('A' for Active; 'I' for Inactive)
REMARK    1  A    between atoms: N_2  and  C1_3 
ROOT
ATOM      1  C1  UNL d   1      -3.314   4.314  -6.000  0.00  0.00     0.143 A 
ATOM      2  C2  UNL d   1      -2.291   5.268  -5.982  0.00  0.00    -0.057 A 
ATOM      3  C3  UNL d   1      -0.943   4.887  -5.996  0.00  0.00     0.033 A 
ATOM      4  C4  UNL d   1      -0.595   3.540  -5.999  0.00  0.00    -0.042 A 
ATOM      5  C5  UNL d   1      -1.596   2.575  -5.991  0.00  0.00     0.033 A 
ATOM      6  C6  UNL d   1      -2.939   2.962  -5.984  0.00  0.00    -0.057 A 
ENDROOT
BRANCH   1   7
ATOM      7  N   UNL d   1      -4.671   4.628  -5.888  0.00  0.00    -0.732 N 
ATOM      8  C   UNL d   1      -5.123   5.998  -5.998  0.00  0.00     0.284 C 
ATOM      9  H3  UNL d   1      -5.266   3.954  -6.365  0.00  0.00     0.395 HD
ENDBRANCH   1   7
TORSDOF 1
ENDMDL
