MODEL 1
REMARK minimizedAffinity -2.39170647
REMARK minimizedRMSD -1
REMARK  1 active torsions:
REMARK  status: ('A' for Active; 'I' for Inactive)
REMARK    1  A    between atoms: N_2  and  C1_3 
ROOT
ATOM      1  C1  UNL d   1      -0.203   4.000  -6.000  0.00  0.00     0.143 A 
ATOM      2  C2  UNL d   1       1.015   4.687  -5.963  0.00  0.00    -0.057 A 
ATOM      3  C3  UNL d   1       2.236   4.002  -5.969  0.00  0.00     0.033 A 
ATOM      4  C4  UNL d   1       2.259   2.611  -5.983  0.00  0.00    -0.042 A 
ATOM      5  C5  UNL d   1       1.061   1.907  -5.994  0.00  0.00     0.033 A 
ATOM      6  C6  UNL d   1      -0.155   2.598  -5.995  0.00  0.00    -0.057 A 
ENDROOT
BRANCH   1   7
ATOM      7  N   UNL d   1      -1.450   4.622  -5.896  0.00  0.00    -0.732 N 
ATOM      8  C   UNL d   1      -2.669   3.844  -5.957  0.00  0.00     0.284 C 
ATOM      9  H3  UNL d   1      -1.461   5.357  -5.193  0.00  0.00     0.395 HD
ENDBRANCH   1   7
TORSDOF 1
ENDMDL
