MODEL 1
REMARK minimizedAffinity -2.02701449
REMARK minimizedRMSD -1
REMARK  1 active torsions:
REMARK  status: ('A' for Active; 'I' for Inactive)
REMARK    1  A    between atoms: N_2  and  C1_3 
ROOT
ATOM      1  C1  UNL d   1       2.067   3.824  -5.925  0.00  0.00     0.143 A 
ATOM      2  C2  UNL d   1       1.170   4.897  -5.965  0.00  0.00    -0.057 A 
ATOM      3  C3  UNL d   1      -0.214   4.685  -5.988  0.00  0.00     0.033 A 
ATOM      4  C4  UNL d   1      -0.726   3.392  -6.000  0.00  0.00    -0.042 A 
ATOM      5  C5  UNL d   1       0.147   2.311  -5.985  0.00  0.00     0.033 A 
ATOM      6  C6  UNL d   1       1.528   2.528  -5.956  0.00  0.00    -0.057 A 
ENDROOT
BRANCH   1   7
ATOM      7  N   UNL d   1       3.454   3.967  -6.000  0.00  0.00    -0.732 N 
ATOM      8  C   UNL d   1       4.063   5.279  -5.964  0.00  0.00     0.284 C 
ATOM      9  H3  UNL d   1       3.948   3.265  -5.453  0.00  0.00     0.395 HD
ENDBRANCH   1   7
TORSDOF 1
ENDMDL
