MODEL 1
REMARK minimizedAffinity -2.206218
REMARK minimizedRMSD -1
REMARK  1 active torsions:
REMARK  status: ('A' for Active; 'I' for Inactive)
REMARK    1  A    between atoms: N_2  and  C1_3 
ROOT
ATOM      1  C1  UNL d   1      -0.556   3.948  -6.000  0.00  0.00     0.143 A 
ATOM      2  C2  UNL d   1      -1.583   2.998  -5.973  0.00  0.00    -0.057 A 
ATOM      3  C3  UNL d   1      -2.929   3.384  -5.986  0.00  0.00     0.033 A 
ATOM      4  C4  UNL d   1      -3.272   4.732  -5.996  0.00  0.00    -0.042 A 
ATOM      5  C5  UNL d   1      -2.268   5.693  -5.998  0.00  0.00     0.033 A 
ATOM      6  C6  UNL d   1      -0.926   5.302  -5.992  0.00  0.00    -0.057 A 
ENDROOT
BRANCH   1   7
ATOM      7  N   UNL d   1       0.800   3.630  -5.889  0.00  0.00    -0.732 N 
ATOM      8  C   UNL d   1       1.808   4.666  -5.963  0.00  0.00     0.284 C 
ATOM      9  H3  UNL d   1       0.978   2.927  -5.175  0.00  0.00     0.395 HD
ENDBRANCH   1   7
TORSDOF 1
ENDMDL
