MODEL 1
REMARK minimizedAffinity -2.36398005
REMARK minimizedRMSD -1
REMARK  1 active torsions:
REMARK  status: ('A' for Active; 'I' for Inactive)
REMARK    1  A    between atoms: N_2  and  C1_3 
ROOT
ATOM      1  C1  UNL d   1       2.840   4.369  -5.999  0.00  0.00     0.143 A 
ATOM      2  C2  UNL d   1       3.012   2.981  -5.973  0.00  0.00    -0.057 A 
ATOM      3  C3  UNL d   1       1.913   2.113  -5.985  0.00  0.00     0.033 A 
ATOM      4  C4  UNL d   1       0.618   2.621  -5.994  0.00  0.00    -0.042 A 
ATOM      5  C5  UNL d   1       0.423   3.998  -5.996  0.00  0.00     0.033 A 
ATOM      6  C6  UNL d   1       1.525   4.859  -5.991  0.00  0.00    -0.057 A 
ENDROOT
BRANCH   1   7
ATOM      7  N   UNL d   1       3.889   5.285  -5.890  0.00  0.00    -0.732 N 
ATOM      8  C   UNL d   1       5.240   4.831  -5.637  0.00  0.00     0.284 C 
ATOM      9  H3  UNL d   1       3.824   6.035  -6.575  0.00  0.00     0.395 HD
ENDBRANCH   1   7
TORSDOF 1
ENDMDL
