MODEL 1
REMARK minimizedAffinity 0.454361022
REMARK minimizedRMSD -1
REMARK  1 active torsions:
REMARK  status: ('A' for Active; 'I' for Inactive)
REMARK    1  A    between atoms: N_2  and  C1_3 
ROOT
ATOM      1  C1  UNL d   1       3.525   5.036  -5.999  0.00  0.00     0.143 A 
ATOM      2  C2  UNL d   1       3.461   3.638  -5.985  0.00  0.00    -0.057 A 
ATOM      3  C3  UNL d   1       2.231   2.968  -5.997  0.00  0.00     0.033 A 
ATOM      4  C4  UNL d   1       1.040   3.686  -5.994  0.00  0.00    -0.042 A 
ATOM      5  C5  UNL d   1       1.080   5.076  -5.983  0.00  0.00     0.033 A 
ATOM      6  C6  UNL d   1       2.310   5.740  -5.978  0.00  0.00    -0.057 A 
ENDROOT
BRANCH   1   7
ATOM      7  N   UNL d   1       4.714   5.761  -5.889  0.00  0.00    -0.732 N 
ATOM      8  C   UNL d   1       5.966   5.087  -5.621  0.00  0.00     0.284 C 
ATOM      9  H3  UNL d   1       4.781   6.504  -6.581  0.00  0.00     0.395 HD
ENDBRANCH   1   7
TORSDOF 1
ENDMDL
