MODEL 1
REMARK minimizedAffinity 5.32026482
REMARK minimizedRMSD -1
REMARK  0 active torsions:
REMARK  status: ('A' for Active; 'I' for Inactive)
ROOT
ATOM      1  C2' OXE d   1       1.189  -1.755   2.115  0.00  0.00     0.078 C 
ATOM      2  C1' OXE d   1      -1.547  -1.987   1.531  0.00  0.00     0.078 C 
ATOM      3  C1  OXE d   1      -0.925  -0.616   1.449  0.00  0.00    -0.078 A 
ATOM      4  C2  OXE d   1       0.404  -0.504   1.782  0.00  0.00    -0.078 A 
ATOM      5  C3  OXE d   1       1.041   0.728   1.671  0.00  0.00     0.003 A 
ATOM      6  C4  OXE d   1       0.306   1.882   1.372  0.00  0.00    -0.002 A 
ATOM      7  C5  OXE d   1      -1.057   1.796   1.068  0.00  0.00    -0.002 A 
ATOM      8  C6  OXE d   1      -1.677   0.552   1.061  0.00  0.00     0.003 A 
ENDROOT
TORSDOF 0
ENDMDL
