MODEL 1
REMARK minimizedAffinity 2.98768902
REMARK minimizedRMSD -1
REMARK  0 active torsions:
REMARK  status: ('A' for Active; 'I' for Inactive)
ROOT
ATOM      1  C2' OXE d   1      -1.999  -3.201   0.309  0.00  0.00     0.078 C 
ATOM      2  C1' OXE d   1       0.601  -4.256   0.401  0.00  0.00     0.078 C 
ATOM      3  C1  OXE d   1       0.406  -2.826   0.841  0.00  0.00    -0.078 A 
ATOM      4  C2  OXE d   1      -0.861  -2.304   0.748  0.00  0.00    -0.078 A 
ATOM      5  C3  OXE d   1      -1.107  -1.008   1.192  0.00  0.00     0.003 A 
ATOM      6  C4  OXE d   1      -0.048  -0.182   1.588  0.00  0.00    -0.002 A 
ATOM      7  C5  OXE d   1       1.257  -0.682   1.651  0.00  0.00    -0.002 A 
ATOM      8  C6  OXE d   1       1.494  -2.012   1.322  0.00  0.00     0.003 A 
ENDROOT
TORSDOF 0
ENDMDL
