MODEL 1
REMARK minimizedAffinity 8.43990231
REMARK minimizedRMSD -1
REMARK  0 active torsions:
REMARK  status: ('A' for Active; 'I' for Inactive)
ROOT
ATOM      1  C2' OXE d   1      -1.863  -4.318  -2.602  0.00  0.00     0.078 C 
ATOM      2  C1' OXE d   1      -2.091  -2.906  -0.187  0.00  0.00     0.078 C 
ATOM      3  C1  OXE d   1      -2.538  -2.215  -1.451  0.00  0.00    -0.078 A 
ATOM      4  C2  OXE d   1      -2.380  -2.896  -2.634  0.00  0.00    -0.078 A 
ATOM      5  C3  OXE d   1      -2.826  -2.326  -3.823  0.00  0.00     0.003 A 
ATOM      6  C4  OXE d   1      -3.293  -1.006  -3.844  0.00  0.00    -0.002 A 
ATOM      7  C5  OXE d   1      -3.425  -0.280  -2.656  0.00  0.00    -0.002 A 
ATOM      8  C6  OXE d   1      -3.093  -0.884  -1.448  0.00  0.00     0.003 A 
ENDROOT
TORSDOF 0
ENDMDL
