MODEL 1
REMARK minimizedAffinity 11.2725897
REMARK minimizedRMSD -1
REMARK  0 active torsions:
REMARK  status: ('A' for Active; 'I' for Inactive)
ROOT
ATOM      1  C2' OXE d   1       1.775  -2.962   5.838  0.00  0.00     0.078 C 
ATOM      2  C1' OXE d   1       2.548  -4.317   3.504  0.00  0.00     0.078 C 
ATOM      3  C1  OXE d   1       2.192  -2.857   3.384  0.00  0.00    -0.078 A 
ATOM      4  C2  OXE d   1       1.770  -2.213   4.522  0.00  0.00    -0.078 A 
ATOM      5  C3  OXE d   1       1.481  -0.852   4.478  0.00  0.00     0.003 A 
ATOM      6  C4  OXE d   1       1.469  -0.169   3.256  0.00  0.00    -0.002 A 
ATOM      7  C5  OXE d   1       1.857  -0.816   2.078  0.00  0.00    -0.002 A 
ATOM      8  C6  OXE d   1       2.262  -2.145   2.131  0.00  0.00     0.003 A 
ENDROOT
TORSDOF 0
ENDMDL
