MODEL 1
REMARK minimizedAffinity 8.20323658
REMARK minimizedRMSD -1
REMARK  0 active torsions:
REMARK  status: ('A' for Active; 'I' for Inactive)
ROOT
ATOM      1  C2' OXE d   1       1.131  -3.078   5.588  0.00  0.00     0.078 C 
ATOM      2  C1' OXE d   1       2.658  -4.503   3.712  0.00  0.00     0.078 C 
ATOM      3  C1  OXE d   1       2.164  -3.132   3.322  0.00  0.00    -0.078 A 
ATOM      4  C2  OXE d   1       1.378  -2.462   4.228  0.00  0.00    -0.078 A 
ATOM      5  C3  OXE d   1       0.942  -1.172   3.940  0.00  0.00     0.003 A 
ATOM      6  C4  OXE d   1       1.167  -0.613   2.676  0.00  0.00    -0.002 A 
ATOM      7  C5  OXE d   1       1.932  -1.295   1.724  0.00  0.00    -0.002 A 
ATOM      8  C6  OXE d   1       2.472  -2.535   2.046  0.00  0.00     0.003 A 
ENDROOT
TORSDOF 0
ENDMDL
