MODEL 1
REMARK minimizedAffinity 5.30659056
REMARK minimizedRMSD -1
REMARK  0 active torsions:
REMARK  status: ('A' for Active; 'I' for Inactive)
ROOT
ATOM      1  C2' OXE d   1      -3.317  -3.572  -0.290  0.00  0.00     0.078 C 
ATOM      2  C1' OXE d   1      -2.065  -5.971   0.456  0.00  0.00     0.078 C 
ATOM      3  C1  OXE d   1      -1.415  -5.145  -0.625  0.00  0.00    -0.078 A 
ATOM      4  C2  OXE d   1      -2.059  -3.996  -1.017  0.00  0.00    -0.078 A 
ATOM      5  C3  OXE d   1      -1.475  -3.169  -1.972  0.00  0.00     0.003 A 
ATOM      6  C4  OXE d   1      -0.317  -3.574  -2.646  0.00  0.00    -0.002 A 
ATOM      7  C5  OXE d   1       0.334  -4.760  -2.291  0.00  0.00    -0.002 A 
ATOM      8  C6  OXE d   1      -0.178  -5.534  -1.256  0.00  0.00     0.003 A 
ENDROOT
TORSDOF 0
ENDMDL
