MODEL 1
REMARK minimizedAffinity 12.4854975
REMARK minimizedRMSD -1
REMARK  0 active torsions:
REMARK  status: ('A' for Active; 'I' for Inactive)
ROOT
ATOM      1  C2' OXE d   1      -1.768  -0.880   1.384  0.00  0.00     0.078 C 
ATOM      2  C1' OXE d   1       0.755  -0.073   2.312  0.00  0.00     0.078 C 
ATOM      3  C1  OXE d   1      -0.075   0.939   1.563  0.00  0.00    -0.078 A 
ATOM      4  C2  OXE d   1      -1.289   0.521   1.072  0.00  0.00    -0.078 A 
ATOM      5  C3  OXE d   1      -2.118   1.429   0.420  0.00  0.00     0.003 A 
ATOM      6  C4  OXE d   1      -1.664   2.721   0.127  0.00  0.00    -0.002 A 
ATOM      7  C5  OXE d   1      -0.414   3.154   0.584  0.00  0.00    -0.002 A 
ATOM      8  C6  OXE d   1       0.373   2.291   1.338  0.00  0.00     0.003 A 
ENDROOT
TORSDOF 0
ENDMDL
