MODEL 1
REMARK minimizedAffinity 1.3709532
REMARK minimizedRMSD -1
REMARK  0 active torsions:
REMARK  status: ('A' for Active; 'I' for Inactive)
ROOT
ATOM      1  C2' OXE d   1      -1.730  -1.441   1.120  0.00  0.00     0.078 C 
ATOM      2  C1' OXE d   1       0.599  -0.936   2.603  0.00  0.00     0.078 C 
ATOM      3  C1  OXE d   1       0.750  -1.623   1.269  0.00  0.00    -0.078 A 
ATOM      4  C2  OXE d   1      -0.399  -1.908   0.571  0.00  0.00    -0.078 A 
ATOM      5  C3  OXE d   1      -0.313  -2.492  -0.689  0.00  0.00     0.003 A 
ATOM      6  C4  OXE d   1       0.921  -2.930  -1.185  0.00  0.00    -0.002 A 
ATOM      7  C5  OXE d   1       2.099  -2.685  -0.472  0.00  0.00    -0.002 A 
ATOM      8  C6  OXE d   1       2.036  -1.996   0.734  0.00  0.00     0.003 A 
ENDROOT
TORSDOF 0
ENDMDL
