MODEL 1
REMARK minimizedAffinity 0.66820085
REMARK minimizedRMSD -1
REMARK  0 active torsions:
REMARK  status: ('A' for Active; 'I' for Inactive)
ROOT
ATOM      1  C2' OXE d   1       3.018   0.041   1.593  0.00  0.00     0.078 C 
ATOM      2  C1' OXE d   1       1.302  -2.146   1.986  0.00  0.00     0.078 C 
ATOM      3  C1  OXE d   1       0.722  -0.899   1.366  0.00  0.00    -0.078 A 
ATOM      4  C2  OXE d   1       1.558   0.182   1.221  0.00  0.00    -0.078 A 
ATOM      5  C3  OXE d   1       1.088   1.339   0.605  0.00  0.00     0.003 A 
ATOM      6  C4  OXE d   1      -0.266   1.465   0.273  0.00  0.00    -0.002 A 
ATOM      7  C5  OXE d   1      -1.144   0.390   0.449  0.00  0.00    -0.002 A 
ATOM      8  C6  OXE d   1      -0.657  -0.811   0.954  0.00  0.00     0.003 A 
ENDROOT
TORSDOF 0
ENDMDL
