MODEL 1
REMARK minimizedAffinity 3.74533176
REMARK minimizedRMSD -1
REMARK  0 active torsions:
REMARK  status: ('A' for Active; 'I' for Inactive)
ROOT
ATOM      1  C2' OXE d   1       2.937   2.479   3.763  0.00  0.00     0.078 C 
ATOM      2  C1' OXE d   1       2.274   0.797   5.911  0.00  0.00     0.078 C 
ATOM      3  C1  OXE d   1       2.204   0.222   4.518  0.00  0.00    -0.078 A 
ATOM      4  C2  OXE d   1       2.484   1.065   3.470  0.00  0.00    -0.078 A 
ATOM      5  C3  OXE d   1       2.487   0.570   2.169  0.00  0.00     0.003 A 
ATOM      6  C4  OXE d   1       2.057  -0.736   1.907  0.00  0.00    -0.002 A 
ATOM      7  C5  OXE d   1       1.729  -1.600   2.957  0.00  0.00    -0.002 A 
ATOM      8  C6  OXE d   1       1.837  -1.151   4.268  0.00  0.00     0.003 A 
ENDROOT
TORSDOF 0
ENDMDL
