MODEL 1
REMARK minimizedAffinity 13.629076
REMARK minimizedRMSD -1
REMARK  1 active torsions:
REMARK  status: ('A' for Active; 'I' for Inactive)
REMARK    1  A    between atoms: C3_4  and  O_7 
ROOT
ATOM      1  C   UNL d   1       0.453  -3.881  -2.636  0.00  0.00    -0.033 A 
ATOM      2  C1  UNL d   1       0.419  -5.276  -2.625  0.00  0.00     0.039 A 
ATOM      3  C2  UNL d   1       0.834  -5.995  -3.749  0.00  0.00    -0.080 A 
ATOM      4  C3  UNL d   1       1.280  -5.306  -4.874  0.00  0.00     0.150 A 
ATOM      5  C4  UNL d   1       1.319  -3.916  -4.889  0.00  0.00    -0.007 A 
ATOM      6  C5  UNL d   1       0.904  -3.200  -3.767  0.00  0.00     0.039 A 
ENDROOT
BRANCH   4   7
ATOM      7  O   UNL d   1       1.690  -5.964  -5.995  0.00  0.00    -0.526 OA
ATOM      8  H5  UNL d   1       1.580  -6.918  -5.850  0.00  0.00     0.418 HD
ENDBRANCH   4   7
TORSDOF 1
ENDMDL
