MODEL 1
REMARK minimizedAffinity 11.8522587
REMARK minimizedRMSD -1
REMARK  1 active torsions:
REMARK  status: ('A' for Active; 'I' for Inactive)
REMARK    1  A    between atoms: C3_4  and  O_7 
ROOT
ATOM      1  C   UNL d   1       2.696  -5.365   0.190  0.00  0.00    -0.033 A 
ATOM      2  C1  UNL d   1       2.151  -5.749   1.417  0.00  0.00     0.039 A 
ATOM      3  C2  UNL d   1       0.995  -5.128   1.893  0.00  0.00    -0.080 A 
ATOM      4  C3  UNL d   1       0.393  -4.128   1.134  0.00  0.00     0.150 A 
ATOM      5  C4  UNL d   1       0.929  -3.743  -0.090  0.00  0.00    -0.007 A 
ATOM      6  C5  UNL d   1       2.084  -4.363  -0.564  0.00  0.00     0.039 A 
ENDROOT
BRANCH   4   7
ATOM      7  O   UNL d   1      -0.734  -3.490   1.561  0.00  0.00    -0.526 OA
ATOM      8  H5  UNL d   1      -0.973  -3.840   2.435  0.00  0.00     0.418 HD
ENDBRANCH   4   7
TORSDOF 1
ENDMDL
