MODEL 1
REMARK minimizedAffinity 11.509757
REMARK minimizedRMSD -1
REMARK  1 active torsions:
REMARK  status: ('A' for Active; 'I' for Inactive)
REMARK    1  A    between atoms: C3_4  and  O_7 
ROOT
ATOM      1  C   UNL d   1      -0.455  -3.007   1.124  0.00  0.00    -0.033 A 
ATOM      2  C1  UNL d   1       0.872  -2.590   1.246  0.00  0.00     0.039 A 
ATOM      3  C2  UNL d   1       1.869  -3.513   1.569  0.00  0.00    -0.080 A 
ATOM      4  C3  UNL d   1       1.527  -4.848   1.766  0.00  0.00     0.150 A 
ATOM      5  C4  UNL d   1       0.208  -5.271   1.642  0.00  0.00    -0.007 A 
ATOM      6  C5  UNL d   1      -0.787  -4.348   1.320  0.00  0.00     0.039 A 
ENDROOT
BRANCH   4   7
ATOM      7  O   UNL d   1       2.465  -5.784   2.087  0.00  0.00    -0.526 OA
ATOM      8  H5  UNL d   1       3.326  -5.341   2.167  0.00  0.00     0.418 HD
ENDBRANCH   4   7
TORSDOF 1
ENDMDL
