MODEL 1
REMARK minimizedAffinity 7.23904848
REMARK minimizedRMSD -1
REMARK  1 active torsions:
REMARK  status: ('A' for Active; 'I' for Inactive)
REMARK    1  A    between atoms: C3_4  and  O_7 
ROOT
ATOM      1  C   UNL d   1      -3.957  -1.405   5.681  0.00  0.00    -0.033 A 
ATOM      2  C1  UNL d   1      -3.264  -2.581   5.388  0.00  0.00     0.039 A 
ATOM      3  C2  UNL d   1      -3.931  -3.807   5.394  0.00  0.00    -0.080 A 
ATOM      4  C3  UNL d   1      -5.290  -3.844   5.694  0.00  0.00     0.150 A 
ATOM      5  C4  UNL d   1      -5.988  -2.676   5.983  0.00  0.00    -0.007 A 
ATOM      6  C5  UNL d   1      -5.320  -1.452   5.978  0.00  0.00     0.039 A 
ENDROOT
BRANCH   4   7
ATOM      7  O   UNL d   1      -5.984  -5.017   5.717  0.00  0.00    -0.526 OA
ATOM      8  H5  UNL d   1      -5.367  -5.743   5.526  0.00  0.00     0.418 HD
ENDBRANCH   4   7
TORSDOF 1
ENDMDL
