MODEL 1
REMARK minimizedAffinity 4.80805826
REMARK minimizedRMSD -1
REMARK  1 active torsions:
REMARK  status: ('A' for Active; 'I' for Inactive)
REMARK    1  A    between atoms: C3_4  and  O_7 
ROOT
ATOM      1  C   UNL d   1       2.596  -1.091   1.395  0.00  0.00    -0.033 A 
ATOM      2  C1  UNL d   1       1.236  -1.121   1.079  0.00  0.00     0.039 A 
ATOM      3  C2  UNL d   1       0.644  -0.033   0.435  0.00  0.00    -0.080 A 
ATOM      4  C3  UNL d   1       1.421   1.076   0.112  0.00  0.00     0.150 A 
ATOM      5  C4  UNL d   1       2.777   1.110   0.420  0.00  0.00    -0.007 A 
ATOM      6  C5  UNL d   1       3.367   0.023   1.064  0.00  0.00     0.039 A 
ENDROOT
BRANCH   4   7
ATOM      7  O   UNL d   1       0.886   2.164  -0.513  0.00  0.00    -0.526 OA
ATOM      8  H5  UNL d   1      -0.065   2.010  -0.637  0.00  0.00     0.418 HD
ENDBRANCH   4   7
TORSDOF 1
ENDMDL
