MODEL 1
REMARK minimizedAffinity 3.92476416
REMARK minimizedRMSD -1
REMARK  1 active torsions:
REMARK  status: ('A' for Active; 'I' for Inactive)
REMARK    1  A    between atoms: C3_4  and  O_7 
ROOT
ATOM      1  C   UNL d   1       3.059  -5.054  -5.998  0.00  0.00    -0.033 A 
ATOM      2  C1  UNL d   1       2.952  -3.798  -5.398  0.00  0.00     0.039 A 
ATOM      3  C2  UNL d   1       1.829  -3.484  -4.629  0.00  0.00    -0.080 A 
ATOM      4  C3  UNL d   1       0.823  -4.433  -4.468  0.00  0.00     0.150 A 
ATOM      5  C4  UNL d   1       0.926  -5.688  -5.061  0.00  0.00    -0.007 A 
ATOM      6  C5  UNL d   1       2.047  -5.999  -5.829  0.00  0.00     0.039 A 
ENDROOT
BRANCH   4   7
ATOM      7  O   UNL d   1      -0.293  -4.171  -3.732  0.00  0.00    -0.526 OA
ATOM      8  H5  UNL d   1      -0.240  -3.256  -3.407  0.00  0.00     0.418 HD
ENDBRANCH   4   7
TORSDOF 1
ENDMDL
