MODEL 1
REMARK minimizedAffinity 16.3395329
REMARK minimizedRMSD -1
REMARK  1 active torsions:
REMARK  status: ('A' for Active; 'I' for Inactive)
REMARK    1  A    between atoms: C3_4  and  O_7 
ROOT
ATOM      1  C   UNL d   1       3.885   0.373   0.003  0.00  0.00    -0.033 A 
ATOM      2  C1  UNL d   1       4.308   1.091  -1.117  0.00  0.00     0.039 A 
ATOM      3  C2  UNL d   1       4.867   0.422  -2.208  0.00  0.00    -0.080 A 
ATOM      4  C3  UNL d   1       4.997  -0.964  -2.165  0.00  0.00     0.150 A 
ATOM      5  C4  UNL d   1       4.574  -1.686  -1.054  0.00  0.00    -0.007 A 
ATOM      6  C5  UNL d   1       4.017  -1.015   0.034  0.00  0.00     0.039 A 
ENDROOT
BRANCH   4   7
ATOM      7  O   UNL d   1       5.541  -1.660  -3.203  0.00  0.00    -0.526 OA
ATOM      8  H5  UNL d   1       5.813  -1.028  -3.889  0.00  0.00     0.418 HD
ENDBRANCH   4   7
TORSDOF 1
ENDMDL
