MODEL 1
REMARK minimizedAffinity 5.59526825
REMARK minimizedRMSD -1
REMARK  1 active torsions:
REMARK  status: ('A' for Active; 'I' for Inactive)
REMARK    1  A    between atoms: C3_4  and  O_7 
ROOT
ATOM      1  C   UNL d   1      -1.857   3.869  -2.507  0.00  0.00    -0.033 A 
ATOM      2  C1  UNL d   1      -1.889   5.264  -2.475  0.00  0.00     0.039 A 
ATOM      3  C2  UNL d   1      -1.601   5.998  -3.627  0.00  0.00    -0.080 A 
ATOM      4  C3  UNL d   1      -1.284   5.325  -4.804  0.00  0.00     0.150 A 
ATOM      5  C4  UNL d   1      -1.254   3.935  -4.845  0.00  0.00    -0.007 A 
ATOM      6  C5  UNL d   1      -1.541   3.204  -3.693  0.00  0.00     0.039 A 
ENDROOT
BRANCH   4   7
ATOM      7  O   UNL d   1      -0.991   5.998  -5.953  0.00  0.00    -0.526 OA
ATOM      8  H5  UNL d   1      -1.023   6.951  -5.768  0.00  0.00     0.418 HD
ENDBRANCH   4   7
TORSDOF 1
ENDMDL
