MODEL 1
REMARK minimizedAffinity 9.05292892
REMARK minimizedRMSD -1
REMARK  1 active torsions:
REMARK  status: ('A' for Active; 'I' for Inactive)
REMARK    1  A    between atoms: C3_4  and  O_7 
ROOT
ATOM      1  C   UNL d   1       1.510   2.499  -0.804  0.00  0.00    -0.033 A 
ATOM      2  C1  UNL d   1       0.334   2.492  -0.051  0.00  0.00     0.039 A 
ATOM      3  C2  UNL d   1      -0.907   2.455  -0.691  0.00  0.00    -0.080 A 
ATOM      4  C3  UNL d   1      -0.957   2.423  -2.081  0.00  0.00     0.150 A 
ATOM      5  C4  UNL d   1       0.210   2.425  -2.837  0.00  0.00    -0.007 A 
ATOM      6  C5  UNL d   1       1.448   2.464  -2.197  0.00  0.00     0.039 A 
ENDROOT
BRANCH   4   7
ATOM      7  O   UNL d   1      -2.145   2.390  -2.751  0.00  0.00    -0.526 OA
ATOM      8  H5  UNL d   1      -2.866   2.422  -2.100  0.00  0.00     0.418 HD
ENDBRANCH   4   7
TORSDOF 1
ENDMDL
