MODEL 1
REMARK minimizedAffinity 7.52336168
REMARK minimizedRMSD -1
REMARK  1 active torsions:
REMARK  status: ('A' for Active; 'I' for Inactive)
REMARK    1  A    between atoms: C3_4  and  O_7 
ROOT
ATOM      1  C   UNL d   1       0.826  -3.991  -2.331  0.00  0.00    -0.033 A 
ATOM      2  C1  UNL d   1       1.513  -3.303  -3.332  0.00  0.00     0.039 A 
ATOM      3  C2  UNL d   1       1.869  -3.958  -4.513  0.00  0.00    -0.080 A 
ATOM      4  C3  UNL d   1       1.532  -5.298  -4.680  0.00  0.00     0.150 A 
ATOM      5  C4  UNL d   1       0.844  -5.989  -3.687  0.00  0.00    -0.007 A 
ATOM      6  C5  UNL d   1       0.490  -5.334  -2.509  0.00  0.00     0.039 A 
ENDROOT
BRANCH   4   7
ATOM      7  O   UNL d   1       1.863  -5.980  -5.813  0.00  0.00    -0.526 OA
ATOM      8  H5  UNL d   1       2.360  -5.384  -6.397  0.00  0.00     0.418 HD
ENDBRANCH   4   7
TORSDOF 1
ENDMDL
