MODEL 1
REMARK minimizedAffinity 7.97206068
REMARK minimizedRMSD -1
REMARK  1 active torsions:
REMARK  status: ('A' for Active; 'I' for Inactive)
REMARK    1  A    between atoms: C3_4  and  O_7 
ROOT
ATOM      1  C   UNL d   1       3.749  -0.410   1.739  0.00  0.00    -0.033 A 
ATOM      2  C1  UNL d   1       2.445  -0.812   1.447  0.00  0.00     0.039 A 
ATOM      3  C2  UNL d   1       1.551   0.086   0.860  0.00  0.00    -0.080 A 
ATOM      4  C3  UNL d   1       1.974   1.381   0.571  0.00  0.00     0.150 A 
ATOM      5  C4  UNL d   1       3.274   1.786   0.856  0.00  0.00    -0.007 A 
ATOM      6  C5  UNL d   1       4.164   0.888   1.443  0.00  0.00     0.039 A 
ENDROOT
BRANCH   4   7
ATOM      7  O   UNL d   1       1.136   2.294   0.003  0.00  0.00    -0.526 OA
ATOM      8  H5  UNL d   1       0.264   1.882  -0.111  0.00  0.00     0.418 HD
ENDBRANCH   4   7
TORSDOF 1
ENDMDL
