MODEL 1
REMARK minimizedAffinity 3.43086267
REMARK minimizedRMSD -1
REMARK  1 active torsions:
REMARK  status: ('A' for Active; 'I' for Inactive)
REMARK    1  A    between atoms: C3_4  and  O_7 
ROOT
ATOM      1  C   UNL d   1       0.324  -0.613   5.201  0.00  0.00    -0.033 A 
ATOM      2  C1  UNL d   1       1.667  -0.598   4.817  0.00  0.00     0.039 A 
ATOM      3  C2  UNL d   1       2.008  -0.632   3.464  0.00  0.00    -0.080 A 
ATOM      4  C3  UNL d   1       1.000  -0.681   2.506  0.00  0.00     0.150 A 
ATOM      5  C4  UNL d   1      -0.340  -0.693   2.881  0.00  0.00    -0.007 A 
ATOM      6  C5  UNL d   1      -0.679  -0.659   4.233  0.00  0.00     0.039 A 
ENDROOT
BRANCH   4   7
ATOM      7  O   UNL d   1       1.284  -0.722   1.173  0.00  0.00    -0.526 OA
ATOM      8  H5  UNL d   1       2.250  -0.737   1.065  0.00  0.00     0.418 HD
ENDBRANCH   4   7
TORSDOF 1
ENDMDL
