MODEL 1
REMARK minimizedAffinity 3.53693461
REMARK minimizedRMSD -1
REMARK  1 active torsions:
REMARK  status: ('A' for Active; 'I' for Inactive)
REMARK    1  A    between atoms: C3_4  and  O_7 
ROOT
ATOM      1  C   UNL d   1      -4.672  -4.491   2.238  0.00  0.00    -0.033 A 
ATOM      2  C1  UNL d   1      -5.375  -5.629   1.837  0.00  0.00     0.039 A 
ATOM      3  C2  UNL d   1      -5.401  -5.998   0.491  0.00  0.00    -0.080 A 
ATOM      4  C3  UNL d   1      -4.720  -5.222  -0.443  0.00  0.00     0.150 A 
ATOM      5  C4  UNL d   1      -4.015  -4.089  -0.051  0.00  0.00    -0.007 A 
ATOM      6  C5  UNL d   1      -3.991  -3.722   1.294  0.00  0.00     0.039 A 
ENDROOT
BRANCH   4   7
ATOM      7  O   UNL d   1      -4.721  -5.539  -1.769  0.00  0.00    -0.526 OA
ATOM      8  H5  UNL d   1      -5.273  -6.329  -1.897  0.00  0.00     0.418 HD
ENDBRANCH   4   7
TORSDOF 1
ENDMDL
