MODEL 1
REMARK minimizedAffinity 12.2809706
REMARK minimizedRMSD -1
REMARK  1 active torsions:
REMARK  status: ('A' for Active; 'I' for Inactive)
REMARK    1  A    between atoms: C3_4  and  O_7 
ROOT
ATOM      1  C   UNL d   1      -2.802   3.929  -2.236  0.00  0.00    -0.033 A 
ATOM      2  C1  UNL d   1      -2.787   3.223  -3.441  0.00  0.00     0.039 A 
ATOM      3  C2  UNL d   1      -2.634   3.904  -4.650  0.00  0.00    -0.080 A 
ATOM      4  C3  UNL d   1      -2.497   5.290  -4.641  0.00  0.00     0.150 A 
ATOM      5  C4  UNL d   1      -2.508   5.999  -3.444  0.00  0.00    -0.007 A 
ATOM      6  C5  UNL d   1      -2.661   5.317  -2.238  0.00  0.00     0.039 A 
ENDROOT
BRANCH   4   7
ATOM      7  O   UNL d   1      -2.351   5.999  -5.796  0.00  0.00    -0.526 OA
ATOM      8  H5  UNL d   1      -2.391   5.380  -6.544  0.00  0.00     0.418 HD
ENDBRANCH   4   7
TORSDOF 1
ENDMDL
