MODEL 1
REMARK minimizedAffinity 2.30607891
REMARK minimizedRMSD -1
REMARK  0 active torsions:
REMARK  status: ('A' for Active; 'I' for Inactive)
ROOT
ATOM      1  C   UNL d   1      -2.723  -1.000  -3.078  0.00  0.00     0.078 C 
ATOM      2  C1  UNL d   1      -2.788  -2.363  -2.455  0.00  0.00    -0.077 A 
ATOM      3  C2  UNL d   1      -3.502  -2.581  -1.270  0.00  0.00    -0.001 A 
ATOM      4  C3  UNL d   1      -3.546  -3.852  -0.696  0.00  0.00     0.003 A 
ATOM      5  C4  UNL d   1      -2.877  -4.915  -1.299  0.00  0.00    -0.005 A 
ATOM      6  C5  UNL d   1      -2.163  -4.708  -2.477  0.00  0.00     0.003 A 
ATOM      7  C6  UNL d   1      -2.118  -3.437  -3.052  0.00  0.00    -0.001 A 
ENDROOT
TORSDOF 0
ENDMDL
