MODEL 1
REMARK minimizedAffinity -0.24418661
REMARK minimizedRMSD -1
REMARK  0 active torsions:
REMARK  status: ('A' for Active; 'I' for Inactive)
ROOT
ATOM      1  C   UNL d   1      -0.213   2.134   0.757  0.00  0.00     0.078 C 
ATOM      2  C1  UNL d   1      -1.686   1.857   0.688  0.00  0.00    -0.077 A 
ATOM      3  C2  UNL d   1      -2.527   2.629  -0.123  0.00  0.00    -0.001 A 
ATOM      4  C3  UNL d   1      -3.897   2.366  -0.171  0.00  0.00     0.003 A 
ATOM      5  C4  UNL d   1      -4.438   1.332   0.591  0.00  0.00    -0.005 A 
ATOM      6  C5  UNL d   1      -3.609   0.561   1.403  0.00  0.00     0.003 A 
ATOM      7  C6  UNL d   1      -2.239   0.822   1.452  0.00  0.00    -0.001 A 
ENDROOT
TORSDOF 0
ENDMDL
