MODEL 1
REMARK minimizedAffinity -5.07553339
REMARK minimizedRMSD -1
REMARK  0 active torsions:
REMARK  status: ('A' for Active; 'I' for Inactive)
ROOT
ATOM      1  C   UNL d   1      -4.613   1.774   0.552  0.00  0.00     0.078 C 
ATOM      2  C1  UNL d   1      -3.193   1.293   0.559  0.00  0.00    -0.077 A 
ATOM      3  C2  UNL d   1      -2.134   2.166   0.281  0.00  0.00    -0.001 A 
ATOM      4  C3  UNL d   1      -0.818   1.703   0.281  0.00  0.00     0.003 A 
ATOM      5  C4  UNL d   1      -0.548   0.364   0.556  0.00  0.00    -0.005 A 
ATOM      6  C5  UNL d   1      -1.595  -0.514   0.831  0.00  0.00     0.003 A 
ATOM      7  C6  UNL d   1      -2.912  -0.052   0.832  0.00  0.00    -0.001 A 
ENDROOT
TORSDOF 0
ENDMDL
