MODEL 1
REMARK minimizedAffinity -4.08309364
REMARK minimizedRMSD -1
REMARK  0 active torsions:
REMARK  status: ('A' for Active; 'I' for Inactive)
ROOT
ATOM      1  C   UNL d   1      -3.688   0.751   0.762  0.00  0.00     0.078 C 
ATOM      2  C1  UNL d   1      -2.243   1.145   0.690  0.00  0.00    -0.077 A 
ATOM      3  C2  UNL d   1      -1.373   0.891   1.757  0.00  0.00    -0.001 A 
ATOM      4  C3  UNL d   1      -0.032   1.271   1.681  0.00  0.00     0.003 A 
ATOM      5  C4  UNL d   1       0.450   1.909   0.539  0.00  0.00    -0.005 A 
ATOM      6  C5  UNL d   1      -0.409   2.168  -0.527  0.00  0.00     0.003 A 
ATOM      7  C6  UNL d   1      -1.750   1.788  -0.452  0.00  0.00    -0.001 A 
ENDROOT
TORSDOF 0
ENDMDL
