MODEL 1
REMARK minimizedAffinity -2.78277826
REMARK minimizedRMSD -1
REMARK  0 active torsions:
REMARK  status: ('A' for Active; 'I' for Inactive)
ROOT
ATOM      1  C   UNL d   1      -4.554   1.047   0.675  0.00  0.00     0.078 C 
ATOM      2  C1  UNL d   1      -3.062   1.154   0.774  0.00  0.00    -0.077 A 
ATOM      3  C2  UNL d   1      -2.252   0.013   0.713  0.00  0.00    -0.001 A 
ATOM      4  C3  UNL d   1      -0.864   0.127   0.816  0.00  0.00     0.003 A 
ATOM      5  C4  UNL d   1      -0.275   1.378   0.982  0.00  0.00    -0.005 A 
ATOM      6  C5  UNL d   1      -1.073   2.518   1.047  0.00  0.00     0.003 A 
ATOM      7  C6  UNL d   1      -2.461   2.407   0.944  0.00  0.00    -0.001 A 
ENDROOT
TORSDOF 0
ENDMDL
