MODEL 1
REMARK minimizedAffinity 0.703591287
REMARK minimizedRMSD -1
REMARK  0 active torsions:
REMARK  status: ('A' for Active; 'I' for Inactive)
ROOT
ATOM      1  C   UNL d   1      -3.474   2.975   1.095  0.00  0.00     0.078 C 
ATOM      2  C1  UNL d   1      -2.177   2.241   0.934  0.00  0.00    -0.077 A 
ATOM      3  C2  UNL d   1      -1.217   2.667   0.008  0.00  0.00    -0.001 A 
ATOM      4  C3  UNL d   1      -0.017   1.968  -0.137  0.00  0.00     0.003 A 
ATOM      5  C4  UNL d   1       0.232   0.838   0.638  0.00  0.00    -0.005 A 
ATOM      6  C5  UNL d   1      -0.718   0.404   1.560  0.00  0.00     0.003 A 
ATOM      7  C6  UNL d   1      -1.918   1.102   1.708  0.00  0.00    -0.001 A 
ENDROOT
TORSDOF 0
ENDMDL
