MODEL 1
REMARK minimizedAffinity -4.41949797
REMARK minimizedRMSD -1
REMARK  0 active torsions:
REMARK  status: ('A' for Active; 'I' for Inactive)
ROOT
ATOM      1  C   UNL d   1      -4.408   2.666   0.609  0.00  0.00     0.078 C 
ATOM      2  C1  UNL d   1      -3.001   2.152   0.547  0.00  0.00    -0.077 A 
ATOM      3  C2  UNL d   1      -2.004   2.860  -0.133  0.00  0.00    -0.001 A 
ATOM      4  C3  UNL d   1      -0.700   2.365  -0.191  0.00  0.00     0.003 A 
ATOM      5  C4  UNL d   1      -0.383   1.158   0.428  0.00  0.00    -0.005 A 
ATOM      6  C5  UNL d   1      -1.369   0.444   1.106  0.00  0.00     0.003 A 
ATOM      7  C6  UNL d   1      -2.673   0.938   1.165  0.00  0.00    -0.001 A 
ENDROOT
TORSDOF 0
ENDMDL
