MODEL 1
REMARK minimizedAffinity -1.74695289
REMARK minimizedRMSD -1
REMARK  0 active torsions:
REMARK  status: ('A' for Active; 'I' for Inactive)
ROOT
ATOM      1  C   UNL d   1      -4.549   2.497   0.458  0.00  0.00     0.078 C 
ATOM      2  C1  UNL d   1      -3.077   2.211   0.435  0.00  0.00    -0.077 A 
ATOM      3  C2  UNL d   1      -2.585   0.935   0.736  0.00  0.00    -0.001 A 
ATOM      4  C3  UNL d   1      -1.212   0.686   0.721  0.00  0.00     0.003 A 
ATOM      5  C4  UNL d   1      -0.319   1.708   0.405  0.00  0.00    -0.005 A 
ATOM      6  C5  UNL d   1      -0.799   2.981   0.106  0.00  0.00     0.003 A 
ATOM      7  C6  UNL d   1      -2.172   3.232   0.121  0.00  0.00    -0.001 A 
ENDROOT
TORSDOF 0
ENDMDL
