MODEL 1
REMARK minimizedAffinity -4.01063299
REMARK minimizedRMSD -1
REMARK  0 active torsions:
REMARK  status: ('A' for Active; 'I' for Inactive)
ROOT
ATOM      1  C   UNL d   1       0.548   1.018   0.450  0.00  0.00     0.078 C 
ATOM      2  C1  UNL d   1      -0.949   1.014   0.529  0.00  0.00    -0.077 A 
ATOM      3  C2  UNL d   1      -1.698   2.115   0.094  0.00  0.00    -0.001 A 
ATOM      4  C3  UNL d   1      -3.090   2.101   0.183  0.00  0.00     0.003 A 
ATOM      5  C4  UNL d   1      -3.747   0.990   0.709  0.00  0.00    -0.005 A 
ATOM      6  C5  UNL d   1      -3.011  -0.108   1.147  0.00  0.00     0.003 A 
ATOM      7  C6  UNL d   1      -1.618  -0.097   1.058  0.00  0.00    -0.001 A 
ENDROOT
TORSDOF 0
ENDMDL
