MODEL 1
REMARK minimizedAffinity -4.00011873
REMARK minimizedRMSD -1
REMARK  0 active torsions:
REMARK  status: ('A' for Active; 'I' for Inactive)
ROOT
ATOM      1  C   UNL d   1      -3.810   1.819  -0.206  0.00  0.00     0.078 C 
ATOM      2  C1  UNL d   1      -2.396   1.500   0.179  0.00  0.00    -0.077 A 
ATOM      3  C2  UNL d   1      -2.116   0.576   1.193  0.00  0.00    -0.001 A 
ATOM      4  C3  UNL d   1      -0.795   0.296   1.547  0.00  0.00     0.003 A 
ATOM      5  C4  UNL d   1       0.256   0.936   0.893  0.00  0.00    -0.005 A 
ATOM      6  C5  UNL d   1      -0.014   1.859  -0.116  0.00  0.00     0.003 A 
ATOM      7  C6  UNL d   1      -1.334   2.140  -0.471  0.00  0.00    -0.001 A 
ENDROOT
TORSDOF 0
ENDMDL
