MODEL 1
REMARK minimizedAffinity -1.93785536
REMARK minimizedRMSD -1
REMARK  0 active torsions:
REMARK  status: ('A' for Active; 'I' for Inactive)
ROOT
ATOM      1  C   UNL d   1      -4.625   2.460   1.003  0.00  0.00     0.078 C 
ATOM      2  C1  UNL d   1      -3.257   1.850   1.082  0.00  0.00    -0.077 A 
ATOM      3  C2  UNL d   1      -3.081   0.524   1.495  0.00  0.00    -0.001 A 
ATOM      4  C3  UNL d   1      -1.801  -0.027   1.573  0.00  0.00     0.003 A 
ATOM      5  C4  UNL d   1      -0.687   0.740   1.240  0.00  0.00    -0.005 A 
ATOM      6  C5  UNL d   1      -0.852   2.062   0.829  0.00  0.00     0.003 A 
ATOM      7  C6  UNL d   1      -2.131   2.615   0.751  0.00  0.00    -0.001 A 
ENDROOT
TORSDOF 0
ENDMDL
