MODEL 1
REMARK minimizedAffinity -3.73612738
REMARK minimizedRMSD -1
REMARK  0 active torsions:
REMARK  status: ('A' for Active; 'I' for Inactive)
ROOT
ATOM      1  C   UNL d   1       0.097   1.436   0.487  0.00  0.00     0.078 C 
ATOM      2  C1  UNL d   1      -1.389   1.244   0.425  0.00  0.00    -0.077 A 
ATOM      3  C2  UNL d   1      -2.239   2.302   0.079  0.00  0.00    -0.001 A 
ATOM      4  C3  UNL d   1      -3.621   2.111   0.034  0.00  0.00     0.003 A 
ATOM      5  C4  UNL d   1      -4.165   0.864   0.335  0.00  0.00    -0.005 A 
ATOM      6  C5  UNL d   1      -3.327  -0.194   0.682  0.00  0.00     0.003 A 
ATOM      7  C6  UNL d   1      -1.945  -0.005   0.727  0.00  0.00    -0.001 A 
ENDROOT
TORSDOF 0
ENDMDL
