MODEL 1
REMARK minimizedAffinity -2.75160718
REMARK minimizedRMSD -1
REMARK  0 active torsions:
REMARK  status: ('A' for Active; 'I' for Inactive)
ROOT
ATOM      1  C   UNL d   1      -2.234   2.904   1.153  0.00  0.00     0.078 C 
ATOM      2  C1  UNL d   1      -1.010   2.070   0.914  0.00  0.00    -0.077 A 
ATOM      3  C2  UNL d   1       0.116   2.608   0.280  0.00  0.00    -0.001 A 
ATOM      4  C3  UNL d   1       1.245   1.818   0.056  0.00  0.00     0.003 A 
ATOM      5  C4  UNL d   1       1.257   0.485   0.462  0.00  0.00    -0.005 A 
ATOM      6  C5  UNL d   1       0.140  -0.059   1.092  0.00  0.00     0.003 A 
ATOM      7  C6  UNL d   1      -0.989   0.729   1.317  0.00  0.00    -0.001 A 
ENDROOT
TORSDOF 0
ENDMDL
