MODEL 1
REMARK minimizedAffinity -5.30788898
REMARK minimizedRMSD -1
REMARK  0 active torsions:
REMARK  status: ('A' for Active; 'I' for Inactive)
ROOT
ATOM      1  N1  IND d   1       2.335   4.027  -0.492  0.00  0.00    -0.196 N 
ATOM      2  C2  IND d   1       1.980   4.350  -1.772  0.00  0.00     0.054 A 
ATOM      3  C3  IND d   1       1.308   3.327  -2.346  0.00  0.00    -0.031 A 
ATOM      4  C4  IND d   1       0.589   1.071  -1.336  0.00  0.00     0.051 A 
ATOM      5  C5  IND d   1       0.716   0.305  -0.210  0.00  0.00    -0.031 A 
ATOM      6  C6  IND d   1       1.399   0.752   0.902  0.00  0.00     0.015 A 
ATOM      7  C7  IND d   1       1.975   1.990   0.935  0.00  0.00    -0.016 A 
ATOM      8  C8  IND d   1       1.855   2.767  -0.208  0.00  0.00    -0.047 A 
ATOM      9  C9  IND d   1       1.199   2.303  -1.356  0.00  0.00    -0.096 A 
ATOM     10  HN1 IND d   1       2.782   4.527   0.046  0.00  0.00     0.298 HD
ENDROOT
TORSDOF 0
ENDMDL
