MODEL 1
REMARK minimizedAffinity -3.83527708
REMARK minimizedRMSD -1
REMARK  0 active torsions:
REMARK  status: ('A' for Active; 'I' for Inactive)
ROOT
ATOM      1  N1  IND d   1       1.467   4.139  -1.556  0.00  0.00    -0.196 N 
ATOM      2  C2  IND d   1       1.269   4.964  -0.484  0.00  0.00     0.054 A 
ATOM      3  C3  IND d   1       1.020   4.238   0.629  0.00  0.00    -0.031 A 
ATOM      4  C4  IND d   1       0.990   1.683   0.942  0.00  0.00     0.051 A 
ATOM      5  C5  IND d   1       1.079   0.511   0.244  0.00  0.00    -0.031 A 
ATOM      6  C6  IND d   1       1.309   0.488  -1.116  0.00  0.00     0.015 A 
ATOM      7  C7  IND d   1       1.471   1.641  -1.831  0.00  0.00    -0.016 A 
ATOM      8  C8  IND d   1       1.375   2.833  -1.127  0.00  0.00    -0.047 A 
ATOM      9  C9  IND d   1       1.098   2.864   0.246  0.00  0.00    -0.096 A 
ATOM     10  HN1 IND d   1       1.624   4.393  -2.363  0.00  0.00     0.298 HD
ENDROOT
TORSDOF 0
ENDMDL
