MODEL 1
REMARK minimizedAffinity -4.05628586
REMARK minimizedRMSD -1
REMARK  0 active torsions:
REMARK  status: ('A' for Active; 'I' for Inactive)
ROOT
ATOM      1  N1  IND d   1       1.207   0.750   0.829  0.00  0.00    -0.196 N 
ATOM      2  C2  IND d   1       1.154  -0.182  -0.170  0.00  0.00     0.054 A 
ATOM      3  C3  IND d   1       1.166   0.424  -1.378  0.00  0.00    -0.031 A 
ATOM      4  C4  IND d   1       1.373   2.925  -1.953  0.00  0.00     0.051 A 
ATOM      5  C5  IND d   1       1.413   4.163  -1.375  0.00  0.00    -0.031 A 
ATOM      6  C6  IND d   1       1.388   4.330  -0.006  0.00  0.00     0.015 A 
ATOM      7  C7  IND d   1       1.334   3.260   0.841  0.00  0.00    -0.016 A 
ATOM      8  C8  IND d   1       1.287   2.001   0.259  0.00  0.00    -0.047 A 
ATOM      9  C9  IND d   1       1.268   1.827  -1.131  0.00  0.00    -0.096 A 
ATOM     10  HN1 IND d   1       1.193   0.583   1.673  0.00  0.00     0.298 HD
ENDROOT
TORSDOF 0
ENDMDL
