MODEL 1
REMARK minimizedAffinity 6.8114419
REMARK minimizedRMSD -1
REMARK  0 active torsions:
REMARK  status: ('A' for Active; 'I' for Inactive)
ROOT
ATOM      1  N1  IND d   1       1.539   3.294  -0.784  0.00  0.00    -0.196 N 
ATOM      2  C2  IND d   1       1.333   3.217  -2.134  0.00  0.00     0.054 A 
ATOM      3  C3  IND d   1       1.100   1.938  -2.502  0.00  0.00    -0.031 A 
ATOM      4  C4  IND d   1       0.910  -0.176  -1.044  0.00  0.00     0.051 A 
ATOM      5  C5  IND d   1       1.057  -0.614   0.242  0.00  0.00    -0.031 A 
ATOM      6  C6  IND d   1       1.376   0.246   1.273  0.00  0.00     0.015 A 
ATOM      7  C7  IND d   1       1.550   1.584   1.057  0.00  0.00    -0.016 A 
ATOM      8  C8  IND d   1       1.408   2.031  -0.249  0.00  0.00    -0.047 A 
ATOM      9  C9  IND d   1       1.126   1.157  -1.306  0.00  0.00    -0.096 A 
ATOM     10  HN1 IND d   1       1.720   4.010  -0.344  0.00  0.00     0.298 HD
ENDROOT
TORSDOF 0
ENDMDL
