MODEL 1
REMARK minimizedAffinity -0.0628290251
REMARK minimizedRMSD -1
REMARK  0 active torsions:
REMARK  status: ('A' for Active; 'I' for Inactive)
ROOT
ATOM      1  N1  IND d   1       1.112   2.994  -2.380  0.00  0.00    -0.196 N 
ATOM      2  C2  IND d   1       0.860   1.759  -2.908  0.00  0.00     0.054 A 
ATOM      3  C3  IND d   1       0.618   0.866  -1.922  0.00  0.00    -0.031 A 
ATOM      4  C4  IND d   1       0.482   1.237   0.622  0.00  0.00     0.051 A 
ATOM      5  C5  IND d   1       0.674   2.189   1.583  0.00  0.00    -0.031 A 
ATOM      6  C6  IND d   1       1.025   3.485   1.266  0.00  0.00     0.015 A 
ATOM      7  C7  IND d   1       1.188   3.882  -0.031  0.00  0.00    -0.016 A 
ATOM      8  C8  IND d   1       1.002   2.916  -1.009  0.00  0.00    -0.047 A 
ATOM      9  C9  IND d   1       0.686   1.589  -0.692  0.00  0.00    -0.096 A 
ATOM     10  HN1 IND d   1       1.306   3.701  -2.829  0.00  0.00     0.298 HD
ENDROOT
TORSDOF 0
ENDMDL
