MODEL 1
REMARK minimizedAffinity 4.20997334
REMARK minimizedRMSD -1
REMARK  0 active torsions:
REMARK  status: ('A' for Active; 'I' for Inactive)
ROOT
ATOM      1  N1  IND d   1       1.921   4.168  -2.313  0.00  0.00    -0.196 N 
ATOM      2  C2  IND d   1       2.007   5.231  -1.457  0.00  0.00     0.054 A 
ATOM      3  C3  IND d   1       1.671   4.853  -0.203  0.00  0.00    -0.031 A 
ATOM      4  C4  IND d   1       1.046   2.521   0.690  0.00  0.00     0.051 A 
ATOM      5  C5  IND d   1       0.797   1.241   0.279  0.00  0.00    -0.031 A 
ATOM      6  C6  IND d   1       0.916   0.863  -1.043  0.00  0.00     0.015 A 
ATOM      7  C7  IND d   1       1.300   1.753  -2.006  0.00  0.00    -0.016 A 
ATOM      8  C8  IND d   1       1.546   3.055  -1.594  0.00  0.00    -0.047 A 
ATOM      9  C9  IND d   1       1.386   3.454  -0.261  0.00  0.00    -0.096 A 
ATOM     10  HN1 IND d   1       2.075   4.192  -3.159  0.00  0.00     0.298 HD
ENDROOT
TORSDOF 0
ENDMDL
