MODEL 1
REMARK minimizedAffinity -0.0124856727
REMARK minimizedRMSD -1
REMARK  0 active torsions:
REMARK  status: ('A' for Active; 'I' for Inactive)
ROOT
ATOM      1  N1  IND d   1       1.312   0.212   0.865  0.00  0.00    -0.196 N 
ATOM      2  C2  IND d   1       1.643  -0.769  -0.028  0.00  0.00     0.054 A 
ATOM      3  C3  IND d   1       1.753  -0.253  -1.273  0.00  0.00    -0.031 A 
ATOM      4  C4  IND d   1       1.532   2.189  -2.057  0.00  0.00     0.051 A 
ATOM      5  C5  IND d   1       1.201   3.438  -1.611  0.00  0.00    -0.031 A 
ATOM      6  C6  IND d   1       0.887   3.681  -0.289  0.00  0.00     0.015 A 
ATOM      7  C7  IND d   1       0.903   2.681   0.642  0.00  0.00    -0.016 A 
ATOM      8  C8  IND d   1       1.231   1.410   0.191  0.00  0.00    -0.047 A 
ATOM      9  C9  IND d   1       1.509   1.150  -1.157  0.00  0.00    -0.096 A 
ATOM     10  HN1 IND d   1       1.176   0.098   1.707  0.00  0.00     0.298 HD
ENDROOT
TORSDOF 0
ENDMDL
