MODEL 1
REMARK minimizedAffinity -0.717322707
REMARK minimizedRMSD -1
REMARK  0 active torsions:
REMARK  status: ('A' for Active; 'I' for Inactive)
ROOT
ATOM      1  N1  IND d   1       1.577   4.169  -1.710  0.00  0.00    -0.196 N 
ATOM      2  C2  IND d   1       1.636   4.938  -0.581  0.00  0.00     0.054 A 
ATOM      3  C3  IND d   1       1.433   4.178   0.518  0.00  0.00    -0.031 A 
ATOM      4  C4  IND d   1       1.085   1.634   0.706  0.00  0.00     0.051 A 
ATOM      5  C5  IND d   1       0.918   0.511  -0.055  0.00  0.00    -0.031 A 
ATOM      6  C6  IND d   1       0.966   0.550  -1.433  0.00  0.00     0.015 A 
ATOM      7  C7  IND d   1       1.195   1.717  -2.105  0.00  0.00    -0.016 A 
ATOM      8  C8  IND d   1       1.358   2.861  -1.337  0.00  0.00    -0.047 A 
ATOM      9  C9  IND d   1       1.268   2.835   0.061  0.00  0.00    -0.096 A 
ATOM     10  HN1 IND d   1       1.662   4.454  -2.516  0.00  0.00     0.298 HD
ENDROOT
TORSDOF 0
ENDMDL
