MODEL 1
REMARK minimizedAffinity -0.757697344
REMARK minimizedRMSD -1
REMARK  0 active torsions:
REMARK  status: ('A' for Active; 'I' for Inactive)
ROOT
ATOM      1  N1  IND d   1       1.746   0.677  -2.038  0.00  0.00    -0.196 N 
ATOM      2  C2  IND d   1       1.645  -0.572  -1.491  0.00  0.00     0.054 A 
ATOM      3  C3  IND d   1       1.358  -0.486  -0.172  0.00  0.00    -0.031 A 
ATOM      4  C4  IND d   1       0.911   1.598   1.272  0.00  0.00     0.051 A 
ATOM      5  C5  IND d   1       0.925   2.963   1.225  0.00  0.00    -0.031 A 
ATOM      6  C6  IND d   1       1.216   3.651   0.065  0.00  0.00     0.015 A 
ATOM      7  C7  IND d   1       1.494   2.995  -1.101  0.00  0.00    -0.016 A 
ATOM      8  C8  IND d   1       1.488   1.608  -1.056  0.00  0.00    -0.047 A 
ATOM      9  C9  IND d   1       1.236   0.905   0.129  0.00  0.00    -0.096 A 
ATOM     10  HN1 IND d   1       1.938   0.851  -2.858  0.00  0.00     0.298 HD
ENDROOT
TORSDOF 0
ENDMDL
