MODEL 1
REMARK minimizedAffinity 4.57667828
REMARK minimizedRMSD -1
REMARK  0 active torsions:
REMARK  status: ('A' for Active; 'I' for Inactive)
ROOT
ATOM      1  N1  IND d   1       0.804   0.535  -2.072  0.00  0.00    -0.196 N 
ATOM      2  C2  IND d   1       1.654   1.235  -1.263  0.00  0.00     0.054 A 
ATOM      3  C3  IND d   1       2.178   0.423  -0.317  0.00  0.00    -0.031 A 
ATOM      4  C4  IND d   1       1.858  -2.108   0.026  0.00  0.00     0.051 A 
ATOM      5  C5  IND d   1       1.146  -3.177  -0.441  0.00  0.00    -0.031 A 
ATOM      6  C6  IND d   1       0.268  -3.062  -1.499  0.00  0.00     0.015 A 
ATOM      7  C7  IND d   1       0.076  -1.870  -2.140  0.00  0.00    -0.016 A 
ATOM      8  C8  IND d   1       0.792  -0.781  -1.663  0.00  0.00    -0.047 A 
ATOM      9  C9  IND d   1       1.653  -0.883  -0.563  0.00  0.00    -0.096 A 
ATOM     10  HN1 IND d   1       0.351   0.861  -2.726  0.00  0.00     0.298 HD
ENDROOT
TORSDOF 0
ENDMDL
