MODEL 1
REMARK minimizedAffinity -2.94359946
REMARK minimizedRMSD -1
REMARK  0 active torsions:
REMARK  status: ('A' for Active; 'I' for Inactive)
ROOT
ATOM      1  N1  IND d   1       1.443   3.500  -0.289  0.00  0.00    -0.196 N 
ATOM      2  C2  IND d   1       1.671   4.031  -1.528  0.00  0.00     0.054 A 
ATOM      3  C3  IND d   1       1.738   3.049  -2.455  0.00  0.00    -0.031 A 
ATOM      4  C4  IND d   1       1.402   0.512  -2.177  0.00  0.00     0.051 A 
ATOM      5  C5  IND d   1       1.208  -0.452  -1.227  0.00  0.00    -0.031 A 
ATOM      6  C6  IND d   1       1.077  -0.140   0.111  0.00  0.00     0.015 A 
ATOM      7  C7  IND d   1       1.124   1.153   0.549  0.00  0.00    -0.016 A 
ATOM      8  C8  IND d   1       1.328   2.133  -0.412  0.00  0.00    -0.047 A 
ATOM      9  C9  IND d   1       1.504   1.820  -1.766  0.00  0.00    -0.096 A 
ATOM     10  HN1 IND d   1       1.381   3.946   0.444  0.00  0.00     0.298 HD
ENDROOT
TORSDOF 0
ENDMDL
