MODEL 1
REMARK minimizedAffinity -1.82622349
REMARK minimizedRMSD -1
REMARK  0 active torsions:
REMARK  status: ('A' for Active; 'I' for Inactive)
ROOT
ATOM      1  N1  IND d   1       1.834   3.917  -2.056  0.00  0.00    -0.196 N 
ATOM      2  C2  IND d   1       2.124   4.823  -1.075  0.00  0.00     0.054 A 
ATOM      3  C3  IND d   1       1.922   4.278   0.145  0.00  0.00    -0.031 A 
ATOM      4  C4  IND d   1       1.212   1.883   0.768  0.00  0.00     0.051 A 
ATOM      5  C5  IND d   1       0.800   0.703   0.214  0.00  0.00    -0.031 A 
ATOM      6  C6  IND d   1       0.711   0.530  -1.152  0.00  0.00     0.015 A 
ATOM      7  C7  IND d   1       1.045   1.531  -2.020  0.00  0.00    -0.016 A 
ATOM      8  C8  IND d   1       1.458   2.733  -1.461  0.00  0.00    -0.047 A 
ATOM      9  C9  IND d   1       1.509   2.928  -0.075  0.00  0.00    -0.096 A 
ATOM     10  HN1 IND d   1       1.878   4.062  -2.903  0.00  0.00     0.298 HD
ENDROOT
TORSDOF 0
ENDMDL
