MODEL 1
REMARK minimizedAffinity 2.06600046
REMARK minimizedRMSD -1
REMARK  0 active torsions:
REMARK  status: ('A' for Active; 'I' for Inactive)
ROOT
ATOM      1  N1  IND d   1       1.270   2.255  -2.952  0.00  0.00    -0.196 N 
ATOM      2  C2  IND d   1       1.092   0.940  -2.625  0.00  0.00     0.054 A 
ATOM      3  C3  IND d   1       1.164   0.775  -1.285  0.00  0.00    -0.031 A 
ATOM      4  C4  IND d   1       1.465   2.538   0.567  0.00  0.00     0.051 A 
ATOM      5  C5  IND d   1       1.706   3.870   0.757  0.00  0.00    -0.031 A 
ATOM      6  C6  IND d   1       1.814   4.750  -0.300  0.00  0.00     0.015 A 
ATOM      7  C7  IND d   1       1.672   4.331  -1.593  0.00  0.00    -0.016 A 
ATOM      8  C8  IND d   1       1.435   2.978  -1.791  0.00  0.00    -0.047 A 
ATOM      9  C9  IND d   1       1.367   2.073  -0.724  0.00  0.00    -0.096 A 
ATOM     10  HN1 IND d   1       1.279   2.577  -3.749  0.00  0.00     0.298 HD
ENDROOT
TORSDOF 0
ENDMDL
