MODEL 1
REMARK minimizedAffinity -2.32741833
REMARK minimizedRMSD -1
REMARK  0 active torsions:
REMARK  status: ('A' for Active; 'I' for Inactive)
ROOT
ATOM      1  N1  IND d   1       1.873   4.192  -2.293  0.00  0.00    -0.196 N 
ATOM      2  C2  IND d   1       1.945   5.242  -1.420  0.00  0.00     0.054 A 
ATOM      3  C3  IND d   1       1.630   4.837  -0.170  0.00  0.00    -0.031 A 
ATOM      4  C4  IND d   1       1.063   2.478   0.692  0.00  0.00     0.051 A 
ATOM      5  C5  IND d   1       0.838   1.200   0.263  0.00  0.00    -0.031 A 
ATOM      6  C6  IND d   1       0.950   0.846  -1.066  0.00  0.00     0.015 A 
ATOM      7  C7  IND d   1       1.306   1.759  -2.018  0.00  0.00    -0.016 A 
ATOM      8  C8  IND d   1       1.529   3.059  -1.588  0.00  0.00    -0.047 A 
ATOM      9  C9  IND d   1       1.374   3.433  -0.247  0.00  0.00    -0.096 A 
ATOM     10  HN1 IND d   1       2.017   4.232  -3.139  0.00  0.00     0.298 HD
ENDROOT
TORSDOF 0
ENDMDL
