MODEL 1
REMARK minimizedAffinity -4.48634624
REMARK minimizedRMSD -1
REMARK  0 active torsions:
REMARK  status: ('A' for Active; 'I' for Inactive)
ROOT
ATOM      1  N1  IND d   1       1.479   0.951  -2.037  0.00  0.00    -0.196 N 
ATOM      2  C2  IND d   1       1.438  -0.298  -1.481  0.00  0.00     0.054 A 
ATOM      3  C3  IND d   1       1.269  -0.212  -0.143  0.00  0.00    -0.031 A 
ATOM      4  C4  IND d   1       0.935   1.870   1.333  0.00  0.00     0.051 A 
ATOM      5  C5  IND d   1       0.933   3.236   1.285  0.00  0.00    -0.031 A 
ATOM      6  C6  IND d   1       1.114   3.924   0.102  0.00  0.00     0.015 A 
ATOM      7  C7  IND d   1       1.293   3.268  -1.083  0.00  0.00    -0.016 A 
ATOM      8  C8  IND d   1       1.303   1.881  -1.036  0.00  0.00    -0.047 A 
ATOM      9  C9  IND d   1       1.163   1.178   0.167  0.00  0.00    -0.096 A 
ATOM     10  HN1 IND d   1       1.596   1.125  -2.870  0.00  0.00     0.298 HD
ENDROOT
TORSDOF 0
ENDMDL
