MODEL 1
REMARK minimizedAffinity -4.12100267
REMARK minimizedRMSD -1
REMARK  0 active torsions:
REMARK  status: ('A' for Active; 'I' for Inactive)
ROOT
ATOM      1  N1  IND d   1       1.630   0.844  -2.278  0.00  0.00    -0.196 N 
ATOM      2  C2  IND d   1       1.699  -0.468  -1.900  0.00  0.00     0.054 A 
ATOM      3  C3  IND d   1       1.469  -0.588  -0.573  0.00  0.00    -0.031 A 
ATOM      4  C4  IND d   1       0.857   1.224   1.151  0.00  0.00     0.051 A 
ATOM      5  C5  IND d   1       0.712   2.576   1.287  0.00  0.00    -0.031 A 
ATOM      6  C6  IND d   1       0.865   3.437   0.219  0.00  0.00     0.015 A 
ATOM      7  C7  IND d   1       1.160   2.975  -1.032  0.00  0.00    -0.016 A 
ATOM      8  C8  IND d   1       1.315   1.603  -1.173  0.00  0.00    -0.047 A 
ATOM      9  C9  IND d   1       1.203   0.728  -0.084  0.00  0.00    -0.096 A 
ATOM     10  HN1 IND d   1       1.760   1.144  -3.073  0.00  0.00     0.298 HD
ENDROOT
TORSDOF 0
ENDMDL
