MODEL 1
REMARK minimizedAffinity 0.527625382
REMARK minimizedRMSD -1
REMARK  0 active torsions:
REMARK  status: ('A' for Active; 'I' for Inactive)
ROOT
ATOM      1  N1  IND d   1       2.341   3.921  -0.129  0.00  0.00    -0.196 N 
ATOM      2  C2  IND d   1       2.483   4.196  -1.461  0.00  0.00     0.054 A 
ATOM      3  C3  IND d   1       2.175   3.107  -2.201  0.00  0.00    -0.031 A 
ATOM      4  C4  IND d   1       1.319   0.801  -1.440  0.00  0.00     0.051 A 
ATOM      5  C5  IND d   1       1.065   0.063  -0.319  0.00  0.00    -0.031 A 
ATOM      6  C6  IND d   1       1.224   0.584   0.949  0.00  0.00     0.015 A 
ATOM      7  C7  IND d   1       1.634   1.873   1.143  0.00  0.00    -0.016 A 
ATOM      8  C8  IND d   1       1.900   2.624   0.006  0.00  0.00    -0.047 A 
ATOM      9  C9  IND d   1       1.781   2.087  -1.282  0.00  0.00    -0.096 A 
ATOM     10  HN1 IND d   1       2.501   4.468   0.515  0.00  0.00     0.298 HD
ENDROOT
TORSDOF 0
ENDMDL
