MODEL 1
REMARK minimizedAffinity -1.03695643
REMARK minimizedRMSD -1
REMARK  0 active torsions:
REMARK  status: ('A' for Active; 'I' for Inactive)
ROOT
ATOM      1  C   UNL d   1       1.199  -0.353   1.025  0.00  0.00     0.124 A 
ATOM      2  C1  UNL d   1       0.046  -1.122   1.099  0.00  0.00     0.062 A 
ATOM      3  C2  UNL d   1      -0.974  -0.945   0.168  0.00  0.00     0.162 A 
ATOM      4  C3  UNL d   1      -0.845   0.005  -0.845  0.00  0.00    -0.034 A 
ATOM      5  C4  UNL d   1       0.317   0.776  -0.912  0.00  0.00     0.162 A 
ATOM      6  C5  UNL d   1       1.333   0.595   0.020  0.00  0.00     0.062 A 
ATOM      7  F   UNL d   1       2.447   1.339  -0.052  0.00  0.00    -0.097 F 
ATOM      8  F1  UNL d   1       0.473   1.698  -1.873  0.00  0.00    -0.096 F 
ATOM      9  I   UNL d   1      -2.368   0.272  -2.238  0.00  0.00    -0.060 I 
ATOM     10  F2  UNL d   1      -2.077  -1.703   0.264  0.00  0.00    -0.096 F 
ATOM     11  F3  UNL d   1      -0.086  -2.038   2.069  0.00  0.00    -0.097 F 
ATOM     12  F4  UNL d   1       2.179  -0.524   1.922  0.00  0.00    -0.092 F 
ENDROOT
TORSDOF 0
ENDMDL
