MODEL 1
REMARK minimizedAffinity 2.49524617
REMARK minimizedRMSD -1
REMARK  0 active torsions:
REMARK  status: ('A' for Active; 'I' for Inactive)
ROOT
ATOM      1  C   UNL d   1      -2.800  -0.253  -3.256  0.00  0.00     0.124 A 
ATOM      2  C1  UNL d   1      -1.455  -0.117  -3.572  0.00  0.00     0.062 A 
ATOM      3  C2  UNL d   1      -0.519   0.105  -2.566  0.00  0.00     0.162 A 
ATOM      4  C3  UNL d   1      -0.925   0.191  -1.234  0.00  0.00    -0.034 A 
ATOM      5  C4  UNL d   1      -2.279   0.054  -0.925  0.00  0.00     0.162 A 
ATOM      6  C5  UNL d   1      -3.211  -0.167  -1.934  0.00  0.00     0.062 A 
ATOM      7  F   UNL d   1      -4.509  -0.299  -1.627  0.00  0.00    -0.097 F 
ATOM      8  F1  UNL d   1      -2.703   0.132   0.346  0.00  0.00    -0.096 F 
ATOM      9  I   UNL d   1       0.472   0.523   0.273  0.00  0.00    -0.060 I 
ATOM     10  F2  UNL d   1       0.774   0.233  -2.899  0.00  0.00    -0.096 F 
ATOM     11  F3  UNL d   1      -1.056  -0.198  -4.849  0.00  0.00    -0.097 F 
ATOM     12  F4  UNL d   1      -3.698  -0.466  -4.226  0.00  0.00    -0.092 F 
ENDROOT
TORSDOF 0
ENDMDL
