MODEL 1
REMARK minimizedAffinity -1.8768903
REMARK minimizedRMSD -1
REMARK  0 active torsions:
REMARK  status: ('A' for Active; 'I' for Inactive)
ROOT
ATOM      1  C   UNL d   1       2.230  -1.126   2.212  0.00  0.00     0.124 A 
ATOM      2  C1  UNL d   1       2.243   0.011   1.416  0.00  0.00     0.062 A 
ATOM      3  C2  UNL d   1       1.121   0.356   0.669  0.00  0.00     0.162 A 
ATOM      4  C3  UNL d   1      -0.026  -0.437   0.714  0.00  0.00    -0.034 A 
ATOM      5  C4  UNL d   1      -0.031  -1.580   1.517  0.00  0.00     0.162 A 
ATOM      6  C5  UNL d   1       1.093  -1.920   2.262  0.00  0.00     0.062 A 
ATOM      7  F   UNL d   1       1.078  -3.019   3.030  0.00  0.00    -0.097 F 
ATOM      8  F1  UNL d   1      -1.117  -2.365   1.584  0.00  0.00    -0.096 F 
ATOM      9  I   UNL d   1      -1.706   0.074  -0.401  0.00  0.00    -0.060 I 
ATOM     10  F2  UNL d   1       1.162   1.460  -0.092  0.00  0.00    -0.096 F 
ATOM     11  F3  UNL d   1       3.341   0.780   1.365  0.00  0.00    -0.097 F 
ATOM     12  F4  UNL d   1       3.312  -1.456   2.929  0.00  0.00    -0.092 F 
ENDROOT
TORSDOF 0
ENDMDL
