MODEL 1
REMARK minimizedAffinity -4.10943127
REMARK minimizedRMSD -1
REMARK  0 active torsions:
REMARK  status: ('A' for Active; 'I' for Inactive)
ROOT
ATOM      1  C   UNL d   1       2.138  -1.385   1.214  0.00  0.00     0.124 A 
ATOM      2  C1  UNL d   1       0.862  -1.661   1.685  0.00  0.00     0.062 A 
ATOM      3  C2  UNL d   1      -0.255  -1.206   0.990  0.00  0.00     0.162 A 
ATOM      4  C3  UNL d   1      -0.100  -0.470  -0.185  0.00  0.00    -0.034 A 
ATOM      5  C4  UNL d   1       1.186  -0.196  -0.652  0.00  0.00     0.162 A 
ATOM      6  C5  UNL d   1       2.299  -0.653   0.047  0.00  0.00     0.062 A 
ATOM      7  F   UNL d   1       3.531  -0.385  -0.410  0.00  0.00    -0.097 F 
ATOM      8  F1  UNL d   1       1.371   0.509  -1.778  0.00  0.00    -0.096 F 
ATOM      9  I   UNL d   1      -1.767   0.213  -1.228  0.00  0.00    -0.060 I 
ATOM     10  F2  UNL d   1      -1.476  -1.487   1.468  0.00  0.00    -0.096 F 
ATOM     11  F3  UNL d   1       0.703  -2.368   2.814  0.00  0.00    -0.097 F 
ATOM     12  F4  UNL d   1       3.210  -1.824   1.886  0.00  0.00    -0.092 F 
ENDROOT
TORSDOF 0
ENDMDL
