MODEL 1
REMARK minimizedAffinity -1.13308179
REMARK minimizedRMSD -1
REMARK  0 active torsions:
REMARK  status: ('A' for Active; 'I' for Inactive)
ROOT
ATOM      1  C   UNL d   1       1.822  -0.352   1.725  0.00  0.00     0.124 A 
ATOM      2  C1  UNL d   1       1.781   0.686   0.804  0.00  0.00     0.062 A 
ATOM      3  C2  UNL d   1       0.663   0.859  -0.006  0.00  0.00     0.162 A 
ATOM      4  C3  UNL d   1      -0.424  -0.008   0.100  0.00  0.00    -0.034 A 
ATOM      5  C4  UNL d   1      -0.376  -1.050   1.028  0.00  0.00     0.162 A 
ATOM      6  C5  UNL d   1       0.744  -1.219   1.836  0.00  0.00     0.062 A 
ATOM      7  F   UNL d   1       0.782  -2.222   2.725  0.00  0.00    -0.097 F 
ATOM      8  F1  UNL d   1      -1.404  -1.902   1.156  0.00  0.00    -0.096 F 
ATOM      9  I   UNL d   1      -2.098   0.247  -1.111  0.00  0.00    -0.060 I 
ATOM     10  F2  UNL d   1       0.651   1.871  -0.887  0.00  0.00    -0.096 F 
ATOM     11  F3  UNL d   1       2.822   1.524   0.695  0.00  0.00    -0.097 F 
ATOM     12  F4  UNL d   1       2.899  -0.517   2.503  0.00  0.00    -0.092 F 
ENDROOT
TORSDOF 0
ENDMDL
