MODEL 1
REMARK minimizedAffinity -2.56227493
REMARK minimizedRMSD -1
REMARK  0 active torsions:
REMARK  status: ('A' for Active; 'I' for Inactive)
ROOT
ATOM      1  C   UNL d   1       2.087  -0.616   1.955  0.00  0.00     0.124 A 
ATOM      2  C1  UNL d   1       2.106   0.461   1.079  0.00  0.00     0.062 A 
ATOM      3  C2  UNL d   1       1.046   0.668   0.201  0.00  0.00     0.162 A 
ATOM      4  C3  UNL d   1      -0.043  -0.203   0.195  0.00  0.00    -0.034 A 
ATOM      5  C4  UNL d   1      -0.055  -1.284   1.078  0.00  0.00     0.162 A 
ATOM      6  C5  UNL d   1       1.007  -1.487   1.954  0.00  0.00     0.062 A 
ATOM      7  F   UNL d   1       0.987  -2.528   2.799  0.00  0.00    -0.097 F 
ATOM      8  F1  UNL d   1      -1.086  -2.141   1.099  0.00  0.00    -0.096 F 
ATOM      9  I   UNL d   1      -1.630   0.103  -1.116  0.00  0.00    -0.060 I 
ATOM     10  F2  UNL d   1       1.091   1.717  -0.634  0.00  0.00    -0.096 F 
ATOM     11  F3  UNL d   1       3.149   1.304   1.078  0.00  0.00    -0.097 F 
ATOM     12  F4  UNL d   1       3.109  -0.813   2.798  0.00  0.00    -0.092 F 
ENDROOT
TORSDOF 0
ENDMDL
