MODEL 1
REMARK minimizedAffinity -1.98608184
REMARK minimizedRMSD -1
REMARK  0 active torsions:
REMARK  status: ('A' for Active; 'I' for Inactive)
ROOT
ATOM      1  C   UNL d   1       1.648  -0.259   0.860  0.00  0.00     0.124 A 
ATOM      2  C1  UNL d   1       0.469  -0.981   0.984  0.00  0.00     0.062 A 
ATOM      3  C2  UNL d   1      -0.660  -0.607   0.261  0.00  0.00     0.162 A 
ATOM      4  C3  UNL d   1      -0.615   0.495  -0.594  0.00  0.00    -0.034 A 
ATOM      5  C4  UNL d   1       0.574   1.217  -0.712  0.00  0.00     0.162 A 
ATOM      6  C5  UNL d   1       1.699   0.839   0.012  0.00  0.00     0.062 A 
ATOM      7  F   UNL d   1       2.837   1.538  -0.109  0.00  0.00    -0.097 F 
ATOM      8  F1  UNL d   1       0.651   2.281  -1.525  0.00  0.00    -0.096 F 
ATOM      9  I   UNL d   1      -2.302   1.057  -1.676  0.00  0.00    -0.060 I 
ATOM     10  F2  UNL d   1      -1.785  -1.323   0.400  0.00  0.00    -0.096 F 
ATOM     11  F3  UNL d   1       0.417  -2.041   1.803  0.00  0.00    -0.097 F 
ATOM     12  F4  UNL d   1       2.733  -0.620   1.557  0.00  0.00    -0.092 F 
ENDROOT
TORSDOF 0
ENDMDL
