MODEL 1
REMARK minimizedAffinity -3.76124263
REMARK minimizedRMSD -1
REMARK  0 active torsions:
REMARK  status: ('A' for Active; 'I' for Inactive)
ROOT
ATOM      1  C   UNL d   1       1.632  -0.198   1.057  0.00  0.00     0.124 A 
ATOM      2  C1  UNL d   1       0.621  -1.130   0.871  0.00  0.00     0.062 A 
ATOM      3  C2  UNL d   1      -0.490  -0.813   0.094  0.00  0.00     0.162 A 
ATOM      4  C3  UNL d   1      -0.595   0.444  -0.503  0.00  0.00    -0.034 A 
ATOM      5  C4  UNL d   1       0.426   1.376  -0.311  0.00  0.00     0.162 A 
ATOM      6  C5  UNL d   1       1.534   1.054   0.466  0.00  0.00     0.062 A 
ATOM      7  F   UNL d   1       2.511   1.955   0.645  0.00  0.00    -0.097 F 
ATOM      8  F1  UNL d   1       0.358   2.593  -0.871  0.00  0.00    -0.096 F 
ATOM      9  I   UNL d   1      -2.254   0.923  -1.665  0.00  0.00    -0.060 I 
ATOM     10  F2  UNL d   1      -1.452  -1.733  -0.068  0.00  0.00    -0.096 F 
ATOM     11  F3  UNL d   1       0.713  -2.340   1.441  0.00  0.00    -0.097 F 
ATOM     12  F4  UNL d   1       2.699  -0.506   1.805  0.00  0.00    -0.092 F 
ENDROOT
TORSDOF 0
ENDMDL
