MODEL 1
REMARK minimizedAffinity -2.99845815
REMARK minimizedRMSD -1
REMARK  0 active torsions:
REMARK  status: ('A' for Active; 'I' for Inactive)
ROOT
ATOM      1  C   UNL d   1       2.250  -1.068   1.343  0.00  0.00     0.124 A 
ATOM      2  C1  UNL d   1       0.968  -1.378   1.777  0.00  0.00     0.062 A 
ATOM      3  C2  UNL d   1      -0.139  -0.973   1.036  0.00  0.00     0.162 A 
ATOM      4  C3  UNL d   1       0.031  -0.255  -0.148  0.00  0.00    -0.034 A 
ATOM      5  C4  UNL d   1       1.323   0.054  -0.577  0.00  0.00     0.162 A 
ATOM      6  C5  UNL d   1       2.426  -0.353   0.167  0.00  0.00     0.062 A 
ATOM      7  F   UNL d   1       3.663  -0.052  -0.254  0.00  0.00    -0.097 F 
ATOM      8  F1  UNL d   1       1.522   0.743  -1.710  0.00  0.00    -0.096 F 
ATOM      9  I   UNL d   1      -1.621   0.352  -1.258  0.00  0.00    -0.060 I 
ATOM     10  F2  UNL d   1      -1.365  -1.287   1.479  0.00  0.00    -0.096 F 
ATOM     11  F3  UNL d   1       0.795  -2.068   2.913  0.00  0.00    -0.097 F 
ATOM     12  F4  UNL d   1       3.313  -1.458   2.058  0.00  0.00    -0.092 F 
ENDROOT
TORSDOF 0
ENDMDL
