MODEL 1
REMARK minimizedAffinity -2.0941205
REMARK minimizedRMSD -1
REMARK  0 active torsions:
REMARK  status: ('A' for Active; 'I' for Inactive)
ROOT
ATOM      1  C   UNL d   1       2.277  -0.723   1.238  0.00  0.00     0.124 A 
ATOM      2  C1  UNL d   1       1.250  -1.637   1.044  0.00  0.00     0.062 A 
ATOM      3  C2  UNL d   1      -0.010  -1.200   0.646  0.00  0.00     0.162 A 
ATOM      4  C3  UNL d   1      -0.250   0.159   0.438  0.00  0.00    -0.034 A 
ATOM      5  C4  UNL d   1       0.787   1.072   0.636  0.00  0.00     0.162 A 
ATOM      6  C5  UNL d   1       2.044   0.630   1.034  0.00  0.00     0.062 A 
ATOM      7  F   UNL d   1       3.035   1.514   1.221  0.00  0.00    -0.097 F 
ATOM      8  F1  UNL d   1       0.590   2.385   0.446  0.00  0.00    -0.096 F 
ATOM      9  I   UNL d   1      -2.133   0.816  -0.157  0.00  0.00    -0.060 I 
ATOM     10  F2  UNL d   1      -0.983  -2.105   0.465  0.00  0.00    -0.096 F 
ATOM     11  F3  UNL d   1       1.472  -2.944   1.241  0.00  0.00    -0.097 F 
ATOM     12  F4  UNL d   1       3.488  -1.146   1.622  0.00  0.00    -0.092 F 
ENDROOT
TORSDOF 0
ENDMDL
