MODEL 1
REMARK minimizedAffinity 2.33255911
REMARK minimizedRMSD -1
REMARK  0 active torsions:
REMARK  status: ('A' for Active; 'I' for Inactive)
ROOT
ATOM      1  C   UNL d   1       2.069  -0.705   1.089  0.00  0.00     0.124 A 
ATOM      2  C1  UNL d   1       1.931   0.581   0.586  0.00  0.00     0.062 A 
ATOM      3  C2  UNL d   1       0.730   0.981   0.007  0.00  0.00     0.162 A 
ATOM      4  C3  UNL d   1      -0.344   0.094  -0.069  0.00  0.00    -0.034 A 
ATOM      5  C4  UNL d   1      -0.197  -1.198   0.439  0.00  0.00     0.162 A 
ATOM      6  C5  UNL d   1       1.005  -1.593   1.015  0.00  0.00     0.062 A 
ATOM      7  F   UNL d   1       1.137  -2.836   1.502  0.00  0.00    -0.097 F 
ATOM      8  F1  UNL d   1      -1.209  -2.076   0.381  0.00  0.00    -0.096 F 
ATOM      9  I   UNL d   1      -2.142   0.689  -0.933  0.00  0.00    -0.060 I 
ATOM     10  F2  UNL d   1       0.625   2.230  -0.471  0.00  0.00    -0.096 F 
ATOM     11  F3  UNL d   1       2.958   1.441   0.655  0.00  0.00    -0.097 F 
ATOM     12  F4  UNL d   1       3.227  -1.087   1.644  0.00  0.00    -0.092 F 
ENDROOT
TORSDOF 0
ENDMDL
