MODEL 1
REMARK minimizedAffinity 2.60614061
REMARK minimizedRMSD -1
REMARK  0 active torsions:
REMARK  status: ('A' for Active; 'I' for Inactive)
ROOT
ATOM      1  C   UNL d   1       0.601   1.551  -0.168  0.00  0.00     0.124 A 
ATOM      2  C1  UNL d   1      -0.472   0.695   0.040  0.00  0.00     0.062 A 
ATOM      3  C2  UNL d   1      -0.323  -0.433   0.842  0.00  0.00     0.162 A 
ATOM      4  C3  UNL d   1       0.905  -0.712   1.442  0.00  0.00    -0.034 A 
ATOM      5  C4  UNL d   1       1.980   0.153   1.227  0.00  0.00     0.162 A 
ATOM      6  C5  UNL d   1       1.825   1.279   0.425  0.00  0.00     0.062 A 
ATOM      7  F   UNL d   1       2.863   2.104   0.225  0.00  0.00    -0.097 F 
ATOM      8  F1  UNL d   1       3.174  -0.086   1.789  0.00  0.00    -0.096 F 
ATOM      9  I   UNL d   1       1.133  -2.397   2.642  0.00  0.00    -0.060 I 
ATOM     10  F2  UNL d   1      -1.377  -1.242   1.026  0.00  0.00    -0.096 F 
ATOM     11  F3  UNL d   1      -1.656   0.955  -0.533  0.00  0.00    -0.097 F 
ATOM     12  F4  UNL d   1       0.455   2.635  -0.941  0.00  0.00    -0.092 F 
ENDROOT
TORSDOF 0
ENDMDL
