MODEL 1
REMARK minimizedAffinity 9.0867033
REMARK minimizedRMSD -1
REMARK  0 active torsions:
REMARK  status: ('A' for Active; 'I' for Inactive)
ROOT
ATOM      1  C   UNL d   1      -0.043   3.160   0.790  0.00  0.00     0.078 C 
ATOM      2  C1  UNL d   1      -0.135   2.220   1.954  0.00  0.00    -0.077 A 
ATOM      3  C2  UNL d   1       1.005   1.580   2.456  0.00  0.00    -0.001 A 
ATOM      4  C3  UNL d   1       0.903   0.700   3.535  0.00  0.00     0.003 A 
ATOM      5  C4  UNL d   1      -0.337   0.450   4.119  0.00  0.00    -0.005 A 
ATOM      6  C5  UNL d   1      -1.477   1.081   3.625  0.00  0.00     0.003 A 
ATOM      7  C6  UNL d   1      -1.377   1.961   2.547  0.00  0.00    -0.001 A 
ENDROOT
TORSDOF 0
ENDMDL
