MODEL 1
REMARK minimizedAffinity 7.71524906
REMARK minimizedRMSD -1
REMARK  0 active torsions:
REMARK  status: ('A' for Active; 'I' for Inactive)
ROOT
ATOM      1  C   UNL d   1      -1.876   6.000   2.106  0.00  0.00     0.078 C 
ATOM      2  C1  UNL d   1      -0.939   5.346   1.136  0.00  0.00    -0.077 A 
ATOM      3  C2  UNL d   1      -0.545   5.999  -0.039  0.00  0.00    -0.001 A 
ATOM      4  C3  UNL d   1       0.321   5.374  -0.937  0.00  0.00     0.003 A 
ATOM      5  C4  UNL d   1       0.800   4.093  -0.672  0.00  0.00    -0.005 A 
ATOM      6  C5  UNL d   1       0.412   3.434   0.493  0.00  0.00     0.003 A 
ATOM      7  C6  UNL d   1      -0.454   4.057   1.393  0.00  0.00    -0.001 A 
ENDROOT
TORSDOF 0
ENDMDL
