MODEL 1
REMARK minimizedAffinity 11.729249
REMARK minimizedRMSD -1
REMARK  0 active torsions:
REMARK  status: ('A' for Active; 'I' for Inactive)
ROOT
ATOM      1  C   UNL d   1       1.892  -1.730   4.170  0.00  0.00     0.078 C 
ATOM      2  C1  UNL d   1       1.516  -0.369   3.666  0.00  0.00    -0.077 A 
ATOM      3  C2  UNL d   1       0.192   0.083   3.729  0.00  0.00    -0.001 A 
ATOM      4  C3  UNL d   1      -0.145   1.348   3.247  0.00  0.00     0.003 A 
ATOM      5  C4  UNL d   1       0.835   2.172   2.697  0.00  0.00    -0.005 A 
ATOM      6  C5  UNL d   1       2.154   1.730   2.628  0.00  0.00     0.003 A 
ATOM      7  C6  UNL d   1       2.494   0.465   3.109  0.00  0.00    -0.001 A 
ENDROOT
TORSDOF 0
ENDMDL
