MODEL 1
REMARK minimizedAffinity 4.68994999
REMARK minimizedRMSD -1
REMARK  0 active torsions:
REMARK  status: ('A' for Active; 'I' for Inactive)
ROOT
ATOM      1  C   UNL d   1      -5.955  -5.965  -5.748  0.00  0.00     0.078 C 
ATOM      2  C1  UNL d   1      -4.800  -5.982  -4.792  0.00  0.00    -0.077 A 
ATOM      3  C2  UNL d   1      -5.011  -5.981  -3.407  0.00  0.00    -0.001 A 
ATOM      4  C3  UNL d   1      -3.926  -5.988  -2.529  0.00  0.00     0.003 A 
ATOM      5  C4  UNL d   1      -2.624  -5.993  -3.024  0.00  0.00    -0.005 A 
ATOM      6  C5  UNL d   1      -2.405  -5.991  -4.400  0.00  0.00     0.003 A 
ATOM      7  C6  UNL d   1      -3.488  -5.985  -5.281  0.00  0.00    -0.001 A 
ENDROOT
TORSDOF 0
ENDMDL
