MODEL 1
REMARK minimizedAffinity 5.80687141
REMARK minimizedRMSD -1
REMARK  0 active torsions:
REMARK  status: ('A' for Active; 'I' for Inactive)
ROOT
ATOM      1  C   UNL d   1      -2.017   5.995   1.529  0.00  0.00     0.078 C 
ATOM      2  C1  UNL d   1      -0.956   5.345   0.692  0.00  0.00    -0.077 A 
ATOM      3  C2  UNL d   1      -0.425   5.994  -0.430  0.00  0.00    -0.001 A 
ATOM      4  C3  UNL d   1       0.555   5.373  -1.206  0.00  0.00     0.003 A 
ATOM      5  C4  UNL d   1       1.012   4.101  -0.869  0.00  0.00    -0.005 A 
ATOM      6  C5  UNL d   1       0.488   3.447   0.244  0.00  0.00     0.003 A 
ATOM      7  C6  UNL d   1      -0.492   4.066   1.021  0.00  0.00    -0.001 A 
ENDROOT
TORSDOF 0
ENDMDL
