MODEL 1
REMARK minimizedAffinity 7.64730883
REMARK minimizedRMSD -1
REMARK  0 active torsions:
REMARK  status: ('A' for Active; 'I' for Inactive)
ROOT
ATOM      1  C   UNL d   1       1.357   2.777   2.949  0.00  0.00     0.078 C 
ATOM      2  C1  UNL d   1       1.076   3.422   1.625  0.00  0.00    -0.077 A 
ATOM      3  C2  UNL d   1       1.863   4.481   1.157  0.00  0.00    -0.001 A 
ATOM      4  C3  UNL d   1       1.584   5.079  -0.073  0.00  0.00     0.003 A 
ATOM      5  C4  UNL d   1       0.516   4.625  -0.845  0.00  0.00    -0.005 A 
ATOM      6  C5  UNL d   1      -0.274   3.573  -0.387  0.00  0.00     0.003 A 
ATOM      7  C6  UNL d   1       0.003   2.974   0.843  0.00  0.00    -0.001 A 
ENDROOT
TORSDOF 0
ENDMDL
