MODEL 1
REMARK minimizedAffinity 3.82153296
REMARK minimizedRMSD -1
REMARK  0 active torsions:
REMARK  status: ('A' for Active; 'I' for Inactive)
ROOT
ATOM      1  C   UNL d   1      -0.141   3.677  -0.416  0.00  0.00     0.078 C 
ATOM      2  C1  UNL d   1       0.844   3.974   0.675  0.00  0.00    -0.077 A 
ATOM      3  C2  UNL d   1       0.769   3.320   1.911  0.00  0.00    -0.001 A 
ATOM      4  C3  UNL d   1       1.686   3.614   2.921  0.00  0.00     0.003 A 
ATOM      5  C4  UNL d   1       2.684   4.562   2.706  0.00  0.00    -0.005 A 
ATOM      6  C5  UNL d   1       2.765   5.219   1.480  0.00  0.00     0.003 A 
ATOM      7  C6  UNL d   1       1.849   4.927   0.469  0.00  0.00    -0.001 A 
ENDROOT
TORSDOF 0
ENDMDL
