MODEL 1
REMARK minimizedAffinity -2.86067367
REMARK minimizedRMSD -1
REMARK  0 active torsions:
REMARK  status: ('A' for Active; 'I' for Inactive)
ROOT
ATOM      1  C1  DEN d   1       2.896  -0.257   1.720  0.00  0.00     0.130 A 
ATOM      2  C2  DEN d   1       3.868  -0.917   0.852  0.00  0.00    -0.031 A 
ATOM      3  C3  DEN d   1       3.174  -1.318  -0.388  0.00  0.00     0.027 A 
ATOM      4  C4  DEN d   1       0.704  -0.979  -1.048  0.00  0.00     0.027 A 
ATOM      5  C5  DEN d   1      -0.511  -0.480  -0.632  0.00  0.00    -0.003 A 
ATOM      6  C6  DEN d   1      -0.681   0.093   0.601  0.00  0.00     0.001 A 
ATOM      7  C7  DEN d   1       0.391   0.222   1.444  0.00  0.00     0.017 A 
ATOM      8  C8  DEN d   1       1.617  -0.286   1.034  0.00  0.00    -0.094 A 
ATOM      9  C9  DEN d   1       1.772  -0.850  -0.221  0.00  0.00    -0.072 A 
ENDROOT
TORSDOF 0
ENDMDL
