MODEL 1
REMARK minimizedAffinity -2.6490736
REMARK minimizedRMSD -1
REMARK  0 active torsions:
REMARK  status: ('A' for Active; 'I' for Inactive)
ROOT
ATOM      1  C1  DEN d   1       0.052   2.254   2.579  0.00  0.00     0.130 A 
ATOM      2  C2  DEN d   1      -1.158   2.960   2.166  0.00  0.00    -0.031 A 
ATOM      3  C3  DEN d   1      -1.742   2.231   1.022  0.00  0.00     0.027 A 
ATOM      4  C4  DEN d   1      -0.899   0.088  -0.139  0.00  0.00     0.027 A 
ATOM      5  C5  DEN d   1       0.093  -0.867  -0.149  0.00  0.00    -0.003 A 
ATOM      6  C6  DEN d   1       1.151  -0.830   0.721  0.00  0.00     0.001 A 
ATOM      7  C7  DEN d   1       1.217   0.158   1.667  0.00  0.00     0.017 A 
ATOM      8  C8  DEN d   1       0.224   1.129   1.678  0.00  0.00    -0.094 A 
ATOM      9  C9  DEN d   1      -0.843   1.067   0.799  0.00  0.00    -0.072 A 
ENDROOT
TORSDOF 0
ENDMDL
