MODEL 1
REMARK minimizedAffinity -2.82364178
REMARK minimizedRMSD -1
REMARK  0 active torsions:
REMARK  status: ('A' for Active; 'I' for Inactive)
ROOT
ATOM      1  C1  DEN d   1      -1.556   1.667   0.810  0.00  0.00     0.130 A 
ATOM      2  C2  DEN d   1      -0.934   2.530   1.811  0.00  0.00    -0.031 A 
ATOM      3  C3  DEN d   1       0.397   1.975   2.129  0.00  0.00     0.027 A 
ATOM      4  C4  DEN d   1       1.551  -0.124   1.172  0.00  0.00     0.027 A 
ATOM      5  C5  DEN d   1       1.411  -1.184   0.305  0.00  0.00    -0.003 A 
ATOM      6  C6  DEN d   1       0.268  -1.386  -0.424  0.00  0.00     0.001 A 
ATOM      7  C7  DEN d   1      -0.763  -0.489  -0.332  0.00  0.00     0.017 A 
ATOM      8  C8  DEN d   1      -0.632   0.579   0.546  0.00  0.00    -0.094 A 
ATOM      9  C9  DEN d   1       0.536   0.772   1.265  0.00  0.00    -0.072 A 
ENDROOT
TORSDOF 0
ENDMDL
