MODEL 1
REMARK minimizedAffinity -1.45248806
REMARK minimizedRMSD -1
REMARK  0 active torsions:
REMARK  status: ('A' for Active; 'I' for Inactive)
ROOT
ATOM      1  C1  DEN d   1      -0.473   2.743  -1.263  0.00  0.00     0.130 A 
ATOM      2  C2  DEN d   1       0.021   1.858  -2.315  0.00  0.00    -0.031 A 
ATOM      3  C3  DEN d   1       0.408   0.578  -1.691  0.00  0.00     0.027 A 
ATOM      4  C4  DEN d   1       0.287  -0.120   0.790  0.00  0.00     0.027 A 
ATOM      5  C5  DEN d   1      -0.051   0.298   2.058  0.00  0.00    -0.003 A 
ATOM      6  C6  DEN d   1      -0.518   1.561   2.311  0.00  0.00     0.001 A 
ATOM      7  C7  DEN d   1      -0.702   2.436   1.274  0.00  0.00     0.017 A 
ATOM      8  C8  DEN d   1      -0.356   2.025  -0.007  0.00  0.00    -0.094 A 
ATOM      9  C9  DEN d   1       0.103   0.741  -0.244  0.00  0.00    -0.072 A 
ENDROOT
TORSDOF 0
ENDMDL
