MODEL 1
REMARK minimizedAffinity -0.998912692
REMARK minimizedRMSD -1
REMARK  0 active torsions:
REMARK  status: ('A' for Active; 'I' for Inactive)
ROOT
ATOM      1  C1  DEN d   1       0.749  -5.999  -0.317  0.00  0.00     0.130 A 
ATOM      2  C2  DEN d   1       2.125  -5.625  -0.000  0.00  0.00    -0.031 A 
ATOM      3  C3  DEN d   1       2.311  -4.209  -0.375  0.00  0.00     0.027 A 
ATOM      4  C4  DEN d   1       0.610  -2.566  -1.405  0.00  0.00     0.027 A 
ATOM      5  C5  DEN d   1      -0.681  -2.428  -1.864  0.00  0.00    -0.003 A 
ATOM      6  C6  DEN d   1      -1.569  -3.471  -1.871  0.00  0.00     0.001 A 
ATOM      7  C7  DEN d   1      -1.190  -4.688  -1.368  0.00  0.00     0.017 A 
ATOM      8  C8  DEN d   1       0.113  -4.837  -0.910  0.00  0.00    -0.094 A 
ATOM      9  C9  DEN d   1       0.991  -3.767  -0.900  0.00  0.00    -0.072 A 
ENDROOT
TORSDOF 0
ENDMDL
