MODEL 1
REMARK minimizedAffinity 0.956751347
REMARK minimizedRMSD -1
REMARK  0 active torsions:
REMARK  status: ('A' for Active; 'I' for Inactive)
ROOT
ATOM      1  C1  DEN d   1       0.710  -0.821  -0.365  0.00  0.00     0.130 A 
ATOM      2  C2  DEN d   1       1.154  -1.100   0.998  0.00  0.00    -0.031 A 
ATOM      3  C3  DEN d   1       0.643  -0.025   1.873  0.00  0.00     0.027 A 
ATOM      4  C4  DEN d   1      -0.789   2.029   1.252  0.00  0.00     0.027 A 
ATOM      5  C5  DEN d   1      -1.402   2.698   0.217  0.00  0.00    -0.003 A 
ATOM      6  C6  DEN d   1      -1.327   2.263  -1.080  0.00  0.00     0.001 A 
ATOM      7  C7  DEN d   1      -0.660   1.102  -1.369  0.00  0.00     0.017 A 
ATOM      8  C8  DEN d   1      -0.032   0.426  -0.331  0.00  0.00    -0.094 A 
ATOM      9  C9  DEN d   1      -0.130   0.875   0.975  0.00  0.00    -0.072 A 
ENDROOT
TORSDOF 0
ENDMDL
