MODEL 1
REMARK minimizedAffinity 0.0840463564
REMARK minimizedRMSD -1
REMARK  0 active torsions:
REMARK  status: ('A' for Active; 'I' for Inactive)
ROOT
ATOM      1  C1  DEN d   1      -0.740   0.775  -1.551  0.00  0.00     0.130 A 
ATOM      2  C2  DEN d   1      -0.745  -0.680  -1.673  0.00  0.00    -0.031 A 
ATOM      3  C3  DEN d   1      -0.517  -1.252  -0.331  0.00  0.00     0.027 A 
ATOM      4  C4  DEN d   1      -0.162  -0.032   1.914  0.00  0.00     0.027 A 
ATOM      5  C5  DEN d   1      -0.063   1.202   2.517  0.00  0.00    -0.003 A 
ATOM      6  C6  DEN d   1      -0.148   2.370   1.808  0.00  0.00     0.001 A 
ATOM      7  C7  DEN d   1      -0.383   2.330   0.459  0.00  0.00     0.017 A 
ATOM      8  C8  DEN d   1      -0.476   1.089  -0.158  0.00  0.00    -0.094 A 
ATOM      9  C9  DEN d   1      -0.400  -0.081   0.578  0.00  0.00    -0.072 A 
ENDROOT
TORSDOF 0
ENDMDL
