MODEL 1
REMARK minimizedAffinity -3.43222475
REMARK minimizedRMSD -1
REMARK  2 active torsions:
REMARK  status: ('A' for Active; 'I' for Inactive)
REMARK    1  A    between atoms: C2'_3  and  C1'_4 
REMARK    2  A    between atoms: C1'_4  and  C1_5 
ROOT
ATOM      1  C1  I4B d   1       0.518   0.399   0.178  0.00  0.00    -0.075 A 
ATOM      2  C2  I4B d   1       0.235  -0.887  -0.208  0.00  0.00     0.003 A 
ATOM      3  C3  I4B d   1      -0.894  -1.558   0.321  0.00  0.00     0.002 A 
ATOM      4  C4  I4B d   1      -1.679  -0.928   1.265  0.00  0.00    -0.004 A 
ATOM      5  C5  I4B d   1      -1.404   0.385   1.638  0.00  0.00     0.002 A 
ATOM      6  C6  I4B d   1      -0.306   1.058   1.082  0.00  0.00     0.003 A 
ENDROOT
BRANCH   1   7
ATOM      7  C1' I4B d   1       1.737   1.067  -0.376  0.00  0.00     0.060 C 
BRANCH   7   8
ATOM      8  C2' I4B d   1       1.293   2.016  -1.470  0.00  0.00    -0.013 C 
ATOM      9  C4' I4B d   1       0.427   1.313  -2.483  0.00  0.00     0.013 C 
ATOM     10  C3' I4B d   1       0.559   3.154  -0.827  0.00  0.00     0.013 C 
ENDBRANCH   7   8
ENDBRANCH   1   7
TORSDOF 2
ENDMDL
