MODEL 1
REMARK minimizedAffinity -3.84271884
REMARK minimizedRMSD -1
REMARK  2 active torsions:
REMARK  status: ('A' for Active; 'I' for Inactive)
REMARK    1  A    between atoms: C2'_3  and  C1'_4 
REMARK    2  A    between atoms: C1'_4  and  C1_5 
ROOT
ATOM      1  C1  I4B d   1      -0.308  -0.598  -0.046  0.00  0.00    -0.075 A 
ATOM      2  C2  I4B d   1      -1.254  -0.004   0.751  0.00  0.00     0.003 A 
ATOM      3  C3  I4B d   1      -1.247   1.399   0.940  0.00  0.00     0.002 A 
ATOM      4  C4  I4B d   1      -0.253   2.159   0.357  0.00  0.00    -0.004 A 
ATOM      5  C5  I4B d   1       0.691   1.557  -0.470  0.00  0.00     0.002 A 
ATOM      6  C6  I4B d   1       0.657   0.172  -0.683  0.00  0.00     0.003 A 
ENDROOT
BRANCH   1   7
ATOM      7  C1' I4B d   1      -0.324  -2.086  -0.198  0.00  0.00     0.060 C 
BRANCH   7   8
ATOM      8  C2' I4B d   1      -0.751  -2.407  -1.616  0.00  0.00    -0.013 C 
ATOM      9  C4' I4B d   1       0.361  -3.071  -2.383  0.00  0.00     0.013 C 
ATOM     10  C3' I4B d   1      -1.963  -3.288  -1.547  0.00  0.00     0.013 C 
ENDBRANCH   7   8
ENDBRANCH   1   7
TORSDOF 2
ENDMDL
