MODEL 1
REMARK minimizedAffinity -5.23059082
REMARK minimizedRMSD -1
REMARK  2 active torsions:
REMARK  status: ('A' for Active; 'I' for Inactive)
REMARK    1  A    between atoms: C2'_3  and  C1'_4 
REMARK    2  A    between atoms: C1'_4  and  C1_5 
ROOT
ATOM      1  C1  I4B d   1       0.493  -0.346   0.069  0.00  0.00    -0.075 A 
ATOM      2  C2  I4B d   1      -0.594  -0.100   0.870  0.00  0.00     0.003 A 
ATOM      3  C3  I4B d   1      -1.084   1.220   1.021  0.00  0.00     0.002 A 
ATOM      4  C4  I4B d   1      -0.431   2.263   0.397  0.00  0.00    -0.004 A 
ATOM      5  C5  I4B d   1       0.657   2.009  -0.434  0.00  0.00     0.002 A 
ATOM      6  C6  I4B d   1       1.114   0.695  -0.609  0.00  0.00     0.003 A 
ENDROOT
BRANCH   1   7
ATOM      7  C1' I4B d   1       1.004  -1.747  -0.042  0.00  0.00     0.060 C 
BRANCH   7   8
ATOM      8  C2' I4B d   1      -0.060  -2.579  -0.729  0.00  0.00    -0.013 C 
ATOM      9  C4' I4B d   1       0.203  -2.687  -2.208  0.00  0.00     0.013 C 
ATOM     10  C3' I4B d   1      -0.079  -3.932  -0.083  0.00  0.00     0.013 C 
ENDBRANCH   7   8
ENDBRANCH   1   7
TORSDOF 2
ENDMDL
