MODEL 1
REMARK minimizedAffinity -3.60149121
REMARK minimizedRMSD -1
REMARK  2 active torsions:
REMARK  status: ('A' for Active; 'I' for Inactive)
REMARK    1  A    between atoms: C2'_3  and  C1'_4 
REMARK    2  A    between atoms: C1'_4  and  C1_5 
ROOT
ATOM      1  C1  I4B d   1       0.373  -0.220   0.333  0.00  0.00    -0.075 A 
ATOM      2  C2  I4B d   1       1.465   0.611   0.311  0.00  0.00     0.003 A 
ATOM      3  C3  I4B d   1       1.295   2.014   0.405  0.00  0.00     0.002 A 
ATOM      4  C4  I4B d   1       0.021   2.542   0.467  0.00  0.00    -0.004 A 
ATOM      5  C5  I4B d   1      -1.083   1.696   0.512  0.00  0.00     0.002 A 
ATOM      6  C6  I4B d   1      -0.907   0.306   0.457  0.00  0.00     0.003 A 
ENDROOT
BRANCH   1   7
ATOM      7  C1' I4B d   1       0.586  -1.694   0.199  0.00  0.00     0.060 C 
BRANCH   7   8
ATOM      8  C2' I4B d   1      -0.516  -2.248  -0.680  0.00  0.00    -0.013 C 
ATOM      9  C4' I4B d   1       0.008  -2.624  -2.041  0.00  0.00     0.013 C 
ATOM     10  C3' I4B d   1      -1.113  -3.434   0.017  0.00  0.00     0.013 C 
ENDBRANCH   7   8
ENDBRANCH   1   7
TORSDOF 2
ENDMDL
