MODEL 1
REMARK minimizedAffinity -2.51682687
REMARK minimizedRMSD -1
REMARK  2 active torsions:
REMARK  status: ('A' for Active; 'I' for Inactive)
REMARK    1  A    between atoms: C2'_3  and  C1'_4 
REMARK    2  A    between atoms: C1'_4  and  C1_5 
ROOT
ATOM      1  C1  I4B d   1      -0.141  -2.154  -0.786  0.00  0.00    -0.075 A 
ATOM      2  C2  I4B d   1       0.615  -2.293  -1.924  0.00  0.00     0.003 A 
ATOM      3  C3  I4B d   1       0.256  -3.249  -2.905  0.00  0.00     0.002 A 
ATOM      4  C4  I4B d   1      -0.830  -4.072  -2.687  0.00  0.00    -0.004 A 
ATOM      5  C5  I4B d   1      -1.608  -3.914  -1.544  0.00  0.00     0.002 A 
ATOM      6  C6  I4B d   1      -1.269  -2.941  -0.593  0.00  0.00     0.003 A 
ENDROOT
BRANCH   1   7
ATOM      7  C1' I4B d   1       0.286  -1.158   0.245  0.00  0.00     0.060 C 
BRANCH   7   8
ATOM      8  C2' I4B d   1      -0.476   0.128  -0.004  0.00  0.00    -0.013 C 
ATOM      9  C4' I4B d   1      -1.499   0.372   1.074  0.00  0.00     0.013 C 
ATOM     10  C3' I4B d   1       0.518   1.249  -0.072  0.00  0.00     0.013 C 
ENDBRANCH   7   8
ENDBRANCH   1   7
TORSDOF 2
ENDMDL
