MODEL 1
REMARK minimizedAffinity -3.81892586
REMARK minimizedRMSD -1
REMARK  2 active torsions:
REMARK  status: ('A' for Active; 'I' for Inactive)
REMARK    1  A    between atoms: C2'_3  and  C1'_4 
REMARK    2  A    between atoms: C1'_4  and  C1_5 
ROOT
ATOM      1  C1  I4B d   1       0.087  -0.058   0.247  0.00  0.00    -0.075 A 
ATOM      2  C2  I4B d   1      -1.038   0.705   0.435  0.00  0.00     0.003 A 
ATOM      3  C3  I4B d   1      -0.960   2.117   0.380  0.00  0.00     0.002 A 
ATOM      4  C4  I4B d   1       0.265   2.723   0.187  0.00  0.00    -0.004 A 
ATOM      5  C5  I4B d   1       1.401   1.947  -0.027  0.00  0.00     0.002 A 
ATOM      6  C6  I4B d   1       1.310   0.548  -0.009  0.00  0.00     0.003 A 
ENDROOT
BRANCH   1   7
ATOM      7  C1' I4B d   1      -0.026  -1.547   0.344  0.00  0.00     0.060 C 
BRANCH   7   8
ATOM      8  C2' I4B d   1      -0.498  -2.067  -0.998  0.00  0.00    -0.013 C 
ATOM      9  C4' I4B d   1       0.593  -1.974  -2.033  0.00  0.00     0.013 C 
ATOM     10  C3' I4B d   1      -0.947  -3.486  -0.812  0.00  0.00     0.013 C 
ENDBRANCH   7   8
ENDBRANCH   1   7
TORSDOF 2
ENDMDL
