MODEL 1
REMARK minimizedAffinity -1.50806856
REMARK minimizedRMSD -1
REMARK  2 active torsions:
REMARK  status: ('A' for Active; 'I' for Inactive)
REMARK    1  A    between atoms: C2'_3  and  C1'_4 
REMARK    2  A    between atoms: C1'_4  and  C1_5 
ROOT
ATOM      1  C1  I4B d   1      -0.218   1.852   0.991  0.00  0.00    -0.075 A 
ATOM      2  C2  I4B d   1      -1.098   0.847   1.304  0.00  0.00     0.003 A 
ATOM      3  C3  I4B d   1      -0.986  -0.419   0.679  0.00  0.00     0.002 A 
ATOM      4  C4  I4B d   1      -0.018  -0.617  -0.285  0.00  0.00    -0.004 A 
ATOM      5  C5  I4B d   1       0.887   0.396  -0.584  0.00  0.00     0.002 A 
ATOM      6  C6  I4B d   1       0.795   1.635   0.066  0.00  0.00     0.003 A 
ENDROOT
BRANCH   1   7
ATOM      7  C1' I4B d   1      -0.385   3.186   1.647  0.00  0.00     0.060 C 
BRANCH   7   8
ATOM      8  C2' I4B d   1      -0.591   2.955   3.130  0.00  0.00    -0.013 C 
ATOM      9  C4' I4B d   1       0.701   3.106   3.890  0.00  0.00     0.013 C 
ATOM     10  C3' I4B d   1      -1.621   3.933   3.613  0.00  0.00     0.013 C 
ENDBRANCH   7   8
ENDBRANCH   1   7
TORSDOF 2
ENDMDL
