MODEL 1
REMARK minimizedAffinity -2.39803219
REMARK minimizedRMSD -1
REMARK  2 active torsions:
REMARK  status: ('A' for Active; 'I' for Inactive)
REMARK    1  A    between atoms: C2'_3  and  C1'_4 
REMARK    2  A    between atoms: C1'_4  and  C1_5 
ROOT
ATOM      1  C1  I4B d   1      -0.134   0.718  -0.649  0.00  0.00    -0.075 A 
ATOM      2  C2  I4B d   1      -0.590   0.576   0.638  0.00  0.00     0.003 A 
ATOM      3  C3  I4B d   1      -0.749   1.712   1.467  0.00  0.00     0.002 A 
ATOM      4  C4  I4B d   1      -0.393   2.957   0.990  0.00  0.00    -0.004 A 
ATOM      5  C5  I4B d   1       0.048   3.102  -0.322  0.00  0.00     0.002 A 
ATOM      6  C6  I4B d   1       0.167   1.977  -1.151  0.00  0.00     0.003 A 
ENDROOT
BRANCH   1   7
ATOM      7  C1' I4B d   1       0.053  -0.507  -1.487  0.00  0.00     0.060 C 
BRANCH   7   8
ATOM      8  C2' I4B d   1       1.495  -0.540  -1.951  0.00  0.00    -0.013 C 
ATOM      9  C4' I4B d   1       2.444  -0.573  -0.782  0.00  0.00     0.013 C 
ATOM     10  C3' I4B d   1       1.672  -1.745  -2.827  0.00  0.00     0.013 C 
ENDBRANCH   7   8
ENDBRANCH   1   7
TORSDOF 2
ENDMDL
