MODEL 1
REMARK minimizedAffinity -4.14418364
REMARK minimizedRMSD -1
REMARK  2 active torsions:
REMARK  status: ('A' for Active; 'I' for Inactive)
REMARK    1  A    between atoms: C2'_3  and  C1'_4 
REMARK    2  A    between atoms: C1'_4  and  C1_5 
ROOT
ATOM      1  C1  I4B d   1       0.056  -0.646  -0.258  0.00  0.00    -0.075 A 
ATOM      2  C2  I4B d   1       1.260  -0.477   0.380  0.00  0.00     0.003 A 
ATOM      3  C3  I4B d   1       1.899   0.786   0.375  0.00  0.00     0.002 A 
ATOM      4  C4  I4B d   1       1.328   1.833  -0.319  0.00  0.00    -0.004 A 
ATOM      5  C5  I4B d   1       0.097   1.667  -0.947  0.00  0.00     0.002 A 
ATOM      6  C6  I4B d   1      -0.550   0.423  -0.906  0.00  0.00     0.003 A 
ENDROOT
BRANCH   1   7
ATOM      7  C1' I4B d   1      -0.575  -2.002  -0.260  0.00  0.00     0.060 C 
BRANCH   7   8
ATOM      8  C2' I4B d   1      -0.054  -2.757  -1.466  0.00  0.00    -0.013 C 
ATOM      9  C4' I4B d   1       1.312  -3.332  -1.202  0.00  0.00     0.013 C 
ATOM     10  C3' I4B d   1      -1.041  -3.837  -1.798  0.00  0.00     0.013 C 
ENDBRANCH   7   8
ENDBRANCH   1   7
TORSDOF 2
ENDMDL
