MODEL 1
REMARK minimizedAffinity 6.88921881
REMARK minimizedRMSD -1
REMARK  2 active torsions:
REMARK  status: ('A' for Active; 'I' for Inactive)
REMARK    1  A    between atoms: C2'_3  and  C1'_4 
REMARK    2  A    between atoms: C1'_4  and  C1_5 
ROOT
ATOM      1  C1  I4B d   1       1.083  -0.253  -0.096  0.00  0.00    -0.075 A 
ATOM      2  C2  I4B d   1       0.503   0.688  -0.910  0.00  0.00     0.003 A 
ATOM      3  C3  I4B d   1       1.289   1.717  -1.481  0.00  0.00     0.002 A 
ATOM      4  C4  I4B d   1       2.632   1.798  -1.174  0.00  0.00    -0.004 A 
ATOM      5  C5  I4B d   1       3.223   0.829  -0.368  0.00  0.00     0.002 A 
ATOM      6  C6  I4B d   1       2.446  -0.210   0.165  0.00  0.00     0.003 A 
ENDROOT
BRANCH   1   7
ATOM      7  C1' I4B d   1       0.217  -1.308   0.518  0.00  0.00     0.060 C 
BRANCH   7   8
ATOM      8  C2' I4B d   1      -1.138  -1.249  -0.157  0.00  0.00    -0.013 C 
ATOM      9  C4' I4B d   1      -1.533  -2.596  -0.705  0.00  0.00     0.013 C 
ATOM     10  C3' I4B d   1      -2.136  -0.761   0.851  0.00  0.00     0.013 C 
ENDBRANCH   7   8
ENDBRANCH   1   7
TORSDOF 2
ENDMDL
