MODEL 1
REMARK minimizedAffinity -2.24148369
REMARK minimizedRMSD -1
REMARK  2 active torsions:
REMARK  status: ('A' for Active; 'I' for Inactive)
REMARK    1  A    between atoms: C2'_3  and  C1'_4 
REMARK    2  A    between atoms: C1'_4  and  C1_5 
ROOT
ATOM      1  C1  I4B d   1      -0.545   0.833  -0.474  0.00  0.00    -0.075 A 
ATOM      2  C2  I4B d   1      -1.178   1.338   0.634  0.00  0.00     0.003 A 
ATOM      3  C3  I4B d   1      -0.884   2.647   1.088  0.00  0.00     0.002 A 
ATOM      4  C4  I4B d   1       0.081   3.390   0.439  0.00  0.00    -0.004 A 
ATOM      5  C5  I4B d   1       0.705   2.885  -0.697  0.00  0.00     0.002 A 
ATOM      6  C6  I4B d   1       0.382   1.603  -1.165  0.00  0.00     0.003 A 
ENDROOT
BRANCH   1   7
ATOM      7  C1' I4B d   1      -0.855  -0.565  -0.907  0.00  0.00     0.060 C 
BRANCH   7   8
ATOM      8  C2' I4B d   1      -0.671  -1.476   0.290  0.00  0.00    -0.013 C 
ATOM      9  C4' I4B d   1      -0.966  -2.910  -0.066  0.00  0.00     0.013 C 
ATOM     10  C3' I4B d   1       0.737  -1.318   0.780  0.00  0.00     0.013 C 
ENDBRANCH   7   8
ENDBRANCH   1   7
TORSDOF 2
ENDMDL
