MODEL 1
REMARK minimizedAffinity -2.54709625
REMARK minimizedRMSD -1
REMARK  2 active torsions:
REMARK  status: ('A' for Active; 'I' for Inactive)
REMARK    1  A    between atoms: C2'_3  and  C1'_4 
REMARK    2  A    between atoms: C1'_4  and  C1_5 
ROOT
ATOM      1  C1  I4B d   1      -0.006  -2.076  -0.504  0.00  0.00    -0.075 A 
ATOM      2  C2  I4B d   1       0.585  -2.029  -1.742  0.00  0.00     0.003 A 
ATOM      3  C3  I4B d   1       0.199  -2.943  -2.751  0.00  0.00     0.002 A 
ATOM      4  C4  I4B d   1      -0.738  -3.915  -2.466  0.00  0.00    -0.004 A 
ATOM      5  C5  I4B d   1      -1.353  -3.947  -1.218  0.00  0.00     0.002 A 
ATOM      6  C6  I4B d   1      -0.994  -3.015  -0.234  0.00  0.00     0.003 A 
ENDROOT
BRANCH   1   7
ATOM      7  C1' I4B d   1       0.448  -1.117   0.550  0.00  0.00     0.060 C 
BRANCH   7   8
ATOM      8  C2' I4B d   1      -0.305   0.183   0.353  0.00  0.00    -0.013 C 
ATOM      9  C4' I4B d   1      -1.413   0.330   1.363  0.00  0.00     0.013 C 
ATOM     10  C3' I4B d   1       0.679   1.310   0.462  0.00  0.00     0.013 C 
ENDBRANCH   7   8
ENDBRANCH   1   7
TORSDOF 2
ENDMDL
