MODEL 1
REMARK minimizedAffinity 7.38231516
REMARK minimizedRMSD -1
REMARK  1 active torsions:
REMARK  status: ('A' for Active; 'I' for Inactive)
REMARK    1  A    between atoms: C1_2  and  C2_3 
ROOT
ATOM      1  C2  UNL d   1       3.458  -2.610   4.501  0.00  0.00    -0.077 A 
ATOM      2  C3  UNL d   1       3.756  -3.820   3.858  0.00  0.00     0.002 A 
ATOM      3  C4  UNL d   1       4.835  -4.598   4.282  0.00  0.00     0.002 A 
ATOM      4  C5  UNL d   1       5.621  -4.178   5.352  0.00  0.00    -0.004 A 
ATOM      5  C6  UNL d   1       5.334  -2.975   5.997  0.00  0.00     0.002 A 
ATOM      6  C7  UNL d   1       4.257  -2.196   5.574  0.00  0.00     0.002 A 
ENDROOT
BRANCH   1   7
ATOM      7  C1  UNL d   1       2.265  -1.794   4.078  0.00  0.00     0.055 C 
ATOM      8  C   UNL d   1       1.397  -1.422   5.271  0.00  0.00     0.019 C 
ENDBRANCH   1   7
TORSDOF 1
ENDMDL
