MODEL 1
REMARK minimizedAffinity -1.42927408
REMARK minimizedRMSD -1
REMARK  1 active torsions:
REMARK  status: ('A' for Active; 'I' for Inactive)
REMARK    1  A    between atoms: C1_2  and  C2_3 
ROOT
ATOM      1  C2  UNL d   1      -0.786   3.600   0.555  0.00  0.00    -0.077 A 
ATOM      2  C3  UNL d   1      -1.768   4.455   0.035  0.00  0.00     0.002 A 
ATOM      3  C4  UNL d   1      -1.633   4.986  -1.250  0.00  0.00     0.002 A 
ATOM      4  C5  UNL d   1      -0.522   4.665  -2.026  0.00  0.00    -0.004 A 
ATOM      5  C6  UNL d   1       0.461   3.817  -1.517  0.00  0.00     0.002 A 
ATOM      6  C7  UNL d   1       0.329   3.286  -0.233  0.00  0.00     0.002 A 
ENDROOT
BRANCH   1   7
ATOM      7  C1  UNL d   1      -0.953   2.987   1.920  0.00  0.00     0.055 C 
ATOM      8  C   UNL d   1       0.334   2.326   2.392  0.00  0.00     0.019 C 
ENDBRANCH   1   7
TORSDOF 1
ENDMDL
