MODEL 1
REMARK minimizedAffinity 8.28405094
REMARK minimizedRMSD -1
REMARK  1 active torsions:
REMARK  status: ('A' for Active; 'I' for Inactive)
REMARK    1  A    between atoms: C1_2  and  C2_3 
ROOT
ATOM      1  C2  UNL d   1       1.498  -0.042   4.291  0.00  0.00    -0.077 A 
ATOM      2  C3  UNL d   1       2.578  -0.297   5.148  0.00  0.00     0.002 A 
ATOM      3  C4  UNL d   1       2.557  -1.403   6.000  0.00  0.00     0.002 A 
ATOM      4  C5  UNL d   1       1.462  -2.265   6.000  0.00  0.00    -0.004 A 
ATOM      5  C6  UNL d   1       0.382  -2.018   5.153  0.00  0.00     0.002 A 
ATOM      6  C7  UNL d   1       0.400  -0.912   4.302  0.00  0.00     0.002 A 
ENDROOT
BRANCH   1   7
ATOM      7  C1  UNL d   1       1.539   1.123   3.337  0.00  0.00     0.055 C 
ATOM      8  C   UNL d   1       2.972   1.520   3.010  0.00  0.00     0.019 C 
ENDBRANCH   1   7
TORSDOF 1
ENDMDL
