MODEL 1
REMARK minimizedAffinity 5.31195688
REMARK minimizedRMSD -1
REMARK  1 active torsions:
REMARK  status: ('A' for Active; 'I' for Inactive)
REMARK    1  A    between atoms: C1_2  and  C2_3 
ROOT
ATOM      1  C2  UNL d   1      -0.049   4.120  -0.749  0.00  0.00    -0.077 A 
ATOM      2  C3  UNL d   1      -0.005   4.112  -2.150  0.00  0.00     0.002 A 
ATOM      3  C4  UNL d   1      -0.745   5.041  -2.885  0.00  0.00     0.002 A 
ATOM      4  C5  UNL d   1      -1.530   5.985  -2.228  0.00  0.00    -0.004 A 
ATOM      5  C6  UNL d   1      -1.581   6.000  -0.835  0.00  0.00     0.002 A 
ATOM      6  C7  UNL d   1      -0.844   5.072  -0.099  0.00  0.00     0.002 A 
ENDROOT
BRANCH   1   7
ATOM      7  C1  UNL d   1       0.787   3.151   0.046  0.00  0.00     0.055 C 
ATOM      8  C   UNL d   1       0.026   2.626   1.255  0.00  0.00     0.019 C 
ENDBRANCH   1   7
TORSDOF 1
ENDMDL
