MODEL 1
REMARK minimizedAffinity 2.35509825
REMARK minimizedRMSD -1
REMARK  1 active torsions:
REMARK  status: ('A' for Active; 'I' for Inactive)
REMARK    1  A    between atoms: C1_2  and  C2_3 
ROOT
ATOM      1  C2  UNL d   1       2.718  -3.949  -0.580  0.00  0.00    -0.077 A 
ATOM      2  C3  UNL d   1       3.801  -4.745  -0.980  0.00  0.00     0.002 A 
ATOM      3  C4  UNL d   1       5.074  -4.187  -1.117  0.00  0.00     0.002 A 
ATOM      4  C5  UNL d   1       5.276  -2.834  -0.852  0.00  0.00    -0.004 A 
ATOM      5  C6  UNL d   1       4.204  -2.034  -0.456  0.00  0.00     0.002 A 
ATOM      6  C7  UNL d   1       2.931  -2.590  -0.320  0.00  0.00     0.002 A 
ENDROOT
BRANCH   1   7
ATOM      7  C1  UNL d   1       1.354  -4.559  -0.384  0.00  0.00     0.055 C 
ATOM      8  C   UNL d   1       0.295  -3.815  -1.184  0.00  0.00     0.019 C 
ENDBRANCH   1   7
TORSDOF 1
ENDMDL
