MODEL 1
REMARK minimizedAffinity 7.41199493
REMARK minimizedRMSD -1
REMARK  1 active torsions:
REMARK  status: ('A' for Active; 'I' for Inactive)
REMARK    1  A    between atoms: C1_2  and  C2_3 
ROOT
ATOM      1  C2  UNL d   1      -5.548   5.048  -3.905  0.00  0.00    -0.077 A 
ATOM      2  C3  UNL d   1      -5.025   3.750  -3.994  0.00  0.00     0.002 A 
ATOM      3  C4  UNL d   1      -4.951   2.939  -2.860  0.00  0.00     0.002 A 
ATOM      4  C5  UNL d   1      -5.402   3.415  -1.631  0.00  0.00    -0.004 A 
ATOM      5  C6  UNL d   1      -5.922   4.705  -1.532  0.00  0.00     0.002 A 
ATOM      6  C7  UNL d   1      -5.995   5.517  -2.664  0.00  0.00     0.002 A 
ENDROOT
BRANCH   1   7
ATOM      7  C1  UNL d   1      -5.674   5.906  -5.137  0.00  0.00     0.055 C 
ATOM      8  C   UNL d   1      -4.416   5.837  -5.991  0.00  0.00     0.019 C 
ENDBRANCH   1   7
TORSDOF 1
ENDMDL
