MODEL 1
REMARK minimizedAffinity 4.12937737
REMARK minimizedRMSD -1
REMARK  1 active torsions:
REMARK  status: ('A' for Active; 'I' for Inactive)
REMARK    1  A    between atoms: C1_2  and  C2_3 
ROOT
ATOM      1  C2  UNL d   1      -3.331   4.304  -2.592  0.00  0.00    -0.077 A 
ATOM      2  C3  UNL d   1      -4.009   4.131  -3.807  0.00  0.00     0.002 A 
ATOM      3  C4  UNL d   1      -5.308   3.620  -3.824  0.00  0.00     0.002 A 
ATOM      4  C5  UNL d   1      -5.941   3.283  -2.630  0.00  0.00    -0.004 A 
ATOM      5  C6  UNL d   1      -5.275   3.450  -1.417  0.00  0.00     0.002 A 
ATOM      6  C7  UNL d   1      -3.975   3.959  -1.398  0.00  0.00     0.002 A 
ENDROOT
BRANCH   1   7
ATOM      7  C1  UNL d   1      -1.948   4.901  -2.568  0.00  0.00     0.055 C 
ATOM      8  C   UNL d   1      -1.014   4.099  -1.673  0.00  0.00     0.019 C 
ENDBRANCH   1   7
TORSDOF 1
ENDMDL
