MODEL 1
REMARK minimizedAffinity 7.52670527
REMARK minimizedRMSD -1
REMARK  1 active torsions:
REMARK  status: ('A' for Active; 'I' for Inactive)
REMARK    1  A    between atoms: C1_2  and  C2_3 
ROOT
ATOM      1  C2  UNL d   1      -2.023   4.851  -2.243  0.00  0.00    -0.077 A 
ATOM      2  C3  UNL d   1      -1.215   3.716  -2.091  0.00  0.00     0.002 A 
ATOM      3  C4  UNL d   1      -0.147   3.724  -1.192  0.00  0.00     0.002 A 
ATOM      4  C5  UNL d   1       0.121   4.862  -0.436  0.00  0.00    -0.004 A 
ATOM      5  C6  UNL d   1      -0.675   5.998  -0.581  0.00  0.00     0.002 A 
ATOM      6  C7  UNL d   1      -1.743   5.992  -1.479  0.00  0.00     0.002 A 
ENDROOT
BRANCH   1   7
ATOM      7  C1  UNL d   1      -3.205   4.828  -3.176  0.00  0.00     0.055 C 
ATOM      8  C   UNL d   1      -4.486   4.466  -2.437  0.00  0.00     0.019 C 
ENDBRANCH   1   7
TORSDOF 1
ENDMDL
