MODEL 1
REMARK minimizedAffinity 7.25755739
REMARK minimizedRMSD -1
REMARK  1 active torsions:
REMARK  status: ('A' for Active; 'I' for Inactive)
REMARK    1  A    between atoms: C1_2  and  C2_3 
ROOT
ATOM      1  C2  UNL d   1      -4.182   3.917   3.867  0.00  0.00    -0.076 A 
ATOM      2  C3  UNL d   1      -2.937   4.125   3.249  0.00  0.00     0.004 A 
ATOM      3  C4  UNL d   1      -1.822   4.506   3.993  0.00  0.00    -0.003 A 
ATOM      4  C5  UNL d   1      -1.933   4.685   5.367  0.00  0.00     0.000 A 
ATOM      5  C6  UNL d   1      -3.156   4.466   6.000  0.00  0.00     0.000 A 
ATOM      6  C7  UNL d   1      -4.287   4.066   5.267  0.00  0.00    -0.073 A 
ATOM      7  C8  UNL d   1      -5.583   3.849   6.000  0.00  0.00     0.078 C 
ENDROOT
BRANCH   1   8
ATOM      8  C1  UNL d   1      -5.364   3.531   3.006  0.00  0.00     0.053 C 
ATOM      9  C   UNL d   1      -5.623   2.033   3.010  0.00  0.00     0.018 C 
ENDBRANCH   1   8
TORSDOF 1
ENDMDL
