MODEL 1
REMARK minimizedAffinity 4.06173658
REMARK minimizedRMSD -1
REMARK  1 active torsions:
REMARK  status: ('A' for Active; 'I' for Inactive)
REMARK    1  A    between atoms: C1_2  and  C2_3 
ROOT
ATOM      1  C2  UNL d   1       3.709   0.064   2.053  0.00  0.00    -0.076 A 
ATOM      2  C3  UNL d   1       4.091   1.062   1.139  0.00  0.00     0.004 A 
ATOM      3  C4  UNL d   1       3.178   1.588   0.227  0.00  0.00    -0.003 A 
ATOM      4  C5  UNL d   1       1.867   1.126   0.214  0.00  0.00     0.000 A 
ATOM      5  C6  UNL d   1       1.465   0.149   1.125  0.00  0.00     0.000 A 
ATOM      6  C7  UNL d   1       2.369  -0.380   2.062  0.00  0.00    -0.073 A 
ATOM      7  C8  UNL d   1       1.883  -1.436   3.017  0.00  0.00     0.078 C 
ENDROOT
BRANCH   1   8
ATOM      8  C1  UNL d   1       4.749  -0.489   3.000  0.00  0.00     0.053 C 
ATOM      9  C   UNL d   1       6.000   0.375   3.059  0.00  0.00     0.018 C 
ENDBRANCH   1   8
TORSDOF 1
ENDMDL
