MODEL 1
REMARK minimizedAffinity 6.2007618
REMARK minimizedRMSD -1
REMARK  1 active torsions:
REMARK  status: ('A' for Active; 'I' for Inactive)
REMARK    1  A    between atoms: C1_2  and  C2_3 
ROOT
ATOM      1  C2  UNL d   1       4.410  -0.022   2.143  0.00  0.00    -0.076 A 
ATOM      2  C3  UNL d   1       3.425  -0.703   2.880  0.00  0.00     0.004 A 
ATOM      3  C4  UNL d   1       2.080  -0.627   2.522  0.00  0.00    -0.003 A 
ATOM      4  C5  UNL d   1       1.698   0.129   1.420  0.00  0.00     0.000 A 
ATOM      5  C6  UNL d   1       2.663   0.797   0.667  0.00  0.00     0.000 A 
ATOM      6  C7  UNL d   1       4.025   0.718   1.004  0.00  0.00    -0.073 A 
ATOM      7  C8  UNL d   1       5.022   1.463   0.160  0.00  0.00     0.078 C 
ENDROOT
BRANCH   1   8
ATOM      8  C1  UNL d   1       5.849  -0.119   2.595  0.00  0.00     0.053 C 
ATOM      9  C   UNL d   1       5.991  -0.051   4.107  0.00  0.00     0.018 C 
ENDBRANCH   1   8
TORSDOF 1
ENDMDL
