MODEL 1
REMARK minimizedAffinity 6.16136885
REMARK minimizedRMSD -1
REMARK  1 active torsions:
REMARK  status: ('A' for Active; 'I' for Inactive)
REMARK    1  A    between atoms: C1_2  and  C2_3 
ROOT
ATOM      1  C2  UNL d   1       4.080   0.011  -3.456  0.00  0.00    -0.076 A 
ATOM      2  C3  UNL d   1       2.900  -0.657  -3.826  0.00  0.00     0.004 A 
ATOM      3  C4  UNL d   1       2.397  -1.705  -3.057  0.00  0.00    -0.003 A 
ATOM      4  C5  UNL d   1       3.066  -2.101  -1.904  0.00  0.00     0.000 A 
ATOM      5  C6  UNL d   1       4.228  -1.438  -1.512  0.00  0.00     0.000 A 
ATOM      6  C7  UNL d   1       4.739  -0.369  -2.267  0.00  0.00    -0.073 A 
ATOM      7  C8  UNL d   1       6.000   0.307  -1.801  0.00  0.00     0.078 C 
ENDROOT
BRANCH   1   8
ATOM      8  C1  UNL d   1       4.592   1.122  -4.344  0.00  0.00     0.053 C 
ATOM      9  C   UNL d   1       3.473   1.844  -5.079  0.00  0.00     0.018 C 
ENDBRANCH   1   8
TORSDOF 1
ENDMDL
