MODEL 1
REMARK minimizedAffinity 13.4356785
REMARK minimizedRMSD -1
REMARK  1 active torsions:
REMARK  status: ('A' for Active; 'I' for Inactive)
REMARK    1  A    between atoms: C1_2  and  C2_3 
ROOT
ATOM      1  C2  UNL d   1       1.860  -0.075   1.705  0.00  0.00    -0.076 A 
ATOM      2  C3  UNL d   1       3.127   0.024   2.305  0.00  0.00     0.004 A 
ATOM      3  C4  UNL d   1       3.651  -1.028   3.054  0.00  0.00    -0.003 A 
ATOM      4  C5  UNL d   1       2.916  -2.198   3.214  0.00  0.00     0.000 A 
ATOM      5  C6  UNL d   1       1.665  -2.321   2.611  0.00  0.00     0.000 A 
ATOM      6  C7  UNL d   1       1.130  -1.275   1.839  0.00  0.00    -0.073 A 
ATOM      7  C8  UNL d   1      -0.227  -1.459   1.216  0.00  0.00     0.078 C 
ENDROOT
BRANCH   1   8
ATOM      8  C1  UNL d   1       1.332   1.109   0.927  0.00  0.00     0.053 C 
ATOM      9  C   UNL d   1       2.407   1.780   0.086  0.00  0.00     0.018 C 
ENDBRANCH   1   8
TORSDOF 1
ENDMDL
