MODEL 1
REMARK minimizedAffinity 10.2903252
REMARK minimizedRMSD -1
REMARK  1 active torsions:
REMARK  status: ('A' for Active; 'I' for Inactive)
REMARK    1  A    between atoms: C1_2  and  C2_3 
ROOT
ATOM      1  C2  UNL d   1      -4.410   1.392   1.516  0.00  0.00    -0.076 A 
ATOM      2  C3  UNL d   1      -5.086   0.380   2.220  0.00  0.00     0.004 A 
ATOM      3  C4  UNL d   1      -4.758  -0.962   2.038  0.00  0.00    -0.003 A 
ATOM      4  C5  UNL d   1      -3.748  -1.315   1.149  0.00  0.00     0.000 A 
ATOM      5  C6  UNL d   1      -3.054  -0.323   0.456  0.00  0.00     0.000 A 
ATOM      6  C7  UNL d   1      -3.361   1.036   0.641  0.00  0.00    -0.073 A 
ATOM      7  C8  UNL d   1      -2.586   2.064  -0.137  0.00  0.00     0.078 C 
ENDROOT
BRANCH   1   8
ATOM      8  C1  UNL d   1      -4.827   2.829   1.734  0.00  0.00     0.053 C 
ATOM      9  C   UNL d   1      -5.782   2.986   2.908  0.00  0.00     0.018 C 
ENDBRANCH   1   8
TORSDOF 1
ENDMDL
