MODEL 1
REMARK minimizedAffinity 7.09864426
REMARK minimizedRMSD -1
REMARK  1 active torsions:
REMARK  status: ('A' for Active; 'I' for Inactive)
REMARK    1  A    between atoms: C1_2  and  C2_3 
ROOT
ATOM      1  C2  UNL d   1      -5.776   1.859   3.175  0.00  0.00    -0.076 A 
ATOM      2  C3  UNL d   1      -5.932   1.628   4.553  0.00  0.00     0.004 A 
ATOM      3  C4  UNL d   1      -5.717   2.645   5.480  0.00  0.00    -0.003 A 
ATOM      4  C5  UNL d   1      -5.342   3.912   5.045  0.00  0.00     0.000 A 
ATOM      5  C6  UNL d   1      -5.200   4.164   3.681  0.00  0.00     0.000 A 
ATOM      6  C7  UNL d   1      -5.430   3.154   2.732  0.00  0.00    -0.073 A 
ATOM      7  C8  UNL d   1      -5.256   3.480   1.274  0.00  0.00     0.078 C 
ENDROOT
BRANCH   1   8
ATOM      8  C1  UNL d   1      -5.997   0.710   2.218  0.00  0.00     0.053 C 
ATOM      9  C   UNL d   1      -4.826   0.509   1.269  0.00  0.00     0.018 C 
ENDBRANCH   1   8
TORSDOF 1
ENDMDL
