MODEL 1
REMARK minimizedAffinity 5.78071594
REMARK minimizedRMSD -1
REMARK  1 active torsions:
REMARK  status: ('A' for Active; 'I' for Inactive)
REMARK    1  A    between atoms: C1_2  and  C2_3 
ROOT
ATOM      1  C2  UNL d   1       3.874   0.868   1.373  0.00  0.00    -0.076 A 
ATOM      2  C3  UNL d   1       2.469   0.914   1.327  0.00  0.00     0.004 A 
ATOM      3  C4  UNL d   1       1.698   0.008   2.053  0.00  0.00    -0.003 A 
ATOM      4  C5  UNL d   1       2.318  -0.958   2.837  0.00  0.00     0.000 A 
ATOM      5  C6  UNL d   1       3.709  -1.007   2.908  0.00  0.00     0.000 A 
ATOM      6  C7  UNL d   1       4.502  -0.091   2.196  0.00  0.00    -0.073 A 
ATOM      7  C8  UNL d   1       5.999  -0.194   2.304  0.00  0.00     0.078 C 
ENDROOT
BRANCH   1   8
ATOM      8  C1  UNL d   1       4.658   1.859   0.543  0.00  0.00     0.053 C 
ATOM      9  C   UNL d   1       4.540   3.281   1.067  0.00  0.00     0.018 C 
ENDBRANCH   1   8
TORSDOF 1
ENDMDL
