MODEL 1
REMARK minimizedAffinity 4.96443176
REMARK minimizedRMSD -1
REMARK  1 active torsions:
REMARK  status: ('A' for Active; 'I' for Inactive)
REMARK    1  A    between atoms: C1_2  and  C2_3 
ROOT
ATOM      1  C2  UNL d   1       3.508  -0.167   2.191  0.00  0.00    -0.076 A 
ATOM      2  C3  UNL d   1       3.767   0.872   1.282  0.00  0.00     0.004 A 
ATOM      3  C4  UNL d   1       2.786   1.310   0.394  0.00  0.00    -0.003 A 
ATOM      4  C5  UNL d   1       1.529   0.715   0.402  0.00  0.00     0.000 A 
ATOM      5  C6  UNL d   1       1.248  -0.306   1.309  0.00  0.00     0.000 A 
ATOM      6  C7  UNL d   1       2.221  -0.747   2.222  0.00  0.00    -0.073 A 
ATOM      7  C8  UNL d   1       1.867  -1.856   3.175  0.00  0.00     0.078 C 
ENDROOT
BRANCH   1   8
ATOM      8  C1  UNL d   1       4.619  -0.618   3.112  0.00  0.00     0.053 C 
ATOM      9  C   UNL d   1       5.955   0.025   2.771  0.00  0.00     0.018 C 
ENDBRANCH   1   8
TORSDOF 1
ENDMDL
