MODEL 1
REMARK minimizedAffinity -1.69369113
REMARK minimizedRMSD -1
REMARK  1 active torsions:
REMARK  status: ('A' for Active; 'I' for Inactive)
REMARK    1  A    between atoms: C1_2  and  C2_3 
ROOT
ATOM      1  C2  UNL d   1       3.639  -0.403   2.005  0.00  0.00    -0.076 A 
ATOM      2  C3  UNL d   1       3.722   0.737   1.187  0.00  0.00     0.004 A 
ATOM      3  C4  UNL d   1       2.667   1.101   0.353  0.00  0.00    -0.003 A 
ATOM      4  C5  UNL d   1       1.510   0.330   0.323  0.00  0.00     0.000 A 
ATOM      5  C6  UNL d   1       1.402  -0.794   1.141  0.00  0.00     0.000 A 
ATOM      6  C7  UNL d   1       2.451  -1.166   2.000  0.00  0.00    -0.073 A 
ATOM      7  C8  UNL d   1       2.284  -2.392   2.855  0.00  0.00     0.078 C 
ENDROOT
BRANCH   1   8
ATOM      8  C1  UNL d   1       4.826  -0.764   2.869  0.00  0.00     0.053 C 
ATOM      9  C   UNL d   1       6.000   0.183   2.671  0.00  0.00     0.018 C 
ENDBRANCH   1   8
TORSDOF 1
ENDMDL
