MODEL 1
REMARK minimizedAffinity 10.7675734
REMARK minimizedRMSD -1
REMARK  1 active torsions:
REMARK  status: ('A' for Active; 'I' for Inactive)
REMARK    1  A    between atoms: C1_2  and  C2_3 
ROOT
ATOM      1  C2  UNL d   1       3.582  -0.251   2.467  0.00  0.00    -0.076 A 
ATOM      2  C3  UNL d   1       3.764   0.865   1.633  0.00  0.00     0.004 A 
ATOM      3  C4  UNL d   1       2.769   1.266   0.743  0.00  0.00    -0.003 A 
ATOM      4  C5  UNL d   1       1.575   0.556   0.672  0.00  0.00     0.000 A 
ATOM      5  C6  UNL d   1       1.370  -0.544   1.505  0.00  0.00     0.000 A 
ATOM      6  C7  UNL d   1       2.357  -0.951   2.420  0.00  0.00    -0.073 A 
ATOM      7  C8  UNL d   1       2.085  -2.147   3.289  0.00  0.00     0.078 C 
ENDROOT
BRANCH   1   8
ATOM      8  C1  UNL d   1       4.707  -0.654   3.393  0.00  0.00     0.053 C 
ATOM      9  C   UNL d   1       6.000   0.089   3.097  0.00  0.00     0.018 C 
ENDBRANCH   1   8
TORSDOF 1
ENDMDL
