MODEL 1
REMARK minimizedAffinity 10.4406939
REMARK minimizedRMSD -1
REMARK  1 active torsions:
REMARK  status: ('A' for Active; 'I' for Inactive)
REMARK    1  A    between atoms: C1_2  and  C2_3 
ROOT
ATOM      1  C2  UNL d   1       3.431   0.074   2.024  0.00  0.00    -0.076 A 
ATOM      2  C3  UNL d   1       3.572   1.271   1.300  0.00  0.00     0.004 A 
ATOM      3  C4  UNL d   1       2.695   1.590   0.264  0.00  0.00    -0.003 A 
ATOM      4  C5  UNL d   1       1.662   0.718  -0.063  0.00  0.00     0.000 A 
ATOM      5  C6  UNL d   1       1.497  -0.464   0.656  0.00  0.00     0.000 A 
ATOM      6  C7  UNL d   1       2.362  -0.794   1.714  0.00  0.00    -0.073 A 
ATOM      7  C8  UNL d   1       2.140  -2.085   2.452  0.00  0.00     0.078 C 
ENDROOT
BRANCH   1   8
ATOM      8  C1  UNL d   1       4.428  -0.232   3.118  0.00  0.00     0.053 C 
ATOM      9  C   UNL d   1       5.819   0.297   2.804  0.00  0.00     0.018 C 
ENDBRANCH   1   8
TORSDOF 1
ENDMDL
