MODEL 1
REMARK minimizedAffinity 4.87875271
REMARK minimizedRMSD -1
REMARK  1 active torsions:
REMARK  status: ('A' for Active; 'I' for Inactive)
REMARK    1  A    between atoms: C1_2  and  C2_3 
ROOT
ATOM      1  C2  UNL d   1      -3.728  -2.266   5.234  0.00  0.00    -0.076 A 
ATOM      2  C3  UNL d   1      -4.069  -3.396   5.997  0.00  0.00     0.004 A 
ATOM      3  C4  UNL d   1      -4.629  -4.523   5.399  0.00  0.00    -0.003 A 
ATOM      4  C5  UNL d   1      -4.857  -4.539   4.027  0.00  0.00     0.000 A 
ATOM      5  C6  UNL d   1      -4.508  -3.433   3.252  0.00  0.00     0.000 A 
ATOM      6  C7  UNL d   1      -3.927  -2.295   3.838  0.00  0.00    -0.073 A 
ATOM      7  C8  UNL d   1      -3.576  -1.129   2.955  0.00  0.00     0.078 C 
ENDROOT
BRANCH   1   8
ATOM      8  C1  UNL d   1      -3.148  -1.062   5.943  0.00  0.00     0.053 C 
ATOM      9  C   UNL d   1      -4.120   0.106   5.995  0.00  0.00     0.018 C 
ENDBRANCH   1   8
TORSDOF 1
ENDMDL
