MODEL 1
REMARK minimizedAffinity 4.69070292
REMARK minimizedRMSD -1
REMARK  1 active torsions:
REMARK  status: ('A' for Active; 'I' for Inactive)
REMARK    1  A    between atoms: C1_2  and  C2_3 
ROOT
ATOM      1  C2  UNL d   1       3.768   0.633   1.272  0.00  0.00    -0.076 A 
ATOM      2  C3  UNL d   1       2.398   0.351   1.129  0.00  0.00     0.004 A 
ATOM      3  C4  UNL d   1       1.791  -0.653   1.881  0.00  0.00    -0.003 A 
ATOM      4  C5  UNL d   1       2.543  -1.391   2.789  0.00  0.00     0.000 A 
ATOM      5  C6  UNL d   1       3.899  -1.112   2.956  0.00  0.00     0.000 A 
ATOM      6  C7  UNL d   1       4.523  -0.093   2.218  0.00  0.00    -0.073 A 
ATOM      7  C8  UNL d   1       5.990   0.161   2.434  0.00  0.00     0.078 C 
ENDROOT
BRANCH   1   8
ATOM      8  C1  UNL d   1       4.378   1.715   0.409  0.00  0.00     0.053 C 
ATOM      9  C   UNL d   1       3.398   2.836   0.101  0.00  0.00     0.018 C 
ENDBRANCH   1   8
TORSDOF 1
ENDMDL
