MODEL 1
REMARK minimizedAffinity 4.47659922
REMARK minimizedRMSD -1
REMARK  1 active torsions:
REMARK  status: ('A' for Active; 'I' for Inactive)
REMARK    1  A    between atoms: C1_2  and  C2_3 
ROOT
ATOM      1  C2  UNL d   1      -5.572   1.429   3.442  0.00  0.00    -0.076 A 
ATOM      2  C3  UNL d   1      -5.999   2.406   2.525  0.00  0.00     0.004 A 
ATOM      3  C4  UNL d   1      -5.928   3.762   2.837  0.00  0.00    -0.003 A 
ATOM      4  C5  UNL d   1      -5.427   4.165   4.070  0.00  0.00     0.000 A 
ATOM      5  C6  UNL d   1      -4.983   3.211   4.985  0.00  0.00     0.000 A 
ATOM      6  C7  UNL d   1      -5.033   1.840   4.680  0.00  0.00    -0.073 A 
ATOM      7  C8  UNL d   1      -4.546   0.854   5.706  0.00  0.00     0.078 C 
ENDROOT
BRANCH   1   8
ATOM      8  C1  UNL d   1      -5.699  -0.028   3.059  0.00  0.00     0.053 C 
ATOM      9  C   UNL d   1      -4.662  -0.453   2.032  0.00  0.00     0.018 C 
ENDBRANCH   1   8
TORSDOF 1
ENDMDL
