MODEL 1
REMARK minimizedAffinity 3.60871863
REMARK minimizedRMSD -1
REMARK  1 active torsions:
REMARK  status: ('A' for Active; 'I' for Inactive)
REMARK    1  A    between atoms: C1_2  and  C2_3 
ROOT
ATOM      1  C2  UNL d   1      -3.986  -1.563   3.269  0.00  0.00    -0.076 A 
ATOM      2  C3  UNL d   1      -3.771  -0.518   4.185  0.00  0.00     0.004 A 
ATOM      3  C4  UNL d   1      -3.569  -0.781   5.539  0.00  0.00    -0.003 A 
ATOM      4  C5  UNL d   1      -3.579  -2.093   5.999  0.00  0.00     0.000 A 
ATOM      5  C6  UNL d   1      -3.774  -3.143   5.102  0.00  0.00     0.000 A 
ATOM      6  C7  UNL d   1      -3.962  -2.896   3.732  0.00  0.00    -0.073 A 
ATOM      7  C8  UNL d   1      -4.174  -4.066   2.810  0.00  0.00     0.078 C 
ENDROOT
BRANCH   1   8
ATOM      8  C1  UNL d   1      -4.226  -1.216   1.817  0.00  0.00     0.053 C 
ATOM      9  C   UNL d   1      -2.990  -1.423   0.957  0.00  0.00     0.018 C 
ENDBRANCH   1   8
TORSDOF 1
ENDMDL
