MODEL 1
REMARK minimizedAffinity -2.21000957
REMARK minimizedRMSD -1
REMARK  0 active torsions:
REMARK  status: ('A' for Active; 'I' for Inactive)
ROOT
ATOM      1  C2' OXE d   1       2.105  -1.560  -0.730  0.00  0.00     0.078 C 
ATOM      2  C1' OXE d   1      -0.490  -2.129  -1.638  0.00  0.00     0.078 C 
ATOM      3  C1  OXE d   1      -0.302  -0.917  -0.761  0.00  0.00    -0.078 A 
ATOM      4  C2  OXE d   1       0.963  -0.672  -0.283  0.00  0.00    -0.078 A 
ATOM      5  C3  OXE d   1       1.202   0.463   0.485  0.00  0.00     0.003 A 
ATOM      6  C4  OXE d   1       0.139   1.274   0.902  0.00  0.00    -0.002 A 
ATOM      7  C5  OXE d   1      -1.163   1.020   0.459  0.00  0.00    -0.002 A 
ATOM      8  C6  OXE d   1      -1.394  -0.044  -0.406  0.00  0.00     0.003 A 
ENDROOT
TORSDOF 0
ENDMDL
