MODEL 1
REMARK minimizedAffinity -4.27664948
REMARK minimizedRMSD -1
REMARK  0 active torsions:
REMARK  status: ('A' for Active; 'I' for Inactive)
ROOT
ATOM      1  C2' OXE d   1      -0.670  -1.874  -0.841  0.00  0.00     0.078 C 
ATOM      2  C1' OXE d   1      -1.099   0.834  -0.239  0.00  0.00     0.078 C 
ATOM      3  C1  OXE d   1       0.193   0.207   0.221  0.00  0.00    -0.078 A 
ATOM      4  C2  OXE d   1       0.375  -1.130  -0.037  0.00  0.00    -0.078 A 
ATOM      5  C3  OXE d   1       1.572  -1.744   0.317  0.00  0.00     0.003 A 
ATOM      6  C4  OXE d   1       2.529  -1.051   1.069  0.00  0.00    -0.002 A 
ATOM      7  C5  OXE d   1       2.346   0.301   1.377  0.00  0.00    -0.002 A 
ATOM      8  C6  OXE d   1       1.206   0.955   0.925  0.00  0.00     0.003 A 
ENDROOT
TORSDOF 0
ENDMDL
