MODEL 1
REMARK minimizedAffinity -4.68812227
REMARK minimizedRMSD -1
REMARK  0 active torsions:
REMARK  status: ('A' for Active; 'I' for Inactive)
ROOT
ATOM      1  C2' OXE d   1       0.734  -2.584  -0.289  0.00  0.00     0.078 C 
ATOM      2  C1' OXE d   1       2.897  -1.389   1.042  0.00  0.00     0.078 C 
ATOM      3  C1  OXE d   1       1.805  -0.487   0.523  0.00  0.00    -0.078 A 
ATOM      4  C2  OXE d   1       0.774  -1.076  -0.168  0.00  0.00    -0.078 A 
ATOM      5  C3  OXE d   1      -0.287  -0.296  -0.620  0.00  0.00     0.003 A 
ATOM      6  C4  OXE d   1      -0.237   1.099  -0.513  0.00  0.00    -0.002 A 
ATOM      7  C5  OXE d   1       0.824   1.722   0.152  0.00  0.00    -0.002 A 
ATOM      8  C6  OXE d   1       1.830   0.943   0.712  0.00  0.00     0.003 A 
ENDROOT
TORSDOF 0
ENDMDL
