MODEL 1
REMARK minimizedAffinity -1.62006354
REMARK minimizedRMSD -1
REMARK  0 active torsions:
REMARK  status: ('A' for Active; 'I' for Inactive)
ROOT
ATOM      1  C2' OXE d   1      -0.406  -2.773  -0.946  0.00  0.00     0.078 C 
ATOM      2  C1' OXE d   1       2.257  -2.188  -0.279  0.00  0.00     0.078 C 
ATOM      3  C1  OXE d   1       1.260  -1.057  -0.248  0.00  0.00    -0.078 A 
ATOM      4  C2  OXE d   1      -0.032  -1.343  -0.621  0.00  0.00    -0.078 A 
ATOM      5  C3  OXE d   1      -1.003  -0.349  -0.557  0.00  0.00     0.003 A 
ATOM      6  C4  OXE d   1      -0.647   0.973  -0.264  0.00  0.00    -0.002 A 
ATOM      7  C5  OXE d   1       0.671   1.294   0.080  0.00  0.00    -0.002 A 
ATOM      8  C6  OXE d   1       1.625   0.284   0.134  0.00  0.00     0.003 A 
ENDROOT
TORSDOF 0
ENDMDL
