MODEL 1
REMARK minimizedAffinity -1.37366581
REMARK minimizedRMSD -1
REMARK  0 active torsions:
REMARK  status: ('A' for Active; 'I' for Inactive)
ROOT
ATOM      1  C2' OXE d   1      -0.367  -0.743  -1.253  0.00  0.00     0.078 C 
ATOM      2  C1' OXE d   1      -0.498  -0.257   1.508  0.00  0.00     0.078 C 
ATOM      3  C1  OXE d   1       0.776  -0.850   0.958  0.00  0.00    -0.078 A 
ATOM      4  C2  OXE d   1       0.813  -1.127  -0.388  0.00  0.00    -0.078 A 
ATOM      5  C3  OXE d   1       1.983  -1.623  -0.957  0.00  0.00     0.003 A 
ATOM      6  C4  OXE d   1       3.067  -1.985  -0.147  0.00  0.00    -0.002 A 
ATOM      7  C5  OXE d   1       3.034  -1.748   1.231  0.00  0.00    -0.002 A 
ATOM      8  C6  OXE d   1       1.915  -1.143   1.792  0.00  0.00     0.003 A 
ENDROOT
TORSDOF 0
ENDMDL
