MODEL 1
REMARK minimizedAffinity -3.05157542
REMARK minimizedRMSD -1
REMARK  0 active torsions:
REMARK  status: ('A' for Active; 'I' for Inactive)
ROOT
ATOM      1  C2' OXE d   1      -0.189  -2.494  -0.618  0.00  0.00     0.078 C 
ATOM      2  C1' OXE d   1       2.375  -2.037   0.430  0.00  0.00     0.078 C 
ATOM      3  C1  OXE d   1       1.442  -0.857   0.313  0.00  0.00    -0.078 A 
ATOM      4  C2  OXE d   1       0.206  -1.081  -0.244  0.00  0.00    -0.078 A 
ATOM      5  C3  OXE d   1      -0.713  -0.039  -0.324  0.00  0.00     0.003 A 
ATOM      6  C4  OXE d   1      -0.336   1.266   0.014  0.00  0.00    -0.002 A 
ATOM      7  C5  OXE d   1       0.932   1.523   0.547  0.00  0.00    -0.002 A 
ATOM      8  C6  OXE d   1       1.816   0.468   0.742  0.00  0.00     0.003 A 
ENDROOT
TORSDOF 0
ENDMDL
