MODEL 1
REMARK minimizedAffinity -4.32143641
REMARK minimizedRMSD -1
REMARK  0 active torsions:
REMARK  status: ('A' for Active; 'I' for Inactive)
ROOT
ATOM      1  C2' OXE d   1       0.010  -1.399  -1.738  0.00  0.00     0.078 C 
ATOM      2  C1' OXE d   1      -0.300   1.143  -0.588  0.00  0.00     0.078 C 
ATOM      3  C1  OXE d   1       0.666   0.187   0.067  0.00  0.00    -0.078 A 
ATOM      4  C2  OXE d   1       0.776  -1.071  -0.475  0.00  0.00    -0.078 A 
ATOM      5  C3  OXE d   1       1.693  -1.973   0.058  0.00  0.00     0.003 A 
ATOM      6  C4  OXE d   1       2.390  -1.665   1.232  0.00  0.00    -0.002 A 
ATOM      7  C5  OXE d   1       2.262  -0.403   1.823  0.00  0.00    -0.002 A 
ATOM      8  C6  OXE d   1       1.438   0.547   1.230  0.00  0.00     0.003 A 
ENDROOT
TORSDOF 0
ENDMDL
