MODEL 1
REMARK minimizedAffinity -5.09271336
REMARK minimizedRMSD -1
REMARK  0 active torsions:
REMARK  status: ('A' for Active; 'I' for Inactive)
ROOT
ATOM      1  C2' OXE d   1      -0.738   1.099  -0.153  0.00  0.00     0.078 C 
ATOM      2  C1' OXE d   1       1.704   1.969   0.924  0.00  0.00     0.078 C 
ATOM      3  C1  OXE d   1       1.545   0.497   0.640  0.00  0.00    -0.078 A 
ATOM      4  C2  OXE d   1       0.331   0.073   0.157  0.00  0.00    -0.078 A 
ATOM      5  C3  OXE d   1       0.149  -1.267  -0.174  0.00  0.00     0.003 A 
ATOM      6  C4  OXE d   1       1.139  -2.211   0.126  0.00  0.00    -0.002 A 
ATOM      7  C5  OXE d   1       2.369  -1.806   0.656  0.00  0.00    -0.002 A 
ATOM      8  C6  OXE d   1       2.603  -0.454   0.878  0.00  0.00     0.003 A 
ENDROOT
TORSDOF 0
ENDMDL
