MODEL 1
REMARK minimizedAffinity -4.42088985
REMARK minimizedRMSD -1
REMARK  0 active torsions:
REMARK  status: ('A' for Active; 'I' for Inactive)
ROOT
ATOM      1  C2' OXE d   1       0.737  -1.976  -0.131  0.00  0.00     0.078 C 
ATOM      2  C1' OXE d   1      -0.521   0.532  -0.033  0.00  0.00     0.078 C 
ATOM      3  C1  OXE d   1       0.987   0.501  -0.025  0.00  0.00    -0.078 A 
ATOM      4  C2  OXE d   1       1.594  -0.733  -0.026  0.00  0.00    -0.078 A 
ATOM      5  C3  OXE d   1       2.982  -0.818  -0.075  0.00  0.00     0.003 A 
ATOM      6  C4  OXE d   1       3.768   0.336   0.033  0.00  0.00    -0.002 A 
ATOM      7  C5  OXE d   1       3.170   1.600   0.075  0.00  0.00    -0.002 A 
ATOM      8  C6  OXE d   1       1.785   1.702   0.005  0.00  0.00     0.003 A 
ENDROOT
TORSDOF 0
ENDMDL
