MODEL 1
REMARK minimizedAffinity -4.75870466
REMARK minimizedRMSD -1
REMARK  0 active torsions:
REMARK  status: ('A' for Active; 'I' for Inactive)
ROOT
ATOM      1  C2' OXE d   1       2.144   0.933   0.984  0.00  0.00     0.078 C 
ATOM      2  C1' OXE d   1       2.349  -1.574  -0.262  0.00  0.00     0.078 C 
ATOM      3  C1  OXE d   1       1.021  -0.862  -0.329  0.00  0.00    -0.078 A 
ATOM      4  C2  OXE d   1       0.917   0.343   0.323  0.00  0.00    -0.078 A 
ATOM      5  C3  OXE d   1      -0.269   1.068   0.247  0.00  0.00     0.003 A 
ATOM      6  C4  OXE d   1      -1.403   0.511  -0.358  0.00  0.00    -0.002 A 
ATOM      7  C5  OXE d   1      -1.329  -0.733  -0.994  0.00  0.00    -0.002 A 
ATOM      8  C6  OXE d   1      -0.116  -1.411  -1.026  0.00  0.00     0.003 A 
ENDROOT
TORSDOF 0
ENDMDL
