MODEL 1
REMARK minimizedAffinity 2.72721744
REMARK minimizedRMSD -1
REMARK  2 active torsions:
REMARK  status: ('A' for Active; 'I' for Inactive)
REMARK    1  A    between atoms: C2'_3  and  C1'_4 
REMARK    2  A    between atoms: C1'_4  and  C1_5 
ROOT
ATOM      1  C1  I4B d   1      -1.402   3.022   0.707  0.00  0.00    -0.075 A 
ATOM      2  C2  I4B d   1      -1.510   4.374   0.919  0.00  0.00     0.003 A 
ATOM      3  C3  I4B d   1      -0.796   5.283   0.100  0.00  0.00     0.002 A 
ATOM      4  C4  I4B d   1       0.046   4.798  -0.879  0.00  0.00    -0.004 A 
ATOM      5  C5  I4B d   1       0.136   3.428  -1.107  0.00  0.00     0.002 A 
ATOM      6  C6  I4B d   1      -0.602   2.535  -0.318  0.00  0.00     0.003 A 
ENDROOT
BRANCH   1   7
ATOM      7  C1' I4B d   1      -2.144   2.090   1.611  0.00  0.00     0.060 C 
BRANCH   7   8
ATOM      8  C2' I4B d   1      -1.123   1.294   2.400  0.00  0.00    -0.013 C 
ATOM      9  C4' I4B d   1      -0.504   2.129   3.489  0.00  0.00     0.013 C 
ATOM     10  C3' I4B d   1      -1.814   0.090   2.967  0.00  0.00     0.013 C 
ENDBRANCH   7   8
ENDBRANCH   1   7
TORSDOF 2
ENDMDL
