MODEL 1
REMARK minimizedAffinity 3.08915854
REMARK minimizedRMSD -1
REMARK  2 active torsions:
REMARK  status: ('A' for Active; 'I' for Inactive)
REMARK    1  A    between atoms: C2'_3  and  C1'_4 
REMARK    2  A    between atoms: C1'_4  and  C1_5 
ROOT
ATOM      1  C1  I4B d   1       0.712   0.498   0.950  0.00  0.00    -0.075 A 
ATOM      2  C2  I4B d   1       1.126   0.523   2.258  0.00  0.00     0.003 A 
ATOM      3  C3  I4B d   1       0.416   1.286   3.216  0.00  0.00     0.002 A 
ATOM      4  C4  I4B d   1      -0.664   2.045   2.815  0.00  0.00    -0.004 A 
ATOM      5  C5  I4B d   1      -1.096   2.001   1.493  0.00  0.00     0.002 A 
ATOM      6  C6  I4B d   1      -0.411   1.213   0.556  0.00  0.00     0.003 A 
ENDROOT
BRANCH   1   7
ATOM      7  C1' I4B d   1       1.505  -0.292  -0.042  0.00  0.00     0.060 C 
BRANCH   7   8
ATOM      8  C2' I4B d   1       0.710  -1.534  -0.392  0.00  0.00    -0.013 C 
ATOM      9  C4' I4B d   1       0.001  -1.374  -1.711  0.00  0.00     0.013 C 
ATOM     10  C3' I4B d   1       1.657  -2.696  -0.424  0.00  0.00     0.013 C 
ENDBRANCH   7   8
ENDBRANCH   1   7
TORSDOF 2
ENDMDL
