MODEL 1
REMARK minimizedAffinity 1.80900943
REMARK minimizedRMSD -1
REMARK  2 active torsions:
REMARK  status: ('A' for Active; 'I' for Inactive)
REMARK    1  A    between atoms: C2'_3  and  C1'_4 
REMARK    2  A    between atoms: C1'_4  and  C1_5 
ROOT
ATOM      1  C1  I4B d   1       0.518   2.157  -1.377  0.00  0.00    -0.075 A 
ATOM      2  C2  I4B d   1      -0.286   2.102  -0.266  0.00  0.00     0.003 A 
ATOM      3  C3  I4B d   1      -0.812   3.293   0.292  0.00  0.00     0.002 A 
ATOM      4  C4  I4B d   1      -0.470   4.511  -0.259  0.00  0.00    -0.004 A 
ATOM      5  C5  I4B d   1       0.326   4.562  -1.399  0.00  0.00     0.002 A 
ATOM      6  C6  I4B d   1       0.813   3.377  -1.970  0.00  0.00     0.003 A 
ENDROOT
BRANCH   1   7
ATOM      7  C1' I4B d   1       1.082   0.883  -1.921  0.00  0.00     0.060 C 
BRANCH   7   8
ATOM      8  C2' I4B d   1       0.235  -0.262  -1.405  0.00  0.00    -0.013 C 
ATOM      9  C4' I4B d   1      -0.747  -0.727  -2.448  0.00  0.00     0.013 C 
ATOM     10  C3' I4B d   1       1.156  -1.372  -0.994  0.00  0.00     0.013 C 
ENDBRANCH   7   8
ENDBRANCH   1   7
TORSDOF 2
ENDMDL
