MODEL 1
REMARK minimizedAffinity 6.82521296
REMARK minimizedRMSD -1
REMARK  2 active torsions:
REMARK  status: ('A' for Active; 'I' for Inactive)
REMARK    1  A    between atoms: C2'_3  and  C1'_4 
REMARK    2  A    between atoms: C1'_4  and  C1_5 
ROOT
ATOM      1  C1  I4B d   1      -1.238   2.934   0.824  0.00  0.00    -0.075 A 
ATOM      2  C2  I4B d   1      -2.361   2.159   0.972  0.00  0.00     0.003 A 
ATOM      3  C3  I4B d   1      -2.598   1.471   2.187  0.00  0.00     0.002 A 
ATOM      4  C4  I4B d   1      -1.666   1.544   3.202  0.00  0.00    -0.004 A 
ATOM      5  C5  I4B d   1      -0.539   2.348   3.059  0.00  0.00     0.002 A 
ATOM      6  C6  I4B d   1      -0.329   3.057   1.867  0.00  0.00     0.003 A 
ENDROOT
BRANCH   1   7
ATOM      7  C1' I4B d   1      -1.002   3.620  -0.484  0.00  0.00     0.060 C 
BRANCH   7   8
ATOM      8  C2' I4B d   1       0.429   3.353  -0.901  0.00  0.00    -0.013 C 
ATOM      9  C4' I4B d   1       0.614   1.920  -1.329  0.00  0.00     0.013 C 
ATOM     10  C3' I4B d   1       0.772   4.298  -2.013  0.00  0.00     0.013 C 
ENDBRANCH   7   8
ENDBRANCH   1   7
TORSDOF 2
ENDMDL
