MODEL 1
REMARK minimizedAffinity 10.3536854
REMARK minimizedRMSD -1
REMARK  2 active torsions:
REMARK  status: ('A' for Active; 'I' for Inactive)
REMARK    1  A    between atoms: C2'_3  and  C1'_4 
REMARK    2  A    between atoms: C1'_4  and  C1_5 
ROOT
ATOM      1  C1  I4B d   1      -1.040   2.952   1.147  0.00  0.00    -0.075 A 
ATOM      2  C2  I4B d   1      -2.396   2.745   1.092  0.00  0.00     0.003 A 
ATOM      3  C3  I4B d   1      -3.006   1.793   1.945  0.00  0.00     0.002 A 
ATOM      4  C4  I4B d   1      -2.221   1.041   2.796  0.00  0.00    -0.004 A 
ATOM      5  C5  I4B d   1      -0.850   1.269   2.866  0.00  0.00     0.002 A 
ATOM      6  C6  I4B d   1      -0.257   2.239   2.045  0.00  0.00     0.003 A 
ENDROOT
BRANCH   1   7
ATOM      7  C1' I4B d   1      -0.424   3.941   0.208  0.00  0.00     0.060 C 
BRANCH   7   8
ATOM      8  C2' I4B d   1      -0.442   3.339  -1.182  0.00  0.00    -0.013 C 
ATOM      9  C4' I4B d   1       0.211   4.257  -2.182  0.00  0.00     0.013 C 
ATOM     10  C3' I4B d   1       0.260   2.015  -1.123  0.00  0.00     0.013 C 
ENDBRANCH   7   8
ENDBRANCH   1   7
TORSDOF 2
ENDMDL
