MODEL 1
REMARK minimizedAffinity 5.14908648
REMARK minimizedRMSD -1
REMARK  2 active torsions:
REMARK  status: ('A' for Active; 'I' for Inactive)
REMARK    1  A    between atoms: C2'_3  and  C1'_4 
REMARK    2  A    between atoms: C1'_4  and  C1_5 
ROOT
ATOM      1  C1  I4B d   1      -1.742   2.087   1.681  0.00  0.00    -0.075 A 
ATOM      2  C2  I4B d   1      -0.990   2.222   0.540  0.00  0.00     0.003 A 
ATOM      3  C3  I4B d   1      -1.230   3.297  -0.349  0.00  0.00     0.002 A 
ATOM      4  C4  I4B d   1      -2.258   4.180  -0.086  0.00  0.00    -0.004 A 
ATOM      5  C5  I4B d   1      -3.004   4.055   1.083  0.00  0.00     0.002 A 
ATOM      6  C6  I4B d   1      -2.737   3.009   1.978  0.00  0.00     0.003 A 
ENDROOT
BRANCH   1   7
ATOM      7  C1' I4B d   1      -1.483   0.920   2.580  0.00  0.00     0.060 C 
BRANCH   7   8
ATOM      8  C2' I4B d   1      -2.801   0.211   2.816  0.00  0.00    -0.013 C 
ATOM      9  C4' I4B d   1      -3.646   0.202   1.569  0.00  0.00     0.013 C 
ATOM     10  C3' I4B d   1      -2.500  -1.184   3.277  0.00  0.00     0.013 C 
ENDBRANCH   7   8
ENDBRANCH   1   7
TORSDOF 2
ENDMDL
