MODEL 1
REMARK minimizedAffinity 6.12365246
REMARK minimizedRMSD -1
REMARK  2 active torsions:
REMARK  status: ('A' for Active; 'I' for Inactive)
REMARK    1  A    between atoms: C2'_3  and  C1'_4 
REMARK    2  A    between atoms: C1'_4  and  C1_5 
ROOT
ATOM      1  C1  I4B d   1       0.085   1.754  -0.851  0.00  0.00    -0.075 A 
ATOM      2  C2  I4B d   1      -0.521   1.842   0.378  0.00  0.00     0.003 A 
ATOM      3  C3  I4B d   1      -0.744   3.108   0.973  0.00  0.00     0.002 A 
ATOM      4  C4  I4B d   1      -0.304   4.248   0.332  0.00  0.00    -0.004 A 
ATOM      5  C5  I4B d   1       0.290   4.158  -0.924  0.00  0.00     0.002 A 
ATOM      6  C6  I4B d   1       0.475   2.904  -1.525  0.00  0.00     0.003 A 
ENDROOT
BRANCH   1   7
ATOM      7  C1' I4B d   1       0.336   0.400  -1.435  0.00  0.00     0.060 C 
BRANCH   7   8
ATOM      8  C2' I4B d   1      -0.478   0.283  -2.708  0.00  0.00    -0.013 C 
ATOM      9  C4' I4B d   1       0.188  -0.635  -3.698  0.00  0.00     0.013 C 
ATOM     10  C3' I4B d   1      -1.843  -0.216  -2.340  0.00  0.00     0.013 C 
ENDBRANCH   7   8
ENDBRANCH   1   7
TORSDOF 2
ENDMDL
