MODEL 1
REMARK minimizedAffinity 4.58972549
REMARK minimizedRMSD -1
REMARK  2 active torsions:
REMARK  status: ('A' for Active; 'I' for Inactive)
REMARK    1  A    between atoms: C2'_3  and  C1'_4 
REMARK    2  A    between atoms: C1'_4  and  C1_5 
ROOT
ATOM      1  C1  I4B d   1      -1.892   1.709   1.950  0.00  0.00    -0.075 A 
ATOM      2  C2  I4B d   1      -0.650   1.853   1.384  0.00  0.00     0.003 A 
ATOM      3  C3  I4B d   1      -0.476   2.674   0.244  0.00  0.00     0.002 A 
ATOM      4  C4  I4B d   1      -1.573   3.289  -0.324  0.00  0.00    -0.004 A 
ATOM      5  C5  I4B d   1      -2.828   3.161   0.264  0.00  0.00     0.002 A 
ATOM      6  C6  I4B d   1      -2.987   2.376   1.416  0.00  0.00     0.003 A 
ENDROOT
BRANCH   1   7
ATOM      7  C1' I4B d   1      -2.046   0.808   3.133  0.00  0.00     0.060 C 
BRANCH   7   8
ATOM      8  C2' I4B d   1      -1.343  -0.498   2.820  0.00  0.00    -0.013 C 
ATOM      9  C4' I4B d   1       0.149  -0.363   2.966  0.00  0.00     0.013 C 
ATOM     10  C3' I4B d   1      -1.885  -1.548   3.743  0.00  0.00     0.013 C 
ENDBRANCH   7   8
ENDBRANCH   1   7
TORSDOF 2
ENDMDL
