MODEL 1
REMARK minimizedAffinity 9.82161522
REMARK minimizedRMSD -1
REMARK  2 active torsions:
REMARK  status: ('A' for Active; 'I' for Inactive)
REMARK    1  A    between atoms: C2'_3  and  C1'_4 
REMARK    2  A    between atoms: C1'_4  and  C1_5 
ROOT
ATOM      1  C1  I4B d   1      -0.377   2.798  -0.117  0.00  0.00    -0.075 A 
ATOM      2  C2  I4B d   1      -0.140   4.138   0.061  0.00  0.00     0.003 A 
ATOM      3  C3  I4B d   1      -0.144   4.695   1.363  0.00  0.00     0.002 A 
ATOM      4  C4  I4B d   1      -0.438   3.891   2.445  0.00  0.00    -0.004 A 
ATOM      5  C5  I4B d   1      -0.655   2.529   2.265  0.00  0.00     0.002 A 
ATOM      6  C6  I4B d   1      -0.612   1.976   0.977  0.00  0.00     0.003 A 
ENDROOT
BRANCH   1   7
ATOM      7  C1' I4B d   1      -0.397   2.249  -1.509  0.00  0.00     0.060 C 
BRANCH   7   8
ATOM      8  C2' I4B d   1      -0.491   0.740  -1.414  0.00  0.00    -0.013 C 
ATOM      9  C4' I4B d   1      -1.704   0.222  -2.140  0.00  0.00     0.013 C 
ATOM     10  C3' I4B d   1       0.770   0.161  -1.984  0.00  0.00     0.013 C 
ENDBRANCH   7   8
ENDBRANCH   1   7
TORSDOF 2
ENDMDL
