MODEL 1
REMARK minimizedAffinity 10.1046677
REMARK minimizedRMSD -1
REMARK  2 active torsions:
REMARK  status: ('A' for Active; 'I' for Inactive)
REMARK    1  A    between atoms: C2'_3  and  C1'_4 
REMARK    2  A    between atoms: C1'_4  and  C1_5 
ROOT
ATOM      1  C1  I4B d   1      -0.616   1.197  -1.924  0.00  0.00    -0.075 A 
ATOM      2  C2  I4B d   1      -1.947   1.526  -2.004  0.00  0.00     0.003 A 
ATOM      3  C3  I4B d   1      -2.927   0.510  -2.114  0.00  0.00     0.002 A 
ATOM      4  C4  I4B d   1      -2.532  -0.809  -2.192  0.00  0.00    -0.004 A 
ATOM      5  C5  I4B d   1      -1.184  -1.143  -2.087  0.00  0.00     0.002 A 
ATOM      6  C6  I4B d   1      -0.221  -0.134  -1.940  0.00  0.00     0.003 A 
ENDROOT
BRANCH   1   7
ATOM      7  C1' I4B d   1       0.394   2.297  -1.841  0.00  0.00     0.060 C 
BRANCH   7   8
ATOM      8  C2' I4B d   1      -0.352   3.607  -1.696  0.00  0.00    -0.013 C 
ATOM      9  C4' I4B d   1      -0.152   4.200  -0.326  0.00  0.00     0.013 C 
ATOM     10  C3' I4B d   1       0.135   4.539  -2.766  0.00  0.00     0.013 C 
ENDBRANCH   7   8
ENDBRANCH   1   7
TORSDOF 2
ENDMDL
