MODEL 1
REMARK minimizedAffinity 3.56839252
REMARK minimizedRMSD -1
REMARK  2 active torsions:
REMARK  status: ('A' for Active; 'I' for Inactive)
REMARK    1  A    between atoms: C2'_3  and  C1'_4 
REMARK    2  A    between atoms: C1'_4  and  C1_5 
ROOT
ATOM      1  C1  I4B d   1      -0.373   1.599  -1.963  0.00  0.00    -0.075 A 
ATOM      2  C2  I4B d   1      -1.701   1.696  -2.293  0.00  0.00     0.003 A 
ATOM      3  C3  I4B d   1      -2.408   0.555  -2.744  0.00  0.00     0.002 A 
ATOM      4  C4  I4B d   1      -1.740  -0.642  -2.897  0.00  0.00    -0.004 A 
ATOM      5  C5  I4B d   1      -0.398  -0.744  -2.539  0.00  0.00     0.002 A 
ATOM      6  C6  I4B d   1       0.287   0.381  -2.058  0.00  0.00     0.003 A 
ENDROOT
BRANCH   1   7
ATOM      7  C1' I4B d   1       0.352   2.832  -1.521  0.00  0.00     0.060 C 
BRANCH   7   8
ATOM      8  C2' I4B d   1      -0.375   3.394  -0.316  0.00  0.00    -0.013 C 
ATOM      9  C4' I4B d   1      -0.450   2.382   0.796  0.00  0.00     0.013 C 
ATOM     10  C3' I4B d   1       0.348   4.631   0.125  0.00  0.00     0.013 C 
ENDBRANCH   7   8
ENDBRANCH   1   7
TORSDOF 2
ENDMDL
