MODEL 1
REMARK minimizedAffinity 4.87894154
REMARK minimizedRMSD -1
REMARK  2 active torsions:
REMARK  status: ('A' for Active; 'I' for Inactive)
REMARK    1  A    between atoms: C2'_3  and  C1'_4 
REMARK    2  A    between atoms: C1'_4  and  C1_5 
ROOT
ATOM      1  C1  I4B d   1      -0.713   2.230  -0.798  0.00  0.00    -0.075 A 
ATOM      2  C2  I4B d   1      -1.520   2.428   0.294  0.00  0.00     0.003 A 
ATOM      3  C3  I4B d   1      -1.935   3.735   0.646  0.00  0.00     0.002 A 
ATOM      4  C4  I4B d   1      -1.481   4.813  -0.087  0.00  0.00    -0.004 A 
ATOM      5  C5  I4B d   1      -0.682   4.608  -1.208  0.00  0.00     0.002 A 
ATOM      6  C6  I4B d   1      -0.305   3.308  -1.574  0.00  0.00     0.003 A 
ENDROOT
BRANCH   1   7
ATOM      7  C1' I4B d   1      -0.267   0.839  -1.122  0.00  0.00     0.060 C 
BRANCH   7   8
ATOM      8  C2' I4B d   1      -1.064   0.360  -2.317  0.00  0.00    -0.013 C 
ATOM      9  C4' I4B d   1      -0.621  -1.012  -2.754  0.00  0.00     0.013 C 
ATOM     10  C3' I4B d   1      -2.515   0.365  -1.938  0.00  0.00     0.013 C 
ENDBRANCH   7   8
ENDBRANCH   1   7
TORSDOF 2
ENDMDL
