MODEL 1
REMARK minimizedAffinity 10.4416027
REMARK minimizedRMSD -1
REMARK  0 active torsions:
REMARK  status: ('A' for Active; 'I' for Inactive)
ROOT
ATOM      1  C   UNL d   1       3.311  -1.785   1.368  0.00  0.00    -0.002 A 
ATOM      2  C1  UNL d   1       4.473  -1.214   1.867  0.00  0.00     0.010 A 
ATOM      3  C2  UNL d   1       4.640   0.172   1.868  0.00  0.00     0.041 A 
ATOM      4  C3  UNL d   1       3.608   0.983   1.356  0.00  0.00    -0.075 A 
ATOM      5  S   UNL d   1       3.592   2.704   1.257  0.00  0.00     0.015 SA
ATOM      6  C4  UNL d   1       2.041   2.723   0.550  0.00  0.00     0.022 A 
ATOM      7  C5  UNL d   1       1.534   1.456   0.386  0.00  0.00     0.026 A 
ATOM      8  C6  UNL d   1       2.428   0.432   0.849  0.00  0.00    -0.082 A 
ATOM      9  C7  UNL d   1       2.290  -0.977   0.860  0.00  0.00     0.045 A 
ENDROOT
TORSDOF 0
ENDMDL
