MODEL 1
REMARK minimizedAffinity 6.86218071
REMARK minimizedRMSD -1
REMARK  0 active torsions:
REMARK  status: ('A' for Active; 'I' for Inactive)
ROOT
ATOM      1  C   UNL d   1       2.624  -2.240  -0.548  0.00  0.00    -0.002 A 
ATOM      2  C1  UNL d   1       1.450  -1.725  -0.018  0.00  0.00     0.010 A 
ATOM      3  C2  UNL d   1       1.369  -0.382   0.358  0.00  0.00     0.041 A 
ATOM      4  C3  UNL d   1       2.499   0.442   0.189  0.00  0.00    -0.075 A 
ATOM      5  S   UNL d   1       2.632   2.116   0.578  0.00  0.00     0.015 SA
ATOM      6  C4  UNL d   1       4.251   2.187   0.049  0.00  0.00     0.022 A 
ATOM      7  C5  UNL d   1       4.695   0.972  -0.416  0.00  0.00     0.026 A 
ATOM      8  C6  UNL d   1       3.693  -0.054  -0.343  0.00  0.00    -0.082 A 
ATOM      9  C7  UNL d   1       3.743  -1.419  -0.714  0.00  0.00     0.045 A 
ENDROOT
TORSDOF 0
ENDMDL
