MODEL 1
REMARK minimizedAffinity 10.0382309
REMARK minimizedRMSD -1
REMARK  0 active torsions:
REMARK  status: ('A' for Active; 'I' for Inactive)
ROOT
ATOM      1  C   UNL d   1      -0.540   2.375   1.465  0.00  0.00    -0.002 A 
ATOM      2  C1  UNL d   1      -0.449   1.569   2.590  0.00  0.00     0.010 A 
ATOM      3  C2  UNL d   1       0.652   0.731   2.777  0.00  0.00     0.041 A 
ATOM      4  C3  UNL d   1       1.672   0.719   1.804  0.00  0.00    -0.075 A 
ATOM      5  S   UNL d   1       3.114  -0.225   1.822  0.00  0.00     0.015 SA
ATOM      6  C4  UNL d   1       3.644   0.421   0.336  0.00  0.00     0.022 A 
ATOM      7  C5  UNL d   1       2.754   1.335  -0.175  0.00  0.00     0.026 A 
ATOM      8  C6  UNL d   1       1.603   1.523   0.663  0.00  0.00    -0.082 A 
ATOM      9  C7  UNL d   1       0.473   2.361   0.502  0.00  0.00     0.045 A 
ENDROOT
TORSDOF 0
ENDMDL
