MODEL 1
REMARK minimizedAffinity 1.38807285
REMARK minimizedRMSD -1
REMARK  0 active torsions:
REMARK  status: ('A' for Active; 'I' for Inactive)
ROOT
ATOM      1  C   UNL d   1      -0.284   1.068   2.096  0.00  0.00    -0.002 A 
ATOM      2  C1  UNL d   1      -0.470   2.065   1.148  0.00  0.00     0.010 A 
ATOM      3  C2  UNL d   1       0.532   2.360   0.223  0.00  0.00     0.041 A 
ATOM      4  C3  UNL d   1       1.736   1.629   0.265  0.00  0.00    -0.075 A 
ATOM      5  S   UNL d   1       3.103   1.816  -0.770  0.00  0.00     0.015 SA
ATOM      6  C4  UNL d   1       3.965   0.578   0.022  0.00  0.00     0.022 A 
ATOM      7  C5  UNL d   1       3.243   0.024   1.053  0.00  0.00     0.026 A 
ATOM      8  C6  UNL d   1       1.946   0.621   1.209  0.00  0.00    -0.082 A 
ATOM      9  C7  UNL d   1       0.911   0.345   2.135  0.00  0.00     0.045 A 
ENDROOT
TORSDOF 0
ENDMDL
