MODEL 1
REMARK minimizedAffinity 2.59179854
REMARK minimizedRMSD -1
REMARK  0 active torsions:
REMARK  status: ('A' for Active; 'I' for Inactive)
ROOT
ATOM      1  C   UNL d   1       3.251   2.074   0.172  0.00  0.00    -0.002 A 
ATOM      2  C1  UNL d   1       4.035   1.943  -0.966  0.00  0.00     0.010 A 
ATOM      3  C2  UNL d   1       4.149   0.710  -1.612  0.00  0.00     0.041 A 
ATOM      4  C3  UNL d   1       3.454  -0.399  -1.091  0.00  0.00    -0.075 A 
ATOM      5  S   UNL d   1       3.443  -2.006  -1.715  0.00  0.00     0.015 SA
ATOM      6  C4  UNL d   1       2.398  -2.556  -0.487  0.00  0.00     0.022 A 
ATOM      7  C5  UNL d   1       2.055  -1.552   0.387  0.00  0.00     0.026 A 
ATOM      8  C6  UNL d   1       2.657  -0.292   0.053  0.00  0.00    -0.082 A 
ATOM      9  C7  UNL d   1       2.563   0.971   0.685  0.00  0.00     0.045 A 
ENDROOT
TORSDOF 0
ENDMDL
