MODEL 1
REMARK minimizedAffinity 1.02377439
REMARK minimizedRMSD -1
REMARK  0 active torsions:
REMARK  status: ('A' for Active; 'I' for Inactive)
ROOT
ATOM      1  C   UNL d   1       3.246  -1.727  -0.020  0.00  0.00    -0.002 A 
ATOM      2  C1  UNL d   1       2.302  -2.148  -0.946  0.00  0.00     0.010 A 
ATOM      3  C2  UNL d   1       1.268  -1.297  -1.343  0.00  0.00     0.041 A 
ATOM      4  C3  UNL d   1       1.199  -0.004  -0.790  0.00  0.00    -0.075 A 
ATOM      5  S   UNL d   1       0.023   1.210  -1.127  0.00  0.00     0.015 SA
ATOM      6  C4  UNL d   1       0.746   2.316  -0.051  0.00  0.00     0.022 A 
ATOM      7  C5  UNL d   1       1.859   1.789   0.559  0.00  0.00     0.026 A 
ATOM      8  C6  UNL d   1       2.139   0.443   0.144  0.00  0.00    -0.082 A 
ATOM      9  C7  UNL d   1       3.175  -0.443   0.526  0.00  0.00     0.045 A 
ENDROOT
TORSDOF 0
ENDMDL
