MODEL 1
REMARK minimizedAffinity 7.36454344
REMARK minimizedRMSD -1
REMARK  0 active torsions:
REMARK  status: ('A' for Active; 'I' for Inactive)
ROOT
ATOM      1  C   UNL d   1       2.410  -3.107  -0.813  0.00  0.00    -0.002 A 
ATOM      2  C1  UNL d   1       3.243  -1.999  -0.871  0.00  0.00     0.010 A 
ATOM      3  C2  UNL d   1       2.709  -0.709  -0.869  0.00  0.00     0.041 A 
ATOM      4  C3  UNL d   1       1.311  -0.549  -0.805  0.00  0.00    -0.075 A 
ATOM      5  S   UNL d   1       0.433   0.934  -0.789  0.00  0.00     0.015 SA
ATOM      6  C4  UNL d   1      -1.068   0.132  -0.704  0.00  0.00     0.022 A 
ATOM      7  C5  UNL d   1      -0.922  -1.235  -0.687  0.00  0.00     0.026 A 
ATOM      8  C6  UNL d   1       0.452  -1.650  -0.745  0.00  0.00    -0.082 A 
ATOM      9  C7  UNL d   1       1.024  -2.945  -0.750  0.00  0.00     0.045 A 
ENDROOT
TORSDOF 0
ENDMDL
