MODEL 1
REMARK minimizedAffinity -3.90504885
REMARK minimizedRMSD -1
REMARK  1 active torsions:
REMARK  status: ('A' for Active; 'I' for Inactive)
REMARK    1  A    between atoms: N_2  and  C1_3 
ROOT
ATOM      1  C1  UNL d   1       0.738  -0.075  -1.791  0.00  0.00     0.143 A 
ATOM      2  C2  UNL d   1       0.258   1.158  -1.335  0.00  0.00    -0.057 A 
ATOM      3  C3  UNL d   1      -0.777   1.231  -0.394  0.00  0.00     0.033 A 
ATOM      4  C4  UNL d   1      -1.371   0.070   0.087  0.00  0.00    -0.042 A 
ATOM      5  C5  UNL d   1      -0.927  -1.166  -0.371  0.00  0.00     0.033 A 
ATOM      6  C6  UNL d   1       0.111  -1.233  -1.305  0.00  0.00    -0.057 A 
ENDROOT
BRANCH   1   7
ATOM      7  N   UNL d   1       1.696  -0.212  -2.798  0.00  0.00    -0.732 N 
ATOM      8  C   UNL d   1       1.566   0.514  -4.043  0.00  0.00     0.284 C 
ATOM      9  H3  UNL d   1       2.644  -0.240  -2.430  0.00  0.00     0.395 HD
ENDBRANCH   1   7
TORSDOF 1
ENDMDL
