MODEL 1
REMARK minimizedAffinity -3.057019
REMARK minimizedRMSD -1
REMARK  1 active torsions:
REMARK  status: ('A' for Active; 'I' for Inactive)
REMARK    1  A    between atoms: N_2  and  C1_3 
ROOT
ATOM      1  C1  UNL d   1       0.015   0.408   0.364  0.00  0.00     0.143 A 
ATOM      2  C2  UNL d   1      -1.281   0.042   0.742  0.00  0.00    -0.057 A 
ATOM      3  C3  UNL d   1      -1.754   0.281   2.038  0.00  0.00     0.033 A 
ATOM      4  C4  UNL d   1      -0.925   0.865   2.990  0.00  0.00    -0.042 A 
ATOM      5  C5  UNL d   1       0.376   1.214   2.644  0.00  0.00     0.033 A 
ATOM      6  C6  UNL d   1       0.839   0.979   1.346  0.00  0.00    -0.057 A 
ENDROOT
BRANCH   1   7
ATOM      7  N   UNL d   1       0.576   0.107  -0.880  0.00  0.00    -0.732 N 
ATOM      8  C   UNL d   1      -0.085  -0.809  -1.785  0.00  0.00     0.284 C 
ATOM      9  H3  UNL d   1       0.973   0.926  -1.335  0.00  0.00     0.395 HD
ENDBRANCH   1   7
TORSDOF 1
ENDMDL
