MODEL 1
REMARK minimizedAffinity -3.23488402
REMARK minimizedRMSD -1
REMARK  1 active torsions:
REMARK  status: ('A' for Active; 'I' for Inactive)
REMARK    1  A    between atoms: N_2  and  C1_3 
ROOT
ATOM      1  C1  UNL d   1      -0.959   0.719   1.213  0.00  0.00     0.143 A 
ATOM      2  C2  UNL d   1      -1.389   0.966  -0.096  0.00  0.00    -0.057 A 
ATOM      3  C3  UNL d   1      -0.603   0.607  -1.198  0.00  0.00     0.033 A 
ATOM      4  C4  UNL d   1       0.643   0.019  -1.009  0.00  0.00    -0.042 A 
ATOM      5  C5  UNL d   1       1.101  -0.214   0.283  0.00  0.00     0.033 A 
ATOM      6  C6  UNL d   1       0.309   0.141   1.379  0.00  0.00    -0.057 A 
ENDROOT
BRANCH   1   7
ATOM      7  N   UNL d   1      -1.650   1.141   2.351  0.00  0.00    -0.732 N 
ATOM      8  C   UNL d   1      -0.933   1.538   3.544  0.00  0.00     0.284 C 
ATOM      9  H3  UNL d   1      -2.443   1.738   2.125  0.00  0.00     0.395 HD
ENDBRANCH   1   7
TORSDOF 1
ENDMDL
