MODEL 1
REMARK minimizedAffinity -3.65540242
REMARK minimizedRMSD -1
REMARK  1 active torsions:
REMARK  status: ('A' for Active; 'I' for Inactive)
REMARK    1  A    between atoms: N_2  and  C1_3 
ROOT
ATOM      1  C1  UNL d   1      -0.559   0.509   0.051  0.00  0.00     0.143 A 
ATOM      2  C2  UNL d   1      -1.801   0.019   0.468  0.00  0.00    -0.057 A 
ATOM      3  C3  UNL d   1      -2.251   0.202   1.781  0.00  0.00     0.033 A 
ATOM      4  C4  UNL d   1      -1.451   0.857   2.712  0.00  0.00    -0.042 A 
ATOM      5  C5  UNL d   1      -0.202   1.331   2.327  0.00  0.00     0.033 A 
ATOM      6  C6  UNL d   1       0.239   1.151   1.012  0.00  0.00    -0.057 A 
ENDROOT
BRANCH   1   7
ATOM      7  N   UNL d   1      -0.014   0.273  -1.213  0.00  0.00    -0.732 N 
ATOM      8  C   UNL d   1       0.714  -0.948  -1.485  0.00  0.00     0.284 C 
ATOM      9  H3  UNL d   1      -0.635   0.563  -1.964  0.00  0.00     0.395 HD
ENDBRANCH   1   7
TORSDOF 1
ENDMDL
