MODEL 1
REMARK minimizedAffinity -1.25659037
REMARK minimizedRMSD -1
REMARK  1 active torsions:
REMARK  status: ('A' for Active; 'I' for Inactive)
REMARK    1  A    between atoms: N_2  and  C1_3 
ROOT
ATOM      1  C1  UNL d   1       0.078  -0.008   2.318  0.00  0.00     0.143 A 
ATOM      2  C2  UNL d   1      -1.171   0.619   2.382  0.00  0.00    -0.057 A 
ATOM      3  C3  UNL d   1      -1.900   0.905   1.221  0.00  0.00     0.033 A 
ATOM      4  C4  UNL d   1      -1.377   0.595  -0.030  0.00  0.00    -0.042 A 
ATOM      5  C5  UNL d   1      -0.126  -0.006  -0.118  0.00  0.00     0.033 A 
ATOM      6  C6  UNL d   1       0.594  -0.295   1.045  0.00  0.00    -0.057 A 
ENDROOT
BRANCH   1   7
ATOM      7  N   UNL d   1       0.894  -0.229   3.430  0.00  0.00    -0.732 N 
ATOM      8  C   UNL d   1       2.264  -0.667   3.263  0.00  0.00     0.284 C 
ATOM      9  H3  UNL d   1       0.769   0.477   4.151  0.00  0.00     0.395 HD
ENDBRANCH   1   7
TORSDOF 1
ENDMDL
