MODEL 1
REMARK minimizedAffinity -0.779848516
REMARK minimizedRMSD -1
REMARK  1 active torsions:
REMARK  status: ('A' for Active; 'I' for Inactive)
REMARK    1  A    between atoms: N_2  and  C1_3 
ROOT
ATOM      1  C1  UNL d   1      -1.034   0.636   1.515  0.00  0.00     0.143 A 
ATOM      2  C2  UNL d   1       0.313   0.260   1.530  0.00  0.00    -0.057 A 
ATOM      3  C3  UNL d   1       0.960  -0.172   0.366  0.00  0.00     0.033 A 
ATOM      4  C4  UNL d   1       0.261  -0.264  -0.832  0.00  0.00    -0.042 A 
ATOM      5  C5  UNL d   1      -1.086   0.081  -0.866  0.00  0.00     0.033 A 
ATOM      6  C6  UNL d   1      -1.724   0.518   0.298  0.00  0.00    -0.057 A 
ENDROOT
BRANCH   1   7
ATOM      7  N   UNL d   1      -1.759   0.980   2.658  0.00  0.00    -0.732 N 
ATOM      8  C   UNL d   1      -1.141   1.743   3.721  0.00  0.00     0.284 C 
ATOM      9  H3  UNL d   1      -2.712   1.263   2.443  0.00  0.00     0.395 HD
ENDBRANCH   1   7
TORSDOF 1
ENDMDL
