MODEL 1
REMARK minimizedAffinity -4.01202536
REMARK minimizedRMSD -1
REMARK  1 active torsions:
REMARK  status: ('A' for Active; 'I' for Inactive)
REMARK    1  A    between atoms: N_2  and  C1_3 
ROOT
ATOM      1  C1  UNL d   1      -0.317   0.314   1.108  0.00  0.00     0.143 A 
ATOM      2  C2  UNL d   1      -0.997   0.718   2.262  0.00  0.00    -0.057 A 
ATOM      3  C3  UNL d   1      -0.371   0.712   3.514  0.00  0.00     0.033 A 
ATOM      4  C4  UNL d   1       0.943   0.274   3.639  0.00  0.00    -0.042 A 
ATOM      5  C5  UNL d   1       1.631  -0.156   2.510  0.00  0.00     0.033 A 
ATOM      6  C6  UNL d   1       1.002  -0.142   1.261  0.00  0.00    -0.057 A 
ENDROOT
BRANCH   1   7
ATOM      7  N   UNL d   1      -0.915   0.203  -0.149  0.00  0.00    -0.732 N 
ATOM      8  C   UNL d   1      -2.288  -0.237  -0.276  0.00  0.00     0.284 C 
ATOM      9  H3  UNL d   1      -0.666   0.973  -0.767  0.00  0.00     0.395 HD
ENDBRANCH   1   7
TORSDOF 1
ENDMDL
