MODEL 1
REMARK minimizedAffinity -1.61326206
REMARK minimizedRMSD -1
REMARK  3 active torsions:
REMARK  status: ('A' for Active; 'I' for Inactive)
REMARK    1  A    between atoms: C3'_2  and  C2'_3 
REMARK    2  A    between atoms: C2'_3  and  C1'_4 
REMARK    3  A    between atoms: C1'_4  and  C1_5 
ROOT
ATOM      1  C1  N4B d   1      -0.570   0.110  -0.992  0.00  0.00    -0.075 A 
ATOM      2  C2  N4B d   1       0.583   0.728  -1.524  0.00  0.00     0.002 A 
ATOM      3  C3  N4B d   1       1.402   1.469  -0.709  0.00  0.00     0.002 A 
ATOM      4  C4  N4B d   1       1.081   1.622   0.631  0.00  0.00    -0.004 A 
ATOM      5  C5  N4B d   1      -0.021   1.001   1.143  0.00  0.00     0.002 A 
ATOM      6  C6  N4B d   1      -0.852   0.249   0.337  0.00  0.00     0.002 A 
ENDROOT
BRANCH   1   7
ATOM      7  C1' N4B d   1      -1.543  -0.639  -1.861  0.00  0.00     0.057 C 
BRANCH   7   8
ATOM      8  C2' N4B d   1      -2.774   0.230  -2.099  0.00  0.00     0.009 C 
BRANCH   8   9
ATOM      9  C3' N4B d   1      -2.734   0.913  -3.455  0.00  0.00     0.004 C 
ATOM     10  C4' N4B d   1      -2.351  -0.020  -4.565  0.00  0.00     0.003 C 
ENDBRANCH   8   9
ENDBRANCH   7   8
ENDBRANCH   1   7
TORSDOF 3
ENDMDL
