MODEL 1
REMARK minimizedAffinity -3.39019275
REMARK minimizedRMSD -1
REMARK  3 active torsions:
REMARK  status: ('A' for Active; 'I' for Inactive)
REMARK    1  A    between atoms: C3'_2  and  C2'_3 
REMARK    2  A    between atoms: C2'_3  and  C1'_4 
REMARK    3  A    between atoms: C1'_4  and  C1_5 
ROOT
ATOM      1  C1  N4B d   1      -1.514   0.007  -0.850  0.00  0.00    -0.075 A 
ATOM      2  C2  N4B d   1      -1.763   0.205  -2.226  0.00  0.00     0.002 A 
ATOM      3  C3  N4B d   1      -2.495  -0.718  -2.931  0.00  0.00     0.002 A 
ATOM      4  C4  N4B d   1      -2.970  -1.852  -2.288  0.00  0.00    -0.004 A 
ATOM      5  C5  N4B d   1      -2.747  -2.023  -0.954  0.00  0.00     0.002 A 
ATOM      6  C6  N4B d   1      -2.016  -1.101  -0.232  0.00  0.00     0.002 A 
ENDROOT
BRANCH   1   7
ATOM      7  C1' N4B d   1      -0.646   0.946  -0.057  0.00  0.00     0.057 C 
BRANCH   7   8
ATOM      8  C2' N4B d   1       0.674   0.252   0.270  0.00  0.00     0.009 C 
BRANCH   8   9
ATOM      9  C3' N4B d   1       1.839   1.227   0.286  0.00  0.00     0.004 C 
ATOM     10  C4' N4B d   1       2.822   0.938   1.381  0.00  0.00     0.003 C 
ENDBRANCH   8   9
ENDBRANCH   7   8
ENDBRANCH   1   7
TORSDOF 3
ENDMDL
