MODEL 1
REMARK minimizedAffinity 6.11196566
REMARK minimizedRMSD -1
REMARK  3 active torsions:
REMARK  status: ('A' for Active; 'I' for Inactive)
REMARK    1  A    between atoms: C3'_2  and  C2'_3 
REMARK    2  A    between atoms: C2'_3  and  C1'_4 
REMARK    3  A    between atoms: C1'_4  and  C1_5 
ROOT
ATOM      1  C1  N4B d   1      -3.241   2.024   0.771  0.00  0.00    -0.075 A 
ATOM      2  C2  N4B d   1      -3.607   2.381  -0.546  0.00  0.00     0.002 A 
ATOM      3  C3  N4B d   1      -4.839   2.934  -0.791  0.00  0.00     0.002 A 
ATOM      4  C4  N4B d   1      -5.727   3.122   0.258  0.00  0.00    -0.004 A 
ATOM      5  C5  N4B d   1      -5.357   2.799   1.531  0.00  0.00     0.002 A 
ATOM      6  C6  N4B d   1      -4.120   2.245   1.792  0.00  0.00     0.002 A 
ENDROOT
BRANCH   1   7
ATOM      7  C1' N4B d   1      -1.938   1.337   1.075  0.00  0.00     0.057 C 
BRANCH   7   8
ATOM      8  C2' N4B d   1      -2.049  -0.137   0.698  0.00  0.00     0.009 C 
BRANCH   8   9
ATOM      9  C3' N4B d   1      -0.802  -0.916   1.078  0.00  0.00     0.004 C 
ATOM     10  C4' N4B d   1       0.436  -0.070   1.073  0.00  0.00     0.003 C 
ENDBRANCH   8   9
ENDBRANCH   7   8
ENDBRANCH   1   7
TORSDOF 3
ENDMDL
