MODEL 1
REMARK minimizedAffinity -2.93276
REMARK minimizedRMSD -1
REMARK  3 active torsions:
REMARK  status: ('A' for Active; 'I' for Inactive)
REMARK    1  A    between atoms: C3'_2  and  C2'_3 
REMARK    2  A    between atoms: C2'_3  and  C1'_4 
REMARK    3  A    between atoms: C1'_4  and  C1_5 
ROOT
ATOM      1  C1  N4B d   1      -0.007   0.462  -0.175  0.00  0.00    -0.075 A 
ATOM      2  C2  N4B d   1       0.752   0.036   0.937  0.00  0.00     0.002 A 
ATOM      3  C3  N4B d   1       1.928   0.672   1.251  0.00  0.00     0.002 A 
ATOM      4  C4  N4B d   1       2.373   1.720   0.459  0.00  0.00    -0.004 A 
ATOM      5  C5  N4B d   1       1.622   2.142  -0.598  0.00  0.00     0.002 A 
ATOM      6  C6  N4B d   1       0.436   1.515  -0.923  0.00  0.00     0.002 A 
ENDROOT
BRANCH   1   7
ATOM      7  C1' N4B d   1      -1.255  -0.257  -0.609  0.00  0.00     0.057 C 
BRANCH   7   8
ATOM      8  C2' N4B d   1      -1.830   0.435  -1.841  0.00  0.00     0.009 C 
BRANCH   8   9
ATOM      9  C3' N4B d   1      -2.197  -0.557  -2.931  0.00  0.00     0.004 C 
ATOM     10  C4' N4B d   1      -2.083   0.024  -4.308  0.00  0.00     0.003 C 
ENDBRANCH   8   9
ENDBRANCH   7   8
ENDBRANCH   1   7
TORSDOF 3
ENDMDL
