MODEL 1
REMARK minimizedAffinity -4.45238924
REMARK minimizedRMSD -1
REMARK  3 active torsions:
REMARK  status: ('A' for Active; 'I' for Inactive)
REMARK    1  A    between atoms: C3'_2  and  C2'_3 
REMARK    2  A    between atoms: C2'_3  and  C1'_4 
REMARK    3  A    between atoms: C1'_4  and  C1_5 
ROOT
ATOM      1  C1  N4B d   1      -0.242  -0.195   0.642  0.00  0.00    -0.075 A 
ATOM      2  C2  N4B d   1       0.614   0.921   0.519  0.00  0.00     0.002 A 
ATOM      3  C3  N4B d   1       1.835   0.924   1.149  0.00  0.00     0.002 A 
ATOM      4  C4  N4B d   1       2.210  -0.166   1.920  0.00  0.00    -0.004 A 
ATOM      5  C5  N4B d   1       1.389  -1.251   2.013  0.00  0.00     0.002 A 
ATOM      6  C6  N4B d   1       0.161  -1.269   1.382  0.00  0.00     0.002 A 
ENDROOT
BRANCH   1   7
ATOM      7  C1' N4B d   1      -1.621  -0.208   0.042  0.00  0.00     0.057 C 
BRANCH   7   8
ATOM      8  C2' N4B d   1      -1.507  -0.364  -1.472  0.00  0.00     0.009 C 
BRANCH   8   9
ATOM      9  C3' N4B d   1      -2.688   0.257  -2.198  0.00  0.00     0.004 C 
ATOM     10  C4' N4B d   1      -2.609   0.088  -3.686  0.00  0.00     0.003 C 
ENDBRANCH   8   9
ENDBRANCH   7   8
ENDBRANCH   1   7
TORSDOF 3
ENDMDL
