MODEL 1
REMARK minimizedAffinity -4.17322445
REMARK minimizedRMSD -1
REMARK  3 active torsions:
REMARK  status: ('A' for Active; 'I' for Inactive)
REMARK    1  A    between atoms: C3'_2  and  C2'_3 
REMARK    2  A    between atoms: C2'_3  and  C1'_4 
REMARK    3  A    between atoms: C1'_4  and  C1_5 
ROOT
ATOM      1  C1  N4B d   1      -0.007  -0.177   0.424  0.00  0.00    -0.075 A 
ATOM      2  C2  N4B d   1       1.127   0.666   0.404  0.00  0.00     0.002 A 
ATOM      3  C3  N4B d   1       2.244   0.330   1.128  0.00  0.00     0.002 A 
ATOM      4  C4  N4B d   1       2.245  -0.828   1.891  0.00  0.00    -0.004 A 
ATOM      5  C5  N4B d   1       1.156  -1.649   1.885  0.00  0.00     0.002 A 
ATOM      6  C6  N4B d   1       0.027  -1.327   1.159  0.00  0.00     0.002 A 
ENDROOT
BRANCH   1   7
ATOM      7  C1' N4B d   1      -1.282   0.191  -0.283  0.00  0.00     0.057 C 
BRANCH   7   8
ATOM      8  C2' N4B d   1      -1.413  -0.648  -1.550  0.00  0.00     0.009 C 
BRANCH   8   9
ATOM      9  C3' N4B d   1      -2.751  -0.436  -2.237  0.00  0.00     0.004 C 
ATOM     10  C4' N4B d   1      -2.612   0.134  -3.617  0.00  0.00     0.003 C 
ENDBRANCH   8   9
ENDBRANCH   7   8
ENDBRANCH   1   7
TORSDOF 3
ENDMDL
