MODEL 1
REMARK minimizedAffinity 1.74598074
REMARK minimizedRMSD -1
REMARK  1 active torsions:
REMARK  status: ('A' for Active; 'I' for Inactive)
REMARK    1  A    between atoms: C3_4  and  O_7 
ROOT
ATOM      1  C   UNL d   1       2.055   0.751   0.019  0.00  0.00    -0.033 A 
ATOM      2  C1  UNL d   1       0.769   1.100  -0.397  0.00  0.00     0.039 A 
ATOM      3  C2  UNL d   1       0.399   2.444  -0.476  0.00  0.00    -0.080 A 
ATOM      4  C3  UNL d   1       1.323   3.428  -0.135  0.00  0.00     0.150 A 
ATOM      5  C4  UNL d   1       2.608   3.088   0.277  0.00  0.00    -0.007 A 
ATOM      6  C5  UNL d   1       2.975   1.746   0.355  0.00  0.00     0.039 A 
ENDROOT
BRANCH   4   7
ATOM      7  O   UNL d   1       1.007   4.753  -0.191  0.00  0.00    -0.526 OA
ATOM      8  H5  UNL d   1       0.078   4.836  -0.465  0.00  0.00     0.418 HD
ENDBRANCH   4   7
TORSDOF 1
ENDMDL
