MODEL 1
REMARK minimizedAffinity 3.08070087
REMARK minimizedRMSD -1
REMARK  1 active torsions:
REMARK  status: ('A' for Active; 'I' for Inactive)
REMARK    1  A    between atoms: C3_4  and  O_7 
ROOT
ATOM      1  C   UNL d   1      -6.000   2.629  -4.880  0.00  0.00    -0.033 A 
ATOM      2  C1  UNL d   1      -5.318   3.110  -6.000  0.00  0.00     0.039 A 
ATOM      3  C2  UNL d   1      -3.923   3.169  -5.999  0.00  0.00    -0.080 A 
ATOM      4  C3  UNL d   1      -3.223   2.743  -4.874  0.00  0.00     0.150 A 
ATOM      5  C4  UNL d   1      -3.895   2.259  -3.756  0.00  0.00    -0.007 A 
ATOM      6  C5  UNL d   1      -5.288   2.202  -3.759  0.00  0.00     0.039 A 
ENDROOT
BRANCH   4   7
ATOM      7  O   UNL d   1      -1.861   2.785  -4.824  0.00  0.00    -0.526 OA
ATOM      8  H5  UNL d   1      -1.534   3.169  -5.655  0.00  0.00     0.418 HD
ENDBRANCH   4   7
TORSDOF 1
ENDMDL
