MODEL 1
REMARK minimizedAffinity -0.69788754
REMARK minimizedRMSD -1
REMARK  1 active torsions:
REMARK  status: ('A' for Active; 'I' for Inactive)
REMARK    1  A    between atoms: C3_4  and  O_7 
ROOT
ATOM      1  C   UNL d   1      -4.748   1.481  -3.839  0.00  0.00    -0.033 A 
ATOM      2  C1  UNL d   1      -3.630   2.108  -3.287  0.00  0.00     0.039 A 
ATOM      3  C2  UNL d   1      -2.384   1.480  -3.326  0.00  0.00    -0.080 A 
ATOM      4  C3  UNL d   1      -2.270   0.226  -3.920  0.00  0.00     0.150 A 
ATOM      5  C4  UNL d   1      -3.379  -0.404  -4.475  0.00  0.00    -0.007 A 
ATOM      6  C5  UNL d   1      -4.622   0.226  -4.435  0.00  0.00     0.039 A 
ENDROOT
BRANCH   4   7
ATOM      7  O   UNL d   1      -1.075  -0.429  -3.978  0.00  0.00    -0.526 OA
ATOM      8  H5  UNL d   1      -0.405   0.113  -3.529  0.00  0.00     0.418 HD
ENDBRANCH   4   7
TORSDOF 1
ENDMDL
