MODEL 1
REMARK minimizedAffinity -1.27920735
REMARK minimizedRMSD -1
REMARK  1 active torsions:
REMARK  status: ('A' for Active; 'I' for Inactive)
REMARK    1  A    between atoms: C3_4  and  O_7 
ROOT
ATOM      1  C   UNL d   1      -5.192   2.541  -3.738  0.00  0.00    -0.033 A 
ATOM      2  C1  UNL d   1      -5.401   1.177  -3.949  0.00  0.00     0.039 A 
ATOM      3  C2  UNL d   1      -4.333   0.282  -3.856  0.00  0.00    -0.080 A 
ATOM      4  C3  UNL d   1      -3.063   0.764  -3.551  0.00  0.00     0.150 A 
ATOM      5  C4  UNL d   1      -2.848   2.121  -3.336  0.00  0.00    -0.007 A 
ATOM      6  C5  UNL d   1      -3.916   3.013  -3.431  0.00  0.00     0.039 A 
ENDROOT
BRANCH   4   7
ATOM      7  O   UNL d   1      -1.989  -0.070  -3.454  0.00  0.00    -0.526 OA
ATOM      8  H5  UNL d   1      -2.282  -0.974  -3.656  0.00  0.00     0.418 HD
ENDBRANCH   4   7
TORSDOF 1
ENDMDL
