MODEL 1
REMARK minimizedAffinity -2.91223454
REMARK minimizedRMSD -1
REMARK  1 active torsions:
REMARK  status: ('A' for Active; 'I' for Inactive)
REMARK    1  A    between atoms: C3_4  and  O_7 
ROOT
ATOM      1  C   UNL d   1      -5.269   2.809  -2.877  0.00  0.00    -0.033 A 
ATOM      2  C1  UNL d   1      -3.981   3.312  -2.681  0.00  0.00     0.039 A 
ATOM      3  C2  UNL d   1      -2.871   2.578  -3.105  0.00  0.00    -0.080 A 
ATOM      4  C3  UNL d   1      -3.063   1.346  -3.725  0.00  0.00     0.150 A 
ATOM      5  C4  UNL d   1      -4.343   0.842  -3.927  0.00  0.00    -0.007 A 
ATOM      6  C5  UNL d   1      -5.450   1.575  -3.502  0.00  0.00     0.039 A 
ENDROOT
BRANCH   4   7
ATOM      7  O   UNL d   1      -2.010   0.592  -4.151  0.00  0.00    -0.526 OA
ATOM      8  H5  UNL d   1      -1.187   1.053  -3.919  0.00  0.00     0.418 HD
ENDBRANCH   4   7
TORSDOF 1
ENDMDL
