MODEL 1
REMARK minimizedAffinity -0.771677613
REMARK minimizedRMSD -1
REMARK  1 active torsions:
REMARK  status: ('A' for Active; 'I' for Inactive)
REMARK    1  A    between atoms: C3_4  and  O_7 
ROOT
ATOM      1  C   UNL d   1      -3.902  -0.022  -3.776  0.00  0.00    -0.033 A 
ATOM      2  C1  UNL d   1      -5.277  -0.002  -3.531  0.00  0.00     0.039 A 
ATOM      3  C2  UNL d   1      -6.000   1.181  -3.692  0.00  0.00    -0.080 A 
ATOM      4  C3  UNL d   1      -5.338   2.337  -4.098  0.00  0.00     0.150 A 
ATOM      5  C4  UNL d   1      -3.969   2.323  -4.348  0.00  0.00    -0.007 A 
ATOM      6  C5  UNL d   1      -3.249   1.141  -4.186  0.00  0.00     0.039 A 
ENDROOT
BRANCH   4   7
ATOM      7  O   UNL d   1      -6.000   3.517  -4.264  0.00  0.00    -0.526 OA
ATOM      8  H5  UNL d   1      -6.933   3.382  -4.028  0.00  0.00     0.418 HD
ENDBRANCH   4   7
TORSDOF 1
ENDMDL
