MODEL 1
REMARK minimizedAffinity -3.366014
REMARK minimizedRMSD -1
REMARK  1 active torsions:
REMARK  status: ('A' for Active; 'I' for Inactive)
REMARK    1  A    between atoms: C3_4  and  O_7 
ROOT
ATOM      1  C   UNL d   1      -6.000   1.137  -1.346  0.00  0.00    -0.033 A 
ATOM      2  C1  UNL d   1      -5.881   2.144  -2.306  0.00  0.00     0.039 A 
ATOM      3  C2  UNL d   1      -4.991   1.993  -3.371  0.00  0.00    -0.080 A 
ATOM      4  C3  UNL d   1      -4.227   0.832  -3.465  0.00  0.00     0.150 A 
ATOM      5  C4  UNL d   1      -4.344  -0.176  -2.514  0.00  0.00    -0.007 A 
ATOM      6  C5  UNL d   1      -5.233  -0.023  -1.450  0.00  0.00     0.039 A 
ENDROOT
BRANCH   4   7
ATOM      7  O   UNL d   1      -3.342   0.642  -4.484  0.00  0.00    -0.526 OA
ATOM      8  H5  UNL d   1      -3.347   1.433  -5.048  0.00  0.00     0.418 HD
ENDBRANCH   4   7
TORSDOF 1
ENDMDL
