MODEL 1
REMARK minimizedAffinity 1.17262578
REMARK minimizedRMSD -1
REMARK  1 active torsions:
REMARK  status: ('A' for Active; 'I' for Inactive)
REMARK    1  A    between atoms: C3_4  and  O_7 
ROOT
ATOM      1  C   UNL d   1      -5.996   1.775  -0.614  0.00  0.00    -0.033 A 
ATOM      2  C1  UNL d   1      -5.677   2.555  -1.727  0.00  0.00     0.039 A 
ATOM      3  C2  UNL d   1      -4.883   2.028  -2.747  0.00  0.00    -0.080 A 
ATOM      4  C3  UNL d   1      -4.415   0.721  -2.643  0.00  0.00     0.150 A 
ATOM      5  C4  UNL d   1      -4.732  -0.063  -1.539  0.00  0.00    -0.007 A 
ATOM      6  C5  UNL d   1      -5.525   0.465  -0.521  0.00  0.00     0.039 A 
ENDROOT
BRANCH   4   7
ATOM      7  O   UNL d   1      -3.633   0.165  -3.611  0.00  0.00    -0.526 OA
ATOM      8  H5  UNL d   1      -3.472   0.833  -4.298  0.00  0.00     0.418 HD
ENDBRANCH   4   7
TORSDOF 1
ENDMDL
