MODEL 1
REMARK minimizedAffinity 1.3338356
REMARK minimizedRMSD -1
REMARK  1 active torsions:
REMARK  status: ('A' for Active; 'I' for Inactive)
REMARK    1  A    between atoms: C3_4  and  O_7 
ROOT
ATOM      1  C   UNL d   1      -5.691   1.457  -1.605  0.00  0.00    -0.033 A 
ATOM      2  C1  UNL d   1      -5.396   2.550  -2.421  0.00  0.00     0.039 A 
ATOM      3  C2  UNL d   1      -4.554   2.394  -3.524  0.00  0.00    -0.080 A 
ATOM      4  C3  UNL d   1      -4.015   1.140  -3.800  0.00  0.00     0.150 A 
ATOM      5  C4  UNL d   1      -4.309   0.045  -2.993  0.00  0.00    -0.007 A 
ATOM      6  C5  UNL d   1      -5.149   0.204  -1.892  0.00  0.00     0.039 A 
ENDROOT
BRANCH   4   7
ATOM      7  O   UNL d   1      -3.185   0.939  -4.862  0.00  0.00    -0.526 OA
ATOM      8  H5  UNL d   1      -3.049   1.790  -5.312  0.00  0.00     0.418 HD
ENDBRANCH   4   7
TORSDOF 1
ENDMDL
