MODEL 1
REMARK minimizedAffinity -2.26575112
REMARK minimizedRMSD -1
REMARK  1 active torsions:
REMARK  status: ('A' for Active; 'I' for Inactive)
REMARK    1  A    between atoms: C3_4  and  O_7 
ROOT
ATOM      1  C   UNL d   1      -5.680   2.575  -4.198  0.00  0.00    -0.033 A 
ATOM      2  C1  UNL d   1      -4.996   3.098  -3.099  0.00  0.00     0.039 A 
ATOM      3  C2  UNL d   1      -3.812   2.502  -2.662  0.00  0.00    -0.080 A 
ATOM      4  C3  UNL d   1      -3.321   1.385  -3.333  0.00  0.00     0.150 A 
ATOM      5  C4  UNL d   1      -3.995   0.861  -4.431  0.00  0.00    -0.007 A 
ATOM      6  C5  UNL d   1      -5.178   1.457  -4.865  0.00  0.00     0.039 A 
ENDROOT
BRANCH   4   7
ATOM      7  O   UNL d   1      -2.171   0.767  -2.941  0.00  0.00    -0.526 OA
ATOM      8  H5  UNL d   1      -1.831   1.221  -2.153  0.00  0.00     0.418 HD
ENDBRANCH   4   7
TORSDOF 1
ENDMDL
