MODEL 1
REMARK minimizedAffinity 4.26476192
REMARK minimizedRMSD -1
REMARK  1 active torsions:
REMARK  status: ('A' for Active; 'I' for Inactive)
REMARK    1  A    between atoms: C3_4  and  O_7 
ROOT
ATOM      1  C   UNL d   1       1.920   0.482  -0.164  0.00  0.00    -0.033 A 
ATOM      2  C1  UNL d   1       2.263   1.546   0.673  0.00  0.00     0.039 A 
ATOM      3  C2  UNL d   1       3.491   2.193   0.515  0.00  0.00    -0.080 A 
ATOM      4  C3  UNL d   1       4.363   1.768  -0.483  0.00  0.00     0.150 A 
ATOM      5  C4  UNL d   1       4.026   0.711  -1.323  0.00  0.00    -0.007 A 
ATOM      6  C5  UNL d   1       2.801   0.066  -1.162  0.00  0.00     0.039 A 
ENDROOT
BRANCH   4   7
ATOM      7  O   UNL d   1       5.574   2.365  -0.673  0.00  0.00    -0.526 OA
ATOM      8  H5  UNL d   1       5.683   3.060  -0.002  0.00  0.00     0.418 HD
ENDBRANCH   4   7
TORSDOF 1
ENDMDL
