MODEL 1
REMARK minimizedAffinity 3.89869618
REMARK minimizedRMSD -1
REMARK  1 active torsions:
REMARK  status: ('A' for Active; 'I' for Inactive)
REMARK    1  A    between atoms: C3_4  and  O_7 
ROOT
ATOM      1  C   UNL d   1      -4.981   1.635  -2.665  0.00  0.00    -0.033 A 
ATOM      2  C1  UNL d   1      -4.076   2.325  -3.474  0.00  0.00     0.039 A 
ATOM      3  C2  UNL d   1      -2.925   1.686  -3.939  0.00  0.00    -0.080 A 
ATOM      4  C3  UNL d   1      -2.691   0.359  -3.590  0.00  0.00     0.150 A 
ATOM      5  C4  UNL d   1      -3.590  -0.336  -2.787  0.00  0.00    -0.007 A 
ATOM      6  C5  UNL d   1      -4.738   0.304  -2.323  0.00  0.00     0.039 A 
ENDROOT
BRANCH   4   7
ATOM      7  O   UNL d   1      -1.579  -0.305  -4.016  0.00  0.00    -0.526 OA
ATOM      8  H5  UNL d   1      -1.035   0.309  -4.537  0.00  0.00     0.418 HD
ENDBRANCH   4   7
TORSDOF 1
ENDMDL
