MODEL 1
REMARK minimizedAffinity 4.42136049
REMARK minimizedRMSD -1
REMARK  3 active torsions:
REMARK  status: ('A' for Active; 'I' for Inactive)
REMARK    1  A    between atoms: C3'_2  and  C2'_3 
REMARK    2  A    between atoms: C2'_3  and  C1'_4 
REMARK    3  A    between atoms: C1'_4  and  C1_5 
ROOT
ATOM      1  C1  N4B d   1       0.504  -0.227   0.612  0.00  0.00    -0.075 A 
ATOM      2  C2  N4B d   1      -0.631   0.424   1.143  0.00  0.00     0.002 A 
ATOM      3  C3  N4B d   1      -1.879   0.147   0.642  0.00  0.00     0.002 A 
ATOM      4  C4  N4B d   1      -2.014  -0.760  -0.399  0.00  0.00    -0.004 A 
ATOM      5  C5  N4B d   1      -0.915  -1.403  -0.889  0.00  0.00     0.002 A 
ATOM      6  C6  N4B d   1       0.345  -1.137  -0.392  0.00  0.00     0.002 A 
ENDROOT
BRANCH   1   7
ATOM      7  C1' N4B d   1       1.898   0.107   1.070  0.00  0.00     0.057 C 
BRANCH   7   8
ATOM      8  C2' N4B d   1       2.774   0.377  -0.149  0.00  0.00     0.009 C 
BRANCH   8   9
ATOM      9  C3' N4B d   1       3.761   1.504   0.098  0.00  0.00     0.004 C 
ATOM     10  C4' N4B d   1       4.701   1.717  -1.051  0.00  0.00     0.003 C 
ENDBRANCH   8   9
ENDBRANCH   7   8
ENDBRANCH   1   7
TORSDOF 3
ENDMDL
