MODEL 1
REMARK minimizedAffinity 8.63463593
REMARK minimizedRMSD -1
REMARK  3 active torsions:
REMARK  status: ('A' for Active; 'I' for Inactive)
REMARK    1  A    between atoms: C3'_2  and  C2'_3 
REMARK    2  A    between atoms: C2'_3  and  C1'_4 
REMARK    3  A    between atoms: C1'_4  and  C1_5 
ROOT
ATOM      1  C1  N4B d   1      -0.508  -0.131   0.117  0.00  0.00    -0.075 A 
ATOM      2  C2  N4B d   1      -0.876   0.272   1.420  0.00  0.00     0.002 A 
ATOM      3  C3  N4B d   1       0.093   0.508   2.364  0.00  0.00     0.002 A 
ATOM      4  C4  N4B d   1       1.429   0.330   2.036  0.00  0.00    -0.004 A 
ATOM      5  C5  N4B d   1       1.776  -0.035   0.768  0.00  0.00     0.002 A 
ATOM      6  C6  N4B d   1       0.814  -0.272  -0.192  0.00  0.00     0.002 A 
ENDROOT
BRANCH   1   7
ATOM      7  C1' N4B d   1      -1.535  -0.484  -0.924  0.00  0.00     0.057 C 
BRANCH   7   8
ATOM      8  C2' N4B d   1      -2.926  -0.171  -0.382  0.00  0.00     0.009 C 
BRANCH   8   9
ATOM      9  C3' N4B d   1      -3.628  -1.415   0.135  0.00  0.00     0.004 C 
ATOM     10  C4' N4B d   1      -4.617  -1.973  -0.845  0.00  0.00     0.003 C 
ENDBRANCH   8   9
ENDBRANCH   7   8
ENDBRANCH   1   7
TORSDOF 3
ENDMDL
