MODEL 1
REMARK minimizedAffinity -5.45502472
REMARK minimizedRMSD -1
REMARK  0 active torsions:
REMARK  status: ('A' for Active; 'I' for Inactive)
ROOT
ATOM      1  C1  DEN d   1      -2.169   0.902   2.403  0.00  0.00     0.130 A 
ATOM      2  C2  DEN d   1      -3.177   1.111   1.368  0.00  0.00    -0.031 A 
ATOM      3  C3  DEN d   1      -2.535   0.903   0.055  0.00  0.00     0.027 A 
ATOM      4  C4  DEN d   1      -0.090   0.273  -0.473  0.00  0.00     0.027 A 
ATOM      5  C5  DEN d   1       1.143   0.001   0.078  0.00  0.00    -0.003 A 
ATOM      6  C6  DEN d   1       1.365   0.043   1.429  0.00  0.00     0.001 A 
ATOM      7  C7  DEN d   1       0.327   0.320   2.279  0.00  0.00     0.017 A 
ATOM      8  C8  DEN d   1      -0.917   0.603   1.731  0.00  0.00    -0.094 A 
ATOM      9  C9  DEN d   1      -1.124   0.544   0.363  0.00  0.00    -0.072 A 
ENDROOT
TORSDOF 0
ENDMDL
