MODEL 1
REMARK minimizedAffinity -0.156063288
REMARK minimizedRMSD -1
REMARK  0 active torsions:
REMARK  status: ('A' for Active; 'I' for Inactive)
ROOT
ATOM      1  C1  DEN d   1       3.497   1.336  -3.553  0.00  0.00     0.130 A 
ATOM      2  C2  DEN d   1       4.702   0.614  -3.950  0.00  0.00    -0.031 A 
ATOM      3  C3  DEN d   1       4.362  -0.819  -4.059  0.00  0.00     0.027 A 
ATOM      4  C4  DEN d   1       2.095  -1.983  -3.659  0.00  0.00     0.027 A 
ATOM      5  C5  DEN d   1       0.781  -1.787  -3.295  0.00  0.00    -0.003 A 
ATOM      6  C6  DEN d   1       0.293  -0.551  -2.961  0.00  0.00     0.001 A 
ATOM      7  C7  DEN d   1       1.113   0.544  -3.028  0.00  0.00     0.017 A 
ATOM      8  C8  DEN d   1       2.441   0.353  -3.387  0.00  0.00    -0.094 A 
ATOM      9  C9  DEN d   1       2.913  -0.902  -3.733  0.00  0.00    -0.072 A 
ENDROOT
TORSDOF 0
ENDMDL
