MODEL 1
REMARK minimizedAffinity -0.910578549
REMARK minimizedRMSD -1
REMARK  0 active torsions:
REMARK  status: ('A' for Active; 'I' for Inactive)
ROOT
ATOM      1  C1  DEN d   1      -1.038   0.551  -1.369  0.00  0.00     0.130 A 
ATOM      2  C2  DEN d   1       0.045   0.396  -2.337  0.00  0.00    -0.031 A 
ATOM      3  C3  DEN d   1       1.279   0.074  -1.593  0.00  0.00     0.027 A 
ATOM      4  C4  DEN d   1       1.616  -0.201   0.949  0.00  0.00     0.027 A 
ATOM      5  C5  DEN d   1       0.992  -0.152   2.176  0.00  0.00    -0.003 A 
ATOM      6  C6  DEN d   1      -0.334   0.165   2.309  0.00  0.00     0.001 A 
ATOM      7  C7  DEN d   1      -1.090   0.402   1.192  0.00  0.00     0.017 A 
ATOM      8  C8  DEN d   1      -0.466   0.362  -0.048  0.00  0.00    -0.094 A 
ATOM      9  C9  DEN d   1       0.873   0.027  -0.162  0.00  0.00    -0.072 A 
ENDROOT
TORSDOF 0
ENDMDL
