MODEL 1
REMARK minimizedAffinity -2.38567591
REMARK minimizedRMSD -1
REMARK  0 active torsions:
REMARK  status: ('A' for Active; 'I' for Inactive)
ROOT
ATOM      1  C1  DEN d   1      -0.740   0.248  -0.844  0.00  0.00     0.130 A 
ATOM      2  C2  DEN d   1       0.713   0.247  -0.988  0.00  0.00    -0.031 A 
ATOM      3  C3  DEN d   1       1.305   0.405   0.356  0.00  0.00     0.027 A 
ATOM      4  C4  DEN d   1       0.119   0.646   2.633  0.00  0.00     0.027 A 
ATOM      5  C5  DEN d   1      -1.106   0.716   3.259  0.00  0.00    -0.003 A 
ATOM      6  C6  DEN d   1      -2.285   0.669   2.564  0.00  0.00     0.001 A 
ATOM      7  C7  DEN d   1      -2.264   0.504   1.204  0.00  0.00     0.017 A 
ATOM      8  C8  DEN d   1      -1.033   0.440   0.565  0.00  0.00    -0.094 A 
ATOM      9  C9  DEN d   1       0.148   0.477   1.287  0.00  0.00    -0.072 A 
ENDROOT
TORSDOF 0
ENDMDL
