MODEL 1
REMARK minimizedAffinity -0.731362402
REMARK minimizedRMSD -1
REMARK  0 active torsions:
REMARK  status: ('A' for Active; 'I' for Inactive)
ROOT
ATOM      1  C1  DEN d   1       2.063  -0.433  -2.198  0.00  0.00     0.130 A 
ATOM      2  C2  DEN d   1       1.248  -0.439  -3.410  0.00  0.00    -0.031 A 
ATOM      3  C3  DEN d   1      -0.132  -0.075  -3.033  0.00  0.00     0.027 A 
ATOM      4  C4  DEN d   1      -1.081   0.500  -0.705  0.00  0.00     0.027 A 
ATOM      5  C5  DEN d   1      -0.775   0.627   0.632  0.00  0.00    -0.003 A 
ATOM      6  C6  DEN d   1       0.481   0.379   1.120  0.00  0.00     0.001 A 
ATOM      7  C7  DEN d   1       1.488   0.034   0.259  0.00  0.00     0.017 A 
ATOM      8  C8  DEN d   1       1.185  -0.103  -1.090  0.00  0.00    -0.094 A 
ATOM      9  C9  DEN d   1      -0.087   0.164  -1.566  0.00  0.00    -0.072 A 
ENDROOT
TORSDOF 0
ENDMDL
