MODEL 1
REMARK minimizedAffinity -3.64553881
REMARK minimizedRMSD -1
REMARK  0 active torsions:
REMARK  status: ('A' for Active; 'I' for Inactive)
ROOT
ATOM      1  C1  DEN d   1      -1.494   0.518  -1.048  0.00  0.00     0.130 A 
ATOM      2  C2  DEN d   1      -2.886   0.629  -0.621  0.00  0.00    -0.031 A 
ATOM      3  C3  DEN d   1      -2.908   0.688   0.854  0.00  0.00     0.027 A 
ATOM      4  C4  DEN d   1      -0.932   0.625   2.510  0.00  0.00     0.027 A 
ATOM      5  C5  DEN d   1       0.437   0.526   2.621  0.00  0.00    -0.003 A 
ATOM      6  C6  DEN d   1       1.250   0.385   1.527  0.00  0.00     0.001 A 
ATOM      7  C7  DEN d   1       0.703   0.384   0.271  0.00  0.00     0.017 A 
ATOM      8  C8  DEN d   1      -0.677   0.476   0.152  0.00  0.00    -0.094 A 
ATOM      9  C9  DEN d   1      -1.481   0.630   1.269  0.00  0.00    -0.072 A 
ENDROOT
TORSDOF 0
ENDMDL
