MODEL 1
REMARK minimizedAffinity -0.204193309
REMARK minimizedRMSD -1
REMARK  0 active torsions:
REMARK  status: ('A' for Active; 'I' for Inactive)
ROOT
ATOM      1  C1  DEN d   1      -2.668   1.028   2.611  0.00  0.00     0.130 A 
ATOM      2  C2  DEN d   1      -3.044   2.365   3.063  0.00  0.00    -0.031 A 
ATOM      3  C3  DEN d   1      -1.806   3.106   3.376  0.00  0.00     0.027 A 
ATOM      4  C4  DEN d   1       0.644   2.320   3.201  0.00  0.00     0.027 A 
ATOM      5  C5  DEN d   1       1.462   1.261   2.876  0.00  0.00    -0.003 A 
ATOM      6  C6  DEN d   1       0.965   0.049   2.476  0.00  0.00     0.001 A 
ATOM      7  C7  DEN d   1      -0.389  -0.119   2.347  0.00  0.00     0.017 A 
ATOM      8  C8  DEN d   1      -1.221   0.942   2.679  0.00  0.00    -0.094 A 
ATOM      9  C9  DEN d   1      -0.698   2.163   3.070  0.00  0.00    -0.072 A 
ENDROOT
TORSDOF 0
ENDMDL
