MODEL 1
REMARK minimizedAffinity -3.56379318
REMARK minimizedRMSD -1
REMARK  0 active torsions:
REMARK  status: ('A' for Active; 'I' for Inactive)
ROOT
ATOM      1  C1  DEN d   1      -2.288   0.817   2.331  0.00  0.00     0.130 A 
ATOM      2  C2  DEN d   1      -3.226   0.951   1.220  0.00  0.00    -0.031 A 
ATOM      3  C3  DEN d   1      -2.476   0.753  -0.036  0.00  0.00     0.027 A 
ATOM      4  C4  DEN d   1       0.031   0.249  -0.367  0.00  0.00     0.027 A 
ATOM      5  C5  DEN d   1       1.232   0.056   0.279  0.00  0.00    -0.003 A 
ATOM      6  C6  DEN d   1       1.350   0.136   1.641  0.00  0.00     0.001 A 
ATOM      7  C7  DEN d   1       0.237   0.371   2.406  0.00  0.00     0.017 A 
ATOM      8  C8  DEN d   1      -0.976   0.575   1.761  0.00  0.00    -0.094 A 
ATOM      9  C9  DEN d   1      -1.076   0.478   0.383  0.00  0.00    -0.072 A 
ENDROOT
TORSDOF 0
ENDMDL
