MODEL 1
REMARK minimizedAffinity -3.38788462
REMARK minimizedRMSD -1
REMARK  0 active torsions:
REMARK  status: ('A' for Active; 'I' for Inactive)
ROOT
ATOM      1  C1  DEN d   1      -1.142   0.450  -0.864  0.00  0.00     0.130 A 
ATOM      2  C2  DEN d   1       0.239   0.337  -1.326  0.00  0.00    -0.031 A 
ATOM      3  C3  DEN d   1       1.111   0.233  -0.139  0.00  0.00     0.027 A 
ATOM      4  C4  DEN d   1       0.460   0.229   2.357  0.00  0.00     0.027 A 
ATOM      5  C5  DEN d   1      -0.591   0.314   3.243  0.00  0.00    -0.003 A 
ATOM      6  C6  DEN d   1      -1.885   0.483   2.827  0.00  0.00     0.001 A 
ATOM      7  C7  DEN d   1      -2.167   0.527   1.487  0.00  0.00     0.017 A 
ATOM      8  C8  DEN d   1      -1.111   0.450   0.588  0.00  0.00    -0.094 A 
ATOM      9  C9  DEN d   1       0.189   0.267   1.028  0.00  0.00    -0.072 A 
ENDROOT
TORSDOF 0
ENDMDL
