MODEL 1
REMARK minimizedAffinity -1.06507897
REMARK minimizedRMSD -1
REMARK  0 active torsions:
REMARK  status: ('A' for Active; 'I' for Inactive)
ROOT
ATOM      1  C1  DEN d   1      -2.829   0.689   0.758  0.00  0.00     0.130 A 
ATOM      2  C2  DEN d   1      -3.508   1.179   1.954  0.00  0.00    -0.031 A 
ATOM      3  C3  DEN d   1      -2.512   1.268   3.041  0.00  0.00     0.027 A 
ATOM      4  C4  DEN d   1       0.003   0.701   2.986  0.00  0.00     0.027 A 
ATOM      5  C5  DEN d   1       1.033   0.237   2.197  0.00  0.00    -0.003 A 
ATOM      6  C6  DEN d   1       0.841  -0.138   0.893  0.00  0.00     0.001 A 
ATOM      7  C7  DEN d   1      -0.399  -0.012   0.326  0.00  0.00     0.017 A 
ATOM      8  C8  DEN d   1      -1.443   0.447   1.117  0.00  0.00    -0.094 A 
ATOM      9  C9  DEN d   1      -1.227   0.833   2.430  0.00  0.00    -0.072 A 
ENDROOT
TORSDOF 0
ENDMDL
