MODEL 1
REMARK minimizedAffinity -1.77778852
REMARK minimizedRMSD -1
REMARK  0 active torsions:
REMARK  status: ('A' for Active; 'I' for Inactive)
ROOT
ATOM      1  C1  DEN d   1       2.339  -1.411  -2.532  0.00  0.00     0.130 A 
ATOM      2  C2  DEN d   1       1.500  -2.030  -3.555  0.00  0.00    -0.031 A 
ATOM      3  C3  DEN d   1       0.088  -1.793  -3.192  0.00  0.00     0.027 A 
ATOM      4  C4  DEN d   1      -0.875  -0.530  -1.159  0.00  0.00     0.027 A 
ATOM      5  C5  DEN d   1      -0.553   0.159  -0.011  0.00  0.00    -0.003 A 
ATOM      6  C6  DEN d   1       0.743   0.342   0.392  0.00  0.00     0.001 A 
ATOM      7  C7  DEN d   1       1.768  -0.131  -0.383  0.00  0.00     0.017 A 
ATOM      8  C8  DEN d   1       1.452  -0.833  -1.539  0.00  0.00    -0.094 A 
ATOM      9  C9  DEN d   1       0.136  -0.997  -1.936  0.00  0.00    -0.072 A 
ENDROOT
TORSDOF 0
ENDMDL
