MODEL 1
REMARK minimizedAffinity -2.13572288
REMARK minimizedRMSD -1
REMARK  0 active torsions:
REMARK  status: ('A' for Active; 'I' for Inactive)
ROOT
ATOM      1  C1  DEN d   1      -0.116  -1.039   0.134  0.00  0.00     0.130 A 
ATOM      2  C2  DEN d   1       0.347   0.145   0.851  0.00  0.00    -0.031 A 
ATOM      3  C3  DEN d   1       1.106   0.986  -0.097  0.00  0.00     0.027 A 
ATOM      4  C4  DEN d   1       1.601   0.573  -2.594  0.00  0.00     0.027 A 
ATOM      5  C5  DEN d   1       1.426  -0.301  -3.644  0.00  0.00    -0.003 A 
ATOM      6  C6  DEN d   1       0.759  -1.489  -3.501  0.00  0.00     0.001 A 
ATOM      7  C7  DEN d   1       0.203  -1.814  -2.291  0.00  0.00     0.017 A 
ATOM      8  C8  DEN d   1       0.383  -0.941  -1.227  0.00  0.00    -0.094 A 
ATOM      9  C9  DEN d   1       1.050   0.260  -1.394  0.00  0.00    -0.072 A 
ENDROOT
TORSDOF 0
ENDMDL
