MODEL 1
REMARK minimizedAffinity -4.45829391
REMARK minimizedRMSD -1
REMARK  0 active torsions:
REMARK  status: ('A' for Active; 'I' for Inactive)
ROOT
ATOM      1  C1  DEN d   1      -2.293   0.705   2.649  0.00  0.00     0.130 A 
ATOM      2  C2  DEN d   1      -3.415   0.873   1.730  0.00  0.00    -0.031 A 
ATOM      3  C3  DEN d   1      -2.892   0.801   0.351  0.00  0.00     0.027 A 
ATOM      4  C4  DEN d   1      -0.465   0.442  -0.446  0.00  0.00     0.027 A 
ATOM      5  C5  DEN d   1       0.837   0.261  -0.034  0.00  0.00    -0.003 A 
ATOM      6  C6  DEN d   1       1.189   0.249   1.290  0.00  0.00     0.001 A 
ATOM      7  C7  DEN d   1       0.220   0.376   2.251  0.00  0.00     0.017 A 
ATOM      8  C8  DEN d   1      -1.093   0.567   1.843  0.00  0.00    -0.094 A 
ATOM      9  C9  DEN d   1      -1.430   0.564   0.500  0.00  0.00    -0.072 A 
ENDROOT
TORSDOF 0
ENDMDL
