MODEL 1
REMARK minimizedAffinity -2.92452693
REMARK minimizedRMSD -1
REMARK  0 active torsions:
REMARK  status: ('A' for Active; 'I' for Inactive)
ROOT
ATOM      1  C1  DEN d   1      -0.994   0.365  -0.802  0.00  0.00     0.130 A 
ATOM      2  C2  DEN d   1      -0.010   0.086  -1.844  0.00  0.00    -0.031 A 
ATOM      3  C3  DEN d   1       1.279  -0.213  -1.188  0.00  0.00     0.027 A 
ATOM      4  C4  DEN d   1       1.843  -0.273   1.328  0.00  0.00     0.027 A 
ATOM      5  C5  DEN d   1       1.336  -0.094   2.596  0.00  0.00    -0.003 A 
ATOM      6  C6  DEN d   1       0.038   0.282   2.818  0.00  0.00     0.001 A 
ATOM      7  C7  DEN d   1      -0.812   0.446   1.756  0.00  0.00     0.017 A 
ATOM      8  C8  DEN d   1      -0.307   0.273   0.474  0.00  0.00    -0.094 A 
ATOM      9  C9  DEN d   1       1.005  -0.118   0.271  0.00  0.00    -0.072 A 
ENDROOT
TORSDOF 0
ENDMDL
