MODEL 1
REMARK minimizedAffinity -3.65471935
REMARK minimizedRMSD -1
REMARK  0 active torsions:
REMARK  status: ('A' for Active; 'I' for Inactive)
ROOT
ATOM      1  C1  BNZ d   1       0.153  -1.366  -0.043  0.00  0.00     0.000 A 
ATOM      2  C2  BNZ d   1       1.398  -1.623  -0.553  0.00  0.00     0.000 A 
ATOM      3  C3  BNZ d   1       2.228  -0.602  -0.923  0.00  0.00     0.000 A 
ATOM      4  C4  BNZ d   1       1.798   0.672  -0.821  0.00  0.00     0.000 A 
ATOM      5  C5  BNZ d   1       0.542   0.948  -0.318  0.00  0.00     0.000 A 
ATOM      6  C6  BNZ d   1      -0.276  -0.081   0.090  0.00  0.00     0.000 A 
ENDROOT
TORSDOF 0
ENDMDL
