MODEL 1
REMARK minimizedAffinity -3.68285298
REMARK minimizedRMSD -1
REMARK  0 active torsions:
REMARK  status: ('A' for Active; 'I' for Inactive)
ROOT
ATOM      1  C1  BNZ d   1       2.162   0.469  -0.982  0.00  0.00     0.000 A 
ATOM      2  C2  BNZ d   1       0.919   0.751  -0.482  0.00  0.00     0.000 A 
ATOM      3  C3  BNZ d   1       0.121  -0.242   0.012  0.00  0.00     0.000 A 
ATOM      4  C4  BNZ d   1       0.549  -1.520  -0.030  0.00  0.00     0.000 A 
ATOM      5  C5  BNZ d   1       1.797  -1.822  -0.539  0.00  0.00     0.000 A 
ATOM      6  C6  BNZ d   1       2.613  -0.815  -1.001  0.00  0.00     0.000 A 
ENDROOT
TORSDOF 0
ENDMDL
