MODEL 1
REMARK minimizedAffinity -3.39112687
REMARK minimizedRMSD -1
REMARK  0 active torsions:
REMARK  status: ('A' for Active; 'I' for Inactive)
ROOT
ATOM      1  C1  BNZ d   1       2.204  -1.223  -0.904  0.00  0.00     0.000 A 
ATOM      2  C2  BNZ d   1       3.283  -0.382  -0.851  0.00  0.00     0.000 A 
ATOM      3  C3  BNZ d   1       3.117   0.958  -0.639  0.00  0.00     0.000 A 
ATOM      4  C4  BNZ d   1       1.871   1.461  -0.522  0.00  0.00     0.000 A 
ATOM      5  C5  BNZ d   1       0.772   0.627  -0.583  0.00  0.00     0.000 A 
ATOM      6  C6  BNZ d   1       0.945  -0.726  -0.757  0.00  0.00     0.000 A 
ENDROOT
TORSDOF 0
ENDMDL
