MODEL 1
REMARK minimizedAffinity -3.51081824
REMARK minimizedRMSD -1
REMARK  0 active torsions:
REMARK  status: ('A' for Active; 'I' for Inactive)
ROOT
ATOM      1  C1  BNZ d   1       0.536   0.580  -0.317  0.00  0.00     0.000 A 
ATOM      2  C2  BNZ d   1       1.886   0.375  -0.411  0.00  0.00     0.000 A 
ATOM      3  C3  BNZ d   1       2.399  -0.891  -0.480  0.00  0.00     0.000 A 
ATOM      4  C4  BNZ d   1       1.564  -1.948  -0.415  0.00  0.00     0.000 A 
ATOM      5  C5  BNZ d   1       0.201  -1.758  -0.311  0.00  0.00     0.000 A 
ATOM      6  C6  BNZ d   1      -0.314  -0.482  -0.280  0.00  0.00     0.000 A 
ENDROOT
TORSDOF 0
ENDMDL
