MODEL 1
REMARK minimizedAffinity -4.70121241
REMARK minimizedRMSD -1
REMARK  0 active torsions:
REMARK  status: ('A' for Active; 'I' for Inactive)
ROOT
ATOM      1  C1  BNZ d   1       1.284   1.133  -0.573  0.00  0.00     0.000 A 
ATOM      2  C2  BNZ d   1       2.015   0.007  -0.841  0.00  0.00     0.000 A 
ATOM      3  C3  BNZ d   1       1.513  -1.235  -0.568  0.00  0.00     0.000 A 
ATOM      4  C4  BNZ d   1       0.298  -1.347   0.007  0.00  0.00     0.000 A 
ATOM      5  C5  BNZ d   1      -0.447  -0.220   0.292  0.00  0.00     0.000 A 
ATOM      6  C6  BNZ d   1       0.045   1.026  -0.020  0.00  0.00     0.000 A 
ENDROOT
TORSDOF 0
ENDMDL
