MODEL 1
REMARK minimizedAffinity -3.8860569
REMARK minimizedRMSD -1
REMARK  0 active torsions:
REMARK  status: ('A' for Active; 'I' for Inactive)
ROOT
ATOM      1  C1  BNZ d   1       1.931  -1.188  -1.094  0.00  0.00     0.000 A 
ATOM      2  C2  BNZ d   1       1.095  -1.705  -0.141  0.00  0.00     0.000 A 
ATOM      3  C3  BNZ d   1       0.035  -0.981   0.328  0.00  0.00     0.000 A 
ATOM      4  C4  BNZ d   1      -0.164   0.273  -0.127  0.00  0.00     0.000 A 
ATOM      5  C5  BNZ d   1       0.676   0.812  -1.081  0.00  0.00     0.000 A 
ATOM      6  C6  BNZ d   1       1.719   0.065  -1.579  0.00  0.00     0.000 A 
ENDROOT
TORSDOF 0
ENDMDL
