MODEL 1
REMARK minimizedAffinity -2.56666994
REMARK minimizedRMSD -1
REMARK  0 active torsions:
REMARK  status: ('A' for Active; 'I' for Inactive)
ROOT
ATOM      1  C1  BNZ d   1       5.729  -0.100   5.998  0.00  0.00     0.000 A 
ATOM      2  C2  BNZ d   1       5.675  -1.468   5.997  0.00  0.00     0.000 A 
ATOM      3  C3  BNZ d   1       5.652  -2.167   4.823  0.00  0.00     0.000 A 
ATOM      4  C4  BNZ d   1       5.642  -1.496   3.652  0.00  0.00     0.000 A 
ATOM      5  C5  BNZ d   1       5.687  -0.116   3.637  0.00  0.00     0.000 A 
ATOM      6  C6  BNZ d   1       5.750   0.582   4.821  0.00  0.00     0.000 A 
ENDROOT
TORSDOF 0
ENDMDL
