MODEL 1
REMARK minimizedAffinity -3.85379124
REMARK minimizedRMSD -1
REMARK  0 active torsions:
REMARK  status: ('A' for Active; 'I' for Inactive)
ROOT
ATOM      1  C1  BNZ d   1       0.267  -0.966   0.259  0.00  0.00     0.000 A 
ATOM      2  C2  BNZ d   1       1.324  -1.796  -0.006  0.00  0.00     0.000 A 
ATOM      3  C3  BNZ d   1       2.530  -1.289  -0.402  0.00  0.00     0.000 A 
ATOM      4  C4  BNZ d   1       2.666   0.042  -0.571  0.00  0.00     0.000 A 
ATOM      5  C5  BNZ d   1       1.607   0.891  -0.317  0.00  0.00     0.000 A 
ATOM      6  C6  BNZ d   1       0.406   0.380   0.119  0.00  0.00     0.000 A 
ENDROOT
TORSDOF 0
ENDMDL
