MODEL 1
REMARK minimizedAffinity -5.22738218
REMARK minimizedRMSD -1
REMARK  0 active torsions:
REMARK  status: ('A' for Active; 'I' for Inactive)
ROOT
ATOM      1  C1  BNZ d   1       0.538  -1.746  -0.138  0.00  0.00     0.000 A 
ATOM      2  C2  BNZ d   1       1.732  -1.532  -0.774  0.00  0.00     0.000 A 
ATOM      3  C3  BNZ d   1       2.115  -0.271  -1.137  0.00  0.00     0.000 A 
ATOM      4  C4  BNZ d   1       1.288   0.767  -0.902  0.00  0.00     0.000 A 
ATOM      5  C5  BNZ d   1       0.077   0.566  -0.270  0.00  0.00     0.000 A 
ATOM      6  C6  BNZ d   1      -0.288  -0.699   0.130  0.00  0.00     0.000 A 
ENDROOT
TORSDOF 0
ENDMDL
