MODEL 1
REMARK minimizedAffinity -0.621583164
REMARK minimizedRMSD -1
REMARK  0 active torsions:
REMARK  status: ('A' for Active; 'I' for Inactive)
ROOT
ATOM      1  C1  BNZ d   1       0.711   0.763  -0.742  0.00  0.00     0.000 A 
ATOM      2  C2  BNZ d   1       1.407  -0.401  -0.930  0.00  0.00     0.000 A 
ATOM      3  C3  BNZ d   1       0.974  -1.573  -0.376  0.00  0.00     0.000 A 
ATOM      4  C4  BNZ d   1      -0.131  -1.572   0.398  0.00  0.00     0.000 A 
ATOM      5  C5  BNZ d   1      -0.838  -0.405   0.605  0.00  0.00     0.000 A 
ATOM      6  C6  BNZ d   1      -0.421   0.765   0.013  0.00  0.00     0.000 A 
ENDROOT
TORSDOF 0
ENDMDL
