MODEL 1
REMARK minimizedAffinity -4.93889523
REMARK minimizedRMSD -1
REMARK  0 active torsions:
REMARK  status: ('A' for Active; 'I' for Inactive)
ROOT
ATOM      1  C1  BNZ d   1       1.118   0.892  -0.750  0.00  0.00     0.000 A 
ATOM      2  C2  BNZ d   1      -0.104   0.731  -0.153  0.00  0.00     0.000 A 
ATOM      3  C3  BNZ d   1      -0.546  -0.509   0.214  0.00  0.00     0.000 A 
ATOM      4  C4  BNZ d   1       0.216  -1.590  -0.051  0.00  0.00     0.000 A 
ATOM      5  C5  BNZ d   1       1.447  -1.445  -0.660  0.00  0.00     0.000 A 
ATOM      6  C6  BNZ d   1       1.905  -0.191  -0.993  0.00  0.00     0.000 A 
ENDROOT
TORSDOF 0
ENDMDL
