MODEL 1
REMARK minimizedAffinity -4.50283194
REMARK minimizedRMSD -1
REMARK  0 active torsions:
REMARK  status: ('A' for Active; 'I' for Inactive)
ROOT
ATOM      1  C1  BNZ d   1       1.382   0.553  -0.935  0.00  0.00     0.000 A 
ATOM      2  C2  BNZ d   1       0.133   0.171  -0.525  0.00  0.00     0.000 A 
ATOM      3  C3  BNZ d   1      -0.101  -1.103  -0.087  0.00  0.00     0.000 A 
ATOM      4  C4  BNZ d   1       0.903  -2.003  -0.097  0.00  0.00     0.000 A 
ATOM      5  C5  BNZ d   1       2.166  -1.636  -0.517  0.00  0.00     0.000 A 
ATOM      6  C6  BNZ d   1       2.407  -0.342  -0.920  0.00  0.00     0.000 A 
ENDROOT
TORSDOF 0
ENDMDL
