MODEL 1
REMARK minimizedAffinity -4.0616169
REMARK minimizedRMSD -1
REMARK  0 active torsions:
REMARK  status: ('A' for Active; 'I' for Inactive)
ROOT
ATOM      1  C1  BNZ d   1       1.803   0.637  -0.071  0.00  0.00     0.000 A 
ATOM      2  C2  BNZ d   1       2.803   0.302  -0.944  0.00  0.00     0.000 A 
ATOM      3  C3  BNZ d   1       2.653  -0.740  -1.816  0.00  0.00     0.000 A 
ATOM      4  C4  BNZ d   1       1.519  -1.470  -1.786  0.00  0.00     0.000 A 
ATOM      5  C5  BNZ d   1       0.505  -1.151  -0.905  0.00  0.00     0.000 A 
ATOM      6  C6  BNZ d   1       0.645  -0.078  -0.056  0.00  0.00     0.000 A 
ENDROOT
TORSDOF 0
ENDMDL
