MODEL 1
REMARK minimizedAffinity -4.39140034
REMARK minimizedRMSD -1
REMARK  0 active torsions:
REMARK  status: ('A' for Active; 'I' for Inactive)
ROOT
ATOM      1  C1  BNZ d   1       1.319  -1.725  -0.449  0.00  0.00     0.000 A 
ATOM      2  C2  BNZ d   1       0.013  -1.351  -0.276  0.00  0.00     0.000 A 
ATOM      3  C3  BNZ d   1      -0.355  -0.037  -0.355  0.00  0.00     0.000 A 
ATOM      4  C4  BNZ d   1       0.588   0.904  -0.567  0.00  0.00     0.000 A 
ATOM      5  C5  BNZ d   1       1.910   0.543  -0.734  0.00  0.00     0.000 A 
ATOM      6  C6  BNZ d   1       2.271  -0.784  -0.693  0.00  0.00     0.000 A 
ENDROOT
TORSDOF 0
ENDMDL
