MODEL 1
REMARK minimizedAffinity -3.31401634
REMARK minimizedRMSD -1
REMARK  0 active torsions:
REMARK  status: ('A' for Active; 'I' for Inactive)
ROOT
ATOM      1  C1  BNZ d   1      -0.694  -1.085   0.277  0.00  0.00     0.000 A 
ATOM      2  C2  BNZ d   1       0.437  -1.852   0.367  0.00  0.00     0.000 A 
ATOM      3  C3  BNZ d   1       1.609  -1.440  -0.202  0.00  0.00     0.000 A 
ATOM      4  C4  BNZ d   1       1.639  -0.283  -0.894  0.00  0.00     0.000 A 
ATOM      5  C5  BNZ d   1       0.505   0.497  -1.002  0.00  0.00     0.000 A 
ATOM      6  C6  BNZ d   1      -0.663   0.098  -0.394  0.00  0.00     0.000 A 
ENDROOT
TORSDOF 0
ENDMDL
