MODEL 1
REMARK minimizedAffinity -3.66226125
REMARK minimizedRMSD -1
REMARK  0 active torsions:
REMARK  status: ('A' for Active; 'I' for Inactive)
ROOT
ATOM      1  C1  BNZ d   1       0.852  -1.195  -0.769  0.00  0.00     0.000 A 
ATOM      2  C2  BNZ d   1       1.881  -1.498  -1.621  0.00  0.00     0.000 A 
ATOM      3  C3  BNZ d   1       2.957  -0.663  -1.743  0.00  0.00     0.000 A 
ATOM      4  C4  BNZ d   1       2.983   0.491  -1.045  0.00  0.00     0.000 A 
ATOM      5  C5  BNZ d   1       1.949   0.814  -0.189  0.00  0.00     0.000 A 
ATOM      6  C6  BNZ d   1       0.886  -0.047  -0.040  0.00  0.00     0.000 A 
ENDROOT
TORSDOF 0
ENDMDL
