MODEL 1
REMARK minimizedAffinity -4.2204318
REMARK minimizedRMSD -1
REMARK  0 active torsions:
REMARK  status: ('A' for Active; 'I' for Inactive)
ROOT
ATOM      1  C1  BNZ d   1       2.231   0.488  -0.295  0.00  0.00     0.000 A 
ATOM      2  C2  BNZ d   1       1.042   1.128  -0.526  0.00  0.00     0.000 A 
ATOM      3  C3  BNZ d   1      -0.145   0.459  -0.417  0.00  0.00     0.000 A 
ATOM      4  C4  BNZ d   1      -0.141  -0.856  -0.117  0.00  0.00     0.000 A 
ATOM      5  C5  BNZ d   1       1.050  -1.517   0.110  0.00  0.00     0.000 A 
ATOM      6  C6  BNZ d   1       2.241  -0.831   0.038  0.00  0.00     0.000 A 
ENDROOT
TORSDOF 0
ENDMDL
