MODEL 1
REMARK minimizedAffinity -3.82089281
REMARK minimizedRMSD -1
REMARK  0 active torsions:
REMARK  status: ('A' for Active; 'I' for Inactive)
ROOT
ATOM      1  C1  BNZ d   1      -1.370   1.223   0.701  0.00  0.00     0.000 A 
ATOM      2  C2  BNZ d   1      -1.448   1.884   1.897  0.00  0.00     0.000 A 
ATOM      3  C3  BNZ d   1      -2.395   1.547   2.823  0.00  0.00     0.000 A 
ATOM      4  C4  BNZ d   1      -3.287   0.577   2.536  0.00  0.00     0.000 A 
ATOM      5  C5  BNZ d   1      -3.227  -0.093   1.330  0.00  0.00     0.000 A 
ATOM      6  C6  BNZ d   1      -2.248   0.223   0.416  0.00  0.00     0.000 A 
ENDROOT
TORSDOF 0
ENDMDL
