MODEL 1
REMARK minimizedAffinity 4.61648226
REMARK minimizedRMSD -1
REMARK  0 active torsions:
REMARK  status: ('A' for Active; 'I' for Inactive)
ROOT
ATOM      1  C   UNL d   1       2.603   3.350   2.406  0.00  0.00     0.077 C 
ATOM      2  C1  UNL d   1       2.689   4.227   3.619  0.00  0.00    -0.074 A 
ATOM      3  C2  UNL d   1       3.928   4.607   4.145  0.00  0.00    -0.005 A 
ATOM      4  C3  UNL d   1       3.993   5.432   5.268  0.00  0.00     0.006 A 
ATOM      5  C4  UNL d   1       2.821   5.884   5.876  0.00  0.00    -0.005 A 
ATOM      6  C5  UNL d   1       1.573   5.515   5.364  0.00  0.00    -0.074 A 
ATOM      7  C6  UNL d   1       0.304   6.000   6.000  0.00  0.00     0.077 C 
ATOM      8  C7  UNL d   1       1.516   4.692   4.231  0.00  0.00    -0.001 A 
ENDROOT
TORSDOF 0
ENDMDL
