MODEL 1
REMARK minimizedAffinity 5.8677249
REMARK minimizedRMSD -1
REMARK  0 active torsions:
REMARK  status: ('A' for Active; 'I' for Inactive)
ROOT
ATOM      1  C   UNL d   1      -2.664   0.965   3.034  0.00  0.00     0.077 C 
ATOM      2  C1  UNL d   1      -1.553  -0.024   2.838  0.00  0.00    -0.074 A 
ATOM      3  C2  UNL d   1      -1.771  -1.223   2.152  0.00  0.00    -0.005 A 
ATOM      4  C3  UNL d   1      -0.726  -2.128   1.969  0.00  0.00     0.006 A 
ATOM      5  C4  UNL d   1       0.546  -1.844   2.469  0.00  0.00    -0.005 A 
ATOM      6  C5  UNL d   1       0.782  -0.650   3.156  0.00  0.00    -0.074 A 
ATOM      7  C6  UNL d   1       2.145  -0.324   3.691  0.00  0.00     0.077 C 
ATOM      8  C7  UNL d   1      -0.271   0.258   3.330  0.00  0.00    -0.001 A 
ENDROOT
TORSDOF 0
ENDMDL
