MODEL 1
REMARK minimizedAffinity 7.90545464
REMARK minimizedRMSD -1
REMARK  0 active torsions:
REMARK  status: ('A' for Active; 'I' for Inactive)
ROOT
ATOM      1  C   UNL d   1       1.825   0.984  -3.247  0.00  0.00     0.077 C 
ATOM      2  C1  UNL d   1       1.982   0.732  -1.777  0.00  0.00    -0.074 A 
ATOM      3  C2  UNL d   1       1.881  -0.562  -1.255  0.00  0.00    -0.005 A 
ATOM      4  C3  UNL d   1       2.039  -0.782   0.113  0.00  0.00     0.006 A 
ATOM      5  C4  UNL d   1       2.299   0.287   0.972  0.00  0.00    -0.005 A 
ATOM      6  C5  UNL d   1       2.404   1.587   0.468  0.00  0.00    -0.074 A 
ATOM      7  C6  UNL d   1       2.692   2.746   1.375  0.00  0.00     0.077 C 
ATOM      8  C7  UNL d   1       2.251   1.800  -0.909  0.00  0.00    -0.001 A 
ENDROOT
TORSDOF 0
ENDMDL
