MODEL 1
REMARK minimizedAffinity 3.15800691
REMARK minimizedRMSD -1
REMARK  0 active torsions:
REMARK  status: ('A' for Active; 'I' for Inactive)
ROOT
ATOM      1  C   UNL d   1       3.031   2.796  -0.004  0.00  0.00     0.077 C 
ATOM      2  C1  UNL d   1       2.557   1.502  -0.595  0.00  0.00    -0.074 A 
ATOM      3  C2  UNL d   1       1.768   1.485  -1.750  0.00  0.00    -0.005 A 
ATOM      4  C3  UNL d   1       1.342   0.274  -2.294  0.00  0.00     0.006 A 
ATOM      5  C4  UNL d   1       1.701  -0.932  -1.689  0.00  0.00    -0.005 A 
ATOM      6  C5  UNL d   1       2.490  -0.935  -0.535  0.00  0.00    -0.074 A 
ATOM      7  C6  UNL d   1       2.892  -2.222   0.122  0.00  0.00     0.077 C 
ATOM      8  C7  UNL d   1       2.919   0.286   0.002  0.00  0.00    -0.001 A 
ENDROOT
TORSDOF 0
ENDMDL
