MODEL 1
REMARK minimizedAffinity 0.92359823
REMARK minimizedRMSD -1
REMARK  0 active torsions:
REMARK  status: ('A' for Active; 'I' for Inactive)
ROOT
ATOM      1  C   UNL d   1      -4.443   5.999  -5.122  0.00  0.00     0.077 C 
ATOM      2  C1  UNL d   1      -3.873   4.612  -5.130  0.00  0.00    -0.074 A 
ATOM      3  C2  UNL d   1      -4.372   3.635  -5.998  0.00  0.00    -0.005 A 
ATOM      4  C3  UNL d   1      -3.826   2.352  -6.000  0.00  0.00     0.006 A 
ATOM      5  C4  UNL d   1      -2.777   2.032  -5.136  0.00  0.00    -0.005 A 
ATOM      6  C5  UNL d   1      -2.265   2.996  -4.262  0.00  0.00    -0.074 A 
ATOM      7  C6  UNL d   1      -1.132   2.673  -3.334  0.00  0.00     0.077 C 
ATOM      8  C7  UNL d   1      -2.815   4.286  -4.270  0.00  0.00    -0.001 A 
ENDROOT
TORSDOF 0
ENDMDL
