MODEL 1
REMARK minimizedAffinity 8.36539173
REMARK minimizedRMSD -1
REMARK  0 active torsions:
REMARK  status: ('A' for Active; 'I' for Inactive)
ROOT
ATOM      1  C   UNL d   1       4.863  -6.000   4.836  0.00  0.00     0.077 C 
ATOM      2  C1  UNL d   1       4.354  -4.589   4.855  0.00  0.00    -0.074 A 
ATOM      3  C2  UNL d   1       4.478  -3.796   6.000  0.00  0.00    -0.005 A 
ATOM      4  C3  UNL d   1       4.008  -2.482   6.000  0.00  0.00     0.006 A 
ATOM      5  C4  UNL d   1       3.411  -1.950   4.856  0.00  0.00    -0.005 A 
ATOM      6  C5  UNL d   1       3.280  -2.728   3.701  0.00  0.00    -0.074 A 
ATOM      7  C6  UNL d   1       2.650  -2.168   2.461  0.00  0.00     0.077 C 
ATOM      8  C7  UNL d   1       3.760  -4.045   3.708  0.00  0.00    -0.001 A 
ENDROOT
TORSDOF 0
ENDMDL
