MODEL 1
REMARK minimizedAffinity 7.56133652
REMARK minimizedRMSD -1
REMARK  0 active torsions:
REMARK  status: ('A' for Active; 'I' for Inactive)
ROOT
ATOM      1  C   UNL d   1      -0.735   1.663  -2.572  0.00  0.00     0.077 C 
ATOM      2  C1  UNL d   1       0.500   1.420  -1.757  0.00  0.00    -0.074 A 
ATOM      3  C2  UNL d   1       1.312   2.482  -1.346  0.00  0.00    -0.005 A 
ATOM      4  C3  UNL d   1       2.452   2.242  -0.580  0.00  0.00     0.006 A 
ATOM      5  C4  UNL d   1       2.792   0.938  -0.217  0.00  0.00    -0.005 A 
ATOM      6  C5  UNL d   1       1.992  -0.137  -0.617  0.00  0.00    -0.074 A 
ATOM      7  C6  UNL d   1       2.338  -1.544  -0.227  0.00  0.00     0.077 C 
ATOM      8  C7  UNL d   1       0.844   0.113  -1.381  0.00  0.00    -0.001 A 
ENDROOT
TORSDOF 0
ENDMDL
