MODEL 1
REMARK minimizedAffinity 2.14832926
REMARK minimizedRMSD -1
REMARK  0 active torsions:
REMARK  status: ('A' for Active; 'I' for Inactive)
ROOT
ATOM      1  C   UNL d   1       2.364   2.824  -0.293  0.00  0.00     0.077 C 
ATOM      2  C1  UNL d   1       2.182   1.400  -0.727  0.00  0.00    -0.074 A 
ATOM      3  C2  UNL d   1       2.232   1.049  -2.080  0.00  0.00    -0.005 A 
ATOM      4  C3  UNL d   1       2.070  -0.281  -2.468  0.00  0.00     0.006 A 
ATOM      5  C4  UNL d   1       1.856  -1.272  -1.509  0.00  0.00    -0.005 A 
ATOM      6  C5  UNL d   1       1.804  -0.940  -0.151  0.00  0.00    -0.074 A 
ATOM      7  C6  UNL d   1       1.585  -1.994   0.893  0.00  0.00     0.077 C 
ATOM      8  C7  UNL d   1       1.975   0.398   0.231  0.00  0.00    -0.001 A 
ENDROOT
TORSDOF 0
ENDMDL
