MODEL 1
REMARK minimizedAffinity 10.4790821
REMARK minimizedRMSD -1
REMARK  0 active torsions:
REMARK  status: ('A' for Active; 'I' for Inactive)
ROOT
ATOM      1  C   UNL d   1      -2.532  -1.797  -0.031  0.00  0.00     0.077 C 
ATOM      2  C1  UNL d   1      -1.639  -2.004   1.156  0.00  0.00    -0.074 A 
ATOM      3  C2  UNL d   1      -1.695  -3.188   1.899  0.00  0.00    -0.005 A 
ATOM      4  C3  UNL d   1      -0.851  -3.371   2.995  0.00  0.00     0.006 A 
ATOM      5  C4  UNL d   1       0.055  -2.374   3.358  0.00  0.00    -0.005 A 
ATOM      6  C5  UNL d   1       0.125  -1.184   2.627  0.00  0.00    -0.074 A 
ATOM      7  C6  UNL d   1       1.100  -0.106   2.998  0.00  0.00     0.077 C 
ATOM      8  C7  UNL d   1      -0.721  -1.010   1.523  0.00  0.00    -0.001 A 
ENDROOT
TORSDOF 0
ENDMDL
