MODEL 1
REMARK minimizedAffinity 4.07736492
REMARK minimizedRMSD -1
REMARK  0 active torsions:
REMARK  status: ('A' for Active; 'I' for Inactive)
ROOT
ATOM      1  C   UNL d   1       1.391  -1.157   2.386  0.00  0.00     0.077 C 
ATOM      2  C1  UNL d   1      -0.034  -0.730   2.191  0.00  0.00    -0.074 A 
ATOM      3  C2  UNL d   1      -0.569   0.339   2.916  0.00  0.00    -0.005 A 
ATOM      4  C3  UNL d   1      -1.893   0.730   2.717  0.00  0.00     0.006 A 
ATOM      5  C4  UNL d   1      -2.694   0.058   1.793  0.00  0.00    -0.005 A 
ATOM      6  C5  UNL d   1      -2.175  -1.013   1.058  0.00  0.00    -0.074 A 
ATOM      7  C6  UNL d   1      -3.019  -1.740   0.054  0.00  0.00     0.077 C 
ATOM      8  C7  UNL d   1      -0.842  -1.396   1.259  0.00  0.00    -0.001 A 
ENDROOT
TORSDOF 0
ENDMDL
