MODEL 1
REMARK minimizedAffinity 4.18248463
REMARK minimizedRMSD -1
REMARK  0 active torsions:
REMARK  status: ('A' for Active; 'I' for Inactive)
ROOT
ATOM      1  C   UNL d   1       2.141  -1.134   2.292  0.00  0.00     0.077 C 
ATOM      2  C1  UNL d   1       1.359  -1.155   1.013  0.00  0.00    -0.074 A 
ATOM      3  C2  UNL d   1       0.005  -1.505   1.004  0.00  0.00    -0.005 A 
ATOM      4  C3  UNL d   1      -0.712  -1.511  -0.192  0.00  0.00     0.006 A 
ATOM      5  C4  UNL d   1      -0.084  -1.168  -1.390  0.00  0.00    -0.005 A 
ATOM      6  C5  UNL d   1       1.269  -0.815  -1.401  0.00  0.00    -0.074 A 
ATOM      7  C6  UNL d   1       1.958  -0.434  -2.678  0.00  0.00     0.077 C 
ATOM      8  C7  UNL d   1       1.981  -0.804  -0.193  0.00  0.00    -0.001 A 
ENDROOT
TORSDOF 0
ENDMDL
