MODEL 1
REMARK minimizedAffinity 3.82350612
REMARK minimizedRMSD -1
REMARK  0 active torsions:
REMARK  status: ('A' for Active; 'I' for Inactive)
ROOT
ATOM      1  C   UNL d   1      -1.831   0.796   2.508  0.00  0.00     0.077 C 
ATOM      2  C1  UNL d   1      -0.717  -0.163   2.210  0.00  0.00    -0.074 A 
ATOM      3  C2  UNL d   1      -0.280  -1.079   3.173  0.00  0.00    -0.005 A 
ATOM      4  C3  UNL d   1       0.750  -1.971   2.878  0.00  0.00     0.006 A 
ATOM      5  C4  UNL d   1       1.353  -1.958   1.619  0.00  0.00    -0.005 A 
ATOM      6  C5  UNL d   1       0.929  -1.050   0.644  0.00  0.00    -0.074 A 
ATOM      7  C6  UNL d   1       1.559  -1.029  -0.717  0.00  0.00     0.077 C 
ATOM      8  C7  UNL d   1      -0.112  -0.161   0.945  0.00  0.00    -0.001 A 
ENDROOT
TORSDOF 0
ENDMDL
