MODEL 1
REMARK minimizedAffinity 3.21838617
REMARK minimizedRMSD -1
REMARK  0 active torsions:
REMARK  status: ('A' for Active; 'I' for Inactive)
ROOT
ATOM      1  C   UNL d   1       1.896  -2.051   0.663  0.00  0.00     0.077 C 
ATOM      2  C1  UNL d   1       1.767  -0.860  -0.239  0.00  0.00    -0.074 A 
ATOM      3  C2  UNL d   1       1.174  -0.975  -1.501  0.00  0.00    -0.005 A 
ATOM      4  C3  UNL d   1       1.052   0.144  -2.325  0.00  0.00     0.006 A 
ATOM      5  C4  UNL d   1       1.521   1.387  -1.897  0.00  0.00    -0.005 A 
ATOM      6  C5  UNL d   1       2.115   1.521  -0.638  0.00  0.00    -0.074 A 
ATOM      7  C6  UNL d   1       2.615   2.851  -0.158  0.00  0.00     0.077 C 
ATOM      8  C7  UNL d   1       2.228   0.394   0.187  0.00  0.00    -0.001 A 
ENDROOT
TORSDOF 0
ENDMDL
