MODEL 1
REMARK minimizedAffinity 2.42227149
REMARK minimizedRMSD -1
REMARK  0 active torsions:
REMARK  status: ('A' for Active; 'I' for Inactive)
ROOT
ATOM      1  C   UNL d   1       2.249   2.195  -0.980  0.00  0.00     0.077 C 
ATOM      2  C1  UNL d   1       2.242   0.732  -0.647  0.00  0.00    -0.074 A 
ATOM      3  C2  UNL d   1       2.253  -0.235  -1.657  0.00  0.00    -0.005 A 
ATOM      4  C3  UNL d   1       2.256  -1.591  -1.332  0.00  0.00     0.006 A 
ATOM      5  C4  UNL d   1       2.249  -1.994   0.004  0.00  0.00    -0.005 A 
ATOM      6  C5  UNL d   1       2.240  -1.041   1.028  0.00  0.00    -0.074 A 
ATOM      7  C6  UNL d   1       2.242  -1.456   2.469  0.00  0.00     0.077 C 
ATOM      8  C7  UNL d   1       2.244   0.320   0.693  0.00  0.00    -0.001 A 
ENDROOT
TORSDOF 0
ENDMDL
