MODEL 1
REMARK minimizedAffinity 1.6073966
REMARK minimizedRMSD -1
REMARK  0 active torsions:
REMARK  status: ('A' for Active; 'I' for Inactive)
ROOT
ATOM      1  O1  BZF d   1       2.805   3.865   2.133  0.00  0.00    -0.204 OA
ATOM      2  C2  BZF d   1       3.586   5.004   2.191  0.00  0.00     0.174 A 
ATOM      3  C3  BZF d   1       3.033   6.000   1.470  0.00  0.00    -0.012 A 
ATOM      4  C3A BZF d   1       1.785   5.479   1.003  0.00  0.00    -0.107 A 
ATOM      5  C4  BZF d   1       0.774   6.000   0.247  0.00  0.00     0.055 A 
ATOM      6  C5  BZF d   1      -0.274   5.204  -0.092  0.00  0.00    -0.016 A 
ATOM      7  C6  BZF d   1      -0.341   3.884   0.302  0.00  0.00     0.022 A 
ATOM      8  C7  BZF d   1       0.635   3.324   1.057  0.00  0.00     0.029 A 
ATOM      9  C7A BZF d   1       1.680   4.135   1.429  0.00  0.00     0.058 A 
ENDROOT
TORSDOF 0
ENDMDL
