MODEL 1
REMARK minimizedAffinity 15.5706024
REMARK minimizedRMSD -1
REMARK  0 active torsions:
REMARK  status: ('A' for Active; 'I' for Inactive)
ROOT
ATOM      1  O1  BZF d   1      -1.846  -4.534  -4.602  0.00  0.00    -0.204 OA
ATOM      2  C2  BZF d   1      -1.985  -5.339  -5.715  0.00  0.00     0.174 A 
ATOM      3  C3  BZF d   1      -0.838  -5.998  -5.976  0.00  0.00    -0.012 A 
ATOM      4  C3A BZF d   1       0.048  -5.649  -4.908  0.00  0.00    -0.107 A 
ATOM      5  C4  BZF d   1       1.331  -5.999  -4.600  0.00  0.00     0.055 A 
ATOM      6  C5  BZF d   1       1.933  -5.425  -3.525  0.00  0.00    -0.016 A 
ATOM      7  C6  BZF d   1       1.284  -4.493  -2.742  0.00  0.00     0.022 A 
ATOM      8  C7  BZF d   1       0.008  -4.118  -3.005  0.00  0.00     0.029 A 
ATOM      9  C7A BZF d   1      -0.614  -4.721  -4.070  0.00  0.00     0.058 A 
ENDROOT
TORSDOF 0
ENDMDL
