MODEL 1
REMARK minimizedAffinity 11.8847389
REMARK minimizedRMSD -1
REMARK  0 active torsions:
REMARK  status: ('A' for Active; 'I' for Inactive)
ROOT
ATOM      1  O1  BZF d   1       5.995  -1.900  -4.242  0.00  0.00    -0.204 OA
ATOM      2  C2  BZF d   1       5.968  -3.144  -4.842  0.00  0.00     0.174 A 
ATOM      3  C3  BZF d   1       5.886  -4.121  -3.915  0.00  0.00    -0.012 A 
ATOM      4  C3A BZF d   1       5.768  -3.441  -2.662  0.00  0.00    -0.107 A 
ATOM      5  C4  BZF d   1       5.636  -3.868  -1.371  0.00  0.00     0.055 A 
ATOM      6  C5  BZF d   1       5.619  -2.949  -0.370  0.00  0.00    -0.016 A 
ATOM      7  C6  BZF d   1       5.738  -1.598  -0.623  0.00  0.00     0.022 A 
ATOM      8  C7  BZF d   1       5.866  -1.126  -1.887  0.00  0.00     0.029 A 
ATOM      9  C7A BZF d   1       5.850  -2.050  -2.903  0.00  0.00     0.058 A 
ENDROOT
TORSDOF 0
ENDMDL
