MODEL 1
REMARK minimizedAffinity 13.2243309
REMARK minimizedRMSD -1
REMARK  0 active torsions:
REMARK  status: ('A' for Active; 'I' for Inactive)
ROOT
ATOM      1  O1  BZF d   1       5.707  -3.743  -3.363  0.00  0.00    -0.204 OA
ATOM      2  C2  BZF d   1       4.907  -4.868  -3.322  0.00  0.00     0.174 A 
ATOM      3  C3  BZF d   1       4.164  -4.886  -2.196  0.00  0.00    -0.012 A 
ATOM      4  C3A BZF d   1       4.455  -3.652  -1.533  0.00  0.00    -0.107 A 
ATOM      5  C4  BZF d   1       4.014  -3.083  -0.373  0.00  0.00     0.055 A 
ATOM      6  C5  BZF d   1       4.550  -1.900   0.028  0.00  0.00    -0.016 A 
ATOM      7  C6  BZF d   1       5.531  -1.263  -0.703  0.00  0.00     0.022 A 
ATOM      8  C7  BZF d   1       5.997  -1.786  -1.863  0.00  0.00     0.029 A 
ATOM      9  C7A BZF d   1       5.434  -2.965  -2.288  0.00  0.00     0.058 A 
ENDROOT
TORSDOF 0
ENDMDL
