MODEL 1
REMARK minimizedAffinity 19.0527363
REMARK minimizedRMSD -1
REMARK  0 active torsions:
REMARK  status: ('A' for Active; 'I' for Inactive)
ROOT
ATOM      1  O1  BZF d   1       1.073   4.358  -0.584  0.00  0.00    -0.204 OA
ATOM      2  C2  BZF d   1       0.156   5.247  -1.112  0.00  0.00     0.174 A 
ATOM      3  C3  BZF d   1      -1.026   5.151  -0.471  0.00  0.00    -0.012 A 
ATOM      4  C3A BZF d   1      -0.809   4.205   0.581  0.00  0.00    -0.107 A 
ATOM      5  C4  BZF d   1      -1.605   3.701   1.569  0.00  0.00     0.055 A 
ATOM      6  C5  BZF d   1      -1.109   2.737   2.389  0.00  0.00    -0.016 A 
ATOM      7  C6  BZF d   1       0.174   2.251   2.245  0.00  0.00     0.022 A 
ATOM      8  C7  BZF d   1       1.002   2.723   1.282  0.00  0.00     0.029 A 
ATOM      9  C7A BZF d   1       0.515   3.721   0.473  0.00  0.00     0.058 A 
ENDROOT
TORSDOF 0
ENDMDL
