MODEL 1
REMARK minimizedAffinity 20.6928291
REMARK minimizedRMSD -1
REMARK  0 active torsions:
REMARK  status: ('A' for Active; 'I' for Inactive)
ROOT
ATOM      1  O1  BZF d   1       2.141   1.732   4.201  0.00  0.00    -0.204 OA
ATOM      2  C2  BZF d   1       3.331   1.921   3.525  0.00  0.00     0.174 A 
ATOM      3  C3  BZF d   1       3.846   0.740   3.124  0.00  0.00    -0.012 A 
ATOM      4  C3A BZF d   1       2.872  -0.240   3.496  0.00  0.00    -0.107 A 
ATOM      5  C4  BZF d   1       2.803  -1.596   3.351  0.00  0.00     0.055 A 
ATOM      6  C5  BZF d   1       1.750  -2.265   3.891  0.00  0.00    -0.016 A 
ATOM      7  C6  BZF d   1       0.754  -1.612   4.585  0.00  0.00     0.022 A 
ATOM      8  C7  BZF d   1       0.777  -0.267   4.751  0.00  0.00     0.029 A 
ATOM      9  C7A BZF d   1       1.822   0.416   4.178  0.00  0.00     0.058 A 
ENDROOT
TORSDOF 0
ENDMDL
