MODEL 1
REMARK minimizedAffinity 17.7675343
REMARK minimizedRMSD -1
REMARK  0 active torsions:
REMARK  status: ('A' for Active; 'I' for Inactive)
ROOT
ATOM      1  O1  BZF d   1       3.782  -5.113  -3.892  0.00  0.00    -0.204 OA
ATOM      2  C2  BZF d   1       3.292  -5.990  -2.943  0.00  0.00     0.174 A 
ATOM      3  C3  BZF d   1       3.787  -5.699  -1.723  0.00  0.00    -0.012 A 
ATOM      4  C3A BZF d   1       4.566  -4.514  -1.905  0.00  0.00    -0.107 A 
ATOM      5  C4  BZF d   1       5.296  -3.730  -1.057  0.00  0.00     0.055 A 
ATOM      6  C5  BZF d   1       5.999  -2.684  -1.565  0.00  0.00    -0.016 A 
ATOM      7  C6  BZF d   1       6.000  -2.397  -2.915  0.00  0.00     0.022 A 
ATOM      8  C7  BZF d   1       5.287  -3.142  -3.794  0.00  0.00     0.029 A 
ATOM      9  C7A BZF d   1       4.549  -4.180  -3.279  0.00  0.00     0.058 A 
ENDROOT
TORSDOF 0
ENDMDL
