MODEL 1
REMARK minimizedAffinity 17.3400002
REMARK minimizedRMSD -1
REMARK  0 active torsions:
REMARK  status: ('A' for Active; 'I' for Inactive)
ROOT
ATOM      1  O1  BZF d   1      -2.123  -0.304   3.287  0.00  0.00    -0.204 OA
ATOM      2  C2  BZF d   1      -1.698   1.005   3.399  0.00  0.00     0.174 A 
ATOM      3  C3  BZF d   1      -2.723   1.814   3.736  0.00  0.00    -0.012 A 
ATOM      4  C3A BZF d   1      -3.841   0.943   3.932  0.00  0.00    -0.107 A 
ATOM      5  C4  BZF d   1      -5.141   1.151   4.294  0.00  0.00     0.055 A 
ATOM      6  C5  BZF d   1      -5.996   0.095   4.323  0.00  0.00    -0.016 A 
ATOM      7  C6  BZF d   1      -5.587  -1.180   3.990  0.00  0.00     0.022 A 
ATOM      8  C7  BZF d   1      -4.306  -1.436   3.629  0.00  0.00     0.029 A 
ATOM      9  C7A BZF d   1      -3.432  -0.377   3.631  0.00  0.00     0.058 A 
ENDROOT
TORSDOF 0
ENDMDL
