MODEL 1
REMARK minimizedAffinity -2.07405806
REMARK minimizedRMSD -1
REMARK  0 active torsions:
REMARK  status: ('A' for Active; 'I' for Inactive)
ROOT
ATOM      1  C   UNL d   1      -1.507   0.348   2.644  0.00  0.00     0.077 C 
ATOM      2  C1  UNL d   1      -0.893  -0.198   1.389  0.00  0.00    -0.074 A 
ATOM      3  C2  UNL d   1      -1.666  -0.404   0.241  0.00  0.00    -0.005 A 
ATOM      4  C3  UNL d   1      -1.079  -0.903  -0.921  0.00  0.00     0.006 A 
ATOM      5  C4  UNL d   1       0.284  -1.202  -0.947  0.00  0.00    -0.005 A 
ATOM      6  C5  UNL d   1       1.072  -1.003   0.190  0.00  0.00    -0.074 A 
ATOM      7  C6  UNL d   1       2.540  -1.309   0.176  0.00  0.00     0.077 C 
ATOM      8  C7  UNL d   1       0.477  -0.494   1.352  0.00  0.00    -0.001 A 
ENDROOT
TORSDOF 0
ENDMDL
