MODEL 1
REMARK minimizedAffinity 9.00589943
REMARK minimizedRMSD -1
REMARK  0 active torsions:
REMARK  status: ('A' for Active; 'I' for Inactive)
ROOT
ATOM      1  C   UNL d   1       0.042   0.049   1.187  0.00  0.00     0.077 C 
ATOM      2  C1  UNL d   1      -1.166   0.149   0.304  0.00  0.00    -0.074 A 
ATOM      3  C2  UNL d   1      -1.443   1.321  -0.406  0.00  0.00    -0.005 A 
ATOM      4  C3  UNL d   1      -2.565   1.396  -1.231  0.00  0.00     0.006 A 
ATOM      5  C4  UNL d   1      -3.421   0.301  -1.354  0.00  0.00    -0.005 A 
ATOM      6  C5  UNL d   1      -3.160  -0.881  -0.653  0.00  0.00    -0.074 A 
ATOM      7  C6  UNL d   1      -4.064  -2.071  -0.781  0.00  0.00     0.077 C 
ATOM      8  C7  UNL d   1      -2.026  -0.950   0.169  0.00  0.00    -0.001 A 
ENDROOT
TORSDOF 0
ENDMDL
