MODEL 1
REMARK minimizedAffinity 6.09135532
REMARK minimizedRMSD -1
REMARK  0 active torsions:
REMARK  status: ('A' for Active; 'I' for Inactive)
ROOT
ATOM      1  C   UNL d   1      -2.871   0.291   1.104  0.00  0.00     0.077 C 
ATOM      2  C1  UNL d   1      -1.503  -0.149   0.674  0.00  0.00    -0.074 A 
ATOM      3  C2  UNL d   1      -1.327  -0.939  -0.466  0.00  0.00    -0.005 A 
ATOM      4  C3  UNL d   1      -0.048  -1.332  -0.859  0.00  0.00     0.006 A 
ATOM      5  C4  UNL d   1       1.067  -0.941  -0.116  0.00  0.00    -0.005 A 
ATOM      6  C5  UNL d   1       0.910  -0.151   1.028  0.00  0.00    -0.074 A 
ATOM      7  C6  UNL d   1       2.098   0.287   1.832  0.00  0.00     0.077 C 
ATOM      8  C7  UNL d   1      -0.378   0.247   1.411  0.00  0.00    -0.001 A 
ENDROOT
TORSDOF 0
ENDMDL
