MODEL 1
REMARK minimizedAffinity 7.79625607
REMARK minimizedRMSD -1
REMARK  0 active torsions:
REMARK  status: ('A' for Active; 'I' for Inactive)
ROOT
ATOM      1  C   UNL d   1       1.903   0.846   3.799  0.00  0.00     0.077 C 
ATOM      2  C1  UNL d   1       1.409   0.488   2.429  0.00  0.00    -0.074 A 
ATOM      3  C2  UNL d   1       0.053   0.237   2.197  0.00  0.00    -0.005 A 
ATOM      4  C3  UNL d   1      -0.393  -0.086   0.915  0.00  0.00     0.006 A 
ATOM      5  C4  UNL d   1       0.511  -0.161  -0.145  0.00  0.00    -0.005 A 
ATOM      6  C5  UNL d   1       1.870   0.088   0.068  0.00  0.00    -0.074 A 
ATOM      7  C6  UNL d   1       2.854   0.021  -1.063  0.00  0.00     0.077 C 
ATOM      8  C7  UNL d   1       2.310   0.418   1.357  0.00  0.00    -0.001 A 
ENDROOT
TORSDOF 0
ENDMDL
