MODEL 1
REMARK minimizedAffinity 4.26998854
REMARK minimizedRMSD -1
REMARK  0 active torsions:
REMARK  status: ('A' for Active; 'I' for Inactive)
ROOT
ATOM      1  C   UNL d   1      -1.044  -2.347  -6.000  0.00  0.00     0.077 C 
ATOM      2  C1  UNL d   1      -0.412  -1.268  -5.171  0.00  0.00    -0.074 A 
ATOM      3  C2  UNL d   1       0.777  -0.654  -5.576  0.00  0.00    -0.005 A 
ATOM      4  C3  UNL d   1       1.347   0.355  -4.799  0.00  0.00     0.006 A 
ATOM      5  C4  UNL d   1       0.735   0.759  -3.612  0.00  0.00    -0.005 A 
ATOM      6  C5  UNL d   1      -0.455   0.156  -3.191  0.00  0.00    -0.074 A 
ATOM      7  C6  UNL d   1      -1.131   0.585  -1.923  0.00  0.00     0.077 C 
ATOM      8  C7  UNL d   1      -1.025  -0.852  -3.981  0.00  0.00    -0.001 A 
ENDROOT
TORSDOF 0
ENDMDL
