MODEL 1
REMARK minimizedAffinity 6.40882921
REMARK minimizedRMSD -1
REMARK  0 active torsions:
REMARK  status: ('A' for Active; 'I' for Inactive)
ROOT
ATOM      1  C   UNL d   1      -3.274  -1.083  -0.489  0.00  0.00     0.077 C 
ATOM      2  C1  UNL d   1      -1.858  -0.753  -0.121  0.00  0.00    -0.074 A 
ATOM      3  C2  UNL d   1      -0.791  -1.503  -0.625  0.00  0.00    -0.005 A 
ATOM      4  C3  UNL d   1       0.522  -1.178  -0.282  0.00  0.00     0.006 A 
ATOM      5  C4  UNL d   1       0.780  -0.101   0.567  0.00  0.00    -0.005 A 
ATOM      6  C5  UNL d   1      -0.275   0.662   1.080  0.00  0.00    -0.074 A 
ATOM      7  C6  UNL d   1      -0.014   1.829   1.985  0.00  0.00     0.077 C 
ATOM      8  C7  UNL d   1      -1.590   0.333   0.724  0.00  0.00    -0.001 A 
ENDROOT
TORSDOF 0
ENDMDL
