MODEL 1
REMARK minimizedAffinity 3.62140131
REMARK minimizedRMSD -1
REMARK  0 active torsions:
REMARK  status: ('A' for Active; 'I' for Inactive)
ROOT
ATOM      1  C   UNL d   1      -0.493   5.961   0.830  0.00  0.00     0.077 C 
ATOM      2  C1  UNL d   1       1.005   5.981   0.896  0.00  0.00    -0.074 A 
ATOM      3  C2  UNL d   1       1.670   5.982   2.127  0.00  0.00    -0.005 A 
ATOM      4  C3  UNL d   1       3.064   5.991   2.173  0.00  0.00     0.006 A 
ATOM      5  C4  UNL d   1       3.806   5.999   0.991  0.00  0.00    -0.005 A 
ATOM      6  C5  UNL d   1       3.158   5.997  -0.248  0.00  0.00    -0.074 A 
ATOM      7  C6  UNL d   1       3.941   5.995  -1.528  0.00  0.00     0.077 C 
ATOM      8  C7  UNL d   1       1.757   5.980  -0.286  0.00  0.00    -0.001 A 
ENDROOT
TORSDOF 0
ENDMDL
