MODEL 1
REMARK minimizedAffinity 1.23055112
REMARK minimizedRMSD -1
REMARK  1 active torsions:
REMARK  status: ('A' for Active; 'I' for Inactive)
REMARK    1  A    between atoms: N_2  and  C1_3 
ROOT
ATOM      1  C1  UNL d   1       0.629   0.393  -0.188  0.00  0.00     0.143 A 
ATOM      2  C2  UNL d   1      -0.535   0.008  -0.861  0.00  0.00    -0.057 A 
ATOM      3  C3  UNL d   1      -0.730  -1.315  -1.276  0.00  0.00     0.033 A 
ATOM      4  C4  UNL d   1       0.252  -2.273  -1.051  0.00  0.00    -0.042 A 
ATOM      5  C5  UNL d   1       1.429  -1.908  -0.407  0.00  0.00     0.033 A 
ATOM      6  C6  UNL d   1       1.615  -0.587   0.012  0.00  0.00    -0.057 A 
ENDROOT
BRANCH   1   7
ATOM      7  N   UNL d   1       0.925   1.712   0.163  0.00  0.00    -0.732 N 
ATOM      8  C   UNL d   1       0.351   2.305   1.352  0.00  0.00     0.284 C 
ATOM      9  H3  UNL d   1       1.904   1.944   0.014  0.00  0.00     0.395 HD
ENDBRANCH   1   7
TORSDOF 1
ENDMDL
