MODEL 1
REMARK minimizedAffinity 5.01361656
REMARK minimizedRMSD -1
REMARK  1 active torsions:
REMARK  status: ('A' for Active; 'I' for Inactive)
REMARK    1  A    between atoms: N_2  and  C1_3 
ROOT
ATOM      1  C1  UNL d   1       0.340  -0.088  -0.191  0.00  0.00     0.143 A 
ATOM      2  C2  UNL d   1       1.309  -1.076   0.016  0.00  0.00    -0.057 A 
ATOM      3  C3  UNL d   1       1.017  -2.431  -0.181  0.00  0.00     0.033 A 
ATOM      4  C4  UNL d   1      -0.262  -2.826  -0.561  0.00  0.00    -0.042 A 
ATOM      5  C5  UNL d   1      -1.247  -1.863  -0.749  0.00  0.00     0.033 A 
ATOM      6  C6  UNL d   1      -0.947  -0.510  -0.558  0.00  0.00    -0.057 A 
ENDROOT
BRANCH   1   7
ATOM      7  N   UNL d   1       0.541   1.267   0.083  0.00  0.00    -0.732 N 
ATOM      8  C   UNL d   1       1.498   1.683   1.085  0.00  0.00     0.284 C 
ATOM      9  H3  UNL d   1       0.548   1.837  -0.760  0.00  0.00     0.395 HD
ENDBRANCH   1   7
TORSDOF 1
ENDMDL
