MODEL 1
REMARK minimizedAffinity 4.57712603
REMARK minimizedRMSD -1
REMARK  1 active torsions:
REMARK  status: ('A' for Active; 'I' for Inactive)
REMARK    1  A    between atoms: N_2  and  C1_3 
ROOT
ATOM      1  C1  UNL d   1      -0.467  -1.879  -1.888  0.00  0.00     0.143 A 
ATOM      2  C2  UNL d   1       0.027  -2.969  -1.165  0.00  0.00    -0.057 A 
ATOM      3  C3  UNL d   1       0.312  -2.865   0.203  0.00  0.00     0.033 A 
ATOM      4  C4  UNL d   1       0.133  -1.655   0.866  0.00  0.00    -0.042 A 
ATOM      5  C5  UNL d   1      -0.333  -0.551   0.161  0.00  0.00     0.033 A 
ATOM      6  C6  UNL d   1      -0.622  -0.664  -1.203  0.00  0.00    -0.057 A 
ENDROOT
BRANCH   1   7
ATOM      7  N   UNL d   1      -0.675  -1.892  -3.270  0.00  0.00    -0.732 N 
ATOM      8  C   UNL d   1      -1.369  -2.994  -3.900  0.00  0.00     0.284 C 
ATOM      9  H3  UNL d   1      -0.932  -0.977  -3.632  0.00  0.00     0.395 HD
ENDBRANCH   1   7
TORSDOF 1
ENDMDL
