MODEL 1
REMARK minimizedAffinity -5.19401121
REMARK minimizedRMSD -1
REMARK  0 active torsions:
REMARK  status: ('A' for Active; 'I' for Inactive)
ROOT
ATOM      1  C   UNL d   1       1.453  -3.938  -0.349  0.00  0.00     0.078 C 
ATOM      2  C1  UNL d   1       0.901  -2.549  -0.466  0.00  0.00    -0.077 A 
ATOM      3  C2  UNL d   1       1.704  -1.488  -0.901  0.00  0.00    -0.001 A 
ATOM      4  C3  UNL d   1       1.180  -0.198  -0.996  0.00  0.00     0.003 A 
ATOM      5  C4  UNL d   1      -0.150   0.044  -0.656  0.00  0.00    -0.005 A 
ATOM      6  C5  UNL d   1      -0.956  -1.005  -0.220  0.00  0.00     0.003 A 
ATOM      7  C6  UNL d   1      -0.434  -2.296  -0.124  0.00  0.00    -0.001 A 
ENDROOT
TORSDOF 0
ENDMDL
