MODEL 1
REMARK minimizedAffinity -3.99930811
REMARK minimizedRMSD -1
REMARK  0 active torsions:
REMARK  status: ('A' for Active; 'I' for Inactive)
ROOT
ATOM      1  C   UNL d   1       1.533  -3.945   0.883  0.00  0.00     0.078 C 
ATOM      2  C1  UNL d   1       1.279  -2.651   0.169  0.00  0.00    -0.077 A 
ATOM      3  C2  UNL d   1       0.172  -1.856   0.490  0.00  0.00    -0.001 A 
ATOM      4  C3  UNL d   1      -0.058  -0.658  -0.189  0.00  0.00     0.003 A 
ATOM      5  C4  UNL d   1       0.814  -0.246  -1.195  0.00  0.00    -0.005 A 
ATOM      6  C5  UNL d   1       1.916  -1.032  -1.523  0.00  0.00     0.003 A 
ATOM      7  C6  UNL d   1       2.148  -2.229  -0.845  0.00  0.00    -0.001 A 
ENDROOT
TORSDOF 0
ENDMDL
