MODEL 1
REMARK minimizedAffinity 4.60451269
REMARK minimizedRMSD -1
REMARK  0 active torsions:
REMARK  status: ('A' for Active; 'I' for Inactive)
ROOT
ATOM      1  C   UNL d   1       2.219  -2.518  -0.497  0.00  0.00     0.078 C 
ATOM      2  C1  UNL d   1       1.331  -3.608   0.026  0.00  0.00    -0.077 A 
ATOM      3  C2  UNL d   1      -0.060  -3.451   0.059  0.00  0.00    -0.001 A 
ATOM      4  C3  UNL d   1      -0.873  -4.469   0.558  0.00  0.00     0.003 A 
ATOM      5  C4  UNL d   1      -0.305  -5.651   1.028  0.00  0.00    -0.005 A 
ATOM      6  C5  UNL d   1       1.078  -5.816   1.001  0.00  0.00     0.003 A 
ATOM      7  C6  UNL d   1       1.893  -4.798   0.503  0.00  0.00    -0.001 A 
ENDROOT
TORSDOF 0
ENDMDL
