MODEL 1
REMARK minimizedAffinity -5.96510601
REMARK minimizedRMSD -1
REMARK  0 active torsions:
REMARK  status: ('A' for Active; 'I' for Inactive)
ROOT
ATOM      1  C   UNL d   1       0.994  -5.491   0.893  0.00  0.00     0.078 C 
ATOM      2  C1  UNL d   1       0.859  -4.074   0.421  0.00  0.00    -0.077 A 
ATOM      3  C2  UNL d   1      -0.375  -3.413   0.470  0.00  0.00    -0.001 A 
ATOM      4  C3  UNL d   1      -0.489  -2.097   0.018  0.00  0.00     0.003 A 
ATOM      5  C4  UNL d   1       0.627  -1.432  -0.487  0.00  0.00    -0.005 A 
ATOM      6  C5  UNL d   1       1.857  -2.083  -0.542  0.00  0.00     0.003 A 
ATOM      7  C6  UNL d   1       1.973  -3.398  -0.091  0.00  0.00    -0.001 A 
ENDROOT
TORSDOF 0
ENDMDL
