MODEL 1
REMARK minimizedAffinity -6.55470419
REMARK minimizedRMSD -1
REMARK  0 active torsions:
REMARK  status: ('A' for Active; 'I' for Inactive)
ROOT
ATOM      1  C   UNL d   1       1.389  -4.839   0.254  0.00  0.00     0.078 C 
ATOM      2  C1  UNL d   1       1.155  -3.366   0.092  0.00  0.00    -0.077 A 
ATOM      3  C2  UNL d   1      -0.094  -2.874  -0.307  0.00  0.00    -0.001 A 
ATOM      4  C3  UNL d   1      -0.294  -1.502  -0.464  0.00  0.00     0.003 A 
ATOM      5  C4  UNL d   1       0.750  -0.610  -0.225  0.00  0.00    -0.005 A 
ATOM      6  C5  UNL d   1       1.997  -1.091   0.170  0.00  0.00     0.003 A 
ATOM      7  C6  UNL d   1       2.199  -2.463   0.328  0.00  0.00    -0.001 A 
ENDROOT
TORSDOF 0
ENDMDL
