MODEL 1
REMARK minimizedAffinity 1.24006569
REMARK minimizedRMSD -1
REMARK  0 active torsions:
REMARK  status: ('A' for Active; 'I' for Inactive)
ROOT
ATOM      1  C   UNL d   1       1.098  -4.397   1.017  0.00  0.00     0.078 C 
ATOM      2  C1  UNL d   1       0.914  -3.096   0.294  0.00  0.00    -0.077 A 
ATOM      3  C2  UNL d   1      -0.343  -2.483   0.221  0.00  0.00    -0.001 A 
ATOM      4  C3  UNL d   1      -0.502  -1.277  -0.464  0.00  0.00     0.003 A 
ATOM      5  C4  UNL d   1       0.592  -0.674  -1.082  0.00  0.00    -0.005 A 
ATOM      6  C5  UNL d   1       1.846  -1.278  -1.016  0.00  0.00     0.003 A 
ATOM      7  C6  UNL d   1       2.007  -2.484  -0.332  0.00  0.00    -0.001 A 
ENDROOT
TORSDOF 0
ENDMDL
