MODEL 1
REMARK minimizedAffinity -3.72470737
REMARK minimizedRMSD -1
REMARK  0 active torsions:
REMARK  status: ('A' for Active; 'I' for Inactive)
ROOT
ATOM      1  C   UNL d   1      -1.036  -4.162   0.783  0.00  0.00     0.078 C 
ATOM      2  C1  UNL d   1      -0.318  -3.071   0.047  0.00  0.00    -0.077 A 
ATOM      3  C2  UNL d   1       1.079  -3.068  -0.057  0.00  0.00    -0.001 A 
ATOM      4  C3  UNL d   1       1.734  -2.041  -0.737  0.00  0.00     0.003 A 
ATOM      5  C4  UNL d   1       1.002  -1.007  -1.317  0.00  0.00    -0.005 A 
ATOM      6  C5  UNL d   1      -0.388  -1.000  -1.217  0.00  0.00     0.003 A 
ATOM      7  C6  UNL d   1      -1.045  -2.027  -0.537  0.00  0.00    -0.001 A 
ENDROOT
TORSDOF 0
ENDMDL
