MODEL 1
REMARK minimizedAffinity 4.32969141
REMARK minimizedRMSD -1
REMARK  0 active torsions:
REMARK  status: ('A' for Active; 'I' for Inactive)
ROOT
ATOM      1  C   UNL d   1       2.516  -3.479  -0.045  0.00  0.00     0.078 C 
ATOM      2  C1  UNL d   1       1.715  -2.280  -0.457  0.00  0.00    -0.077 A 
ATOM      3  C2  UNL d   1       0.406  -2.417  -0.935  0.00  0.00    -0.001 A 
ATOM      4  C3  UNL d   1      -0.324  -1.293  -1.324  0.00  0.00     0.003 A 
ATOM      5  C4  UNL d   1       0.246  -0.025  -1.240  0.00  0.00    -0.005 A 
ATOM      6  C5  UNL d   1       1.548   0.121  -0.766  0.00  0.00     0.003 A 
ATOM      7  C6  UNL d   1       2.280  -1.001  -0.377  0.00  0.00    -0.001 A 
ENDROOT
TORSDOF 0
ENDMDL
