MODEL 1
REMARK minimizedAffinity -0.313376307
REMARK minimizedRMSD -1
REMARK  0 active torsions:
REMARK  status: ('A' for Active; 'I' for Inactive)
ROOT
ATOM      1  C   UNL d   1       1.609  -0.946  -1.867  0.00  0.00     0.078 C 
ATOM      2  C1  UNL d   1       1.165  -2.044  -0.947  0.00  0.00    -0.077 A 
ATOM      3  C2  UNL d   1      -0.185  -2.404  -0.852  0.00  0.00    -0.001 A 
ATOM      4  C3  UNL d   1      -0.586  -3.421   0.015  0.00  0.00     0.003 A 
ATOM      5  C4  UNL d   1       0.358  -4.087   0.795  0.00  0.00    -0.005 A 
ATOM      6  C5  UNL d   1       1.703  -3.735   0.709  0.00  0.00     0.003 A 
ATOM      7  C6  UNL d   1       2.105  -2.718  -0.158  0.00  0.00    -0.001 A 
ENDROOT
TORSDOF 0
ENDMDL
