MODEL 1
REMARK minimizedAffinity -3.06810784
REMARK minimizedRMSD -1
REMARK  0 active torsions:
REMARK  status: ('A' for Active; 'I' for Inactive)
ROOT
ATOM      1  C   UNL d   1       1.505  -4.660   0.398  0.00  0.00     0.078 C 
ATOM      2  C1  UNL d   1       1.169  -3.267  -0.042  0.00  0.00    -0.077 A 
ATOM      3  C2  UNL d   1      -0.162  -2.855  -0.180  0.00  0.00    -0.001 A 
ATOM      4  C3  UNL d   1      -0.459  -1.557  -0.600  0.00  0.00     0.003 A 
ATOM      5  C4  UNL d   1       0.569  -0.662  -0.887  0.00  0.00    -0.005 A 
ATOM      6  C5  UNL d   1       1.897  -1.063  -0.756  0.00  0.00     0.003 A 
ATOM      7  C6  UNL d   1       2.196  -2.360  -0.335  0.00  0.00    -0.001 A 
ENDROOT
TORSDOF 0
ENDMDL
