MODEL 1
REMARK minimizedAffinity -4.14159679
REMARK minimizedRMSD -1
REMARK  0 active torsions:
REMARK  status: ('A' for Active; 'I' for Inactive)
ROOT
ATOM      1  C   UNL d   1       0.456  -0.161  -1.536  0.00  0.00     0.078 C 
ATOM      2  C1  UNL d   1       0.630  -1.409  -0.723  0.00  0.00    -0.077 A 
ATOM      3  C2  UNL d   1       1.859  -2.079  -0.684  0.00  0.00    -0.001 A 
ATOM      4  C3  UNL d   1       2.004  -3.244   0.070  0.00  0.00     0.003 A 
ATOM      5  C4  UNL d   1       0.923  -3.751   0.789  0.00  0.00    -0.005 A 
ATOM      6  C5  UNL d   1      -0.304  -3.093   0.755  0.00  0.00     0.003 A 
ATOM      7  C6  UNL d   1      -0.451  -1.927   0.002  0.00  0.00    -0.001 A 
ENDROOT
TORSDOF 0
ENDMDL
