MODEL 1
REMARK minimizedAffinity -5.64631796
REMARK minimizedRMSD -1
REMARK  0 active torsions:
REMARK  status: ('A' for Active; 'I' for Inactive)
ROOT
ATOM      1  C   UNL d   1       0.315  -0.026  -0.588  0.00  0.00     0.078 C 
ATOM      2  C1  UNL d   1       0.375  -1.448  -0.115  0.00  0.00    -0.077 A 
ATOM      3  C2  UNL d   1       1.593  -2.137  -0.056  0.00  0.00    -0.001 A 
ATOM      4  C3  UNL d   1       1.633  -3.463   0.376  0.00  0.00     0.003 A 
ATOM      5  C4  UNL d   1       0.458  -4.113   0.751  0.00  0.00    -0.005 A 
ATOM      6  C5  UNL d   1      -0.758  -3.436   0.693  0.00  0.00     0.003 A 
ATOM      7  C6  UNL d   1      -0.800  -2.110   0.261  0.00  0.00    -0.001 A 
ENDROOT
TORSDOF 0
ENDMDL
