MODEL 1
REMARK minimizedAffinity -6.92345762
REMARK minimizedRMSD -1
REMARK  0 active torsions:
REMARK  status: ('A' for Active; 'I' for Inactive)
ROOT
ATOM      1  C   UNL d   1       1.150  -4.550   0.913  0.00  0.00     0.078 C 
ATOM      2  C1  UNL d   1       0.904  -3.180   0.354  0.00  0.00    -0.077 A 
ATOM      3  C2  UNL d   1       1.957  -2.410  -0.157  0.00  0.00    -0.001 A 
ATOM      4  C3  UNL d   1       1.715  -1.133  -0.665  0.00  0.00     0.003 A 
ATOM      5  C4  UNL d   1       0.422  -0.614  -0.667  0.00  0.00    -0.005 A 
ATOM      6  C5  UNL d   1      -0.631  -1.372  -0.160  0.00  0.00     0.003 A 
ATOM      7  C6  UNL d   1      -0.392  -2.649   0.349  0.00  0.00    -0.001 A 
ENDROOT
TORSDOF 0
ENDMDL
