MODEL 1
REMARK minimizedAffinity -4.81903934
REMARK minimizedRMSD -1
REMARK  0 active torsions:
REMARK  status: ('A' for Active; 'I' for Inactive)
ROOT
ATOM      1  C   UNL d   1       1.688  -5.079   1.125  0.00  0.00     0.078 C 
ATOM      2  C1  UNL d   1       1.463  -3.757   0.453  0.00  0.00    -0.077 A 
ATOM      3  C2  UNL d   1       2.541  -2.980   0.013  0.00  0.00    -0.001 A 
ATOM      4  C3  UNL d   1       2.318  -1.747  -0.602  0.00  0.00     0.003 A 
ATOM      5  C4  UNL d   1       1.017  -1.280  -0.781  0.00  0.00    -0.005 A 
ATOM      6  C5  UNL d   1      -0.062  -2.046  -0.345  0.00  0.00     0.003 A 
ATOM      7  C6  UNL d   1       0.160  -3.279   0.270  0.00  0.00    -0.001 A 
ENDROOT
TORSDOF 0
ENDMDL
