MODEL 1
REMARK minimizedAffinity -3.78083301
REMARK minimizedRMSD -1
REMARK  0 active torsions:
REMARK  status: ('A' for Active; 'I' for Inactive)
ROOT
ATOM      1  C   UNL d   1       0.683  -0.242  -0.802  0.00  0.00     0.078 C 
ATOM      2  C1  UNL d   1       0.652  -1.604  -0.176  0.00  0.00    -0.077 A 
ATOM      3  C2  UNL d   1       1.829  -2.340   0.009  0.00  0.00    -0.001 A 
ATOM      4  C3  UNL d   1       1.783  -3.611   0.585  0.00  0.00     0.003 A 
ATOM      5  C4  UNL d   1       0.564  -4.157   0.980  0.00  0.00    -0.005 A 
ATOM      6  C5  UNL d   1      -0.613  -3.432   0.798  0.00  0.00     0.003 A 
ATOM      7  C6  UNL d   1      -0.569  -2.162   0.223  0.00  0.00    -0.001 A 
ENDROOT
TORSDOF 0
ENDMDL
