MODEL 1
REMARK minimizedAffinity -4.59524822
REMARK minimizedRMSD -1
REMARK  0 active torsions:
REMARK  status: ('A' for Active; 'I' for Inactive)
ROOT
ATOM      1  C   UNL d   1      -1.143  -3.757   0.414  0.00  0.00     0.078 C 
ATOM      2  C1  UNL d   1      -0.172  -2.677   0.041  0.00  0.00    -0.077 A 
ATOM      3  C2  UNL d   1      -0.610  -1.375  -0.231  0.00  0.00    -0.001 A 
ATOM      4  C3  UNL d   1       0.304  -0.383  -0.588  0.00  0.00     0.003 A 
ATOM      5  C4  UNL d   1       1.662  -0.681  -0.676  0.00  0.00    -0.005 A 
ATOM      6  C5  UNL d   1       2.108  -1.975  -0.409  0.00  0.00     0.003 A 
ATOM      7  C6  UNL d   1       1.195  -2.969  -0.053  0.00  0.00    -0.001 A 
ENDROOT
TORSDOF 0
ENDMDL
