MODEL 1
REMARK minimizedAffinity -2.04756784
REMARK minimizedRMSD -1
REMARK  3 active torsions:
REMARK  status: ('A' for Active; 'I' for Inactive)
REMARK    1  A    between atoms: C3'_2  and  C2'_3 
REMARK    2  A    between atoms: C2'_3  and  C1'_4 
REMARK    3  A    between atoms: C1'_4  and  C1_5 
ROOT
ATOM      1  C1  N4B d   1       0.156  -0.157   0.188  0.00  0.00    -0.075 A 
ATOM      2  C2  N4B d   1      -0.046  -0.727   1.464  0.00  0.00     0.002 A 
ATOM      3  C3  N4B d   1      -0.577   0.032   2.479  0.00  0.00     0.002 A 
ATOM      4  C4  N4B d   1      -0.894   1.362   2.247  0.00  0.00    -0.004 A 
ATOM      5  C5  N4B d   1      -0.720   1.898   1.005  0.00  0.00     0.002 A 
ATOM      6  C6  N4B d   1      -0.192   1.146  -0.025  0.00  0.00     0.002 A 
ENDROOT
BRANCH   1   7
ATOM      7  C1' N4B d   1       0.812  -0.921  -0.928  0.00  0.00     0.057 C 
BRANCH   7   8
ATOM      8  C2' N4B d   1      -0.225  -1.815  -1.601  0.00  0.00     0.009 C 
BRANCH   8   9
ATOM      9  C3' N4B d   1       0.420  -2.873  -2.479  0.00  0.00     0.004 C 
ATOM     10  C4' N4B d   1      -0.016  -4.264  -2.128  0.00  0.00     0.003 C 
ENDBRANCH   8   9
ENDBRANCH   7   8
ENDBRANCH   1   7
TORSDOF 3
ENDMDL
