MODEL 1
REMARK minimizedAffinity -4.30503511
REMARK minimizedRMSD -1
REMARK  3 active torsions:
REMARK  status: ('A' for Active; 'I' for Inactive)
REMARK    1  A    between atoms: C3'_2  and  C2'_3 
REMARK    2  A    between atoms: C2'_3  and  C1'_4 
REMARK    3  A    between atoms: C1'_4  and  C1_5 
ROOT
ATOM      1  C1  N4B d   1       0.443  -1.245  -0.785  0.00  0.00    -0.075 A 
ATOM      2  C2  N4B d   1       1.638  -1.959  -0.546  0.00  0.00     0.002 A 
ATOM      3  C3  N4B d   1       1.955  -3.047  -1.322  0.00  0.00     0.002 A 
ATOM      4  C4  N4B d   1       1.087  -3.449  -2.326  0.00  0.00    -0.004 A 
ATOM      5  C5  N4B d   1      -0.053  -2.740  -2.567  0.00  0.00     0.002 A 
ATOM      6  C6  N4B d   1      -0.382  -1.642  -1.798  0.00  0.00     0.002 A 
ENDROOT
BRANCH   1   7
ATOM      7  C1' N4B d   1       0.011  -0.102   0.092  0.00  0.00     0.057 C 
BRANCH   7   8
ATOM      8  C2' N4B d   1       0.070  -0.541   1.552  0.00  0.00     0.009 C 
BRANCH   8   9
ATOM      9  C3' N4B d   1      -1.069   0.046   2.368  0.00  0.00     0.004 C 
ATOM     10  C4' N4B d   1      -1.152   1.539   2.260  0.00  0.00     0.003 C 
ENDBRANCH   8   9
ENDBRANCH   7   8
ENDBRANCH   1   7
TORSDOF 3
ENDMDL
