MODEL 1
REMARK minimizedAffinity -4.84563828
REMARK minimizedRMSD -1
REMARK  3 active torsions:
REMARK  status: ('A' for Active; 'I' for Inactive)
REMARK    1  A    between atoms: C3'_2  and  C2'_3 
REMARK    2  A    between atoms: C2'_3  and  C1'_4 
REMARK    3  A    between atoms: C1'_4  and  C1_5 
ROOT
ATOM      1  C1  N4B d   1       0.012  -0.091  -0.003  0.00  0.00    -0.075 A 
ATOM      2  C2  N4B d   1      -0.175   1.274  -0.312  0.00  0.00     0.002 A 
ATOM      3  C3  N4B d   1      -0.767   2.110   0.603  0.00  0.00     0.002 A 
ATOM      4  C4  N4B d   1      -1.195   1.602   1.821  0.00  0.00    -0.004 A 
ATOM      5  C5  N4B d   1      -0.987   0.288   2.122  0.00  0.00     0.002 A 
ATOM      6  C6  N4B d   1      -0.390  -0.563   1.213  0.00  0.00     0.002 A 
ENDROOT
BRANCH   1   7
ATOM      7  C1' N4B d   1       0.576  -1.062  -1.004  0.00  0.00     0.057 C 
BRANCH   7   8
ATOM      8  C2' N4B d   1      -0.572  -1.769  -1.717  0.00  0.00     0.009 C 
BRANCH   8   9
ATOM      9  C3' N4B d   1      -0.078  -2.663  -2.841  0.00  0.00     0.004 C 
ATOM     10  C4' N4B d   1       0.781  -3.791  -2.352  0.00  0.00     0.003 C 
ENDBRANCH   8   9
ENDBRANCH   7   8
ENDBRANCH   1   7
TORSDOF 3
ENDMDL
