MODEL 1
REMARK minimizedAffinity -3.51748657
REMARK minimizedRMSD -1
REMARK  3 active torsions:
REMARK  status: ('A' for Active; 'I' for Inactive)
REMARK    1  A    between atoms: C3'_2  and  C2'_3 
REMARK    2  A    between atoms: C2'_3  and  C1'_4 
REMARK    3  A    between atoms: C1'_4  and  C1_5 
ROOT
ATOM      1  C1  N4B d   1       0.056  -0.149  -0.379  0.00  0.00    -0.075 A 
ATOM      2  C2  N4B d   1      -0.534  -0.834   0.706  0.00  0.00     0.002 A 
ATOM      3  C3  N4B d   1      -1.082  -0.126   1.748  0.00  0.00     0.002 A 
ATOM      4  C4  N4B d   1      -1.037   1.260   1.735  0.00  0.00    -0.004 A 
ATOM      5  C5  N4B d   1      -0.488   1.914   0.671  0.00  0.00     0.002 A 
ATOM      6  C6  N4B d   1       0.064   1.216  -0.384  0.00  0.00     0.002 A 
ENDROOT
BRANCH   1   7
ATOM      7  C1' N4B d   1       0.745  -0.879  -1.499  0.00  0.00     0.057 C 
BRANCH   7   8
ATOM      8  C2' N4B d   1       0.318  -2.344  -1.479  0.00  0.00     0.009 C 
BRANCH   8   9
ATOM      9  C3' N4B d   1       1.512  -3.283  -1.494  0.00  0.00     0.004 C 
ATOM     10  C4' N4B d   1       1.552  -4.190  -0.300  0.00  0.00     0.003 C 
ENDBRANCH   8   9
ENDBRANCH   7   8
ENDBRANCH   1   7
TORSDOF 3
ENDMDL
