MODEL 1
REMARK minimizedAffinity -4.46432877
REMARK minimizedRMSD -1
REMARK  3 active torsions:
REMARK  status: ('A' for Active; 'I' for Inactive)
REMARK    1  A    between atoms: C3'_2  and  C2'_3 
REMARK    2  A    between atoms: C2'_3  and  C1'_4 
REMARK    3  A    between atoms: C1'_4  and  C1_5 
ROOT
ATOM      1  C1  N4B d   1       0.583  -1.450  -1.204  0.00  0.00    -0.075 A 
ATOM      2  C2  N4B d   1       1.373  -2.615  -1.309  0.00  0.00     0.002 A 
ATOM      3  C3  N4B d   1       0.863  -3.739  -1.911  0.00  0.00     0.002 A 
ATOM      4  C4  N4B d   1      -0.436  -3.726  -2.397  0.00  0.00    -0.004 A 
ATOM      5  C5  N4B d   1      -1.184  -2.588  -2.314  0.00  0.00     0.002 A 
ATOM      6  C6  N4B d   1      -0.682  -1.451  -1.715  0.00  0.00     0.002 A 
ENDROOT
BRANCH   1   7
ATOM      7  C1' N4B d   1       1.067  -0.225  -0.477  0.00  0.00     0.057 C 
BRANCH   7   8
ATOM      8  C2' N4B d   1      -0.133   0.630  -0.080  0.00  0.00     0.009 C 
BRANCH   8   9
ATOM      9  C3' N4B d   1      -0.495   0.455   1.385  0.00  0.00     0.004 C 
ATOM     10  C4' N4B d   1      -0.905   1.741   2.039  0.00  0.00     0.003 C 
ENDBRANCH   8   9
ENDBRANCH   7   8
ENDBRANCH   1   7
TORSDOF 3
ENDMDL
