MODEL 1
REMARK minimizedAffinity -3.59504819
REMARK minimizedRMSD -1
REMARK  3 active torsions:
REMARK  status: ('A' for Active; 'I' for Inactive)
REMARK    1  A    between atoms: C3'_2  and  C2'_3 
REMARK    2  A    between atoms: C2'_3  and  C1'_4 
REMARK    3  A    between atoms: C1'_4  and  C1_5 
ROOT
ATOM      1  C1  N4B d   1      -0.237   0.713   0.637  0.00  0.00    -0.075 A 
ATOM      2  C2  N4B d   1       0.010   2.096   0.496  0.00  0.00     0.002 A 
ATOM      3  C3  N4B d   1      -0.763   3.004   1.177  0.00  0.00     0.002 A 
ATOM      4  C4  N4B d   1      -1.796   2.556   1.986  0.00  0.00    -0.004 A 
ATOM      5  C5  N4B d   1      -2.012   1.217   2.137  0.00  0.00     0.002 A 
ATOM      6  C6  N4B d   1      -1.240   0.293   1.462  0.00  0.00     0.002 A 
ENDROOT
BRANCH   1   7
ATOM      7  C1' N4B d   1       0.526  -0.315  -0.154  0.00  0.00     0.057 C 
BRANCH   7   8
ATOM      8  C2' N4B d   1      -0.433  -1.033  -1.099  0.00  0.00     0.009 C 
BRANCH   8   9
ATOM      9  C3' N4B d   1       0.165  -2.317  -1.648  0.00  0.00     0.004 C 
ATOM     10  C4' N4B d   1       0.197  -2.348  -3.147  0.00  0.00     0.003 C 
ENDBRANCH   8   9
ENDBRANCH   7   8
ENDBRANCH   1   7
TORSDOF 3
ENDMDL
