MODEL 1
REMARK minimizedAffinity -5.01398611
REMARK minimizedRMSD -1
REMARK  3 active torsions:
REMARK  status: ('A' for Active; 'I' for Inactive)
REMARK    1  A    between atoms: C3'_2  and  C2'_3 
REMARK    2  A    between atoms: C2'_3  and  C1'_4 
REMARK    3  A    between atoms: C1'_4  and  C1_5 
ROOT
ATOM      1  C1  N4B d   1       0.238   0.101   0.194  0.00  0.00    -0.075 A 
ATOM      2  C2  N4B d   1      -0.555  -0.371   1.263  0.00  0.00     0.002 A 
ATOM      3  C3  N4B d   1      -1.262   0.516   2.037  0.00  0.00     0.002 A 
ATOM      4  C4  N4B d   1      -1.177   1.875   1.775  0.00  0.00    -0.004 A 
ATOM      5  C5  N4B d   1      -0.428   2.321   0.725  0.00  0.00     0.002 A 
ATOM      6  C6  N4B d   1       0.285   1.440  -0.064  0.00  0.00     0.002 A 
ENDROOT
BRANCH   1   7
ATOM      7  C1' N4B d   1       1.097  -0.823  -0.626  0.00  0.00     0.057 C 
BRANCH   7   8
ATOM      8  C2' N4B d   1       0.223  -1.541  -1.650  0.00  0.00     0.009 C 
BRANCH   8   9
ATOM      9  C3' N4B d   1       0.858  -2.833  -2.133  0.00  0.00     0.004 C 
ATOM     10  C4' N4B d   1      -0.142  -3.934  -2.328  0.00  0.00     0.003 C 
ENDBRANCH   8   9
ENDBRANCH   7   8
ENDBRANCH   1   7
TORSDOF 3
ENDMDL
