MODEL 1
REMARK minimizedAffinity -5.14504004
REMARK minimizedRMSD -1
REMARK  3 active torsions:
REMARK  status: ('A' for Active; 'I' for Inactive)
REMARK    1  A    between atoms: C3'_2  and  C2'_3 
REMARK    2  A    between atoms: C2'_3  and  C1'_4 
REMARK    3  A    between atoms: C1'_4  and  C1_5 
ROOT
ATOM      1  C1  N4B d   1       0.204   0.138   0.132  0.00  0.00    -0.075 A 
ATOM      2  C2  N4B d   1      -0.313  -0.584   1.230  0.00  0.00     0.002 A 
ATOM      3  C3  N4B d   1      -1.069   0.058   2.180  0.00  0.00     0.002 A 
ATOM      4  C4  N4B d   1      -1.305   1.419   2.064  0.00  0.00    -0.004 A 
ATOM      5  C5  N4B d   1      -0.824   2.105   0.987  0.00  0.00     0.002 A 
ATOM      6  C6  N4B d   1      -0.066   1.472   0.022  0.00  0.00     0.002 A 
ENDROOT
BRANCH   1   7
ATOM      7  C1' N4B d   1       1.107  -0.502  -0.886  0.00  0.00     0.057 C 
BRANCH   7   8
ATOM      8  C2' N4B d   1       0.289  -1.457  -1.751  0.00  0.00     0.009 C 
BRANCH   8   9
ATOM      9  C3' N4B d   1       1.047  -2.738  -2.055  0.00  0.00     0.004 C 
ATOM     10  C4' N4B d   1       0.316  -3.632  -3.012  0.00  0.00     0.003 C 
ENDBRANCH   8   9
ENDBRANCH   7   8
ENDBRANCH   1   7
TORSDOF 3
ENDMDL
