MODEL 1
REMARK minimizedAffinity -4.11049938
REMARK minimizedRMSD -1
REMARK  3 active torsions:
REMARK  status: ('A' for Active; 'I' for Inactive)
REMARK    1  A    between atoms: C3'_2  and  C2'_3 
REMARK    2  A    between atoms: C2'_3  and  C1'_4 
REMARK    3  A    between atoms: C1'_4  and  C1_5 
ROOT
ATOM      1  C1  N4B d   1       0.774  -0.772   0.074  0.00  0.00    -0.075 A 
ATOM      2  C2  N4B d   1       1.287  -0.253   1.283  0.00  0.00     0.002 A 
ATOM      3  C3  N4B d   1       0.430   0.113   2.291  0.00  0.00     0.002 A 
ATOM      4  C4  N4B d   1      -0.939  -0.012   2.107  0.00  0.00    -0.004 A 
ATOM      5  C5  N4B d   1      -1.426  -0.538   0.946  0.00  0.00     0.002 A 
ATOM      6  C6  N4B d   1      -0.576  -0.914  -0.074  0.00  0.00     0.002 A 
ENDROOT
BRANCH   1   7
ATOM      7  C1' N4B d   1       1.667  -1.106  -1.090  0.00  0.00     0.057 C 
BRANCH   7   8
ATOM      8  C2' N4B d   1       1.526  -2.589  -1.420  0.00  0.00     0.009 C 
BRANCH   8   9
ATOM      9  C3' N4B d   1       0.592  -2.823  -2.595  0.00  0.00     0.004 C 
ATOM     10  C4' N4B d   1      -0.436  -3.879  -2.318  0.00  0.00     0.003 C 
ENDBRANCH   8   9
ENDBRANCH   7   8
ENDBRANCH   1   7
TORSDOF 3
ENDMDL
