MODEL 1
REMARK minimizedAffinity -4.51539278
REMARK minimizedRMSD -1
REMARK  3 active torsions:
REMARK  status: ('A' for Active; 'I' for Inactive)
REMARK    1  A    between atoms: C3'_2  and  C2'_3 
REMARK    2  A    between atoms: C2'_3  and  C1'_4 
REMARK    3  A    between atoms: C1'_4  and  C1_5 
ROOT
ATOM      1  C1  N4B d   1      -0.155   0.327   0.360  0.00  0.00    -0.075 A 
ATOM      2  C2  N4B d   1       0.341   1.290  -0.546  0.00  0.00     0.002 A 
ATOM      3  C3  N4B d   1      -0.002   2.612  -0.400  0.00  0.00     0.002 A 
ATOM      4  C4  N4B d   1      -0.852   2.990   0.629  0.00  0.00    -0.004 A 
ATOM      5  C5  N4B d   1      -1.306   2.057   1.515  0.00  0.00     0.002 A 
ATOM      6  C6  N4B d   1      -0.966   0.726   1.383  0.00  0.00     0.002 A 
ENDROOT
BRANCH   1   7
ATOM      7  C1' N4B d   1       0.123  -1.141   0.189  0.00  0.00     0.057 C 
BRANCH   7   8
ATOM      8  C2' N4B d   1       1.173  -1.329  -0.902  0.00  0.00     0.009 C 
BRANCH   8   9
ATOM      9  C3' N4B d   1       1.135  -2.728  -1.492  0.00  0.00     0.004 C 
ATOM     10  C4' N4B d   1       0.657  -2.747  -2.913  0.00  0.00     0.003 C 
ENDBRANCH   8   9
ENDBRANCH   7   8
ENDBRANCH   1   7
TORSDOF 3
ENDMDL
