MODEL 1
REMARK minimizedAffinity -2.51177788
REMARK minimizedRMSD -1
REMARK  3 active torsions:
REMARK  status: ('A' for Active; 'I' for Inactive)
REMARK    1  A    between atoms: C3'_2  and  C2'_3 
REMARK    2  A    between atoms: C2'_3  and  C1'_4 
REMARK    3  A    between atoms: C1'_4  and  C1_5 
ROOT
ATOM      1  C1  N4B d   1       0.375   0.283   0.098  0.00  0.00    -0.075 A 
ATOM      2  C2  N4B d   1       0.010   1.641  -0.026  0.00  0.00     0.002 A 
ATOM      3  C3  N4B d   1      -0.586   2.291   1.027  0.00  0.00     0.002 A 
ATOM      4  C4  N4B d   1      -0.843   1.601   2.202  0.00  0.00    -0.004 A 
ATOM      5  C5  N4B d   1      -0.464   0.296   2.323  0.00  0.00     0.002 A 
ATOM      6  C6  N4B d   1       0.139  -0.369   1.274  0.00  0.00     0.002 A 
ENDROOT
BRANCH   1   7
ATOM      7  C1' N4B d   1       0.951  -0.494  -1.054  0.00  0.00     0.057 C 
BRANCH   7   8
ATOM      8  C2' N4B d   1      -0.060  -1.544  -1.506  0.00  0.00     0.009 C 
BRANCH   8   9
ATOM      9  C3' N4B d   1       0.601  -2.678  -2.270  0.00  0.00     0.004 C 
ATOM     10  C4' N4B d   1       0.143  -2.762  -3.696  0.00  0.00     0.003 C 
ENDBRANCH   8   9
ENDBRANCH   7   8
ENDBRANCH   1   7
TORSDOF 3
ENDMDL
