MODEL 1
REMARK minimizedAffinity -2.12030697
REMARK minimizedRMSD -1
REMARK  1 active torsions:
REMARK  status: ('A' for Active; 'I' for Inactive)
REMARK    1  A    between atoms: C1_2  and  C2_3 
ROOT
ATOM      1  C2  UNL d   1       0.679  -0.450  -2.162  0.00  0.00    -0.077 A 
ATOM      2  C3  UNL d   1       2.026  -0.072  -2.070  0.00  0.00     0.002 A 
ATOM      3  C4  UNL d   1       2.623   0.667  -3.094  0.00  0.00     0.002 A 
ATOM      4  C5  UNL d   1       1.881   1.036  -4.214  0.00  0.00    -0.004 A 
ATOM      5  C6  UNL d   1       0.541   0.663  -4.315  0.00  0.00     0.002 A 
ATOM      6  C7  UNL d   1      -0.057  -0.076  -3.293  0.00  0.00     0.002 A 
ENDROOT
BRANCH   1   7
ATOM      7  C1  UNL d   1       0.020  -1.204  -1.037  0.00  0.00     0.055 C 
ATOM      8  C   UNL d   1      -1.163  -0.431  -0.471  0.00  0.00     0.019 C 
ENDBRANCH   1   7
TORSDOF 1
ENDMDL
