MODEL 1
REMARK minimizedAffinity -5.17512798
REMARK minimizedRMSD -1
REMARK  1 active torsions:
REMARK  status: ('A' for Active; 'I' for Inactive)
REMARK    1  A    between atoms: C1_2  and  C2_3 
ROOT
ATOM      1  C2  UNL d   1       0.110   0.216  -0.316  0.00  0.00    -0.077 A 
ATOM      2  C3  UNL d   1       1.150   0.394   0.607  0.00  0.00     0.002 A 
ATOM      3  C4  UNL d   1       0.870   0.772   1.922  0.00  0.00     0.002 A 
ATOM      4  C5  UNL d   1      -0.448   0.971   2.326  0.00  0.00    -0.004 A 
ATOM      5  C6  UNL d   1      -1.489   0.799   1.414  0.00  0.00     0.002 A 
ATOM      6  C7  UNL d   1      -1.212   0.422   0.100  0.00  0.00     0.002 A 
ENDROOT
BRANCH   1   7
ATOM      7  C1  UNL d   1       0.406  -0.239  -1.721  0.00  0.00     0.055 C 
ATOM      8  C   UNL d   1       1.530   0.577  -2.342  0.00  0.00     0.019 C 
ENDBRANCH   1   7
TORSDOF 1
ENDMDL
