MODEL 1
REMARK minimizedAffinity -3.58972287
REMARK minimizedRMSD -1
REMARK  1 active torsions:
REMARK  status: ('A' for Active; 'I' for Inactive)
REMARK    1  A    between atoms: C1_2  and  C2_3 
ROOT
ATOM      1  C2  UNL d   1      -0.130   0.474   0.273  0.00  0.00    -0.077 A 
ATOM      2  C3  UNL d   1       0.513   1.408   1.096  0.00  0.00     0.002 A 
ATOM      3  C4  UNL d   1      -0.023   1.738   2.343  0.00  0.00     0.002 A 
ATOM      4  C5  UNL d   1      -1.201   1.135   2.778  0.00  0.00    -0.004 A 
ATOM      5  C6  UNL d   1      -1.849   0.206   1.965  0.00  0.00     0.002 A 
ATOM      6  C7  UNL d   1      -1.316  -0.124   0.719  0.00  0.00     0.002 A 
ENDROOT
BRANCH   1   7
ATOM      7  C1  UNL d   1       0.473   0.080  -1.050  0.00  0.00     0.055 C 
ATOM      8  C   UNL d   1       0.254  -1.398  -1.341  0.00  0.00     0.019 C 
ENDBRANCH   1   7
TORSDOF 1
ENDMDL
