MODEL 1
REMARK minimizedAffinity -3.89011598
REMARK minimizedRMSD -1
REMARK  1 active torsions:
REMARK  status: ('A' for Active; 'I' for Inactive)
REMARK    1  A    between atoms: C1_2  and  C2_3 
ROOT
ATOM      1  C2  UNL d   1       0.019   0.200   1.199  0.00  0.00    -0.077 A 
ATOM      2  C3  UNL d   1      -0.692   0.219  -0.009  0.00  0.00     0.002 A 
ATOM      3  C4  UNL d   1      -0.223  -0.489  -1.117  0.00  0.00     0.002 A 
ATOM      4  C5  UNL d   1       0.957  -1.225  -1.026  0.00  0.00    -0.004 A 
ATOM      5  C6  UNL d   1       1.673  -1.248   0.170  0.00  0.00     0.002 A 
ATOM      6  C7  UNL d   1       1.206  -0.540   1.278  0.00  0.00     0.002 A 
ENDROOT
BRANCH   1   7
ATOM      7  C1  UNL d   1      -0.511   0.923   2.409  0.00  0.00     0.055 C 
ATOM      8  C   UNL d   1      -1.644   0.148   3.065  0.00  0.00     0.019 C 
ENDBRANCH   1   7
TORSDOF 1
ENDMDL
