MODEL 1
REMARK minimizedAffinity -6.09381008
REMARK minimizedRMSD -1
REMARK  1 active torsions:
REMARK  status: ('A' for Active; 'I' for Inactive)
REMARK    1  A    between atoms: C1_2  and  C2_3 
ROOT
ATOM      1  C2  UNL d   1      -0.369   0.082  -0.135  0.00  0.00    -0.077 A 
ATOM      2  C3  UNL d   1       0.573   0.578   0.777  0.00  0.00     0.002 A 
ATOM      3  C4  UNL d   1       0.191   0.905   2.079  0.00  0.00     0.002 A 
ATOM      4  C5  UNL d   1      -1.132   0.737   2.483  0.00  0.00    -0.004 A 
ATOM      5  C6  UNL d   1      -2.077   0.247   1.582  0.00  0.00     0.002 A 
ATOM      6  C7  UNL d   1      -1.697  -0.080   0.280  0.00  0.00     0.002 A 
ENDROOT
BRANCH   1   7
ATOM      7  C1  UNL d   1       0.051  -0.318  -1.525  0.00  0.00     0.055 C 
ATOM      8  C   UNL d   1       0.733   0.834  -2.250  0.00  0.00     0.019 C 
ENDBRANCH   1   7
TORSDOF 1
ENDMDL
