MODEL 1
REMARK minimizedAffinity -1.8735621
REMARK minimizedRMSD -1
REMARK  1 active torsions:
REMARK  status: ('A' for Active; 'I' for Inactive)
REMARK    1  A    between atoms: C1_2  and  C2_3 
ROOT
ATOM      1  C2  UNL d   1      -0.385  -0.272   0.680  0.00  0.00    -0.077 A 
ATOM      2  C3  UNL d   1       0.686  -0.949   1.280  0.00  0.00     0.002 A 
ATOM      3  C4  UNL d   1       2.003  -0.615   0.957  0.00  0.00     0.002 A 
ATOM      4  C5  UNL d   1       2.260   0.398   0.036  0.00  0.00    -0.004 A 
ATOM      5  C6  UNL d   1       1.202   1.076  -0.568  0.00  0.00     0.002 A 
ATOM      6  C7  UNL d   1      -0.115   0.743  -0.247  0.00  0.00     0.002 A 
ENDROOT
BRANCH   1   7
ATOM      7  C1  UNL d   1      -1.805  -0.597   1.065  0.00  0.00     0.055 C 
ATOM      8  C   UNL d   1      -2.058  -0.312   2.538  0.00  0.00     0.019 C 
ENDBRANCH   1   7
TORSDOF 1
ENDMDL
