MODEL 1
REMARK minimizedAffinity -3.107939
REMARK minimizedRMSD -1
REMARK  1 active torsions:
REMARK  status: ('A' for Active; 'I' for Inactive)
REMARK    1  A    between atoms: C1_2  and  C2_3 
ROOT
ATOM      1  C2  UNL d   1       1.216  -0.151  -1.808  0.00  0.00    -0.077 A 
ATOM      2  C3  UNL d   1       0.476   0.863  -1.184  0.00  0.00     0.002 A 
ATOM      3  C4  UNL d   1       0.280   0.846   0.198  0.00  0.00     0.002 A 
ATOM      4  C5  UNL d   1       0.823  -0.180   0.968  0.00  0.00    -0.004 A 
ATOM      5  C6  UNL d   1       1.559  -1.195   0.357  0.00  0.00     0.002 A 
ATOM      6  C7  UNL d   1       1.755  -1.180  -1.025  0.00  0.00     0.002 A 
ENDROOT
BRANCH   1   7
ATOM      7  C1  UNL d   1       1.471  -0.108  -3.292  0.00  0.00     0.055 C 
ATOM      8  C   UNL d   1       2.074   1.225  -3.711  0.00  0.00     0.019 C 
ENDBRANCH   1   7
TORSDOF 1
ENDMDL
