MODEL 1
REMARK minimizedAffinity -5.21804237
REMARK minimizedRMSD -1
REMARK  1 active torsions:
REMARK  status: ('A' for Active; 'I' for Inactive)
REMARK    1  A    between atoms: C1_2  and  C2_3 
ROOT
ATOM      1  C2  UNL d   1       0.066   0.165   1.815  0.00  0.00    -0.077 A 
ATOM      2  C3  UNL d   1      -1.313   0.406   1.746  0.00  0.00     0.002 A 
ATOM      3  C4  UNL d   1      -2.073  -0.131   0.705  0.00  0.00     0.002 A 
ATOM      4  C5  UNL d   1      -1.464  -0.917  -0.271  0.00  0.00    -0.004 A 
ATOM      5  C6  UNL d   1      -0.093  -1.161  -0.213  0.00  0.00     0.002 A 
ATOM      6  C7  UNL d   1       0.669  -0.624   0.826  0.00  0.00     0.002 A 
ENDROOT
BRANCH   1   7
ATOM      7  C1  UNL d   1       0.880   0.703   2.963  0.00  0.00     0.055 C 
ATOM      8  C   UNL d   1      -0.014   1.162   4.106  0.00  0.00     0.019 C 
ENDBRANCH   1   7
TORSDOF 1
ENDMDL
