MODEL 1
REMARK minimizedAffinity -3.17139006
REMARK minimizedRMSD -1
REMARK  1 active torsions:
REMARK  status: ('A' for Active; 'I' for Inactive)
REMARK    1  A    between atoms: C1_2  and  C2_3 
ROOT
ATOM      1  C2  UNL d   1       1.070   0.087  -2.577  0.00  0.00    -0.076 A 
ATOM      2  C3  UNL d   1       2.146   0.906  -2.959  0.00  0.00     0.004 A 
ATOM      3  C4  UNL d   1       3.155   0.423  -3.791  0.00  0.00    -0.003 A 
ATOM      4  C5  UNL d   1       3.103  -0.887  -4.255  0.00  0.00     0.000 A 
ATOM      5  C6  UNL d   1       2.033  -1.708  -3.901  0.00  0.00     0.000 A 
ATOM      6  C7  UNL d   1       0.999  -1.231  -3.076  0.00  0.00    -0.073 A 
ATOM      7  C8  UNL d   1      -0.128  -2.162  -2.720  0.00  0.00     0.078 C 
ENDROOT
BRANCH   1   8
ATOM      8  C1  UNL d   1       0.019   0.657  -1.651  0.00  0.00     0.053 C 
ATOM      9  C   UNL d   1       0.369   0.463  -0.184  0.00  0.00     0.018 C 
ENDBRANCH   1   8
TORSDOF 1
ENDMDL
