MODEL 1
REMARK minimizedAffinity -4.10708857
REMARK minimizedRMSD -1
REMARK  1 active torsions:
REMARK  status: ('A' for Active; 'I' for Inactive)
REMARK    1  A    between atoms: C1_2  and  C2_3 
ROOT
ATOM      1  C2  UNL d   1       3.204   3.303  -5.293  0.00  0.00    -0.076 A 
ATOM      2  C3  UNL d   1       4.043   4.182  -6.000  0.00  0.00     0.004 A 
ATOM      3  C4  UNL d   1       5.430   4.060  -5.930  0.00  0.00    -0.003 A 
ATOM      4  C5  UNL d   1       6.000   3.058  -5.154  0.00  0.00     0.000 A 
ATOM      5  C6  UNL d   1       5.182   2.166  -4.460  0.00  0.00     0.000 A 
ATOM      6  C7  UNL d   1       3.782   2.265  -4.532  0.00  0.00    -0.073 A 
ATOM      7  C8  UNL d   1       2.948   1.280  -3.759  0.00  0.00     0.078 C 
ENDROOT
BRANCH   1   8
ATOM      8  C1  UNL d   1       1.707   3.500  -5.385  0.00  0.00     0.053 C 
ATOM      9  C   UNL d   1       1.333   4.843  -5.992  0.00  0.00     0.018 C 
ENDBRANCH   1   8
TORSDOF 1
ENDMDL
