MODEL 1
REMARK minimizedAffinity -2.28309894
REMARK minimizedRMSD -1
REMARK  1 active torsions:
REMARK  status: ('A' for Active; 'I' for Inactive)
REMARK    1  A    between atoms: C1_2  and  C2_3 
ROOT
ATOM      1  C2  UNL d   1      -0.252   0.058  -0.304  0.00  0.00    -0.076 A 
ATOM      2  C3  UNL d   1      -1.454  -0.541   0.113  0.00  0.00     0.004 A 
ATOM      3  C4  UNL d   1      -1.721  -0.747   1.466  0.00  0.00    -0.003 A 
ATOM      4  C5  UNL d   1      -0.792  -0.357   2.423  0.00  0.00     0.000 A 
ATOM      5  C6  UNL d   1       0.398   0.255   2.029  0.00  0.00     0.000 A 
ATOM      6  C7  UNL d   1       0.676   0.485   0.670  0.00  0.00    -0.073 A 
ATOM      7  C8  UNL d   1       1.977   1.143   0.301  0.00  0.00     0.078 C 
ENDROOT
BRANCH   1   8
ATOM      8  C1  UNL d   1      -0.005   0.231  -1.785  0.00  0.00     0.053 C 
ATOM      9  C   UNL d   1       0.376  -1.073  -2.468  0.00  0.00     0.018 C 
ENDBRANCH   1   8
TORSDOF 1
ENDMDL
