MODEL 1
REMARK minimizedAffinity -2.05918002
REMARK minimizedRMSD -1
REMARK  1 active torsions:
REMARK  status: ('A' for Active; 'I' for Inactive)
REMARK    1  A    between atoms: C1_2  and  C2_3 
ROOT
ATOM      1  C2  UNL d   1      -0.907  -0.032   0.482  0.00  0.00    -0.076 A 
ATOM      2  C3  UNL d   1      -0.263   0.439  -0.676  0.00  0.00     0.004 A 
ATOM      3  C4  UNL d   1       1.063   0.867  -0.635  0.00  0.00    -0.003 A 
ATOM      4  C5  UNL d   1       1.767   0.830   0.563  0.00  0.00     0.000 A 
ATOM      5  C6  UNL d   1       1.150   0.349   1.717  0.00  0.00     0.000 A 
ATOM      6  C7  UNL d   1      -0.181  -0.101   1.690  0.00  0.00    -0.073 A 
ATOM      7  C8  UNL d   1      -0.799  -0.605   2.966  0.00  0.00     0.078 C 
ENDROOT
BRANCH   1   8
ATOM      8  C1  UNL d   1      -2.354  -0.457   0.383  0.00  0.00     0.053 C 
ATOM      9  C   UNL d   1      -3.103   0.273  -0.721  0.00  0.00     0.018 C 
ENDBRANCH   1   8
TORSDOF 1
ENDMDL
