MODEL 1
REMARK minimizedAffinity -4.79870272
REMARK minimizedRMSD -1
REMARK  1 active torsions:
REMARK  status: ('A' for Active; 'I' for Inactive)
REMARK    1  A    between atoms: C1_2  and  C2_3 
ROOT
ATOM      1  C2  UNL d   1      -1.093   0.222   1.536  0.00  0.00    -0.076 A 
ATOM      2  C3  UNL d   1      -1.147  -0.252   2.858  0.00  0.00     0.004 A 
ATOM      3  C4  UNL d   1      -0.026  -0.817   3.464  0.00  0.00    -0.003 A 
ATOM      4  C5  UNL d   1       1.167  -0.917   2.758  0.00  0.00     0.000 A 
ATOM      5  C6  UNL d   1       1.244  -0.435   1.451  0.00  0.00     0.000 A 
ATOM      6  C7  UNL d   1       0.127   0.152   0.831  0.00  0.00    -0.073 A 
ATOM      7  C8  UNL d   1       0.265   0.650  -0.582  0.00  0.00     0.078 C 
ENDROOT
BRANCH   1   8
ATOM      8  C1  UNL d   1      -2.348   0.800   0.922  0.00  0.00     0.053 C 
ATOM      9  C   UNL d   1      -3.596   0.469   1.726  0.00  0.00     0.018 C 
ENDBRANCH   1   8
TORSDOF 1
ENDMDL
