MODEL 1
REMARK minimizedAffinity -3.52762985
REMARK minimizedRMSD -1
REMARK  1 active torsions:
REMARK  status: ('A' for Active; 'I' for Inactive)
REMARK    1  A    between atoms: C1_2  and  C2_3 
ROOT
ATOM      1  C2  UNL d   1       0.820   0.013  -1.378  0.00  0.00    -0.076 A 
ATOM      2  C3  UNL d   1       1.776  -0.998  -1.581  0.00  0.00     0.004 A 
ATOM      3  C4  UNL d   1       1.876  -1.655  -2.806  0.00  0.00    -0.003 A 
ATOM      4  C5  UNL d   1       1.022  -1.312  -3.848  0.00  0.00     0.000 A 
ATOM      5  C6  UNL d   1       0.079  -0.300  -3.670  0.00  0.00     0.000 A 
ATOM      6  C7  UNL d   1      -0.024   0.384  -2.446  0.00  0.00    -0.073 A 
ATOM      7  C8  UNL d   1      -1.063   1.463  -2.308  0.00  0.00     0.078 C 
ENDROOT
BRANCH   1   8
ATOM      8  C1  UNL d   1       0.740   0.672  -0.019  0.00  0.00     0.053 C 
ATOM      9  C   UNL d   1       1.491  -0.106   1.051  0.00  0.00     0.018 C 
ENDBRANCH   1   8
TORSDOF 1
ENDMDL
