MODEL 1
REMARK minimizedAffinity -4.67177153
REMARK minimizedRMSD -1
REMARK  1 active torsions:
REMARK  status: ('A' for Active; 'I' for Inactive)
REMARK    1  A    between atoms: C1_2  and  C2_3 
ROOT
ATOM      1  C2  UNL d   1      -0.200   0.004   0.269  0.00  0.00    -0.076 A 
ATOM      2  C3  UNL d   1      -1.273  -0.736   0.795  0.00  0.00     0.004 A 
ATOM      3  C4  UNL d   1      -1.300  -1.104   2.139  0.00  0.00    -0.003 A 
ATOM      4  C5  UNL d   1      -0.255  -0.737   2.980  0.00  0.00     0.000 A 
ATOM      5  C6  UNL d   1       0.809   0.013   2.479  0.00  0.00     0.000 A 
ATOM      6  C7  UNL d   1       0.844   0.406   1.130  0.00  0.00    -0.073 A 
ATOM      7  C8  UNL d   1       2.019   1.209   0.643  0.00  0.00     0.078 C 
ENDROOT
BRANCH   1   8
ATOM      8  C1  UNL d   1      -0.211   0.352  -1.202  0.00  0.00     0.053 C 
ATOM      9  C   UNL d   1       0.536  -0.668  -2.048  0.00  0.00     0.018 C 
ENDBRANCH   1   8
TORSDOF 1
ENDMDL
