MODEL 1
REMARK minimizedAffinity -5.54029799
REMARK minimizedRMSD -1
REMARK  1 active torsions:
REMARK  status: ('A' for Active; 'I' for Inactive)
REMARK    1  A    between atoms: C1_2  and  C2_3 
ROOT
ATOM      1  C2  UNL d   1      -0.418   0.117   0.479  0.00  0.00    -0.076 A 
ATOM      2  C3  UNL d   1       0.790   0.075   1.197  0.00  0.00     0.004 A 
ATOM      3  C4  UNL d   1       0.801  -0.166   2.570  0.00  0.00    -0.003 A 
ATOM      4  C5  UNL d   1      -0.396  -0.370   3.247  0.00  0.00     0.000 A 
ATOM      5  C6  UNL d   1      -1.602  -0.349   2.548  0.00  0.00     0.000 A 
ATOM      6  C7  UNL d   1      -1.630  -0.123   1.161  0.00  0.00    -0.073 A 
ATOM      7  C8  UNL d   1      -2.960  -0.106   0.459  0.00  0.00     0.078 C 
ENDROOT
BRANCH   1   8
ATOM      8  C1  UNL d   1      -0.370   0.410  -1.003  0.00  0.00     0.053 C 
ATOM      9  C   UNL d   1       0.797  -0.277  -1.695  0.00  0.00     0.018 C 
ENDBRANCH   1   8
TORSDOF 1
ENDMDL
