MODEL 1
REMARK minimizedAffinity -5.42446947
REMARK minimizedRMSD -1
REMARK  1 active torsions:
REMARK  status: ('A' for Active; 'I' for Inactive)
REMARK    1  A    between atoms: C1_2  and  C2_3 
ROOT
ATOM      1  C2  UNL d   1      -1.470  -0.038   0.775  0.00  0.00    -0.076 A 
ATOM      2  C3  UNL d   1      -1.260   0.276  -0.579  0.00  0.00     0.004 A 
ATOM      3  C4  UNL d   1       0.028   0.406  -1.094  0.00  0.00    -0.003 A 
ATOM      4  C5  UNL d   1       1.128   0.224  -0.263  0.00  0.00     0.000 A 
ATOM      5  C6  UNL d   1       0.939  -0.104   1.079  0.00  0.00     0.000 A 
ATOM      6  C7  UNL d   1      -0.353  -0.255   1.610  0.00  0.00    -0.073 A 
ATOM      7  C8  UNL d   1      -0.499  -0.605   3.066  0.00  0.00     0.078 C 
ENDROOT
BRANCH   1   8
ATOM      8  C1  UNL d   1      -2.890  -0.139   1.284  0.00  0.00     0.053 C 
ATOM      9  C   UNL d   1      -3.279   1.037   2.166  0.00  0.00     0.018 C 
ENDBRANCH   1   8
TORSDOF 1
ENDMDL
