MODEL 1
REMARK minimizedAffinity -3.1693275
REMARK minimizedRMSD -1
REMARK  1 active torsions:
REMARK  status: ('A' for Active; 'I' for Inactive)
REMARK    1  A    between atoms: C1_2  and  C2_3 
ROOT
ATOM      1  C2  UNL d   1      -0.937  -0.326   0.916  0.00  0.00    -0.076 A 
ATOM      2  C3  UNL d   1      -0.003  -0.791   1.858  0.00  0.00     0.004 A 
ATOM      3  C4  UNL d   1      -0.365  -0.991   3.189  0.00  0.00    -0.003 A 
ATOM      4  C5  UNL d   1      -1.668  -0.729   3.600  0.00  0.00     0.000 A 
ATOM      5  C6  UNL d   1      -2.612  -0.284   2.676  0.00  0.00     0.000 A 
ATOM      6  C7  UNL d   1      -2.267  -0.093   1.327  0.00  0.00    -0.073 A 
ATOM      7  C8  UNL d   1      -3.324   0.395   0.374  0.00  0.00     0.078 C 
ENDROOT
BRANCH   1   8
ATOM      8  C1  UNL d   1      -0.480  -0.102  -0.507  0.00  0.00     0.053 C 
ATOM      9  C   UNL d   1       0.858   0.618  -0.583  0.00  0.00     0.018 C 
ENDBRANCH   1   8
TORSDOF 1
ENDMDL
