MODEL 1
REMARK minimizedAffinity 7.18631744
REMARK minimizedRMSD -1
REMARK  2 active torsions:
REMARK  status: ('A' for Active; 'I' for Inactive)
REMARK    1  A    between atoms: C1_2  and  C2_3 
REMARK    2  A    between atoms: C2_3  and  C3_4 
ROOT
ATOM      1  C3  UNL d   1      -3.902  -0.969  -2.571  0.00  0.00    -0.075 A 
ATOM      2  C4  UNL d   1      -5.236  -0.794  -2.173  0.00  0.00     0.002 A 
ATOM      3  C5  UNL d   1      -5.998  -1.885  -1.755  0.00  0.00     0.002 A 
ATOM      4  C6  UNL d   1      -5.442  -3.162  -1.738  0.00  0.00    -0.004 A 
ATOM      5  C7  UNL d   1      -4.124  -3.350  -2.147  0.00  0.00     0.002 A 
ATOM      6  C8  UNL d   1      -3.357  -2.259  -2.562  0.00  0.00     0.002 A 
ENDROOT
BRANCH   1   7
ATOM      7  C2  UNL d   1      -3.063   0.212  -2.998  0.00  0.00     0.056 C 
BRANCH   7   8
ATOM      8  C1  UNL d   1      -3.772   1.563  -2.862  0.00  0.00     0.007 C 
ATOM      9  C   UNL d   1      -3.057   2.525  -1.923  0.00  0.00     0.009 C 
ENDBRANCH   7   8
ENDBRANCH   1   7
TORSDOF 2
ENDMDL
