MODEL 1
REMARK minimizedAffinity 0.822213471
REMARK minimizedRMSD -1
REMARK  2 active torsions:
REMARK  status: ('A' for Active; 'I' for Inactive)
REMARK    1  A    between atoms: C1_2  and  C2_3 
REMARK    2  A    between atoms: C2_3  and  C3_4 
ROOT
ATOM      1  C3  UNL d   1       2.935  -2.774   3.669  0.00  0.00    -0.075 A 
ATOM      2  C4  UNL d   1       1.544  -2.936   3.594  0.00  0.00     0.002 A 
ATOM      3  C5  UNL d   1       0.787  -2.161   2.715  0.00  0.00     0.002 A 
ATOM      4  C6  UNL d   1       1.408  -1.209   1.909  0.00  0.00    -0.004 A 
ATOM      5  C7  UNL d   1       2.787  -1.028   1.987  0.00  0.00     0.002 A 
ATOM      6  C8  UNL d   1       3.548  -1.805   2.863  0.00  0.00     0.002 A 
ENDROOT
BRANCH   1   7
ATOM      7  C2  UNL d   1       3.764  -3.630   4.597  0.00  0.00     0.056 C 
BRANCH   7   8
ATOM      8  C1  UNL d   1       5.105  -3.003   4.993  0.00  0.00     0.007 C 
ATOM      9  C   UNL d   1       6.000  -2.698   3.799  0.00  0.00     0.009 C 
ENDBRANCH   7   8
ENDBRANCH   1   7
TORSDOF 2
ENDMDL
