MODEL 1
REMARK minimizedAffinity 8.61436176
REMARK minimizedRMSD -1
REMARK  2 active torsions:
REMARK  status: ('A' for Active; 'I' for Inactive)
REMARK    1  A    between atoms: C1_2  and  C2_3 
REMARK    2  A    between atoms: C2_3  and  C3_4 
ROOT
ATOM      1  C3  UNL d   1      -3.539   2.944   0.126  0.00  0.00    -0.075 A 
ATOM      2  C4  UNL d   1      -4.458   3.425  -0.818  0.00  0.00     0.002 A 
ATOM      3  C5  UNL d   1      -5.678   3.964  -0.408  0.00  0.00     0.002 A 
ATOM      4  C6  UNL d   1      -5.998   4.020   0.946  0.00  0.00    -0.004 A 
ATOM      5  C7  UNL d   1      -5.100   3.530   1.892  0.00  0.00     0.002 A 
ATOM      6  C8  UNL d   1      -3.877   2.994   1.485  0.00  0.00     0.002 A 
ENDROOT
BRANCH   1   7
ATOM      7  C2  UNL d   1      -2.205   2.386  -0.309  0.00  0.00     0.056 C 
BRANCH   7   8
ATOM      8  C1  UNL d   1      -2.240   0.897  -0.671  0.00  0.00     0.007 C 
ATOM      9  C   UNL d   1      -2.539   0.644  -2.142  0.00  0.00     0.009 C 
ENDBRANCH   7   8
ENDBRANCH   1   7
TORSDOF 2
ENDMDL
