MODEL 1
REMARK minimizedAffinity 6.59997511
REMARK minimizedRMSD -1
REMARK  2 active torsions:
REMARK  status: ('A' for Active; 'I' for Inactive)
REMARK    1  A    between atoms: C1_2  and  C2_3 
REMARK    2  A    between atoms: C2_3  and  C3_4 
ROOT
ATOM      1  C3  UNL d   1       1.613  -4.321   3.383  0.00  0.00    -0.075 A 
ATOM      2  C4  UNL d   1       2.969  -4.376   3.738  0.00  0.00     0.002 A 
ATOM      3  C5  UNL d   1       3.765  -3.232   3.673  0.00  0.00     0.002 A 
ATOM      4  C6  UNL d   1       3.220  -2.024   3.244  0.00  0.00    -0.004 A 
ATOM      5  C7  UNL d   1       1.878  -1.962   2.873  0.00  0.00     0.002 A 
ATOM      6  C8  UNL d   1       1.078  -3.104   2.941  0.00  0.00     0.002 A 
ENDROOT
BRANCH   1   7
ATOM      7  C2  UNL d   1       0.739  -5.549   3.480  0.00  0.00     0.056 C 
BRANCH   7   8
ATOM      8  C1  UNL d   1      -0.134  -5.596   4.738  0.00  0.00     0.007 C 
ATOM      9  C   UNL d   1       0.642  -5.974   5.993  0.00  0.00     0.009 C 
ENDBRANCH   7   8
ENDBRANCH   1   7
TORSDOF 2
ENDMDL
