MODEL 1
REMARK minimizedAffinity 8.96520138
REMARK minimizedRMSD -1
REMARK  2 active torsions:
REMARK  status: ('A' for Active; 'I' for Inactive)
REMARK    1  A    between atoms: C1_2  and  C2_3 
REMARK    2  A    between atoms: C2_3  and  C3_4 
ROOT
ATOM      1  C3  UNL d   1       2.379  -1.549   2.882  0.00  0.00    -0.075 A 
ATOM      2  C4  UNL d   1       3.105  -2.331   3.792  0.00  0.00     0.002 A 
ATOM      3  C5  UNL d   1       2.908  -3.711   3.856  0.00  0.00     0.002 A 
ATOM      4  C6  UNL d   1       1.978  -4.324   3.019  0.00  0.00    -0.004 A 
ATOM      5  C7  UNL d   1       1.239  -3.555   2.122  0.00  0.00     0.002 A 
ATOM      6  C8  UNL d   1       1.438  -2.175   2.054  0.00  0.00     0.002 A 
ENDROOT
BRANCH   1   7
ATOM      7  C2  UNL d   1       2.609  -0.060   2.787  0.00  0.00     0.056 C 
BRANCH   7   8
ATOM      8  C1  UNL d   1       3.379   0.375   1.536  0.00  0.00     0.007 C 
ATOM      9  C   UNL d   1       3.187   1.846   1.194  0.00  0.00     0.009 C 
ENDBRANCH   7   8
ENDBRANCH   1   7
TORSDOF 2
ENDMDL
