MODEL 1
REMARK minimizedAffinity 10.8624115
REMARK minimizedRMSD -1
REMARK  2 active torsions:
REMARK  status: ('A' for Active; 'I' for Inactive)
REMARK    1  A    between atoms: C1_2  and  C2_3 
REMARK    2  A    between atoms: C2_3  and  C3_4 
ROOT
ATOM      1  C3  UNL d   1       2.303  -4.614   4.313  0.00  0.00    -0.075 A 
ATOM      2  C4  UNL d   1       1.085  -4.558   3.620  0.00  0.00     0.002 A 
ATOM      3  C5  UNL d   1      -0.045  -5.206   4.120  0.00  0.00     0.002 A 
ATOM      4  C6  UNL d   1       0.031  -5.924   5.312  0.00  0.00    -0.004 A 
ATOM      5  C7  UNL d   1       1.240  -6.000   6.000  0.00  0.00     0.002 A 
ATOM      6  C8  UNL d   1       2.371  -5.349   5.504  0.00  0.00     0.002 A 
ENDROOT
BRANCH   1   7
ATOM      7  C2  UNL d   1       3.522  -3.890   3.791  0.00  0.00     0.056 C 
BRANCH   7   8
ATOM      8  C1  UNL d   1       4.501  -3.451   4.885  0.00  0.00     0.007 C 
ATOM      9  C   UNL d   1       5.954  -3.462   4.429  0.00  0.00     0.009 C 
ENDBRANCH   7   8
ENDBRANCH   1   7
TORSDOF 2
ENDMDL
