MODEL 1
REMARK minimizedAffinity 5.31302547
REMARK minimizedRMSD -1
REMARK  2 active torsions:
REMARK  status: ('A' for Active; 'I' for Inactive)
REMARK    1  A    between atoms: C1_2  and  C2_3 
REMARK    2  A    between atoms: C2_3  and  C3_4 
ROOT
ATOM      1  C3  UNL d   1       2.375   0.137   2.794  0.00  0.00    -0.075 A 
ATOM      2  C4  UNL d   1       2.776   0.161   1.450  0.00  0.00     0.002 A 
ATOM      3  C5  UNL d   1       3.147   1.361   0.843  0.00  0.00     0.002 A 
ATOM      4  C6  UNL d   1       3.114   2.551   1.566  0.00  0.00    -0.004 A 
ATOM      5  C7  UNL d   1       2.702   2.541   2.897  0.00  0.00     0.002 A 
ATOM      6  C8  UNL d   1       2.334   1.342   3.509  0.00  0.00     0.002 A 
ENDROOT
BRANCH   1   7
ATOM      7  C2  UNL d   1       2.000  -1.162   3.465  0.00  0.00     0.056 C 
BRANCH   7   8
ATOM      8  C1  UNL d   1       1.544  -2.257   2.494  0.00  0.00     0.007 C 
ATOM      9  C   UNL d   1       1.248  -3.583   3.181  0.00  0.00     0.009 C 
ENDBRANCH   7   8
ENDBRANCH   1   7
TORSDOF 2
ENDMDL
