MODEL 1
REMARK minimizedAffinity -3.81928182
REMARK minimizedRMSD -1
REMARK  2 active torsions:
REMARK  status: ('A' for Active; 'I' for Inactive)
REMARK    1  A    between atoms: C2'_3  and  C1'_4 
REMARK    2  A    between atoms: C1'_4  and  C1_5 
ROOT
ATOM      1  C1  I4B d   1      -0.429   1.548   0.576  0.00  0.00    -0.075 A 
ATOM      2  C2  I4B d   1      -0.661   2.691   1.300  0.00  0.00     0.003 A 
ATOM      3  C3  I4B d   1      -0.201   3.942   0.823  0.00  0.00     0.002 A 
ATOM      4  C4  I4B d   1       0.525   3.998  -0.349  0.00  0.00    -0.004 A 
ATOM      5  C5  I4B d   1       0.740   2.841  -1.093  0.00  0.00     0.002 A 
ATOM      6  C6  I4B d   1       0.249   1.610  -0.634  0.00  0.00     0.003 A 
ENDROOT
BRANCH   1   7
ATOM      7  C1' I4B d   1      -0.900   0.239   1.126  0.00  0.00     0.060 C 
BRANCH   7   8
ATOM      8  C2' I4B d   1       0.315  -0.638   1.348  0.00  0.00    -0.013 C 
ATOM      9  C4' I4B d   1       0.135  -1.524   2.553  0.00  0.00     0.013 C 
ATOM     10  C3' I4B d   1       0.534  -1.450   0.107  0.00  0.00     0.013 C 
ENDBRANCH   7   8
ENDBRANCH   1   7
TORSDOF 2
ENDMDL
