MODEL 1
REMARK minimizedAffinity -3.59235311
REMARK minimizedRMSD -1
REMARK  2 active torsions:
REMARK  status: ('A' for Active; 'I' for Inactive)
REMARK    1  A    between atoms: C2'_3  and  C1'_4 
REMARK    2  A    between atoms: C1'_4  and  C1_5 
ROOT
ATOM      1  C1  I4B d   1      -0.443   1.729   1.805  0.00  0.00    -0.075 A 
ATOM      2  C2  I4B d   1      -1.214   0.933   2.615  0.00  0.00     0.003 A 
ATOM      3  C3  I4B d   1      -1.264  -0.466   2.401  0.00  0.00     0.002 A 
ATOM      4  C4  I4B d   1      -0.573  -1.016   1.341  0.00  0.00    -0.004 A 
ATOM      5  C5  I4B d   1       0.226  -0.211   0.535  0.00  0.00     0.002 A 
ATOM      6  C6  I4B d   1       0.301   1.169   0.775  0.00  0.00     0.003 A 
ENDROOT
BRANCH   1   7
ATOM      7  C1' I4B d   1      -0.439   3.206   2.039  0.00  0.00     0.060 C 
BRANCH   7   8
ATOM      8  C2' I4B d   1       0.841   3.768   1.454  0.00  0.00    -0.013 C 
ATOM      9  C4' I4B d   1       0.633   4.242   0.040  0.00  0.00     0.013 C 
ATOM     10  C3' I4B d   1       1.302   4.888   2.338  0.00  0.00     0.013 C 
ENDBRANCH   7   8
ENDBRANCH   1   7
TORSDOF 2
ENDMDL
