MODEL 1
REMARK minimizedAffinity -0.299067974
REMARK minimizedRMSD -1
REMARK  2 active torsions:
REMARK  status: ('A' for Active; 'I' for Inactive)
REMARK    1  A    between atoms: C2'_3  and  C1'_4 
REMARK    2  A    between atoms: C1'_4  and  C1_5 
ROOT
ATOM      1  C1  I4B d   1       0.702  -1.155  -0.684  0.00  0.00    -0.075 A 
ATOM      2  C2  I4B d   1       0.097  -1.477   0.506  0.00  0.00     0.003 A 
ATOM      3  C3  I4B d   1      -0.276  -0.457   1.415  0.00  0.00     0.002 A 
ATOM      4  C4  I4B d   1       0.020   0.858   1.119  0.00  0.00    -0.004 A 
ATOM      5  C5  I4B d   1       0.613   1.185  -0.097  0.00  0.00     0.002 A 
ATOM      6  C6  I4B d   1       0.945   0.173  -1.010  0.00  0.00     0.003 A 
ENDROOT
BRANCH   1   7
ATOM      7  C1' I4B d   1       1.112  -2.259  -1.606  0.00  0.00     0.060 C 
BRANCH   7   8
ATOM      8  C2' I4B d   1      -0.038  -2.523  -2.557  0.00  0.00    -0.013 C 
ATOM      9  C4' I4B d   1       0.416  -2.459  -3.992  0.00  0.00     0.013 C 
ATOM     10  C3' I4B d   1      -0.609  -3.870  -2.230  0.00  0.00     0.013 C 
ENDBRANCH   7   8
ENDBRANCH   1   7
TORSDOF 2
ENDMDL
