MODEL 1
REMARK minimizedAffinity -2.46427727
REMARK minimizedRMSD -1
REMARK  2 active torsions:
REMARK  status: ('A' for Active; 'I' for Inactive)
REMARK    1  A    between atoms: C2'_3  and  C1'_4 
REMARK    2  A    between atoms: C1'_4  and  C1_5 
ROOT
ATOM      1  C1  I4B d   1      -0.379   0.382   0.318  0.00  0.00    -0.075 A 
ATOM      2  C2  I4B d   1      -0.211  -0.387   1.443  0.00  0.00     0.003 A 
ATOM      3  C3  I4B d   1      -0.429   0.171   2.726  0.00  0.00     0.002 A 
ATOM      4  C4  I4B d   1      -0.763   1.505   2.839  0.00  0.00    -0.004 A 
ATOM      5  C5  I4B d   1      -0.954   2.277   1.697  0.00  0.00     0.002 A 
ATOM      6  C6  I4B d   1      -0.773   1.709   0.427  0.00  0.00     0.003 A 
ENDROOT
BRANCH   1   7
ATOM      7  C1' I4B d   1      -0.108  -0.230  -1.020  0.00  0.00     0.060 C 
BRANCH   7   8
ATOM      8  C2' I4B d   1       1.332  -0.701  -1.035  0.00  0.00    -0.013 C 
ATOM      9  C4' I4B d   1       1.467  -2.017  -1.756  0.00  0.00     0.013 C 
ATOM     10  C3' I4B d   1       2.161   0.363  -1.690  0.00  0.00     0.013 C 
ENDBRANCH   7   8
ENDBRANCH   1   7
TORSDOF 2
ENDMDL
