MODEL 1
REMARK minimizedAffinity 3.76860523
REMARK minimizedRMSD -1
REMARK  2 active torsions:
REMARK  status: ('A' for Active; 'I' for Inactive)
REMARK    1  A    between atoms: C2'_3  and  C1'_4 
REMARK    2  A    between atoms: C1'_4  and  C1_5 
ROOT
ATOM      1  C1  I4B d   1       0.157   0.084   1.491  0.00  0.00    -0.075 A 
ATOM      2  C2  I4B d   1      -0.360  -1.117   1.074  0.00  0.00     0.003 A 
ATOM      3  C3  I4B d   1      -0.128  -1.572  -0.247  0.00  0.00     0.002 A 
ATOM      4  C4  I4B d   1       0.578  -0.777  -1.126  0.00  0.00    -0.004 A 
ATOM      5  C5  I4B d   1       1.122   0.430  -0.694  0.00  0.00     0.002 A 
ATOM      6  C6  I4B d   1       0.921   0.857   0.626  0.00  0.00     0.003 A 
ENDROOT
BRANCH   1   7
ATOM      7  C1' I4B d   1      -0.134   0.550   2.882  0.00  0.00     0.060 C 
BRANCH   7   8
ATOM      8  C2' I4B d   1      -0.205   2.063   2.863  0.00  0.00    -0.013 C 
ATOM      9  C4' I4B d   1      -1.574   2.540   2.454  0.00  0.00     0.013 C 
ATOM     10  C3' I4B d   1       0.156   2.561   4.231  0.00  0.00     0.013 C 
ENDBRANCH   7   8
ENDBRANCH   1   7
TORSDOF 2
ENDMDL
