MODEL 1
REMARK minimizedAffinity -4.66379499
REMARK minimizedRMSD -1
REMARK  2 active torsions:
REMARK  status: ('A' for Active; 'I' for Inactive)
REMARK    1  A    between atoms: C2'_3  and  C1'_4 
REMARK    2  A    between atoms: C1'_4  and  C1_5 
ROOT
ATOM      1  C1  I4B d   1       1.000  -1.747  -1.186  0.00  0.00    -0.075 A 
ATOM      2  C2  I4B d   1       0.901  -3.076  -0.858  0.00  0.00     0.003 A 
ATOM      3  C3  I4B d   1       0.464  -4.016  -1.822  0.00  0.00     0.002 A 
ATOM      4  C4  I4B d   1       0.091  -3.580  -3.077  0.00  0.00    -0.004 A 
ATOM      5  C5  I4B d   1       0.215  -2.235  -3.414  0.00  0.00     0.002 A 
ATOM      6  C6  I4B d   1       0.684  -1.314  -2.467  0.00  0.00     0.003 A 
ENDROOT
BRANCH   1   7
ATOM      7  C1' I4B d   1       1.434  -0.776  -0.133  0.00  0.00     0.060 C 
BRANCH   7   8
ATOM      8  C2' I4B d   1       0.359  -0.734   0.934  0.00  0.00    -0.013 C 
ATOM      9  C4' I4B d   1       0.962  -0.679   2.313  0.00  0.00     0.013 C 
ATOM     10  C3' I4B d   1      -0.506   0.463   0.674  0.00  0.00     0.013 C 
ENDBRANCH   7   8
ENDBRANCH   1   7
TORSDOF 2
ENDMDL
