MODEL 1
REMARK minimizedAffinity -3.67028522
REMARK minimizedRMSD -1
REMARK  2 active torsions:
REMARK  status: ('A' for Active; 'I' for Inactive)
REMARK    1  A    between atoms: C2'_3  and  C1'_4 
REMARK    2  A    between atoms: C1'_4  and  C1_5 
ROOT
ATOM      1  C1  I4B d   1       0.442  -0.442  -1.221  0.00  0.00    -0.075 A 
ATOM      2  C2  I4B d   1       0.897  -1.693  -0.886  0.00  0.00     0.003 A 
ATOM      3  C3  I4B d   1       0.768  -2.767  -1.800  0.00  0.00     0.002 A 
ATOM      4  C4  I4B d   1       0.138  -2.558  -3.009  0.00  0.00    -0.004 A 
ATOM      5  C5  I4B d   1      -0.302  -1.284  -3.357  0.00  0.00     0.002 A 
ATOM      6  C6  I4B d   1      -0.138  -0.216  -2.462  0.00  0.00     0.003 A 
ENDROOT
BRANCH   1   7
ATOM      7  C1' I4B d   1       0.565   0.662  -0.219  0.00  0.00     0.060 C 
BRANCH   7   8
ATOM      8  C2' I4B d   1      -0.493   0.447   0.844  0.00  0.00    -0.013 C 
ATOM      9  C4' I4B d   1       0.063  -0.308   2.022  0.00  0.00     0.013 C 
ATOM     10  C3' I4B d   1      -1.013   1.791   1.259  0.00  0.00     0.013 C 
ENDBRANCH   7   8
ENDBRANCH   1   7
TORSDOF 2
ENDMDL
