MODEL 1
REMARK minimizedAffinity 0.224208042
REMARK minimizedRMSD -1
REMARK  1 active torsions:
REMARK  status: ('A' for Active; 'I' for Inactive)
REMARK    1  A    between atoms: C1_2  and  C2_3 
ROOT
ATOM      1  C2  UNL d   1       0.006  -5.343  -4.208  0.00  0.00    -0.077 A 
ATOM      2  C3  UNL d   1      -1.062  -4.862  -3.437  0.00  0.00     0.002 A 
ATOM      3  C4  UNL d   1      -2.371  -4.949  -3.914  0.00  0.00     0.002 A 
ATOM      4  C5  UNL d   1      -2.625  -5.521  -5.159  0.00  0.00    -0.004 A 
ATOM      5  C6  UNL d   1      -1.569  -6.000  -5.933  0.00  0.00     0.002 A 
ATOM      6  C7  UNL d   1      -0.259  -5.912  -5.459  0.00  0.00     0.002 A 
ENDROOT
BRANCH   1   7
ATOM      7  C1  UNL d   1       1.415  -5.294  -3.674  0.00  0.00     0.055 C 
ATOM      8  C   UNL d   1       2.385  -6.000  -4.610  0.00  0.00     0.019 C 
ENDBRANCH   1   7
TORSDOF 1
ENDMDL
