MODEL 1
REMARK minimizedAffinity 8.41277695
REMARK minimizedRMSD -1
REMARK  1 active torsions:
REMARK  status: ('A' for Active; 'I' for Inactive)
REMARK    1  A    between atoms: C1_2  and  C2_3 
ROOT
ATOM      1  C2  UNL d   1       4.708   3.874  -3.968  0.00  0.00    -0.077 A 
ATOM      2  C3  UNL d   1       3.965   2.928  -4.687  0.00  0.00     0.002 A 
ATOM      3  C4  UNL d   1       2.745   2.463  -4.191  0.00  0.00     0.002 A 
ATOM      4  C5  UNL d   1       2.257   2.941  -2.977  0.00  0.00    -0.004 A 
ATOM      5  C6  UNL d   1       2.990   3.881  -2.254  0.00  0.00     0.002 A 
ATOM      6  C7  UNL d   1       4.210   4.346  -2.747  0.00  0.00     0.002 A 
ENDROOT
BRANCH   1   7
ATOM      7  C1  UNL d   1       6.000   4.413  -4.525  0.00  0.00     0.055 C 
ATOM      8  C   UNL d   1       5.999   5.935  -4.550  0.00  0.00     0.019 C 
ENDBRANCH   1   7
TORSDOF 1
ENDMDL
