MODEL 1
REMARK minimizedAffinity 8.05207253
REMARK minimizedRMSD -1
REMARK  1 active torsions:
REMARK  status: ('A' for Active; 'I' for Inactive)
REMARK    1  A    between atoms: C1_2  and  C2_3 
ROOT
ATOM      1  C2  UNL d   1       4.933   2.724   1.184  0.00  0.00    -0.077 A 
ATOM      2  C3  UNL d   1       5.081   1.517   1.883  0.00  0.00     0.002 A 
ATOM      3  C4  UNL d   1       4.113   0.517   1.777  0.00  0.00     0.002 A 
ATOM      4  C5  UNL d   1       2.994   0.710   0.970  0.00  0.00    -0.004 A 
ATOM      5  C6  UNL d   1       2.837   1.907   0.272  0.00  0.00     0.002 A 
ATOM      6  C7  UNL d   1       3.803   2.909   0.378  0.00  0.00     0.002 A 
ENDROOT
BRANCH   1   7
ATOM      7  C1  UNL d   1       6.000   3.785   1.259  0.00  0.00     0.055 C 
ATOM      8  C   UNL d   1       5.999   4.659   0.013  0.00  0.00     0.019 C 
ENDBRANCH   1   7
TORSDOF 1
ENDMDL
