MODEL 1
REMARK minimizedAffinity 9.8469553
REMARK minimizedRMSD -1
REMARK  1 active torsions:
REMARK  status: ('A' for Active; 'I' for Inactive)
REMARK    1  A    between atoms: C1_2  and  C2_3 
ROOT
ATOM      1  C2  UNL d   1       3.893   2.533   0.149  0.00  0.00    -0.077 A 
ATOM      2  C3  UNL d   1       3.944   2.916   1.496  0.00  0.00     0.002 A 
ATOM      3  C4  UNL d   1       4.994   3.708   1.966  0.00  0.00     0.002 A 
ATOM      4  C5  UNL d   1       5.998   4.126   1.095  0.00  0.00    -0.004 A 
ATOM      5  C6  UNL d   1       5.957   3.748  -0.247  0.00  0.00     0.002 A 
ATOM      6  C7  UNL d   1       4.909   2.956  -0.718  0.00  0.00     0.002 A 
ENDROOT
BRANCH   1   7
ATOM      7  C1  UNL d   1       2.736   1.721  -0.371  0.00  0.00     0.055 C 
ATOM      8  C   UNL d   1       2.439   2.047  -1.827  0.00  0.00     0.019 C 
ENDBRANCH   1   7
TORSDOF 1
ENDMDL
