MODEL 1
REMARK minimizedAffinity 7.35616159
REMARK minimizedRMSD -1
REMARK  1 active torsions:
REMARK  status: ('A' for Active; 'I' for Inactive)
REMARK    1  A    between atoms: C1_2  and  C2_3 
ROOT
ATOM      1  C2  UNL d   1       1.879   4.249  -3.243  0.00  0.00    -0.077 A 
ATOM      2  C3  UNL d   1       0.596   4.108  -3.791  0.00  0.00     0.002 A 
ATOM      3  C4  UNL d   1      -0.457   4.905  -3.339  0.00  0.00     0.002 A 
ATOM      4  C5  UNL d   1      -0.237   5.852  -2.341  0.00  0.00    -0.004 A 
ATOM      5  C6  UNL d   1       1.034   5.999  -1.788  0.00  0.00     0.002 A 
ATOM      6  C7  UNL d   1       2.088   5.202  -2.238  0.00  0.00     0.002 A 
ENDROOT
BRANCH   1   7
ATOM      7  C1  UNL d   1       3.027   3.425  -3.764  0.00  0.00     0.055 C 
ATOM      8  C   UNL d   1       3.403   3.832  -5.181  0.00  0.00     0.019 C 
ENDBRANCH   1   7
TORSDOF 1
ENDMDL
