MODEL 1
REMARK minimizedAffinity 16.1563931
REMARK minimizedRMSD -1
REMARK  1 active torsions:
REMARK  status: ('A' for Active; 'I' for Inactive)
REMARK    1  A    between atoms: C1_2  and  C2_3 
ROOT
ATOM      1  C2  UNL d   1      -0.277   4.234  -3.909  0.00  0.00    -0.077 A 
ATOM      2  C3  UNL d   1       0.739   3.276  -4.032  0.00  0.00     0.002 A 
ATOM      3  C4  UNL d   1       1.827   3.284  -3.157  0.00  0.00     0.002 A 
ATOM      4  C5  UNL d   1       1.906   4.245  -2.151  0.00  0.00    -0.004 A 
ATOM      5  C6  UNL d   1       0.902   5.203  -2.022  0.00  0.00     0.002 A 
ATOM      6  C7  UNL d   1      -0.186   5.197  -2.896  0.00  0.00     0.002 A 
ENDROOT
BRANCH   1   7
ATOM      7  C1  UNL d   1      -1.476   4.196  -4.821  0.00  0.00     0.055 C 
ATOM      8  C   UNL d   1      -1.363   5.235  -5.927  0.00  0.00     0.019 C 
ENDBRANCH   1   7
TORSDOF 1
ENDMDL
