MODEL 1
REMARK minimizedAffinity 12.5667267
REMARK minimizedRMSD -1
REMARK  1 active torsions:
REMARK  status: ('A' for Active; 'I' for Inactive)
REMARK    1  A    between atoms: C1_2  and  C2_3 
ROOT
ATOM      1  C2  UNL d   1       3.245  -4.434  -0.150  0.00  0.00    -0.077 A 
ATOM      2  C3  UNL d   1       4.160  -3.394  -0.366  0.00  0.00     0.002 A 
ATOM      3  C4  UNL d   1       5.531  -3.656  -0.407  0.00  0.00     0.002 A 
ATOM      4  C5  UNL d   1       5.998  -4.958  -0.239  0.00  0.00    -0.004 A 
ATOM      5  C6  UNL d   1       5.096  -5.999  -0.022  0.00  0.00     0.002 A 
ATOM      6  C7  UNL d   1       3.726  -5.738   0.021  0.00  0.00     0.002 A 
ENDROOT
BRANCH   1   7
ATOM      7  C1  UNL d   1       1.763  -4.161  -0.154  0.00  0.00     0.055 C 
ATOM      8  C   UNL d   1       1.257  -3.835   1.243  0.00  0.00     0.019 C 
ENDBRANCH   1   7
TORSDOF 1
ENDMDL
