MODEL 1
REMARK minimizedAffinity 5.43917894
REMARK minimizedRMSD -1
REMARK  1 active torsions:
REMARK  status: ('A' for Active; 'I' for Inactive)
REMARK    1  A    between atoms: C1_2  and  C2_3 
ROOT
ATOM      1  C2  UNL d   1       4.056   1.931   0.312  0.00  0.00    -0.077 A 
ATOM      2  C3  UNL d   1       5.213   2.311  -0.383  0.00  0.00     0.002 A 
ATOM      3  C4  UNL d   1       5.999   3.368   0.080  0.00  0.00     0.002 A 
ATOM      4  C5  UNL d   1       5.639   4.050   1.240  0.00  0.00    -0.004 A 
ATOM      5  C6  UNL d   1       4.489   3.681   1.937  0.00  0.00     0.002 A 
ATOM      6  C7  UNL d   1       3.702   2.626   1.475  0.00  0.00     0.002 A 
ENDROOT
BRANCH   1   7
ATOM      7  C1  UNL d   1       3.234   0.759  -0.158  0.00  0.00     0.055 C 
ATOM      8  C   UNL d   1       4.094  -0.265  -0.884  0.00  0.00     0.019 C 
ENDBRANCH   1   7
TORSDOF 1
ENDMDL
