MODEL 1
REMARK minimizedAffinity 7.49467754
REMARK minimizedRMSD -1
REMARK  1 active torsions:
REMARK  status: ('A' for Active; 'I' for Inactive)
REMARK    1  A    between atoms: C1_2  and  C2_3 
ROOT
ATOM      1  C2  UNL d   1       3.131   4.744  -2.267  0.00  0.00    -0.077 A 
ATOM      2  C3  UNL d   1       1.945   5.482  -2.153  0.00  0.00     0.002 A 
ATOM      3  C4  UNL d   1       0.708   4.869  -2.364  0.00  0.00     0.002 A 
ATOM      4  C5  UNL d   1       0.646   3.515  -2.687  0.00  0.00    -0.004 A 
ATOM      5  C6  UNL d   1       1.820   2.773  -2.805  0.00  0.00     0.002 A 
ATOM      6  C7  UNL d   1       3.057   3.384  -2.595  0.00  0.00     0.002 A 
ENDROOT
BRANCH   1   7
ATOM      7  C1  UNL d   1       4.463   5.391  -1.991  0.00  0.00     0.055 C 
ATOM      8  C   UNL d   1       5.554   4.349  -1.788  0.00  0.00     0.019 C 
ENDBRANCH   1   7
TORSDOF 1
ENDMDL
