MODEL 1
REMARK minimizedAffinity 11.5472555
REMARK minimizedRMSD -1
REMARK  1 active torsions:
REMARK  status: ('A' for Active; 'I' for Inactive)
REMARK    1  A    between atoms: C1_2  and  C2_3 
ROOT
ATOM      1  C2  UNL d   1       4.766   4.259  -2.578  0.00  0.00    -0.077 A 
ATOM      2  C3  UNL d   1       3.493   3.753  -2.280  0.00  0.00     0.002 A 
ATOM      3  C4  UNL d   1       2.734   3.125  -3.269  0.00  0.00     0.002 A 
ATOM      4  C5  UNL d   1       3.240   2.992  -4.560  0.00  0.00    -0.004 A 
ATOM      5  C6  UNL d   1       4.505   3.493  -4.866  0.00  0.00     0.002 A 
ATOM      6  C7  UNL d   1       5.265   4.122  -3.880  0.00  0.00     0.002 A 
ENDROOT
BRANCH   1   7
ATOM      7  C1  UNL d   1       5.607   4.893  -1.501  0.00  0.00     0.055 C 
ATOM      8  C   UNL d   1       6.000   3.879  -0.436  0.00  0.00     0.019 C 
ENDBRANCH   1   7
TORSDOF 1
ENDMDL
