MODEL 1
REMARK minimizedAffinity 0.690011919
REMARK minimizedRMSD -1
REMARK  1 active torsions:
REMARK  status: ('A' for Active; 'I' for Inactive)
REMARK    1  A    between atoms: C1_2  and  C2_3 
ROOT
ATOM      1  C2  UNL d   1      -3.423   1.100   3.264  0.00  0.00    -0.077 A 
ATOM      2  C3  UNL d   1      -4.333   0.785   2.245  0.00  0.00     0.002 A 
ATOM      3  C4  UNL d   1      -4.062  -0.255   1.354  0.00  0.00     0.002 A 
ATOM      4  C5  UNL d   1      -2.884  -0.990   1.475  0.00  0.00    -0.004 A 
ATOM      5  C6  UNL d   1      -1.973  -0.682   2.484  0.00  0.00     0.002 A 
ATOM      6  C7  UNL d   1      -2.241   0.358   3.375  0.00  0.00     0.002 A 
ENDROOT
BRANCH   1   7
ATOM      7  C1  UNL d   1      -3.737   2.190   4.257  0.00  0.00     0.055 C 
ATOM      8  C   UNL d   1      -4.984   1.861   5.064  0.00  0.00     0.019 C 
ENDBRANCH   1   7
TORSDOF 1
ENDMDL
