MODEL 1
REMARK minimizedAffinity 14.7261295
REMARK minimizedRMSD -1
REMARK  1 active torsions:
REMARK  status: ('A' for Active; 'I' for Inactive)
REMARK    1  A    between atoms: C1_2  and  C2_3 
ROOT
ATOM      1  C2  UNL d   1       5.161   5.015  -3.126  0.00  0.00    -0.077 A 
ATOM      2  C3  UNL d   1       5.780   4.644  -4.328  0.00  0.00     0.002 A 
ATOM      3  C4  UNL d   1       5.127   3.798  -5.226  0.00  0.00     0.002 A 
ATOM      4  C5  UNL d   1       3.851   3.319  -4.934  0.00  0.00    -0.004 A 
ATOM      5  C6  UNL d   1       3.229   3.681  -3.740  0.00  0.00     0.002 A 
ATOM      6  C7  UNL d   1       3.880   4.526  -2.841  0.00  0.00     0.002 A 
ENDROOT
BRANCH   1   7
ATOM      7  C1  UNL d   1       5.844   5.967  -2.178  0.00  0.00     0.055 C 
ATOM      8  C   UNL d   1       5.999   5.354  -0.794  0.00  0.00     0.019 C 
ENDBRANCH   1   7
TORSDOF 1
ENDMDL
