MODEL 1
REMARK minimizedAffinity 6.5753479
REMARK minimizedRMSD -1
REMARK  1 active torsions:
REMARK  status: ('A' for Active; 'I' for Inactive)
REMARK    1  A    between atoms: C1_2  and  C2_3 
ROOT
ATOM      1  C2  UNL d   1       3.385   4.270  -3.262  0.00  0.00    -0.077 A 
ATOM      2  C3  UNL d   1       4.622   4.835  -2.923  0.00  0.00     0.002 A 
ATOM      3  C4  UNL d   1       5.674   4.837  -3.842  0.00  0.00     0.002 A 
ATOM      4  C5  UNL d   1       5.497   4.278  -5.106  0.00  0.00    -0.004 A 
ATOM      5  C6  UNL d   1       4.271   3.712  -5.452  0.00  0.00     0.002 A 
ATOM      6  C7  UNL d   1       3.220   3.708  -4.535  0.00  0.00     0.002 A 
ENDROOT
BRANCH   1   7
ATOM      7  C1  UNL d   1       2.234   4.311  -2.291  0.00  0.00     0.055 C 
ATOM      8  C   UNL d   1       1.615   5.700  -2.224  0.00  0.00     0.019 C 
ENDBRANCH   1   7
TORSDOF 1
ENDMDL
