MODEL 1
REMARK minimizedAffinity 12.264575
REMARK minimizedRMSD -1
REMARK  1 active torsions:
REMARK  status: ('A' for Active; 'I' for Inactive)
REMARK    1  A    between atoms: C1_2  and  C2_3 
ROOT
ATOM      1  C2  UNL d   1       3.340   3.466  -3.802  0.00  0.00    -0.077 A 
ATOM      2  C3  UNL d   1       3.618   3.008  -5.098  0.00  0.00     0.002 A 
ATOM      3  C4  UNL d   1       4.837   3.309  -5.708  0.00  0.00     0.002 A 
ATOM      4  C5  UNL d   1       5.789   4.066  -5.028  0.00  0.00    -0.004 A 
ATOM      5  C6  UNL d   1       5.522   4.528  -3.740  0.00  0.00     0.002 A 
ATOM      6  C7  UNL d   1       4.304   4.228  -3.129  0.00  0.00     0.002 A 
ENDROOT
BRANCH   1   7
ATOM      7  C1  UNL d   1       2.046   3.100  -3.124  0.00  0.00     0.055 C 
ATOM      8  C   UNL d   1       2.260   2.027  -2.066  0.00  0.00     0.019 C 
ENDBRANCH   1   7
TORSDOF 1
ENDMDL
