MODEL 1
REMARK minimizedAffinity 18.1054325
REMARK minimizedRMSD -1
REMARK  1 active torsions:
REMARK  status: ('A' for Active; 'I' for Inactive)
REMARK    1  A    between atoms: C1_2  and  C2_3 
ROOT
ATOM      1  C2  UNL d   1      -3.143  -0.202   1.511  0.00  0.00    -0.077 A 
ATOM      2  C3  UNL d   1      -2.544  -1.361   0.998  0.00  0.00     0.002 A 
ATOM      3  C4  UNL d   1      -1.356  -1.845   1.549  0.00  0.00     0.002 A 
ATOM      4  C5  UNL d   1      -0.759  -1.179   2.617  0.00  0.00    -0.004 A 
ATOM      5  C6  UNL d   1      -1.345  -0.024   3.133  0.00  0.00     0.002 A 
ATOM      6  C7  UNL d   1      -2.532   0.462   2.583  0.00  0.00     0.002 A 
ENDROOT
BRANCH   1   7
ATOM      7  C1  UNL d   1      -4.450   0.294   0.951  0.00  0.00     0.055 C 
ATOM      8  C   UNL d   1      -4.793  -0.406  -0.356  0.00  0.00     0.019 C 
ENDBRANCH   1   7
TORSDOF 1
ENDMDL
