MODEL 1
REMARK minimizedAffinity 2.25570226
REMARK minimizedRMSD -1
REMARK  0 active torsions:
REMARK  status: ('A' for Active; 'I' for Inactive)
ROOT
ATOM      1  N1  IND d   1       1.033   1.318   0.765  0.00  0.00    -0.196 N 
ATOM      2  C2  IND d   1       1.372  -0.003   0.681  0.00  0.00     0.054 A 
ATOM      3  C3  IND d   1       0.273  -0.780   0.810  0.00  0.00    -0.031 A 
ATOM      4  C4  IND d   1      -2.195  -0.091   1.064  0.00  0.00     0.051 A 
ATOM      5  C5  IND d   1      -2.997   1.004   1.227  0.00  0.00    -0.031 A 
ATOM      6  C6  IND d   1      -2.486   2.285   1.242  0.00  0.00     0.015 A 
ATOM      7  C7  IND d   1      -1.150   2.522   1.082  0.00  0.00    -0.016 A 
ATOM      8  C8  IND d   1      -0.332   1.412   0.924  0.00  0.00    -0.047 A 
ATOM      9  C9  IND d   1      -0.839   0.106   0.950  0.00  0.00    -0.096 A 
ATOM     10  HN1 IND d   1       1.581   1.980   0.725  0.00  0.00     0.298 HD
ENDROOT
TORSDOF 0
ENDMDL
