MODEL 1
REMARK minimizedAffinity 0.0436255597
REMARK minimizedRMSD -1
REMARK  0 active torsions:
REMARK  status: ('A' for Active; 'I' for Inactive)
ROOT
ATOM      1  N1  IND d   1       1.891   1.051   1.155  0.00  0.00    -0.196 N 
ATOM      2  C2  IND d   1       2.106   2.377   1.409  0.00  0.00     0.054 A 
ATOM      3  C3  IND d   1       0.941   3.061   1.358  0.00  0.00    -0.031 A 
ATOM      4  C4  IND d   1      -1.452   2.189   0.977  0.00  0.00     0.051 A 
ATOM      5  C5  IND d   1      -2.148   1.056   0.664  0.00  0.00    -0.031 A 
ATOM      6  C6  IND d   1      -1.522  -0.163   0.499  0.00  0.00     0.015 A 
ATOM      7  C7  IND d   1      -0.171  -0.295   0.652  0.00  0.00    -0.016 A 
ATOM      8  C8  IND d   1       0.541   0.855   0.962  0.00  0.00    -0.047 A 
ATOM      9  C9  IND d   1      -0.084   2.102   1.089  0.00  0.00    -0.096 A 
ATOM     10  HN1 IND d   1       2.496   0.442   1.122  0.00  0.00     0.298 HD
ENDROOT
TORSDOF 0
ENDMDL
