MODEL 1
REMARK minimizedAffinity 10.5922289
REMARK minimizedRMSD -1
REMARK  0 active torsions:
REMARK  status: ('A' for Active; 'I' for Inactive)
ROOT
ATOM      1  N1  IND d   1       0.300   1.579   0.817  0.00  0.00    -0.196 N 
ATOM      2  C2  IND d   1       0.100   2.931   0.784  0.00  0.00     0.054 A 
ATOM      3  C3  IND d   1      -1.221   3.209   0.702  0.00  0.00    -0.031 A 
ATOM      4  C4  IND d   1      -3.234   1.604   0.712  0.00  0.00     0.051 A 
ATOM      5  C5  IND d   1      -3.552   0.275   0.693  0.00  0.00    -0.031 A 
ATOM      6  C6  IND d   1      -2.583  -0.707   0.717  0.00  0.00     0.015 A 
ATOM      7  C7  IND d   1      -1.254  -0.396   0.773  0.00  0.00    -0.016 A 
ATOM      8  C8  IND d   1      -0.927   0.953   0.786  0.00  0.00    -0.047 A 
ATOM      9  C9  IND d   1      -1.904   1.954   0.719  0.00  0.00    -0.096 A 
ATOM     10  HN1 IND d   1       1.064   1.185   0.852  0.00  0.00     0.298 HD
ENDROOT
TORSDOF 0
ENDMDL
