MODEL 1
REMARK minimizedAffinity 1.66922593
REMARK minimizedRMSD -1
REMARK  0 active torsions:
REMARK  status: ('A' for Active; 'I' for Inactive)
ROOT
ATOM      1  N1  IND d   1       1.287   3.392   4.255  0.00  0.00    -0.196 N 
ATOM      2  C2  IND d   1       2.457   3.391   3.547  0.00  0.00     0.054 A 
ATOM      3  C3  IND d   1       2.205   3.299   2.222  0.00  0.00    -0.031 A 
ATOM      4  C4  IND d   1      -0.054   3.240   0.987  0.00  0.00     0.051 A 
ATOM      5  C5  IND d   1      -1.401   3.182   1.208  0.00  0.00    -0.031 A 
ATOM      6  C6  IND d   1      -1.932   3.193   2.482  0.00  0.00     0.015 A 
ATOM      7  C7  IND d   1      -1.132   3.276   3.586  0.00  0.00    -0.016 A 
ATOM      8  C8  IND d   1       0.237   3.328   3.366  0.00  0.00    -0.047 A 
ATOM      9  C9  IND d   1       0.783   3.274   2.077  0.00  0.00    -0.096 A 
ATOM     10  HN1 IND d   1       1.219   3.427   5.111  0.00  0.00     0.298 HD
ENDROOT
TORSDOF 0
ENDMDL
