MODEL 1
REMARK minimizedAffinity 1.3531661
REMARK minimizedRMSD -1
REMARK  0 active torsions:
REMARK  status: ('A' for Active; 'I' for Inactive)
ROOT
ATOM      1  N1  IND d   1       2.482   1.285   1.167  0.00  0.00    -0.196 N 
ATOM      2  C2  IND d   1       2.747   2.435   1.856  0.00  0.00     0.054 A 
ATOM      3  C3  IND d   1       1.601   3.105   2.112  0.00  0.00    -0.031 A 
ATOM      4  C4  IND d   1      -0.831   2.448   1.582  0.00  0.00     0.051 A 
ATOM      5  C5  IND d   1      -1.574   1.503   0.932  0.00  0.00    -0.031 A 
ATOM      6  C6  IND d   1      -0.991   0.414   0.316  0.00  0.00     0.015 A 
ATOM      7  C7  IND d   1       0.361   0.222   0.338  0.00  0.00    -0.016 A 
ATOM      8  C8  IND d   1       1.119   1.183   0.992  0.00  0.00    -0.047 A 
ATOM      9  C9  IND d   1       0.538   2.313   1.581  0.00  0.00    -0.096 A 
ATOM     10  HN1 IND d   1       3.068   0.720   0.889  0.00  0.00     0.298 HD
ENDROOT
TORSDOF 0
ENDMDL
