MODEL 1
REMARK minimizedAffinity 0.709729195
REMARK minimizedRMSD -1
REMARK  0 active torsions:
REMARK  status: ('A' for Active; 'I' for Inactive)
ROOT
ATOM      1  N1  IND d   1      -3.608   5.989  -5.999  0.00  0.00    -0.196 N 
ATOM      2  C2  IND d   1      -4.975   5.976  -5.994  0.00  0.00     0.054 A 
ATOM      3  C3  IND d   1      -5.433   4.704  -6.000  0.00  0.00    -0.031 A 
ATOM      4  C4  IND d   1      -4.119   2.492  -5.914  0.00  0.00     0.051 A 
ATOM      5  C5  IND d   1      -2.848   1.992  -5.944  0.00  0.00    -0.031 A 
ATOM      6  C6  IND d   1      -1.742   2.816  -5.991  0.00  0.00     0.015 A 
ATOM      7  C7  IND d   1      -1.867   4.177  -5.999  0.00  0.00    -0.016 A 
ATOM      8  C8  IND d   1      -3.157   4.687  -5.977  0.00  0.00    -0.047 A 
ATOM      9  C9  IND d   1      -4.284   3.855  -5.972  0.00  0.00    -0.096 A 
ATOM     10  HN1 IND d   1      -3.113   6.692  -6.013  0.00  0.00     0.298 HD
ENDROOT
TORSDOF 0
ENDMDL
