MODEL 1
REMARK minimizedAffinity 10.8184462
REMARK minimizedRMSD -1
REMARK  0 active torsions:
REMARK  status: ('A' for Active; 'I' for Inactive)
ROOT
ATOM      1  N1  IND d   1       2.259   0.995  -0.124  0.00  0.00    -0.196 N 
ATOM      2  C2  IND d   1       1.043   0.523  -0.531  0.00  0.00     0.054 A 
ATOM      3  C3  IND d   1       0.048   1.145   0.141  0.00  0.00    -0.031 A 
ATOM      4  C4  IND d   1       0.182   3.039   1.878  0.00  0.00     0.051 A 
ATOM      5  C5  IND d   1       1.078   3.778   2.599  0.00  0.00    -0.031 A 
ATOM      6  C6  IND d   1       2.441   3.626   2.445  0.00  0.00     0.015 A 
ATOM      7  C7  IND d   1       2.961   2.733   1.551  0.00  0.00    -0.016 A 
ATOM      8  C8  IND d   1       2.054   1.976   0.822  0.00  0.00    -0.047 A 
ATOM      9  C9  IND d   1       0.671   2.096   1.005  0.00  0.00    -0.096 A 
ATOM     10  HN1 IND d   1       3.024   0.725  -0.410  0.00  0.00     0.298 HD
ENDROOT
TORSDOF 0
ENDMDL
