MODEL 1
REMARK minimizedAffinity 4.12556505
REMARK minimizedRMSD -1
REMARK  0 active torsions:
REMARK  status: ('A' for Active; 'I' for Inactive)
ROOT
ATOM      1  N1  IND d   1       1.096   0.056   1.226  0.00  0.00    -0.196 N 
ATOM      2  C2  IND d   1       1.863   1.182   1.338  0.00  0.00     0.054 A 
ATOM      3  C3  IND d   1       1.113   2.285   1.117  0.00  0.00    -0.031 A 
ATOM      4  C4  IND d   1      -1.412   2.482   0.655  0.00  0.00     0.051 A 
ATOM      5  C5  IND d   1      -2.527   1.726   0.425  0.00  0.00    -0.031 A 
ATOM      6  C6  IND d   1      -2.491   0.347   0.453  0.00  0.00     0.015 A 
ATOM      7  C7  IND d   1      -1.336  -0.331   0.725  0.00  0.00    -0.016 A 
ATOM      8  C8  IND d   1      -0.200   0.434   0.953  0.00  0.00    -0.047 A 
ATOM      9  C9  IND d   1      -0.221   1.833   0.883  0.00  0.00    -0.096 A 
ATOM     10  HN1 IND d   1       1.376  -0.752   1.312  0.00  0.00     0.298 HD
ENDROOT
TORSDOF 0
ENDMDL
