MODEL 1
REMARK minimizedAffinity 4.47233868
REMARK minimizedRMSD -1
REMARK  0 active torsions:
REMARK  status: ('A' for Active; 'I' for Inactive)
ROOT
ATOM      1  N1  IND d   1      -3.048  -6.000  -0.301  0.00  0.00    -0.196 N 
ATOM      2  C2  IND d   1      -4.214  -5.653   0.322  0.00  0.00     0.054 A 
ATOM      3  C3  IND d   1      -4.348  -4.308   0.353  0.00  0.00    -0.031 A 
ATOM      4  C4  IND d   1      -2.827  -2.489  -0.647  0.00  0.00     0.051 A 
ATOM      5  C5  IND d   1      -1.627  -2.315  -1.280  0.00  0.00    -0.031 A 
ATOM      6  C6  IND d   1      -0.825  -3.383  -1.628  0.00  0.00     0.015 A 
ATOM      7  C7  IND d   1      -1.200  -4.670  -1.365  0.00  0.00    -0.016 A 
ATOM      8  C8  IND d   1      -2.414  -4.850  -0.717  0.00  0.00    -0.047 A 
ATOM      9  C9  IND d   1      -3.212  -3.768  -0.323  0.00  0.00    -0.096 A 
ATOM     10  HN1 IND d   1      -2.759  -6.802  -0.414  0.00  0.00     0.298 HD
ENDROOT
TORSDOF 0
ENDMDL
