MODEL 1
REMARK minimizedAffinity 5.65714073
REMARK minimizedRMSD -1
REMARK  0 active torsions:
REMARK  status: ('A' for Active; 'I' for Inactive)
ROOT
ATOM      1  N1  IND d   1       1.358  -1.079   0.263  0.00  0.00    -0.196 N 
ATOM      2  C2  IND d   1       2.017   0.036  -0.174  0.00  0.00     0.054 A 
ATOM      3  C3  IND d   1       1.203   1.114  -0.121  0.00  0.00    -0.031 A 
ATOM      4  C4  IND d   1      -1.215   1.298   0.745  0.00  0.00     0.051 A 
ATOM      5  C5  IND d   1      -2.252   0.540   1.211  0.00  0.00    -0.031 A 
ATOM      6  C6  IND d   1      -2.136  -0.823   1.391  0.00  0.00     0.015 A 
ATOM      7  C7  IND d   1      -0.970  -1.481   1.121  0.00  0.00    -0.016 A 
ATOM      8  C8  IND d   1       0.084  -0.716   0.641  0.00  0.00    -0.047 A 
ATOM      9  C9  IND d   1      -0.041   0.661   0.416  0.00  0.00    -0.096 A 
ATOM     10  HN1 IND d   1       1.684  -1.874   0.295  0.00  0.00     0.298 HD
ENDROOT
TORSDOF 0
ENDMDL
