MODEL 1
REMARK minimizedAffinity 9.59784508
REMARK minimizedRMSD -1
REMARK  0 active torsions:
REMARK  status: ('A' for Active; 'I' for Inactive)
ROOT
ATOM      1  N1  IND d   1      -2.226   1.198   3.678  0.00  0.00    -0.196 N 
ATOM      2  C2  IND d   1      -2.150   2.520   4.019  0.00  0.00     0.054 A 
ATOM      3  C3  IND d   1      -1.839   3.268   2.936  0.00  0.00    -0.031 A 
ATOM      4  C4  IND d   1      -1.510   2.543   0.488  0.00  0.00     0.051 A 
ATOM      5  C5  IND d   1      -1.444   1.434  -0.308  0.00  0.00    -0.031 A 
ATOM      6  C6  IND d   1      -1.642   0.164   0.194  0.00  0.00     0.015 A 
ATOM      7  C7  IND d   1      -1.925  -0.044   1.514  0.00  0.00    -0.016 A 
ATOM      8  C8  IND d   1      -1.986   1.080   2.326  0.00  0.00    -0.047 A 
ATOM      9  C9  IND d   1      -1.745   2.367   1.831  0.00  0.00    -0.096 A 
ATOM     10  HN1 IND d   1      -2.394   0.550   4.217  0.00  0.00     0.298 HD
ENDROOT
TORSDOF 0
ENDMDL
