MODEL 1
REMARK minimizedAffinity -2.48175883
REMARK minimizedRMSD -1
REMARK  0 active torsions:
REMARK  status: ('A' for Active; 'I' for Inactive)
ROOT
ATOM      1  N1  IND d   1       2.181   1.666   1.718  0.00  0.00    -0.196 N 
ATOM      2  C2  IND d   1       2.261   2.993   2.035  0.00  0.00     0.054 A 
ATOM      3  C3  IND d   1       1.065   3.594   1.848  0.00  0.00    -0.031 A 
ATOM      4  C4  IND d   1      -1.184   2.572   1.125  0.00  0.00     0.051 A 
ATOM      5  C5  IND d   1      -1.747   1.405   0.690  0.00  0.00    -0.031 A 
ATOM      6  C6  IND d   1      -1.015   0.241   0.576  0.00  0.00     0.015 A 
ATOM      7  C7  IND d   1       0.310   0.198   0.905  0.00  0.00    -0.016 A 
ATOM      8  C8  IND d   1       0.887   1.383   1.340  0.00  0.00    -0.047 A 
ATOM      9  C9  IND d   1       0.159   2.577   1.417  0.00  0.00    -0.096 A 
ATOM     10  HN1 IND d   1       2.830   1.102   1.749  0.00  0.00     0.298 HD
ENDROOT
TORSDOF 0
ENDMDL
