MODEL 1
REMARK minimizedAffinity 5.6785121
REMARK minimizedRMSD -1
REMARK  0 active torsions:
REMARK  status: ('A' for Active; 'I' for Inactive)
ROOT
ATOM      1  N1  IND d   1       3.043   2.090   1.720  0.00  0.00    -0.196 N 
ATOM      2  C2  IND d   1       3.156   3.054   2.683  0.00  0.00     0.054 A 
ATOM      3  C3  IND d   1       1.944   3.588   2.957  0.00  0.00    -0.031 A 
ATOM      4  C4  IND d   1      -0.370   2.960   2.020  0.00  0.00     0.051 A 
ATOM      5  C5  IND d   1      -0.975   2.164   1.089  0.00  0.00    -0.031 A 
ATOM      6  C6  IND d   1      -0.258   1.282   0.307  0.00  0.00     0.015 A 
ATOM      7  C7  IND d   1       1.097   1.156   0.435  0.00  0.00    -0.016 A 
ATOM      8  C8  IND d   1       1.715   1.968   1.374  0.00  0.00    -0.047 A 
ATOM      9  C9  IND d   1       0.998   2.895   2.141  0.00  0.00    -0.096 A 
ATOM     10  HN1 IND d   1       3.693   1.637   1.385  0.00  0.00     0.298 HD
ENDROOT
TORSDOF 0
ENDMDL
