MODEL 1
REMARK minimizedAffinity 9.30634785
REMARK minimizedRMSD -1
REMARK  0 active torsions:
REMARK  status: ('A' for Active; 'I' for Inactive)
ROOT
ATOM      1  N1  IND d   1       1.526   0.740   1.125  0.00  0.00    -0.196 N 
ATOM      2  C2  IND d   1       1.983   1.875   1.735  0.00  0.00     0.054 A 
ATOM      3  C3  IND d   1       0.961   2.732   1.959  0.00  0.00    -0.031 A 
ATOM      4  C4  IND d   1      -1.554   2.434   1.500  0.00  0.00     0.051 A 
ATOM      5  C5  IND d   1      -2.449   1.579   0.921  0.00  0.00    -0.031 A 
ATOM      6  C6  IND d   1      -2.058   0.375   0.372  0.00  0.00     0.015 A 
ATOM      7  C7  IND d   1      -0.752  -0.026   0.391  0.00  0.00    -0.016 A 
ATOM      8  C8  IND d   1       0.161   0.843   0.972  0.00  0.00    -0.047 A 
ATOM      9  C9  IND d   1      -0.224   2.085   1.493  0.00  0.00    -0.096 A 
ATOM     10  HN1 IND d   1       2.011   0.073   0.878  0.00  0.00     0.298 HD
ENDROOT
TORSDOF 0
ENDMDL
