MODEL 1
REMARK minimizedAffinity 8.33693123
REMARK minimizedRMSD -1
REMARK  0 active torsions:
REMARK  status: ('A' for Active; 'I' for Inactive)
ROOT
ATOM      1  N1  IND d   1       2.126   1.602   1.283  0.00  0.00    -0.196 N 
ATOM      2  C2  IND d   1       2.735   0.505   0.741  0.00  0.00     0.054 A 
ATOM      3  C3  IND d   1       1.812  -0.342   0.233  0.00  0.00    -0.031 A 
ATOM      4  C4  IND d   1      -0.745  -0.081   0.091  0.00  0.00     0.051 A 
ATOM      5  C5  IND d   1      -1.768   0.737   0.483  0.00  0.00    -0.031 A 
ATOM      6  C6  IND d   1      -1.540   1.910   1.173  0.00  0.00     0.015 A 
ATOM      7  C7  IND d   1      -0.274   2.316   1.488  0.00  0.00    -0.016 A 
ATOM      8  C8  IND d   1       0.766   1.485   1.098  0.00  0.00    -0.047 A 
ATOM      9  C9  IND d   1       0.539   0.272   0.435  0.00  0.00    -0.096 A 
ATOM     10  HN1 IND d   1       2.526   2.256   1.673  0.00  0.00     0.298 HD
ENDROOT
TORSDOF 0
ENDMDL
