MODEL 1
REMARK minimizedAffinity 3.23984838
REMARK minimizedRMSD -1
REMARK  0 active torsions:
REMARK  status: ('A' for Active; 'I' for Inactive)
ROOT
ATOM      1  N1  IND d   1       2.069   1.271  -0.031  0.00  0.00    -0.196 N 
ATOM      2  C2  IND d   1       2.933   0.831  -0.995  0.00  0.00     0.054 A 
ATOM      3  C3  IND d   1       4.176   1.308  -0.765  0.00  0.00    -0.031 A 
ATOM      4  C4  IND d   1       5.042   2.745   1.187  0.00  0.00     0.051 A 
ATOM      5  C5  IND d   1       4.619   3.425   2.295  0.00  0.00    -0.031 A 
ATOM      6  C6  IND d   1       3.298   3.419   2.693  0.00  0.00     0.015 A 
ATOM      7  C7  IND d   1       2.349   2.721   2.002  0.00  0.00    -0.016 A 
ATOM      8  C8  IND d   1       2.773   2.035   0.873  0.00  0.00    -0.047 A 
ATOM      9  C9  IND d   1       4.105   2.072   0.440  0.00  0.00    -0.096 A 
ATOM     10  HN1 IND d   1       1.227   1.099   0.005  0.00  0.00     0.298 HD
ENDROOT
TORSDOF 0
ENDMDL
