MODEL 1
REMARK minimizedAffinity 1.17474711
REMARK minimizedRMSD -1
REMARK  0 active torsions:
REMARK  status: ('A' for Active; 'I' for Inactive)
ROOT
ATOM      1  N1  IND d   1       1.703   0.966   1.004  0.00  0.00    -0.196 N 
ATOM      2  C2  IND d   1       2.144   2.212   1.356  0.00  0.00     0.054 A 
ATOM      3  C3  IND d   1       1.098   3.055   1.510  0.00  0.00    -0.031 A 
ATOM      4  C4  IND d   1      -1.426   2.579   1.335  0.00  0.00     0.051 A 
ATOM      5  C5  IND d   1      -2.316   1.598   1.000  0.00  0.00    -0.031 A 
ATOM      6  C6  IND d   1      -1.905   0.329   0.645  0.00  0.00     0.015 A 
ATOM      7  C7  IND d   1      -0.581  -0.009   0.622  0.00  0.00    -0.016 A 
ATOM      8  C8  IND d   1       0.326   0.986   0.955  0.00  0.00    -0.047 A 
ATOM      9  C9  IND d   1      -0.084   2.287   1.274  0.00  0.00    -0.096 A 
ATOM     10  HN1 IND d   1       2.202   0.285   0.840  0.00  0.00     0.298 HD
ENDROOT
TORSDOF 0
ENDMDL
