MODEL 1
REMARK minimizedAffinity 8.31259155
REMARK minimizedRMSD -1
REMARK  0 active torsions:
REMARK  status: ('A' for Active; 'I' for Inactive)
ROOT
ATOM      1  N1  IND d   1       0.776   2.241   1.132  0.00  0.00    -0.196 N 
ATOM      2  C2  IND d   1       0.084   3.363   1.495  0.00  0.00     0.054 A 
ATOM      3  C3  IND d   1      -1.245   3.164   1.349  0.00  0.00    -0.031 A 
ATOM      4  C4  IND d   1      -2.512   1.042   0.627  0.00  0.00     0.051 A 
ATOM      5  C5  IND d   1      -2.310  -0.226   0.161  0.00  0.00    -0.031 A 
ATOM      6  C6  IND d   1      -1.044  -0.749  -0.006  0.00  0.00     0.015 A 
ATOM      7  C7  IND d   1       0.073  -0.023   0.299  0.00  0.00    -0.016 A 
ATOM      8  C8  IND d   1      -0.128   1.268   0.766  0.00  0.00    -0.047 A 
ATOM      9  C9  IND d   1      -1.410   1.819   0.897  0.00  0.00    -0.096 A 
ATOM     10  HN1 IND d   1       1.631   2.157   1.133  0.00  0.00     0.298 HD
ENDROOT
TORSDOF 0
ENDMDL
