MODEL 1
REMARK minimizedAffinity -4.46909952
REMARK minimizedRMSD -1
REMARK  0 active torsions:
REMARK  status: ('A' for Active; 'I' for Inactive)
ROOT
ATOM      1  C4' PXY d   1       1.071  -0.712   1.333  0.00  0.00     0.077 C 
ATOM      2  C1' PXY d   1      -1.357   4.416   0.230  0.00  0.00     0.077 C 
ATOM      3  C1  PXY d   1      -0.729   3.066   0.511  0.00  0.00    -0.082 A 
ATOM      4  C2  PXY d   1      -0.081   2.869   1.648  0.00  0.00     0.003 A 
ATOM      5  C3  PXY d   1       0.520   1.664   1.905  0.00  0.00     0.003 A 
ATOM      6  C4  PXY d   1       0.413   0.632   1.011  0.00  0.00    -0.082 A 
ATOM      7  C5  PXY d   1      -0.255   0.821  -0.146  0.00  0.00     0.003 A 
ATOM      8  C6  PXY d   1      -0.824   2.065  -0.406  0.00  0.00     0.003 A 
ENDROOT
TORSDOF 0
ENDMDL
