MODEL 1
REMARK minimizedAffinity -5.65396404
REMARK minimizedRMSD -1
REMARK  0 active torsions:
REMARK  status: ('A' for Active; 'I' for Inactive)
ROOT
ATOM      1  C4' PXY d   1      -1.502   4.400   0.754  0.00  0.00     0.077 C 
ATOM      2  C1' PXY d   1       0.794  -0.882   0.261  0.00  0.00     0.077 C 
ATOM      3  C1  PXY d   1       0.192   0.503   0.403  0.00  0.00    -0.082 A 
ATOM      4  C2  PXY d   1      -0.520   1.011  -0.589  0.00  0.00     0.003 A 
ATOM      5  C3  PXY d   1      -1.045   2.274  -0.490  0.00  0.00     0.003 A 
ATOM      6  C4  PXY d   1      -0.884   3.003   0.658  0.00  0.00    -0.082 A 
ATOM      7  C5  PXY d   1      -0.167   2.487   1.679  0.00  0.00     0.003 A 
ATOM      8  C6  PXY d   1       0.392   1.220   1.542  0.00  0.00     0.003 A 
ENDROOT
TORSDOF 0
ENDMDL
