MODEL 1
REMARK minimizedAffinity -2.76456714
REMARK minimizedRMSD -1
REMARK  0 active torsions:
REMARK  status: ('A' for Active; 'I' for Inactive)
ROOT
ATOM      1  C4' PXY d   1      -0.492   3.436  -1.207  0.00  0.00     0.077 C 
ATOM      2  C1' PXY d   1       0.281  -1.109   2.280  0.00  0.00     0.077 C 
ATOM      3  C1  PXY d   1       0.086   0.077   1.357  0.00  0.00    -0.082 A 
ATOM      4  C2  PXY d   1      -0.218   1.260   1.866  0.00  0.00     0.003 A 
ATOM      5  C3  PXY d   1      -0.430   2.336   1.043  0.00  0.00     0.003 A 
ATOM      6  C4  PXY d   1      -0.276   2.212  -0.312  0.00  0.00    -0.082 A 
ATOM      7  C5  PXY d   1       0.044   1.011  -0.838  0.00  0.00     0.003 A 
ATOM      8  C6  PXY d   1       0.214  -0.078   0.011  0.00  0.00     0.003 A 
ENDROOT
TORSDOF 0
ENDMDL
