MODEL 1
REMARK minimizedAffinity -0.774148107
REMARK minimizedRMSD -1
REMARK  0 active torsions:
REMARK  status: ('A' for Active; 'I' for Inactive)
ROOT
ATOM      1  C4' PXY d   1      -2.079   3.450  -1.416  0.00  0.00     0.077 C 
ATOM      2  C1' PXY d   1       1.021  -1.292  -0.265  0.00  0.00     0.077 C 
ATOM      3  C1  PXY d   1       0.199  -0.052  -0.558  0.00  0.00    -0.082 A 
ATOM      4  C2  PXY d   1       0.305   0.539  -1.737  0.00  0.00     0.003 A 
ATOM      5  C3  PXY d   1      -0.407   1.680  -2.007  0.00  0.00     0.003 A 
ATOM      6  C4  PXY d   1      -1.276   2.190  -1.080  0.00  0.00    -0.082 A 
ATOM      7  C5  PXY d   1      -1.397   1.587   0.121  0.00  0.00     0.003 A 
ATOM      8  C6  PXY d   1      -0.635   0.453   0.391  0.00  0.00     0.003 A 
ENDROOT
TORSDOF 0
ENDMDL
