MODEL 1
REMARK minimizedAffinity -4.13432407
REMARK minimizedRMSD -1
REMARK  0 active torsions:
REMARK  status: ('A' for Active; 'I' for Inactive)
ROOT
ATOM      1  C4' PXY d   1      -0.077   3.847  -0.005  0.00  0.00     0.077 C 
ATOM      2  C1' PXY d   1       0.307  -1.795  -1.202  0.00  0.00     0.077 C 
ATOM      3  C1  PXY d   1       0.209  -0.313  -0.900  0.00  0.00    -0.082 A 
ATOM      4  C2  PXY d   1       0.348   0.112   0.345  0.00  0.00     0.003 A 
ATOM      5  C3  PXY d   1       0.231   1.446   0.640  0.00  0.00     0.003 A 
ATOM      6  C4  PXY d   1       0.023   2.360  -0.358  0.00  0.00    -0.082 A 
ATOM      7  C5  PXY d   1      -0.109   1.936  -1.632  0.00  0.00     0.003 A 
ATOM      8  C6  PXY d   1      -0.028   0.574  -1.905  0.00  0.00     0.003 A 
ENDROOT
TORSDOF 0
ENDMDL
