MODEL 1
REMARK minimizedAffinity -1.81696725
REMARK minimizedRMSD -1
REMARK  0 active torsions:
REMARK  status: ('A' for Active; 'I' for Inactive)
ROOT
ATOM      1  C4' PXY d   1      -0.554   3.556  -1.820  0.00  0.00     0.077 C 
ATOM      2  C1' PXY d   1       0.357  -0.069   2.590  0.00  0.00     0.077 C 
ATOM      3  C1  PXY d   1       0.123   0.873   1.425  0.00  0.00    -0.082 A 
ATOM      4  C2  PXY d   1       0.087   2.179   1.636  0.00  0.00     0.003 A 
ATOM      5  C3  PXY d   1      -0.156   3.043   0.600  0.00  0.00     0.003 A 
ATOM      6  C4  PXY d   1      -0.311   2.569  -0.675  0.00  0.00    -0.082 A 
ATOM      7  C5  PXY d   1      -0.265   1.239  -0.901  0.00  0.00     0.003 A 
ATOM      8  C6  PXY d   1      -0.058   0.376   0.171  0.00  0.00     0.003 A 
ENDROOT
TORSDOF 0
ENDMDL
