MODEL 1
REMARK minimizedAffinity -5.04299259
REMARK minimizedRMSD -1
REMARK  0 active torsions:
REMARK  status: ('A' for Active; 'I' for Inactive)
ROOT
ATOM      1  C4' PXY d   1      -1.153   2.912  -1.340  0.00  0.00     0.077 C 
ATOM      2  C1' PXY d   1       1.452  -0.488   2.542  0.00  0.00     0.077 C 
ATOM      3  C1  PXY d   1       0.761   0.409   1.533  0.00  0.00    -0.082 A 
ATOM      4  C2  PXY d   1       0.727   0.055   0.259  0.00  0.00     0.003 A 
ATOM      5  C3  PXY d   1       0.135   0.870  -0.672  0.00  0.00     0.003 A 
ATOM      6  C4  PXY d   1      -0.475   2.033  -0.286  0.00  0.00    -0.082 A 
ATOM      7  C5  PXY d   1      -0.454   2.396   1.014  0.00  0.00     0.003 A 
ATOM      8  C6  PXY d   1       0.188   1.575   1.937  0.00  0.00     0.003 A 
ENDROOT
TORSDOF 0
ENDMDL
