MODEL 1
REMARK minimizedAffinity -4.61806917
REMARK minimizedRMSD -1
REMARK  0 active torsions:
REMARK  status: ('A' for Active; 'I' for Inactive)
ROOT
ATOM      1  C4' PXY d   1       1.017  -0.854  -0.309  0.00  0.00     0.077 C 
ATOM      2  C1' PXY d   1      -1.892   3.839   1.400  0.00  0.00     0.077 C 
ATOM      3  C1  PXY d   1      -1.136   2.608   0.941  0.00  0.00    -0.082 A 
ATOM      4  C2  PXY d   1      -0.553   1.827   1.836  0.00  0.00     0.003 A 
ATOM      5  C3  PXY d   1       0.162   0.728   1.436  0.00  0.00     0.003 A 
ATOM      6  C4  PXY d   1       0.235   0.394   0.110  0.00  0.00    -0.082 A 
ATOM      7  C5  PXY d   1      -0.366   1.180  -0.808  0.00  0.00     0.003 A 
ATOM      8  C6  PXY d   1      -1.052   2.315  -0.385  0.00  0.00     0.003 A 
ENDROOT
TORSDOF 0
ENDMDL
