MODEL 1
REMARK minimizedAffinity -5.30493593
REMARK minimizedRMSD -1
REMARK  0 active torsions:
REMARK  status: ('A' for Active; 'I' for Inactive)
ROOT
ATOM      1  C4' PXY d   1      -1.420   3.536   1.618  0.00  0.00     0.077 C 
ATOM      2  C1' PXY d   1       0.694  -1.076  -1.152  0.00  0.00     0.077 C 
ATOM      3  C1  PXY d   1       0.142   0.141  -0.436  0.00  0.00    -0.082 A 
ATOM      4  C2  PXY d   1       0.173   0.193   0.886  0.00  0.00     0.003 A 
ATOM      5  C3  PXY d   1      -0.352   1.271   1.550  0.00  0.00     0.003 A 
ATOM      6  C4  PXY d   1      -0.865   2.332   0.853  0.00  0.00    -0.082 A 
ATOM      7  C5  PXY d   1      -0.891   2.292  -0.496  0.00  0.00     0.003 A 
ATOM      8  C6  PXY d   1      -0.391   1.170  -1.151  0.00  0.00     0.003 A 
ENDROOT
TORSDOF 0
ENDMDL
