MODEL 1
REMARK minimizedAffinity -3.2751224
REMARK minimizedRMSD -1
REMARK  0 active torsions:
REMARK  status: ('A' for Active; 'I' for Inactive)
ROOT
ATOM      1  C4' PXY d   1       0.498  -1.479  -1.203  0.00  0.00     0.077 C 
ATOM      2  C1' PXY d   1      -1.385   2.907   2.057  0.00  0.00     0.077 C 
ATOM      3  C1  PXY d   1      -0.879   1.757   1.208  0.00  0.00    -0.082 A 
ATOM      4  C2  PXY d   1      -1.429   1.526   0.027  0.00  0.00     0.003 A 
ATOM      5  C3  PXY d   1      -1.006   0.470  -0.740  0.00  0.00     0.003 A 
ATOM      6  C4  PXY d   1       0.026  -0.324  -0.316  0.00  0.00    -0.082 A 
ATOM      7  C5  PXY d   1       0.599  -0.087   0.883  0.00  0.00     0.003 A 
ATOM      8  C6  PXY d   1       0.127   0.963   1.664  0.00  0.00     0.003 A 
ENDROOT
TORSDOF 0
ENDMDL
