MODEL 1
REMARK minimizedAffinity -4.74217176
REMARK minimizedRMSD -1
REMARK  0 active torsions:
REMARK  status: ('A' for Active; 'I' for Inactive)
ROOT
ATOM      1  C4' PXY d   1       0.307  -1.042  -0.826  0.00  0.00     0.077 C 
ATOM      2  C1' PXY d   1      -1.431   3.764   1.875  0.00  0.00     0.077 C 
ATOM      3  C1  PXY d   1      -0.967   2.501   1.177  0.00  0.00    -0.082 A 
ATOM      4  C2  PXY d   1      -1.080   2.402  -0.138  0.00  0.00     0.003 A 
ATOM      5  C3  PXY d   1      -0.695   1.254  -0.782  0.00  0.00     0.003 A 
ATOM      6  C4  PXY d   1      -0.140   0.218  -0.080  0.00  0.00    -0.082 A 
ATOM      7  C5  PXY d   1      -0.011   0.317   1.260  0.00  0.00     0.003 A 
ATOM      8  C6  PXY d   1      -0.446   1.474   1.900  0.00  0.00     0.003 A 
ENDROOT
TORSDOF 0
ENDMDL
