MODEL 1
REMARK minimizedAffinity 7.15229654
REMARK minimizedRMSD -1
REMARK  1 active torsions:
REMARK  status: ('A' for Active; 'I' for Inactive)
REMARK    1  A    between atoms: C1_2  and  C2_3 
ROOT
ATOM      1  C2  UNL d   1      -5.947   0.360  -3.565  0.00  0.00    -0.076 A 
ATOM      2  C3  UNL d   1      -5.978  -0.292  -4.810  0.00  0.00     0.004 A 
ATOM      3  C4  UNL d   1      -6.000   0.433  -6.000  0.00  0.00    -0.003 A 
ATOM      4  C5  UNL d   1      -5.990   1.823  -5.965  0.00  0.00     0.000 A 
ATOM      5  C6  UNL d   1      -5.942   2.487  -4.739  0.00  0.00     0.000 A 
ATOM      6  C7  UNL d   1      -5.903   1.771  -3.531  0.00  0.00    -0.073 A 
ATOM      7  C8  UNL d   1      -5.858   2.538  -2.238  0.00  0.00     0.078 C 
ENDROOT
BRANCH   1   8
ATOM      8  C1  UNL d   1      -5.953  -0.478  -2.307  0.00  0.00     0.053 C 
ATOM      9  C   UNL d   1      -4.550  -0.798  -1.814  0.00  0.00     0.018 C 
ENDBRANCH   1   8
TORSDOF 1
ENDMDL
