MODEL 1
REMARK minimizedAffinity 11.2122211
REMARK minimizedRMSD -1
REMARK  1 active torsions:
REMARK  status: ('A' for Active; 'I' for Inactive)
REMARK    1  A    between atoms: C1_2  and  C2_3 
ROOT
ATOM      1  C2  UNL d   1       0.885   4.375  -3.747  0.00  0.00    -0.076 A 
ATOM      2  C3  UNL d   1       1.691   4.562  -4.883  0.00  0.00     0.004 A 
ATOM      3  C4  UNL d   1       1.214   5.257  -5.993  0.00  0.00    -0.003 A 
ATOM      4  C5  UNL d   1      -0.076   5.776  -5.985  0.00  0.00     0.000 A 
ATOM      5  C6  UNL d   1      -0.882   5.615  -4.859  0.00  0.00     0.000 A 
ATOM      6  C7  UNL d   1      -0.411   4.931  -3.725  0.00  0.00    -0.073 A 
ATOM      7  C8  UNL d   1      -1.326   4.781  -2.541  0.00  0.00     0.078 C 
ENDROOT
BRANCH   1   8
ATOM      8  C1  UNL d   1       1.447   3.589  -2.583  0.00  0.00     0.053 C 
ATOM      9  C   UNL d   1       0.851   2.193  -2.481  0.00  0.00     0.018 C 
ENDBRANCH   1   8
TORSDOF 1
ENDMDL
