MODEL 1
REMARK minimizedAffinity 8.52068329
REMARK minimizedRMSD -1
REMARK  1 active torsions:
REMARK  status: ('A' for Active; 'I' for Inactive)
REMARK    1  A    between atoms: C1_2  and  C2_3 
ROOT
ATOM      1  C2  UNL d   1      -0.355  -2.851   2.073  0.00  0.00    -0.076 A 
ATOM      2  C3  UNL d   1      -1.567  -2.371   2.600  0.00  0.00     0.004 A 
ATOM      3  C4  UNL d   1      -2.790  -2.844   2.130  0.00  0.00    -0.003 A 
ATOM      4  C5  UNL d   1      -2.822  -3.805   1.125  0.00  0.00     0.000 A 
ATOM      5  C6  UNL d   1      -1.630  -4.305   0.603  0.00  0.00     0.000 A 
ATOM      6  C7  UNL d   1      -0.387  -3.851   1.078  0.00  0.00    -0.073 A 
ATOM      7  C8  UNL d   1       0.868  -4.420   0.475  0.00  0.00     0.078 C 
ENDROOT
BRANCH   1   8
ATOM      8  C1  UNL d   1       0.942  -2.281   2.603  0.00  0.00     0.053 C 
ATOM      9  C   UNL d   1       1.609  -3.197   3.617  0.00  0.00     0.018 C 
ENDBRANCH   1   8
TORSDOF 1
ENDMDL
