MODEL 1
REMARK minimizedAffinity 7.28782082
REMARK minimizedRMSD -1
REMARK  1 active torsions:
REMARK  status: ('A' for Active; 'I' for Inactive)
REMARK    1  A    between atoms: C1_2  and  C2_3 
ROOT
ATOM      1  C2  UNL d   1      -2.757  -4.356   1.075  0.00  0.00    -0.076 A 
ATOM      2  C3  UNL d   1      -3.067  -5.678   1.440  0.00  0.00     0.004 A 
ATOM      3  C4  UNL d   1      -4.154  -5.958   2.266  0.00  0.00    -0.003 A 
ATOM      4  C5  UNL d   1      -4.950  -4.921   2.740  0.00  0.00     0.000 A 
ATOM      5  C6  UNL d   1      -4.667  -3.605   2.374  0.00  0.00     0.000 A 
ATOM      6  C7  UNL d   1      -3.584  -3.307   1.529  0.00  0.00    -0.073 A 
ATOM      7  C8  UNL d   1      -3.322  -1.869   1.172  0.00  0.00     0.078 C 
ENDROOT
BRANCH   1   8
ATOM      8  C1  UNL d   1      -1.549  -4.111   0.200  0.00  0.00     0.053 C 
ATOM      9  C   UNL d   1      -0.291  -3.829   1.007  0.00  0.00     0.018 C 
ENDBRANCH   1   8
TORSDOF 1
ENDMDL
