MODEL 1
REMARK minimizedAffinity 3.31022334
REMARK minimizedRMSD -1
REMARK  1 active torsions:
REMARK  status: ('A' for Active; 'I' for Inactive)
REMARK    1  A    between atoms: C1_2  and  C2_3 
ROOT
ATOM      1  C2  UNL d   1      -5.553   3.024  -0.995  0.00  0.00    -0.076 A 
ATOM      2  C3  UNL d   1      -5.646   3.210  -2.385  0.00  0.00     0.004 A 
ATOM      3  C4  UNL d   1      -5.864   2.131  -3.240  0.00  0.00    -0.003 A 
ATOM      4  C5  UNL d   1      -5.993   0.848  -2.719  0.00  0.00     0.000 A 
ATOM      5  C6  UNL d   1      -5.921   0.648  -1.341  0.00  0.00     0.000 A 
ATOM      6  C7  UNL d   1      -5.718   1.727  -0.464  0.00  0.00    -0.073 A 
ATOM      7  C8  UNL d   1      -5.642   1.452   1.013  0.00  0.00     0.078 C 
ENDROOT
BRANCH   1   8
ATOM      8  C1  UNL d   1      -5.288   4.228  -0.120  0.00  0.00     0.053 C 
ATOM      9  C   UNL d   1      -3.809   4.573  -0.035  0.00  0.00     0.018 C 
ENDBRANCH   1   8
TORSDOF 1
ENDMDL
