MODEL 1
REMARK minimizedAffinity -1.89192879
REMARK minimizedRMSD -1
REMARK  1 active torsions:
REMARK  status: ('A' for Active; 'I' for Inactive)
REMARK    1  A    between atoms: C1_2  and  C2_3 
ROOT
ATOM      1  C2  UNL d   1      -2.079  -0.848   2.571  0.00  0.00    -0.076 A 
ATOM      2  C3  UNL d   1      -0.848  -1.518   2.676  0.00  0.00     0.004 A 
ATOM      3  C4  UNL d   1      -0.641  -2.741   2.039  0.00  0.00    -0.003 A 
ATOM      4  C5  UNL d   1      -1.661  -3.313   1.287  0.00  0.00     0.000 A 
ATOM      5  C6  UNL d   1      -2.883  -2.653   1.158  0.00  0.00     0.000 A 
ATOM      6  C7  UNL d   1      -3.103  -1.412   1.780  0.00  0.00    -0.073 A 
ATOM      7  C8  UNL d   1      -4.442  -0.747   1.612  0.00  0.00     0.078 C 
ENDROOT
BRANCH   1   8
ATOM      8  C1  UNL d   1      -2.255   0.462   3.306  0.00  0.00     0.053 C 
ATOM      9  C   UNL d   1      -1.962   0.340   4.793  0.00  0.00     0.018 C 
ENDBRANCH   1   8
TORSDOF 1
ENDMDL
