MODEL 1
REMARK minimizedAffinity 10.2062378
REMARK minimizedRMSD -1
REMARK  1 active torsions:
REMARK  status: ('A' for Active; 'I' for Inactive)
REMARK    1  A    between atoms: C1_2  and  C2_3 
ROOT
ATOM      1  C2  UNL d   1       1.083   3.920  -3.638  0.00  0.00    -0.076 A 
ATOM      2  C3  UNL d   1      -0.269   4.262  -3.815  0.00  0.00     0.004 A 
ATOM      3  C4  UNL d   1      -0.705   4.878  -4.987  0.00  0.00    -0.003 A 
ATOM      4  C5  UNL d   1       0.204   5.163  -6.000  0.00  0.00     0.000 A 
ATOM      5  C6  UNL d   1       1.546   4.815  -5.848  0.00  0.00     0.000 A 
ATOM      6  C7  UNL d   1       1.999   4.178  -4.680  0.00  0.00    -0.073 A 
ATOM      7  C8  UNL d   1       3.458   3.831  -4.567  0.00  0.00     0.078 C 
ENDROOT
BRANCH   1   8
ATOM      8  C1  UNL d   1       1.503   3.278  -2.335  0.00  0.00     0.053 C 
ATOM      9  C   UNL d   1       1.785   1.790  -2.483  0.00  0.00     0.018 C 
ENDBRANCH   1   8
TORSDOF 1
ENDMDL
