MODEL 1
REMARK minimizedAffinity 5.05906248
REMARK minimizedRMSD -1
REMARK  1 active torsions:
REMARK  status: ('A' for Active; 'I' for Inactive)
REMARK    1  A    between atoms: C1_2  and  C2_3 
ROOT
ATOM      1  C2  UNL d   1      -5.982   0.897  -3.272  0.00  0.00    -0.076 A 
ATOM      2  C3  UNL d   1      -5.966  -0.003  -4.352  0.00  0.00     0.004 A 
ATOM      3  C4  UNL d   1      -5.974   0.456  -5.668  0.00  0.00    -0.003 A 
ATOM      4  C5  UNL d   1      -5.999   1.822  -5.926  0.00  0.00     0.000 A 
ATOM      5  C6  UNL d   1      -5.998   2.729  -4.867  0.00  0.00     0.000 A 
ATOM      6  C7  UNL d   1      -5.973   2.284  -3.534  0.00  0.00    -0.073 A 
ATOM      7  C8  UNL d   1      -5.979   3.306  -2.431  0.00  0.00     0.078 C 
ENDROOT
BRANCH   1   8
ATOM      8  C1  UNL d   1      -5.999   0.341  -1.866  0.00  0.00     0.053 C 
ATOM      9  C   UNL d   1      -5.882  -1.175  -1.838  0.00  0.00     0.018 C 
ENDBRANCH   1   8
TORSDOF 1
ENDMDL
