MODEL 1
REMARK minimizedAffinity 4.6521368
REMARK minimizedRMSD -1
REMARK  1 active torsions:
REMARK  status: ('A' for Active; 'I' for Inactive)
REMARK    1  A    between atoms: C1_2  and  C2_3 
ROOT
ATOM      1  C2  UNL d   1       0.506   4.288  -3.759  0.00  0.00    -0.076 A 
ATOM      2  C3  UNL d   1      -0.883   4.500  -3.756  0.00  0.00     0.004 A 
ATOM      3  C4  UNL d   1      -1.524   5.074  -4.853  0.00  0.00    -0.003 A 
ATOM      4  C5  UNL d   1      -0.785   5.444  -5.972  0.00  0.00     0.000 A 
ATOM      5  C6  UNL d   1       0.592   5.225  -5.999  0.00  0.00     0.000 A 
ATOM      6  C7  UNL d   1       1.251   4.632  -4.908  0.00  0.00    -0.073 A 
ATOM      7  C8  UNL d   1       2.738   4.425  -4.989  0.00  0.00     0.078 C 
ENDROOT
BRANCH   1   8
ATOM      8  C1  UNL d   1       1.150   3.687  -2.530  0.00  0.00     0.053 C 
ATOM      9  C   UNL d   1       0.782   2.224  -2.336  0.00  0.00     0.018 C 
ENDBRANCH   1   8
TORSDOF 1
ENDMDL
