MODEL 1
REMARK minimizedAffinity 3.87839842
REMARK minimizedRMSD -1
REMARK  1 active torsions:
REMARK  status: ('A' for Active; 'I' for Inactive)
REMARK    1  A    between atoms: C1_2  and  C2_3 
ROOT
ATOM      1  C2  UNL d   1       0.683   4.656  -3.686  0.00  0.00    -0.076 A 
ATOM      2  C3  UNL d   1      -0.601   5.228  -3.711  0.00  0.00     0.004 A 
ATOM      3  C4  UNL d   1      -1.084   5.857  -4.857  0.00  0.00    -0.003 A 
ATOM      4  C5  UNL d   1      -0.291   5.924  -5.997  0.00  0.00     0.000 A 
ATOM      5  C6  UNL d   1       0.978   5.347  -5.996  0.00  0.00     0.000 A 
ATOM      6  C7  UNL d   1       1.474   4.695  -4.854  0.00  0.00    -0.073 A 
ATOM      7  C8  UNL d   1       2.853   4.095  -4.906  0.00  0.00     0.078 C 
ENDROOT
BRANCH   1   8
ATOM      8  C1  UNL d   1       1.163   4.011  -2.405  0.00  0.00     0.053 C 
ATOM      9  C   UNL d   1       1.431   2.523  -2.568  0.00  0.00     0.018 C 
ENDBRANCH   1   8
TORSDOF 1
ENDMDL
