MODEL 1
REMARK minimizedAffinity 11.7065649
REMARK minimizedRMSD -1
REMARK  1 active torsions:
REMARK  status: ('A' for Active; 'I' for Inactive)
REMARK    1  A    between atoms: C1_2  and  C2_3 
ROOT
ATOM      1  C2  UNL d   1      -0.819  -1.856   2.211  0.00  0.00    -0.076 A 
ATOM      2  C3  UNL d   1      -1.834  -2.349   1.373  0.00  0.00     0.004 A 
ATOM      3  C4  UNL d   1      -1.598  -3.425   0.518  0.00  0.00    -0.003 A 
ATOM      4  C5  UNL d   1      -0.344  -4.025   0.488  0.00  0.00     0.000 A 
ATOM      5  C6  UNL d   1       0.669  -3.559   1.326  0.00  0.00     0.000 A 
ATOM      6  C7  UNL d   1       0.443  -2.486   2.205  0.00  0.00    -0.073 A 
ATOM      7  C8  UNL d   1       1.573  -2.021   3.082  0.00  0.00     0.078 C 
ENDROOT
BRANCH   1   8
ATOM      8  C1  UNL d   1      -1.125  -0.669   3.097  0.00  0.00     0.053 C 
ATOM      9  C   UNL d   1      -1.890   0.423   2.365  0.00  0.00     0.018 C 
ENDBRANCH   1   8
TORSDOF 1
ENDMDL
