MODEL 1
REMARK minimizedAffinity 3.50737476
REMARK minimizedRMSD -1
REMARK  1 active torsions:
REMARK  status: ('A' for Active; 'I' for Inactive)
REMARK    1  A    between atoms: C1_2  and  C2_3 
ROOT
ATOM      1  C2  UNL d   1       0.021   3.914  -3.998  0.00  0.00    -0.076 A 
ATOM      2  C3  UNL d   1      -1.122   4.167  -4.776  0.00  0.00     0.004 A 
ATOM      3  C4  UNL d   1      -1.139   5.202  -5.710  0.00  0.00    -0.003 A 
ATOM      4  C5  UNL d   1      -0.014   6.000  -5.882  0.00  0.00     0.000 A 
ATOM      5  C6  UNL d   1       1.135   5.752  -5.131  0.00  0.00     0.000 A 
ATOM      6  C7  UNL d   1       1.175   4.703  -4.196  0.00  0.00    -0.073 A 
ATOM      7  C8  UNL d   1       2.438   4.484  -3.410  0.00  0.00     0.078 C 
ENDROOT
BRANCH   1   8
ATOM      8  C1  UNL d   1      -0.027   2.796  -2.981  0.00  0.00     0.053 C 
ATOM      9  C   UNL d   1       1.292   2.620  -2.245  0.00  0.00     0.018 C 
ENDBRANCH   1   8
TORSDOF 1
ENDMDL
