MODEL 1
REMARK minimizedAffinity 2.28149867
REMARK minimizedRMSD -1
REMARK  1 active torsions:
REMARK  status: ('A' for Active; 'I' for Inactive)
REMARK    1  A    between atoms: C1_2  and  C2_3 
ROOT
ATOM      1  C2  UNL d   1       2.016   1.377  -0.583  0.00  0.00    -0.076 A 
ATOM      2  C3  UNL d   1       2.508   0.100  -0.907  0.00  0.00     0.004 A 
ATOM      3  C4  UNL d   1       3.447  -0.534  -0.096  0.00  0.00    -0.003 A 
ATOM      4  C5  UNL d   1       3.911   0.097   1.053  0.00  0.00     0.000 A 
ATOM      5  C6  UNL d   1       3.421   1.356   1.399  0.00  0.00     0.000 A 
ATOM      6  C7  UNL d   1       2.461   2.003   0.601  0.00  0.00    -0.073 A 
ATOM      7  C8  UNL d   1       1.973   3.362   1.019  0.00  0.00     0.078 C 
ENDROOT
BRANCH   1   8
ATOM      8  C1  UNL d   1       1.019   2.027  -1.514  0.00  0.00     0.053 C 
ATOM      9  C   UNL d   1       1.640   3.133  -2.353  0.00  0.00     0.018 C 
ENDBRANCH   1   8
TORSDOF 1
ENDMDL
