MODEL 1
REMARK minimizedAffinity 9.54600906
REMARK minimizedRMSD -1
REMARK  1 active torsions:
REMARK  status: ('A' for Active; 'I' for Inactive)
REMARK    1  A    between atoms: C1_2  and  C2_3 
ROOT
ATOM      1  C2  UNL d   1       2.170   0.052   1.132  0.00  0.00    -0.076 A 
ATOM      2  C3  UNL d   1       3.554  -0.193   1.175  0.00  0.00     0.004 A 
ATOM      3  C4  UNL d   1       4.087  -1.147   2.040  0.00  0.00    -0.003 A 
ATOM      4  C5  UNL d   1       3.245  -1.873   2.875  0.00  0.00     0.000 A 
ATOM      5  C6  UNL d   1       1.868  -1.656   2.832  0.00  0.00     0.000 A 
ATOM      6  C7  UNL d   1       1.313  -0.709   1.955  0.00  0.00    -0.073 A 
ATOM      7  C8  UNL d   1      -0.178  -0.512   1.955  0.00  0.00     0.078 C 
ENDROOT
BRANCH   1   8
ATOM      8  C1  UNL d   1       1.652   1.118   0.193  0.00  0.00     0.053 C 
ATOM      9  C   UNL d   1       1.883   0.769  -1.269  0.00  0.00     0.018 C 
ENDBRANCH   1   8
TORSDOF 1
ENDMDL
