MODEL 1
REMARK minimizedAffinity 2.8802247
REMARK minimizedRMSD -1
REMARK  1 active torsions:
REMARK  status: ('A' for Active; 'I' for Inactive)
REMARK    1  A    between atoms: C1_2  and  C2_3 
ROOT
ATOM      1  C2  UNL d   1       2.124  -1.096  -1.008  0.00  0.00    -0.077 A 
ATOM      2  C3  UNL d   1       2.162   0.277  -0.729  0.00  0.00     0.002 A 
ATOM      3  C4  UNL d   1       1.433   0.800   0.341  0.00  0.00     0.002 A 
ATOM      4  C5  UNL d   1       0.665  -0.043   1.142  0.00  0.00    -0.004 A 
ATOM      5  C6  UNL d   1       0.620  -1.410   0.870  0.00  0.00     0.002 A 
ATOM      6  C7  UNL d   1       1.347  -1.934  -0.199  0.00  0.00     0.002 A 
ENDROOT
BRANCH   1   7
ATOM      7  C1  UNL d   1       2.949  -1.670  -2.131  0.00  0.00     0.055 C 
ATOM      8  C   UNL d   1       4.184  -0.822  -2.400  0.00  0.00     0.019 C 
ENDBRANCH   1   7
TORSDOF 1
ENDMDL
