MODEL 1
REMARK minimizedAffinity -4.82249069
REMARK minimizedRMSD -1
REMARK  1 active torsions:
REMARK  status: ('A' for Active; 'I' for Inactive)
REMARK    1  A    between atoms: C1_2  and  C2_3 
ROOT
ATOM      1  C2  UNL d   1      -3.436   3.318  -2.737  0.00  0.00    -0.077 A 
ATOM      2  C3  UNL d   1      -2.642   2.419  -3.463  0.00  0.00     0.002 A 
ATOM      3  C4  UNL d   1      -1.290   2.690  -3.683  0.00  0.00     0.002 A 
ATOM      4  C5  UNL d   1      -0.721   3.857  -3.178  0.00  0.00    -0.004 A 
ATOM      5  C6  UNL d   1      -1.503   4.759  -2.457  0.00  0.00     0.002 A 
ATOM      6  C7  UNL d   1      -2.855   4.490  -2.237  0.00  0.00     0.002 A 
ENDROOT
BRANCH   1   7
ATOM      7  C1  UNL d   1      -4.883   3.003  -2.456  0.00  0.00     0.055 C 
ATOM      8  C   UNL d   1      -5.766   3.348  -3.647  0.00  0.00     0.019 C 
ENDBRANCH   1   7
TORSDOF 1
ENDMDL
