MODEL 1
REMARK minimizedAffinity -0.750150084
REMARK minimizedRMSD -1
REMARK  1 active torsions:
REMARK  status: ('A' for Active; 'I' for Inactive)
REMARK    1  A    between atoms: C1_2  and  C2_3 
ROOT
ATOM      1  C2  UNL d   1      -3.191   3.137  -3.853  0.00  0.00    -0.077 A 
ATOM      2  C3  UNL d   1      -3.908   2.303  -2.982  0.00  0.00     0.002 A 
ATOM      3  C4  UNL d   1      -5.302   2.354  -2.943  0.00  0.00     0.002 A 
ATOM      4  C5  UNL d   1      -5.992   3.234  -3.775  0.00  0.00    -0.004 A 
ATOM      5  C6  UNL d   1      -5.289   4.068  -4.643  0.00  0.00     0.002 A 
ATOM      6  C7  UNL d   1      -3.895   4.019  -4.682  0.00  0.00     0.002 A 
ENDROOT
BRANCH   1   7
ATOM      7  C1  UNL d   1      -1.690   3.048  -3.931  0.00  0.00     0.055 C 
ATOM      8  C   UNL d   1      -1.026   4.055  -3.003  0.00  0.00     0.019 C 
ENDBRANCH   1   7
TORSDOF 1
ENDMDL
