MODEL 1
REMARK minimizedAffinity 3.39431167
REMARK minimizedRMSD -1
REMARK  1 active torsions:
REMARK  status: ('A' for Active; 'I' for Inactive)
REMARK    1  A    between atoms: C1_2  and  C2_3 
ROOT
ATOM      1  C2  UNL d   1       3.242  -0.594  -0.924  0.00  0.00    -0.077 A 
ATOM      2  C3  UNL d   1       4.222  -1.120  -1.777  0.00  0.00     0.002 A 
ATOM      3  C4  UNL d   1       4.948  -0.279  -2.623  0.00  0.00     0.002 A 
ATOM      4  C5  UNL d   1       4.705   1.093  -2.620  0.00  0.00    -0.004 A 
ATOM      5  C6  UNL d   1       3.732   1.626  -1.776  0.00  0.00     0.002 A 
ATOM      6  C7  UNL d   1       3.004   0.787  -0.931  0.00  0.00     0.002 A 
ENDROOT
BRANCH   1   7
ATOM      7  C1  UNL d   1       2.492  -1.493   0.024  0.00  0.00     0.055 C 
ATOM      8  C   UNL d   1       2.020  -2.761  -0.672  0.00  0.00     0.019 C 
ENDBRANCH   1   7
TORSDOF 1
ENDMDL
