MODEL 1
REMARK minimizedAffinity 4.9954834
REMARK minimizedRMSD -1
REMARK  1 active torsions:
REMARK  status: ('A' for Active; 'I' for Inactive)
REMARK    1  A    between atoms: C1_2  and  C2_3 
ROOT
ATOM      1  C2  UNL d   1      -0.882  -2.119   1.610  0.00  0.00    -0.077 A 
ATOM      2  C3  UNL d   1      -2.101  -2.757   1.345  0.00  0.00     0.002 A 
ATOM      3  C4  UNL d   1      -3.308  -2.080   1.532  0.00  0.00     0.002 A 
ATOM      4  C5  UNL d   1      -3.306  -0.760   1.979  0.00  0.00    -0.004 A 
ATOM      5  C6  UNL d   1      -2.098  -0.118   2.247  0.00  0.00     0.002 A 
ATOM      6  C7  UNL d   1      -0.891  -0.793   2.063  0.00  0.00     0.002 A 
ENDROOT
BRANCH   1   7
ATOM      7  C1  UNL d   1       0.422  -2.831   1.362  0.00  0.00     0.055 C 
ATOM      8  C   UNL d   1       1.095  -2.329   0.093  0.00  0.00     0.019 C 
ENDBRANCH   1   7
TORSDOF 1
ENDMDL
