MODEL 1
REMARK minimizedAffinity -1.81007624
REMARK minimizedRMSD -1
REMARK  1 active torsions:
REMARK  status: ('A' for Active; 'I' for Inactive)
REMARK    1  A    between atoms: C1_2  and  C2_3 
ROOT
ATOM      1  C2  UNL d   1       1.820  -0.576  -0.446  0.00  0.00    -0.077 A 
ATOM      2  C3  UNL d   1       1.956   0.780  -0.774  0.00  0.00     0.002 A 
ATOM      3  C4  UNL d   1       2.777   1.172  -1.832  0.00  0.00     0.002 A 
ATOM      4  C5  UNL d   1       3.465   0.214  -2.574  0.00  0.00    -0.004 A 
ATOM      5  C6  UNL d   1       3.339  -1.137  -2.255  0.00  0.00     0.002 A 
ATOM      6  C7  UNL d   1       2.519  -1.531  -1.196  0.00  0.00     0.002 A 
ENDROOT
BRANCH   1   7
ATOM      7  C1  UNL d   1       0.896  -1.005   0.664  0.00  0.00     0.055 C 
ATOM      8  C   UNL d   1       0.687   0.114   1.673  0.00  0.00     0.019 C 
ENDBRANCH   1   7
TORSDOF 1
ENDMDL
