MODEL 1
REMARK minimizedAffinity -1.29955459
REMARK minimizedRMSD -1
REMARK  1 active torsions:
REMARK  status: ('A' for Active; 'I' for Inactive)
REMARK    1  A    between atoms: C1_2  and  C2_3 
ROOT
ATOM      1  C2  UNL d   1       2.575  -0.782  -0.788  0.00  0.00    -0.077 A 
ATOM      2  C3  UNL d   1       2.412   0.609  -0.723  0.00  0.00     0.002 A 
ATOM      3  C4  UNL d   1       1.545   1.175   0.214  0.00  0.00     0.002 A 
ATOM      4  C5  UNL d   1       0.838   0.359   1.094  0.00  0.00    -0.004 A 
ATOM      5  C6  UNL d   1       0.992  -1.026   1.036  0.00  0.00     0.002 A 
ATOM      6  C7  UNL d   1       1.857  -1.593   0.099  0.00  0.00     0.002 A 
ENDROOT
BRANCH   1   7
ATOM      7  C1  UNL d   1       3.547  -1.391  -1.764  0.00  0.00     0.055 C 
ATOM      8  C   UNL d   1       4.485  -0.341  -2.341  0.00  0.00     0.019 C 
ENDBRANCH   1   7
TORSDOF 1
ENDMDL
