MODEL 1
REMARK minimizedAffinity -3.3251369
REMARK minimizedRMSD -1
REMARK  1 active torsions:
REMARK  status: ('A' for Active; 'I' for Inactive)
REMARK    1  A    between atoms: C1_2  and  C2_3 
ROOT
ATOM      1  C2  UNL d   1       0.920  -0.149   0.789  0.00  0.00    -0.077 A 
ATOM      2  C3  UNL d   1       1.563   0.996   0.300  0.00  0.00     0.002 A 
ATOM      3  C4  UNL d   1       2.498   0.895  -0.733  0.00  0.00     0.002 A 
ATOM      4  C5  UNL d   1       2.794  -0.349  -1.286  0.00  0.00    -0.004 A 
ATOM      5  C6  UNL d   1       2.161  -1.494  -0.805  0.00  0.00     0.002 A 
ATOM      6  C7  UNL d   1       1.228  -1.395   0.228  0.00  0.00     0.002 A 
ENDROOT
BRANCH   1   7
ATOM      7  C1  UNL d   1      -0.125  -0.035   1.869  0.00  0.00     0.055 C 
ATOM      8  C   UNL d   1      -1.253  -1.034   1.655  0.00  0.00     0.019 C 
ENDBRANCH   1   7
TORSDOF 1
ENDMDL
