MODEL 1
REMARK minimizedAffinity -3.40133524
REMARK minimizedRMSD -1
REMARK  1 active torsions:
REMARK  status: ('A' for Active; 'I' for Inactive)
REMARK    1  A    between atoms: C1_2  and  C2_3 
ROOT
ATOM      1  C2  UNL d   1       2.000  -1.469  -0.441  0.00  0.00    -0.077 A 
ATOM      2  C3  UNL d   1       2.086  -0.162   0.060  0.00  0.00     0.002 A 
ATOM      3  C4  UNL d   1       1.170   0.291   1.011  0.00  0.00     0.002 A 
ATOM      4  C5  UNL d   1       0.164  -0.556   1.472  0.00  0.00    -0.004 A 
ATOM      5  C6  UNL d   1       0.069  -1.856   0.978  0.00  0.00     0.002 A 
ATOM      6  C7  UNL d   1       0.983  -2.311   0.027  0.00  0.00     0.002 A 
ENDROOT
BRANCH   1   7
ATOM      7  C1  UNL d   1       3.017  -1.976  -1.429  0.00  0.00     0.055 C 
ATOM      8  C   UNL d   1       4.037  -0.901  -1.775  0.00  0.00     0.019 C 
ENDBRANCH   1   7
TORSDOF 1
ENDMDL
