MODEL 1
REMARK minimizedAffinity 0.485063523
REMARK minimizedRMSD -1
REMARK  1 active torsions:
REMARK  status: ('A' for Active; 'I' for Inactive)
REMARK    1  A    between atoms: C1_2  and  C2_3 
ROOT
ATOM      1  C2  UNL d   1       1.977  -0.563  -0.128  0.00  0.00    -0.077 A 
ATOM      2  C3  UNL d   1       2.456  -1.678  -0.829  0.00  0.00     0.002 A 
ATOM      3  C4  UNL d   1       3.399  -1.521  -1.847  0.00  0.00     0.002 A 
ATOM      4  C5  UNL d   1       3.873  -0.252  -2.170  0.00  0.00    -0.004 A 
ATOM      5  C6  UNL d   1       3.401   0.864  -1.480  0.00  0.00     0.002 A 
ATOM      6  C7  UNL d   1       2.458   0.709  -0.463  0.00  0.00     0.002 A 
ENDROOT
BRANCH   1   7
ATOM      7  C1  UNL d   1       0.997  -0.735   1.003  0.00  0.00     0.055 C 
ATOM      8  C   UNL d   1       0.232  -2.044   0.878  0.00  0.00     0.019 C 
ENDBRANCH   1   7
TORSDOF 1
ENDMDL
