MODEL 1
REMARK minimizedAffinity -3.32944345
REMARK minimizedRMSD -1
REMARK  1 active torsions:
REMARK  status: ('A' for Active; 'I' for Inactive)
REMARK    1  A    between atoms: C1_2  and  C2_3 
ROOT
ATOM      1  C2  UNL d   1       0.120  -0.853   1.492  0.00  0.00    -0.077 A 
ATOM      2  C3  UNL d   1       0.628   0.342   0.966  0.00  0.00     0.002 A 
ATOM      3  C4  UNL d   1       1.676   0.319   0.043  0.00  0.00     0.002 A 
ATOM      4  C5  UNL d   1       2.220  -0.897  -0.365  0.00  0.00    -0.004 A 
ATOM      5  C6  UNL d   1       1.722  -2.092   0.154  0.00  0.00     0.002 A 
ATOM      6  C7  UNL d   1       0.676  -2.070   1.078  0.00  0.00     0.002 A 
ENDROOT
BRANCH   1   7
ATOM      7  C1  UNL d   1      -1.042  -0.832   2.450  0.00  0.00     0.055 C 
ATOM      8  C   UNL d   1      -2.180  -1.717   1.960  0.00  0.00     0.019 C 
ENDBRANCH   1   7
TORSDOF 1
ENDMDL
