MODEL 1
REMARK minimizedAffinity -3.5291841
REMARK minimizedRMSD -1
REMARK  1 active torsions:
REMARK  status: ('A' for Active; 'I' for Inactive)
REMARK    1  A    between atoms: C1_2  and  C2_3 
ROOT
ATOM      1  C2  UNL d   1       1.127  -0.526   0.698  0.00  0.00    -0.077 A 
ATOM      2  C3  UNL d   1       1.918  -1.588   0.236  0.00  0.00     0.002 A 
ATOM      3  C4  UNL d   1       2.602  -1.483  -0.976  0.00  0.00     0.002 A 
ATOM      4  C5  UNL d   1       2.506  -0.318  -1.735  0.00  0.00    -0.004 A 
ATOM      5  C6  UNL d   1       1.721   0.742  -1.285  0.00  0.00     0.002 A 
ATOM      6  C7  UNL d   1       1.035   0.639  -0.074  0.00  0.00     0.002 A 
ENDROOT
BRANCH   1   7
ATOM      7  C1  UNL d   1       0.427  -0.617   2.029  0.00  0.00     0.055 C 
ATOM      8  C   UNL d   1      -0.304  -1.943   2.179  0.00  0.00     0.019 C 
ENDBRANCH   1   7
TORSDOF 1
ENDMDL
