MODEL 1
REMARK minimizedAffinity -3.50567436
REMARK minimizedRMSD -1
REMARK  1 active torsions:
REMARK  status: ('A' for Active; 'I' for Inactive)
REMARK    1  A    between atoms: C1_2  and  C2_3 
ROOT
ATOM      1  C2  UNL d   1       2.142  -0.819  -0.852  0.00  0.00    -0.077 A 
ATOM      2  C3  UNL d   1       2.008   0.553  -1.111  0.00  0.00     0.002 A 
ATOM      3  C4  UNL d   1       1.186   1.346  -0.308  0.00  0.00     0.002 A 
ATOM      4  C5  UNL d   1       0.495   0.778   0.760  0.00  0.00    -0.004 A 
ATOM      5  C6  UNL d   1       0.621  -0.585   1.025  0.00  0.00     0.002 A 
ATOM      6  C7  UNL d   1       1.441  -1.380   0.223  0.00  0.00     0.002 A 
ENDROOT
BRANCH   1   7
ATOM      7  C1  UNL d   1       3.067  -1.666  -1.686  0.00  0.00     0.055 C 
ATOM      8  C   UNL d   1       4.197  -0.836  -2.277  0.00  0.00     0.019 C 
ENDBRANCH   1   7
TORSDOF 1
ENDMDL
