MODEL 1
REMARK minimizedAffinity 3.04887676
REMARK minimizedRMSD -1
REMARK  1 active torsions:
REMARK  status: ('A' for Active; 'I' for Inactive)
REMARK    1  A    between atoms: C1_2  and  C2_3 
ROOT
ATOM      1  C2  UNL d   1      -1.393   3.582  -3.194  0.00  0.00    -0.077 A 
ATOM      2  C3  UNL d   1      -2.313   4.486  -2.646  0.00  0.00     0.002 A 
ATOM      3  C4  UNL d   1      -1.875   5.689  -2.088  0.00  0.00     0.002 A 
ATOM      4  C5  UNL d   1      -0.517   6.000  -2.078  0.00  0.00    -0.004 A 
ATOM      5  C6  UNL d   1       0.406   5.106  -2.619  0.00  0.00     0.002 A 
ATOM      6  C7  UNL d   1      -0.030   3.903  -3.176  0.00  0.00     0.002 A 
ENDROOT
BRANCH   1   7
ATOM      7  C1  UNL d   1      -1.868   2.306  -3.840  0.00  0.00     0.055 C 
ATOM      8  C   UNL d   1      -0.698   1.430  -4.262  0.00  0.00     0.019 C 
ENDBRANCH   1   7
TORSDOF 1
ENDMDL
