MODEL 1
REMARK minimizedAffinity -5.53493977
REMARK minimizedRMSD -1
REMARK  3 active torsions:
REMARK  status: ('A' for Active; 'I' for Inactive)
REMARK    1  A    between atoms: C3'_2  and  C2'_3 
REMARK    2  A    between atoms: C2'_3  and  C1'_4 
REMARK    3  A    between atoms: C1'_4  and  C1_5 
ROOT
ATOM      1  C1  N4B d   1       0.284   0.018   0.666  0.00  0.00    -0.075 A 
ATOM      2  C2  N4B d   1       0.125   0.666   1.911  0.00  0.00     0.002 A 
ATOM      3  C3  N4B d   1      -0.612   0.072   2.905  0.00  0.00     0.002 A 
ATOM      4  C4  N4B d   1      -1.212  -1.157   2.673  0.00  0.00    -0.004 A 
ATOM      5  C5  N4B d   1      -1.033  -1.788   1.477  0.00  0.00     0.002 A 
ATOM      6  C6  N4B d   1      -0.292  -1.203   0.469  0.00  0.00     0.002 A 
ENDROOT
BRANCH   1   7
ATOM      7  C1' N4B d   1       1.009   0.668  -0.481  0.00  0.00     0.057 C 
BRANCH   7   8
ATOM      8  C2' N4B d   1       0.143   0.580  -1.735  0.00  0.00     0.009 C 
BRANCH   8   9
ATOM      9  C3' N4B d   1       0.941   0.124  -2.944  0.00  0.00     0.004 C 
ATOM     10  C4' N4B d   1       0.487  -1.205  -3.472  0.00  0.00     0.003 C 
ENDBRANCH   8   9
ENDBRANCH   7   8
ENDBRANCH   1   7
TORSDOF 3
ENDMDL
