MODEL 1
REMARK minimizedAffinity -4.25105143
REMARK minimizedRMSD -1
REMARK  3 active torsions:
REMARK  status: ('A' for Active; 'I' for Inactive)
REMARK    1  A    between atoms: C3'_2  and  C2'_3 
REMARK    2  A    between atoms: C2'_3  and  C1'_4 
REMARK    3  A    between atoms: C1'_4  and  C1_5 
ROOT
ATOM      1  C1  N4B d   1       0.552  -0.296   0.597  0.00  0.00    -0.075 A 
ATOM      2  C2  N4B d   1       1.287  -0.386   1.800  0.00  0.00     0.002 A 
ATOM      3  C3  N4B d   1       0.630  -0.549   2.995  0.00  0.00     0.002 A 
ATOM      4  C4  N4B d   1      -0.755  -0.605   3.014  0.00  0.00    -0.004 A 
ATOM      5  C5  N4B d   1      -1.456  -0.543   1.845  0.00  0.00     0.002 A 
ATOM      6  C6  N4B d   1      -0.809  -0.383   0.637  0.00  0.00     0.002 A 
ENDROOT
BRANCH   1   7
ATOM      7  C1' N4B d   1       1.221  -0.031  -0.724  0.00  0.00     0.057 C 
BRANCH   7   8
ATOM      8  C2' N4B d   1       0.169  -0.039  -1.829  0.00  0.00     0.009 C 
BRANCH   8   9
ATOM      9  C3' N4B d   1       0.747  -0.481  -3.162  0.00  0.00     0.004 C 
ATOM     10  C4' N4B d   1      -0.012  -1.619  -3.776  0.00  0.00     0.003 C 
ENDBRANCH   8   9
ENDBRANCH   7   8
ENDBRANCH   1   7
TORSDOF 3
ENDMDL
