MODEL 1
REMARK minimizedAffinity -5.68865919
REMARK minimizedRMSD -1
REMARK  3 active torsions:
REMARK  status: ('A' for Active; 'I' for Inactive)
REMARK    1  A    between atoms: C3'_2  and  C2'_3 
REMARK    2  A    between atoms: C2'_3  and  C1'_4 
REMARK    3  A    between atoms: C1'_4  and  C1_5 
ROOT
ATOM      1  C1  N4B d   1      -0.213   0.114   0.177  0.00  0.00    -0.075 A 
ATOM      2  C2  N4B d   1      -1.238  -0.212   1.091  0.00  0.00     0.002 A 
ATOM      3  C3  N4B d   1      -0.926  -0.508   2.396  0.00  0.00     0.002 A 
ATOM      4  C4  N4B d   1       0.400  -0.503   2.802  0.00  0.00    -0.004 A 
ATOM      5  C5  N4B d   1       1.382  -0.161   1.918  0.00  0.00     0.002 A 
ATOM      6  C6  N4B d   1       1.083   0.142   0.606  0.00  0.00     0.002 A 
ENDROOT
BRANCH   1   7
ATOM      7  C1' N4B d   1      -0.497   0.362  -1.280  0.00  0.00     0.057 C 
BRANCH   7   8
ATOM      8  C2' N4B d   1       0.733  -0.015  -2.101  0.00  0.00     0.009 C 
BRANCH   8   9
ATOM      9  C3' N4B d   1       0.458  -1.183  -3.032  0.00  0.00     0.004 C 
ATOM     10  C4' N4B d   1       1.701  -1.939  -3.397  0.00  0.00     0.003 C 
ENDBRANCH   8   9
ENDBRANCH   7   8
ENDBRANCH   1   7
TORSDOF 3
ENDMDL
