MODEL 1
REMARK minimizedAffinity -5.26659918
REMARK minimizedRMSD -1
REMARK  3 active torsions:
REMARK  status: ('A' for Active; 'I' for Inactive)
REMARK    1  A    between atoms: C3'_2  and  C2'_3 
REMARK    2  A    between atoms: C2'_3  and  C1'_4 
REMARK    3  A    between atoms: C1'_4  and  C1_5 
ROOT
ATOM      1  C1  N4B d   1      -0.761  -0.135   0.377  0.00  0.00    -0.075 A 
ATOM      2  C2  N4B d   1       0.220   0.446   1.211  0.00  0.00     0.002 A 
ATOM      3  C3  N4B d   1       0.300   0.081   2.533  0.00  0.00     0.002 A 
ATOM      4  C4  N4B d   1      -0.597  -0.845   3.044  0.00  0.00    -0.004 A 
ATOM      5  C5  N4B d   1      -1.524  -1.420   2.226  0.00  0.00     0.002 A 
ATOM      6  C6  N4B d   1      -1.614  -1.066   0.895  0.00  0.00     0.002 A 
ENDROOT
BRANCH   1   7
ATOM      7  C1' N4B d   1      -0.943   0.296  -1.053  0.00  0.00     0.057 C 
BRANCH   7   8
ATOM      8  C2' N4B d   1       0.263  -0.158  -1.870  0.00  0.00     0.009 C 
BRANCH   8   9
ATOM      9  C3' N4B d   1      -0.123  -1.161  -2.943  0.00  0.00     0.004 C 
ATOM     10  C4' N4B d   1       0.994  -1.446  -3.902  0.00  0.00     0.003 C 
ENDBRANCH   8   9
ENDBRANCH   7   8
ENDBRANCH   1   7
TORSDOF 3
ENDMDL
