MODEL 1
REMARK minimizedAffinity -3.8043735
REMARK minimizedRMSD -1
REMARK  3 active torsions:
REMARK  status: ('A' for Active; 'I' for Inactive)
REMARK    1  A    between atoms: C3'_2  and  C2'_3 
REMARK    2  A    between atoms: C2'_3  and  C1'_4 
REMARK    3  A    between atoms: C1'_4  and  C1_5 
ROOT
ATOM      1  C1  N4B d   1       0.296  -0.068   0.594  0.00  0.00    -0.075 A 
ATOM      2  C2  N4B d   1      -0.520  -1.181   0.896  0.00  0.00     0.002 A 
ATOM      3  C3  N4B d   1      -0.917  -1.409   2.191  0.00  0.00     0.002 A 
ATOM      4  C4  N4B d   1      -0.497  -0.554   3.198  0.00  0.00    -0.004 A 
ATOM      5  C5  N4B d   1       0.270   0.533   2.894  0.00  0.00     0.002 A 
ATOM      6  C6  N4B d   1       0.674   0.777   1.597  0.00  0.00     0.002 A 
ENDROOT
BRANCH   1   7
ATOM      7  C1' N4B d   1       0.826   0.174  -0.793  0.00  0.00     0.057 C 
BRANCH   7   8
ATOM      8  C2' N4B d   1       0.522  -1.041  -1.664  0.00  0.00     0.009 C 
BRANCH   8   9
ATOM      9  C3' N4B d   1       1.634  -1.316  -2.663  0.00  0.00     0.004 C 
ATOM     10  C4' N4B d   1       1.282  -2.398  -3.640  0.00  0.00     0.003 C 
ENDBRANCH   8   9
ENDBRANCH   7   8
ENDBRANCH   1   7
TORSDOF 3
ENDMDL
