MODEL 1
REMARK minimizedAffinity -3.94424987
REMARK minimizedRMSD -1
REMARK  3 active torsions:
REMARK  status: ('A' for Active; 'I' for Inactive)
REMARK    1  A    between atoms: C3'_2  and  C2'_3 
REMARK    2  A    between atoms: C2'_3  and  C1'_4 
REMARK    3  A    between atoms: C1'_4  and  C1_5 
ROOT
ATOM      1  C1  N4B d   1      -0.355   0.320  -0.732  0.00  0.00    -0.075 A 
ATOM      2  C2  N4B d   1      -1.400  -0.326  -0.034  0.00  0.00     0.002 A 
ATOM      3  C3  N4B d   1      -1.247  -0.639   1.294  0.00  0.00     0.002 A 
ATOM      4  C4  N4B d   1      -0.057  -0.335   1.938  0.00  0.00    -0.004 A 
ATOM      5  C5  N4B d   1       0.937   0.312   1.264  0.00  0.00     0.002 A 
ATOM      6  C6  N4B d   1       0.796   0.637  -0.070  0.00  0.00     0.002 A 
ENDROOT
BRANCH   1   7
ATOM      7  C1' N4B d   1      -0.443   0.605  -2.206  0.00  0.00     0.057 C 
BRANCH   7   8
ATOM      8  C2' N4B d   1       0.890   0.261  -2.863  0.00  0.00     0.009 C 
BRANCH   8   9
ATOM      9  C3' N4B d   1       0.896  -1.148  -3.432  0.00  0.00     0.004 C 
ATOM     10  C4' N4B d   1       2.202  -1.855  -3.219  0.00  0.00     0.003 C 
ENDBRANCH   8   9
ENDBRANCH   7   8
ENDBRANCH   1   7
TORSDOF 3
ENDMDL
