MODEL 1
REMARK minimizedAffinity -4.87519789
REMARK minimizedRMSD -1
REMARK  3 active torsions:
REMARK  status: ('A' for Active; 'I' for Inactive)
REMARK    1  A    between atoms: C3'_2  and  C2'_3 
REMARK    2  A    between atoms: C2'_3  and  C1'_4 
REMARK    3  A    between atoms: C1'_4  and  C1_5 
ROOT
ATOM      1  C1  N4B d   1      -0.229  -0.054   0.069  0.00  0.00    -0.075 A 
ATOM      2  C2  N4B d   1       0.825   0.629   0.715  0.00  0.00     0.002 A 
ATOM      3  C3  N4B d   1       1.082   0.396   2.044  0.00  0.00     0.002 A 
ATOM      4  C4  N4B d   1       0.289  -0.498   2.749  0.00  0.00    -0.004 A 
ATOM      5  C5  N4B d   1      -0.710  -1.172   2.112  0.00  0.00     0.002 A 
ATOM      6  C6  N4B d   1      -0.977  -0.951   0.775  0.00  0.00     0.002 A 
ENDROOT
BRANCH   1   7
ATOM      7  C1' N4B d   1      -0.603   0.232  -1.360  0.00  0.00     0.057 C 
BRANCH   7   8
ATOM      8  C2' N4B d   1       0.537  -0.209  -2.273  0.00  0.00     0.009 C 
BRANCH   8   9
ATOM      9  C3' N4B d   1       0.280  -1.576  -2.883  0.00  0.00     0.004 C 
ATOM     10  C4' N4B d   1       1.532  -2.234  -3.383  0.00  0.00     0.003 C 
ENDBRANCH   8   9
ENDBRANCH   7   8
ENDBRANCH   1   7
TORSDOF 3
ENDMDL
