MODEL 1
REMARK minimizedAffinity 2.70041251
REMARK minimizedRMSD -1
REMARK  3 active torsions:
REMARK  status: ('A' for Active; 'I' for Inactive)
REMARK    1  A    between atoms: C3'_2  and  C2'_3 
REMARK    2  A    between atoms: C2'_3  and  C1'_4 
REMARK    3  A    between atoms: C1'_4  and  C1_5 
ROOT
ATOM      1  C1  N4B d   1       5.871   2.635   3.435  0.00  0.00    -0.075 A 
ATOM      2  C2  N4B d   1       5.912   2.628   4.846  0.00  0.00     0.002 A 
ATOM      3  C3  N4B d   1       5.966   3.814   5.538  0.00  0.00     0.002 A 
ATOM      4  C4  N4B d   1       6.000   5.013   4.842  0.00  0.00    -0.004 A 
ATOM      5  C5  N4B d   1       5.934   5.012   3.479  0.00  0.00     0.002 A 
ATOM      6  C6  N4B d   1       5.875   3.828   2.771  0.00  0.00     0.002 A 
ENDROOT
BRANCH   1   7
ATOM      7  C1' N4B d   1       5.897   1.363   2.633  0.00  0.00     0.057 C 
BRANCH   7   8
ATOM      8  C2' N4B d   1       5.991   0.174   3.584  0.00  0.00     0.009 C 
BRANCH   8   9
ATOM      9  C3' N4B d   1       5.285   0.442   4.901  0.00  0.00     0.004 C 
ATOM     10  C4' N4B d   1       5.722  -0.486   5.995  0.00  0.00     0.003 C 
ENDBRANCH   8   9
ENDBRANCH   7   8
ENDBRANCH   1   7
TORSDOF 3
ENDMDL
