MODEL 1
REMARK minimizedAffinity -1.03020728
REMARK minimizedRMSD -1
REMARK  3 active torsions:
REMARK  status: ('A' for Active; 'I' for Inactive)
REMARK    1  A    between atoms: C3'_2  and  C2'_3 
REMARK    2  A    between atoms: C2'_3  and  C1'_4 
REMARK    3  A    between atoms: C1'_4  and  C1_5 
ROOT
ATOM      1  C1  N4B d   1       5.883   0.636   5.149  0.00  0.00    -0.075 A 
ATOM      2  C2  N4B d   1       5.896  -0.616   5.802  0.00  0.00     0.002 A 
ATOM      3  C3  N4B d   1       5.956  -1.773   5.065  0.00  0.00     0.002 A 
ATOM      4  C4  N4B d   1       5.985  -1.705   3.680  0.00  0.00    -0.004 A 
ATOM      5  C5  N4B d   1       5.999  -0.491   3.058  0.00  0.00     0.002 A 
ATOM      6  C6  N4B d   1       5.943   0.681   3.786  0.00  0.00     0.002 A 
ENDROOT
BRANCH   1   7
ATOM      7  C1' N4B d   1       5.732   1.926   5.908  0.00  0.00     0.057 C 
BRANCH   7   8
ATOM      8  C2' N4B d   1       5.017   2.945   5.026  0.00  0.00     0.009 C 
BRANCH   8   9
ATOM      9  C3' N4B d   1       5.938   3.525   3.966  0.00  0.00     0.004 C 
ATOM     10  C4' N4B d   1       6.000   5.023   4.006  0.00  0.00     0.003 C 
ENDBRANCH   8   9
ENDBRANCH   7   8
ENDBRANCH   1   7
TORSDOF 3
ENDMDL
