MODEL 1
REMARK minimizedAffinity -3.18112421
REMARK minimizedRMSD -1
REMARK  3 active torsions:
REMARK  status: ('A' for Active; 'I' for Inactive)
REMARK    1  A    between atoms: C3'_2  and  C2'_3 
REMARK    2  A    between atoms: C2'_3  and  C1'_4 
REMARK    3  A    between atoms: C1'_4  and  C1_5 
ROOT
ATOM      1  C1  N4B d   1       5.969   1.382   4.733  0.00  0.00    -0.075 A 
ATOM      2  C2  N4B d   1       5.989   0.774   3.458  0.00  0.00     0.002 A 
ATOM      3  C3  N4B d   1       5.994   1.552   2.327  0.00  0.00     0.002 A 
ATOM      4  C4  N4B d   1       5.962   2.933   2.444  0.00  0.00    -0.004 A 
ATOM      5  C5  N4B d   1       5.969   3.513   3.679  0.00  0.00     0.002 A 
ATOM      6  C6  N4B d   1       5.967   2.744   4.825  0.00  0.00     0.002 A 
ENDROOT
BRANCH   1   7
ATOM      7  C1' N4B d   1       5.876   0.573   5.998  0.00  0.00     0.057 C 
BRANCH   7   8
ATOM      8  C2' N4B d   1       5.059  -0.688   5.726  0.00  0.00     0.009 C 
BRANCH   8   9
ATOM      9  C3' N4B d   1       5.919  -1.940   5.762  0.00  0.00     0.004 C 
ATOM     10  C4' N4B d   1       5.408  -3.021   4.857  0.00  0.00     0.003 C 
ENDBRANCH   8   9
ENDBRANCH   7   8
ENDBRANCH   1   7
TORSDOF 3
ENDMDL
