MODEL 1
REMARK minimizedAffinity -0.687366366
REMARK minimizedRMSD -1
REMARK  3 active torsions:
REMARK  status: ('A' for Active; 'I' for Inactive)
REMARK    1  A    between atoms: C3'_2  and  C2'_3 
REMARK    2  A    between atoms: C2'_3  and  C1'_4 
REMARK    3  A    between atoms: C1'_4  and  C1_5 
ROOT
ATOM      1  C1  N4B d   1       5.830   1.069   3.660  0.00  0.00    -0.075 A 
ATOM      2  C2  N4B d   1       5.954  -0.328   3.494  0.00  0.00     0.002 A 
ATOM      3  C3  N4B d   1       5.872  -1.159   4.585  0.00  0.00     0.002 A 
ATOM      4  C4  N4B d   1       5.684  -0.616   5.847  0.00  0.00    -0.004 A 
ATOM      5  C5  N4B d   1       5.540   0.732   5.995  0.00  0.00     0.002 A 
ATOM      6  C6  N4B d   1       5.617   1.578   4.908  0.00  0.00     0.002 A 
ENDROOT
BRANCH   1   7
ATOM      7  C1' N4B d   1       5.999   2.023   2.509  0.00  0.00     0.057 C 
BRANCH   7   8
ATOM      8  C2' N4B d   1       5.948   3.454   3.034  0.00  0.00     0.009 C 
BRANCH   8   9
ATOM      9  C3' N4B d   1       5.967   4.474   1.908  0.00  0.00     0.004 C 
ATOM     10  C4' N4B d   1       6.000   5.888   2.405  0.00  0.00     0.003 C 
ENDBRANCH   8   9
ENDBRANCH   7   8
ENDBRANCH   1   7
TORSDOF 3
ENDMDL
