MODEL 1
REMARK minimizedAffinity -0.798986852
REMARK minimizedRMSD -1
REMARK  3 active torsions:
REMARK  status: ('A' for Active; 'I' for Inactive)
REMARK    1  A    between atoms: C3'_2  and  C2'_3 
REMARK    2  A    between atoms: C2'_3  and  C1'_4 
REMARK    3  A    between atoms: C1'_4  and  C1_5 
ROOT
ATOM      1  C1  N4B d   1       5.854   0.870   3.744  0.00  0.00    -0.075 A 
ATOM      2  C2  N4B d   1       5.980  -0.480   3.350  0.00  0.00     0.002 A 
ATOM      3  C3  N4B d   1       5.927  -1.478   4.292  0.00  0.00     0.002 A 
ATOM      4  C4  N4B d   1       5.769  -1.150   5.630  0.00  0.00    -0.004 A 
ATOM      5  C5  N4B d   1       5.623   0.155   6.000  0.00  0.00     0.002 A 
ATOM      6  C6  N4B d   1       5.670   1.168   5.063  0.00  0.00     0.002 A 
ENDROOT
BRANCH   1   7
ATOM      7  C1' N4B d   1       5.992   2.000   2.760  0.00  0.00     0.057 C 
BRANCH   7   8
ATOM      8  C2' N4B d   1       5.987   3.325   3.517  0.00  0.00     0.009 C 
BRANCH   8   9
ATOM      9  C3' N4B d   1       5.905   4.516   2.577  0.00  0.00     0.004 C 
ATOM     10  C4' N4B d   1       5.999   5.830   3.293  0.00  0.00     0.003 C 
ENDBRANCH   8   9
ENDBRANCH   7   8
ENDBRANCH   1   7
TORSDOF 3
ENDMDL
