MODEL 1
REMARK minimizedAffinity 9.28462219
REMARK minimizedRMSD -1
REMARK  3 active torsions:
REMARK  status: ('A' for Active; 'I' for Inactive)
REMARK    1  A    between atoms: C3'_2  and  C2'_3 
REMARK    2  A    between atoms: C2'_3  and  C1'_4 
REMARK    3  A    between atoms: C1'_4  and  C1_5 
ROOT
ATOM      1  C1  N4B d   1       5.986   2.811   3.401  0.00  0.00    -0.075 A 
ATOM      2  C2  N4B d   1       5.998   4.142   2.929  0.00  0.00     0.002 A 
ATOM      3  C3  N4B d   1       5.999   5.186   3.821  0.00  0.00     0.002 A 
ATOM      4  C4  N4B d   1       5.968   4.925   5.183  0.00  0.00    -0.004 A 
ATOM      5  C5  N4B d   1       5.982   3.637   5.630  0.00  0.00     0.002 A 
ATOM      6  C6  N4B d   1       5.985   2.577   4.745  0.00  0.00     0.002 A 
ENDROOT
BRANCH   1   7
ATOM      7  C1' N4B d   1       5.898   1.637   2.464  0.00  0.00     0.057 C 
BRANCH   7   8
ATOM      8  C2' N4B d   1       5.866   0.348   3.278  0.00  0.00     0.009 C 
BRANCH   8   9
ATOM      9  C3' N4B d   1       4.457  -0.013   3.717  0.00  0.00     0.004 C 
ATOM     10  C4' N4B d   1       3.983   0.808   4.879  0.00  0.00     0.003 C 
ENDBRANCH   8   9
ENDBRANCH   7   8
ENDBRANCH   1   7
TORSDOF 3
ENDMDL
