MODEL 1
REMARK minimizedAffinity -1.0592159
REMARK minimizedRMSD -1
REMARK  3 active torsions:
REMARK  status: ('A' for Active; 'I' for Inactive)
REMARK    1  A    between atoms: C3'_2  and  C2'_3 
REMARK    2  A    between atoms: C2'_3  and  C1'_4 
REMARK    3  A    between atoms: C1'_4  and  C1_5 
ROOT
ATOM      1  C1  N4B d   1       5.904   0.364   3.826  0.00  0.00    -0.075 A 
ATOM      2  C2  N4B d   1       5.856   0.426   5.236  0.00  0.00     0.002 A 
ATOM      3  C3  N4B d   1       5.877  -0.732   5.975  0.00  0.00     0.002 A 
ATOM      4  C4  N4B d   1       5.926  -1.957   5.328  0.00  0.00    -0.004 A 
ATOM      5  C5  N4B d   1       5.997  -2.008   3.967  0.00  0.00     0.002 A 
ATOM      6  C6  N4B d   1       5.981  -0.852   3.212  0.00  0.00     0.002 A 
ENDROOT
BRANCH   1   7
ATOM      7  C1' N4B d   1       5.797   1.598   2.973  0.00  0.00     0.057 C 
BRANCH   7   8
ATOM      8  C2' N4B d   1       5.142   2.713   3.784  0.00  0.00     0.009 C 
BRANCH   8   9
ATOM      9  C3' N4B d   1       5.999   3.967   3.822  0.00  0.00     0.004 C 
ATOM     10  C4' N4B d   1       6.000   4.709   2.519  0.00  0.00     0.003 C 
ENDBRANCH   8   9
ENDBRANCH   7   8
ENDBRANCH   1   7
TORSDOF 3
ENDMDL
