MODEL 1
REMARK minimizedAffinity -1.51902497
REMARK minimizedRMSD -1
REMARK  3 active torsions:
REMARK  status: ('A' for Active; 'I' for Inactive)
REMARK    1  A    between atoms: C3'_2  and  C2'_3 
REMARK    2  A    between atoms: C2'_3  and  C1'_4 
REMARK    3  A    between atoms: C1'_4  and  C1_5 
ROOT
ATOM      1  C1  N4B d   1       5.216   1.355   5.141  0.00  0.00    -0.075 A 
ATOM      2  C2  N4B d   1       4.978   1.366   3.749  0.00  0.00     0.002 A 
ATOM      3  C3  N4B d   1       5.254   2.493   3.015  0.00  0.00     0.002 A 
ATOM      4  C4  N4B d   1       5.749   3.622   3.651  0.00  0.00    -0.004 A 
ATOM      5  C5  N4B d   1       6.000   3.594   4.991  0.00  0.00     0.002 A 
ATOM      6  C6  N4B d   1       5.731   2.467   5.741  0.00  0.00     0.002 A 
ENDROOT
BRANCH   1   7
ATOM      7  C1' N4B d   1       4.849   0.175   6.000  0.00  0.00     0.057 C 
BRANCH   7   8
ATOM      8  C2' N4B d   1       6.000  -0.826   5.993  0.00  0.00     0.009 C 
BRANCH   8   9
ATOM      9  C3' N4B d   1       5.521  -2.240   5.710  0.00  0.00     0.004 C 
ATOM     10  C4' N4B d   1       4.813  -2.361   4.394  0.00  0.00     0.003 C 
ENDBRANCH   8   9
ENDBRANCH   7   8
ENDBRANCH   1   7
TORSDOF 3
ENDMDL
