MODEL 1
REMARK minimizedAffinity -0.75428319
REMARK minimizedRMSD -1
REMARK  3 active torsions:
REMARK  status: ('A' for Active; 'I' for Inactive)
REMARK    1  A    between atoms: C3'_2  and  C2'_3 
REMARK    2  A    between atoms: C2'_3  and  C1'_4 
REMARK    3  A    between atoms: C1'_4  and  C1_5 
ROOT
ATOM      1  C1  N4B d   1       5.606   1.333   4.847  0.00  0.00    -0.075 A 
ATOM      2  C2  N4B d   1       5.178   0.422   5.838  0.00  0.00     0.002 A 
ATOM      3  C3  N4B d   1       5.152  -0.924   5.567  0.00  0.00     0.002 A 
ATOM      4  C4  N4B d   1       5.528  -1.379   4.313  0.00  0.00    -0.004 A 
ATOM      5  C5  N4B d   1       5.964  -0.495   3.369  0.00  0.00     0.002 A 
ATOM      6  C6  N4B d   1       6.000   0.860   3.629  0.00  0.00     0.002 A 
ENDROOT
BRANCH   1   7
ATOM      7  C1' N4B d   1       5.570   2.820   5.067  0.00  0.00     0.057 C 
BRANCH   7   8
ATOM      8  C2' N4B d   1       5.561   3.527   3.715  0.00  0.00     0.009 C 
BRANCH   8   9
ATOM      9  C3' N4B d   1       5.988   4.980   3.831  0.00  0.00     0.004 C 
ATOM     10  C4' N4B d   1       6.000   5.471   5.247  0.00  0.00     0.003 C 
ENDBRANCH   8   9
ENDBRANCH   7   8
ENDBRANCH   1   7
TORSDOF 3
ENDMDL
