MODEL 1
REMARK minimizedAffinity -1.06828439
REMARK minimizedRMSD -1
REMARK  3 active torsions:
REMARK  status: ('A' for Active; 'I' for Inactive)
REMARK    1  A    between atoms: C3'_2  and  C2'_3 
REMARK    2  A    between atoms: C2'_3  and  C1'_4 
REMARK    3  A    between atoms: C1'_4  and  C1_5 
ROOT
ATOM      1  C1  N4B d   1       5.741   1.781   4.630  0.00  0.00    -0.075 A 
ATOM      2  C2  N4B d   1       5.514   1.026   5.802  0.00  0.00     0.002 A 
ATOM      3  C3  N4B d   1       5.354  -0.336   5.721  0.00  0.00     0.002 A 
ATOM      4  C4  N4B d   1       5.399  -0.959   4.483  0.00  0.00    -0.004 A 
ATOM      5  C5  N4B d   1       5.644  -0.226   3.359  0.00  0.00     0.002 A 
ATOM      6  C6  N4B d   1       5.811   1.142   3.426  0.00  0.00     0.002 A 
ENDROOT
BRANCH   1   7
ATOM      7  C1' N4B d   1       5.836   3.282   4.659  0.00  0.00     0.057 C 
BRANCH   7   8
ATOM      8  C2' N4B d   1       5.992   3.801   3.232  0.00  0.00     0.009 C 
BRANCH   8   9
ATOM      9  C3' N4B d   1       5.973   5.319   3.175  0.00  0.00     0.004 C 
ATOM     10  C4' N4B d   1       5.997   5.952   4.534  0.00  0.00     0.003 C 
ENDBRANCH   8   9
ENDBRANCH   7   8
ENDBRANCH   1   7
TORSDOF 3
ENDMDL
