MODEL 1
REMARK minimizedAffinity 12.7875633
REMARK minimizedRMSD -1
REMARK  0 active torsions:
REMARK  status: ('A' for Active; 'I' for Inactive)
ROOT
ATOM      1  C   UNL d   1      -1.179   3.106  -0.223  0.00  0.00     0.023 A 
ATOM      2  C1  UNL d   1       0.182   3.201  -0.515  0.00  0.00     0.003 A 
ATOM      3  C2  UNL d   1       1.130   2.862   0.452  0.00  0.00     0.048 A 
ATOM      4  C3  UNL d   1       0.711   2.428   1.709  0.00  0.00     0.023 A 
ATOM      5  C4  UNL d   1      -0.650   2.331   2.006  0.00  0.00     0.048 A 
ATOM      6  C5  UNL d   1      -1.594   2.671   1.035  0.00  0.00     0.003 A 
ATOM      7  I   UNL d   1       2.120   1.923   3.151  0.00  0.00    -0.146 I 
ENDROOT
TORSDOF 0
ENDMDL
