MODEL 1
REMARK minimizedAffinity 14.0567389
REMARK minimizedRMSD -1
REMARK  0 active torsions:
REMARK  status: ('A' for Active; 'I' for Inactive)
ROOT
ATOM      1  C   UNL d   1       0.533   1.294   1.494  0.00  0.00     0.023 A 
ATOM      2  C1  UNL d   1      -0.769   1.702   1.784  0.00  0.00     0.003 A 
ATOM      3  C2  UNL d   1      -1.577   2.235   0.777  0.00  0.00     0.048 A 
ATOM      4  C3  UNL d   1      -1.076   2.357  -0.519  0.00  0.00     0.023 A 
ATOM      5  C4  UNL d   1       0.226   1.949  -0.814  0.00  0.00     0.048 A 
ATOM      6  C5  UNL d   1       1.030   1.418   0.196  0.00  0.00     0.003 A 
ATOM      7  I   UNL d   1      -2.275   3.150  -2.019  0.00  0.00    -0.146 I 
ENDROOT
TORSDOF 0
ENDMDL
