MODEL 1
REMARK minimizedAffinity 6.89130259
REMARK minimizedRMSD -1
REMARK  0 active torsions:
REMARK  status: ('A' for Active; 'I' for Inactive)
ROOT
ATOM      1  C   UNL d   1      -0.090   2.438  -0.377  0.00  0.00     0.023 A 
ATOM      2  C1  UNL d   1      -0.454   3.617  -1.028  0.00  0.00     0.003 A 
ATOM      3  C2  UNL d   1      -1.192   4.591  -0.351  0.00  0.00     0.048 A 
ATOM      4  C3  UNL d   1      -1.560   4.380   0.977  0.00  0.00     0.023 A 
ATOM      5  C4  UNL d   1      -1.197   3.203   1.633  0.00  0.00     0.048 A 
ATOM      6  C5  UNL d   1      -0.460   2.232   0.952  0.00  0.00     0.003 A 
ATOM      7  I   UNL d   1      -2.657   5.828   1.986  0.00  0.00    -0.146 I 
ENDROOT
TORSDOF 0
ENDMDL
