MODEL 1
REMARK minimizedAffinity 11.861187
REMARK minimizedRMSD -1
REMARK  0 active torsions:
REMARK  status: ('A' for Active; 'I' for Inactive)
ROOT
ATOM      1  C   UNL d   1      -4.675  -5.832  -5.634  0.00  0.00     0.023 A 
ATOM      2  C1  UNL d   1      -3.482  -5.110  -5.597  0.00  0.00     0.003 A 
ATOM      3  C2  UNL d   1      -3.504  -3.717  -5.698  0.00  0.00     0.048 A 
ATOM      4  C3  UNL d   1      -4.723  -3.053  -5.836  0.00  0.00     0.023 A 
ATOM      5  C4  UNL d   1      -5.919  -3.772  -5.873  0.00  0.00     0.048 A 
ATOM      6  C5  UNL d   1      -5.891  -5.164  -5.772  0.00  0.00     0.003 A 
ATOM      7  I   UNL d   1      -4.758  -0.981  -5.986  0.00  0.00    -0.146 I 
ENDROOT
TORSDOF 0
ENDMDL
