MODEL 1
REMARK minimizedAffinity 12.6766491
REMARK minimizedRMSD -1
REMARK  0 active torsions:
REMARK  status: ('A' for Active; 'I' for Inactive)
ROOT
ATOM      1  C   UNL d   1      -4.746  -4.834  -6.000  0.00  0.00     0.023 A 
ATOM      2  C1  UNL d   1      -4.201  -5.988  -5.437  0.00  0.00     0.003 A 
ATOM      3  C2  UNL d   1      -2.934  -5.949  -4.852  0.00  0.00     0.048 A 
ATOM      4  C3  UNL d   1      -2.218  -4.753  -4.832  0.00  0.00     0.023 A 
ATOM      5  C4  UNL d   1      -2.760  -3.595  -5.392  0.00  0.00     0.048 A 
ATOM      6  C5  UNL d   1      -4.026  -3.639  -5.978  0.00  0.00     0.003 A 
ATOM      7  I   UNL d   1      -0.332  -4.693  -3.960  0.00  0.00    -0.146 I 
ENDROOT
TORSDOF 0
ENDMDL
