MODEL 1
REMARK minimizedAffinity 8.27850914
REMARK minimizedRMSD -1
REMARK  0 active torsions:
REMARK  status: ('A' for Active; 'I' for Inactive)
ROOT
ATOM      1  C   UNL d   1       0.869  -3.710  -0.973  0.00  0.00     0.023 A 
ATOM      2  C1  UNL d   1       0.984  -5.078  -0.727  0.00  0.00     0.003 A 
ATOM      3  C2  UNL d   1       2.246  -5.660  -0.587  0.00  0.00     0.048 A 
ATOM      4  C3  UNL d   1       3.388  -4.867  -0.692  0.00  0.00     0.023 A 
ATOM      5  C4  UNL d   1       3.278  -3.497  -0.937  0.00  0.00     0.048 A 
ATOM      6  C5  UNL d   1       2.014  -2.920  -1.077  0.00  0.00     0.003 A 
ATOM      7  I   UNL d   1       5.267  -5.730  -0.483  0.00  0.00    -0.146 I 
ENDROOT
TORSDOF 0
ENDMDL
