MODEL 1
REMARK minimizedAffinity 12.7273932
REMARK minimizedRMSD -1
REMARK  0 active torsions:
REMARK  status: ('A' for Active; 'I' for Inactive)
ROOT
ATOM      1  C   UNL d   1       0.352  -4.302  -2.287  0.00  0.00     0.023 A 
ATOM      2  C1  UNL d   1       1.125  -4.864  -1.271  0.00  0.00     0.003 A 
ATOM      3  C2  UNL d   1       2.436  -5.267  -1.530  0.00  0.00     0.048 A 
ATOM      4  C3  UNL d   1       2.970  -5.104  -2.808  0.00  0.00     0.023 A 
ATOM      5  C4  UNL d   1       2.201  -4.541  -3.828  0.00  0.00     0.048 A 
ATOM      6  C5  UNL d   1       0.890  -4.140  -3.564  0.00  0.00     0.003 A 
ATOM      7  I   UNL d   1       4.922  -5.702  -3.197  0.00  0.00    -0.146 I 
ENDROOT
TORSDOF 0
ENDMDL
