MODEL 1
REMARK minimizedAffinity 7.8388834
REMARK minimizedRMSD -1
REMARK  0 active torsions:
REMARK  status: ('A' for Active; 'I' for Inactive)
ROOT
ATOM      1  C   UNL d   1       4.104  -1.452   0.447  0.00  0.00     0.023 A 
ATOM      2  C1  UNL d   1       3.265  -1.385  -0.665  0.00  0.00     0.003 A 
ATOM      3  C2  UNL d   1       2.262  -0.416  -0.727  0.00  0.00     0.048 A 
ATOM      4  C3  UNL d   1       2.105   0.485   0.326  0.00  0.00     0.023 A 
ATOM      5  C4  UNL d   1       2.943   0.422   1.440  0.00  0.00     0.048 A 
ATOM      6  C5  UNL d   1       3.943  -0.550   1.498  0.00  0.00     0.003 A 
ATOM      7  I   UNL d   1       0.613   1.929   0.236  0.00  0.00    -0.146 I 
ENDROOT
TORSDOF 0
ENDMDL
