MODEL 1
REMARK minimizedAffinity 7.13038301
REMARK minimizedRMSD -1
REMARK  0 active torsions:
REMARK  status: ('A' for Active; 'I' for Inactive)
ROOT
ATOM      1  C   UNL d   1      -3.844   1.508  -0.635  0.00  0.00     0.023 A 
ATOM      2  C1  UNL d   1      -4.535   2.245   0.327  0.00  0.00     0.003 A 
ATOM      3  C2  UNL d   1      -5.154   1.594   1.396  0.00  0.00     0.048 A 
ATOM      4  C3  UNL d   1      -5.077   0.206   1.497  0.00  0.00     0.023 A 
ATOM      5  C4  UNL d   1      -4.386  -0.536   0.538  0.00  0.00     0.048 A 
ATOM      6  C5  UNL d   1      -3.770   0.119  -0.530  0.00  0.00     0.003 A 
ATOM      7  I   UNL d   1      -5.998  -0.766   3.088  0.00  0.00    -0.146 I 
ENDROOT
TORSDOF 0
ENDMDL
