MODEL 1
REMARK minimizedAffinity 7.62705612
REMARK minimizedRMSD -1
REMARK  0 active torsions:
REMARK  status: ('A' for Active; 'I' for Inactive)
ROOT
ATOM      1  C   UNL d   1      -0.409   2.370   1.660  0.00  0.00     0.023 A 
ATOM      2  C1  UNL d   1       0.113   2.253   0.372  0.00  0.00     0.003 A 
ATOM      3  C2  UNL d   1      -0.701   2.492  -0.737  0.00  0.00     0.048 A 
ATOM      4  C3  UNL d   1      -2.036   2.849  -0.551  0.00  0.00     0.023 A 
ATOM      5  C4  UNL d   1      -2.563   2.968   0.736  0.00  0.00     0.048 A 
ATOM      6  C5  UNL d   1      -1.745   2.727   1.842  0.00  0.00     0.003 A 
ATOM      7  I   UNL d   1      -3.250   3.206  -2.200  0.00  0.00    -0.146 I 
ENDROOT
TORSDOF 0
ENDMDL
