MODEL 1
REMARK minimizedAffinity 10.4838619
REMARK minimizedRMSD -1
REMARK  0 active torsions:
REMARK  status: ('A' for Active; 'I' for Inactive)
ROOT
ATOM      1  C   UNL d   1       0.166  -4.534  -1.874  0.00  0.00     0.023 A 
ATOM      2  C1  UNL d   1      -0.005  -4.084  -3.183  0.00  0.00     0.003 A 
ATOM      3  C2  UNL d   1       0.987  -4.314  -4.138  0.00  0.00     0.048 A 
ATOM      4  C3  UNL d   1       2.149  -4.996  -3.777  0.00  0.00     0.023 A 
ATOM      5  C4  UNL d   1       2.325  -5.449  -2.468  0.00  0.00     0.048 A 
ATOM      6  C5  UNL d   1       1.330  -5.216  -1.517  0.00  0.00     0.003 A 
ATOM      7  I   UNL d   1       3.628  -5.340  -5.196  0.00  0.00    -0.146 I 
ENDROOT
TORSDOF 0
ENDMDL
