MODEL 1
REMARK minimizedAffinity -3.2243824
REMARK minimizedRMSD -1
REMARK  2 active torsions:
REMARK  status: ('A' for Active; 'I' for Inactive)
REMARK    1  A    between atoms: C2'_3  and  C1'_4 
REMARK    2  A    between atoms: C1'_4  and  C1_5 
ROOT
ATOM      1  C1  I4B d   1      -0.266  -0.071  -0.408  0.00  0.00    -0.075 A 
ATOM      2  C2  I4B d   1       0.141  -1.308   0.027  0.00  0.00     0.003 A 
ATOM      3  C3  I4B d   1       1.333  -1.884  -0.475  0.00  0.00     0.002 A 
ATOM      4  C4  I4B d   1       2.055  -1.215  -1.442  0.00  0.00    -0.004 A 
ATOM      5  C5  I4B d   1       1.654   0.048  -1.866  0.00  0.00     0.002 A 
ATOM      6  C6  I4B d   1       0.493   0.630  -1.337  0.00  0.00     0.003 A 
ENDROOT
BRANCH   1   7
ATOM      7  C1' I4B d   1      -1.547   0.493   0.119  0.00  0.00     0.060 C 
BRANCH   7   8
ATOM      8  C2' I4B d   1      -1.427   0.597   1.626  0.00  0.00    -0.013 C 
ATOM      9  C4' I4B d   1      -1.130   2.010   2.053  0.00  0.00     0.013 C 
ATOM     10  C3' I4B d   1      -2.710   0.107   2.228  0.00  0.00     0.013 C 
ENDBRANCH   7   8
ENDBRANCH   1   7
TORSDOF 2
ENDMDL
