MODEL 1
REMARK minimizedAffinity -3.10327649
REMARK minimizedRMSD -1
REMARK  2 active torsions:
REMARK  status: ('A' for Active; 'I' for Inactive)
REMARK    1  A    between atoms: C2'_3  and  C1'_4 
REMARK    2  A    between atoms: C1'_4  and  C1_5 
ROOT
ATOM      1  C1  I4B d   1      -1.524   0.520   1.486  0.00  0.00    -0.075 A 
ATOM      2  C2  I4B d   1      -2.655  -0.245   1.353  0.00  0.00     0.003 A 
ATOM      3  C3  I4B d   1      -3.483  -0.494   2.474  0.00  0.00     0.002 A 
ATOM      4  C4  I4B d   1      -3.118  -0.004   3.711  0.00  0.00    -0.004 A 
ATOM      5  C5  I4B d   1      -1.982   0.790   3.840  0.00  0.00     0.002 A 
ATOM      6  C6  I4B d   1      -1.186   1.065   2.718  0.00  0.00     0.003 A 
ENDROOT
BRANCH   1   7
ATOM      7  C1' I4B d   1      -0.654   0.736   0.288  0.00  0.00     0.060 C 
BRANCH   7   8
ATOM      8  C2' I4B d   1       0.491  -0.254   0.358  0.00  0.00    -0.013 C 
ATOM      9  C4' I4B d   1       0.130  -1.554  -0.312  0.00  0.00     0.013 C 
ATOM     10  C3' I4B d   1       1.687   0.375  -0.291  0.00  0.00     0.013 C 
ENDBRANCH   7   8
ENDBRANCH   1   7
TORSDOF 2
ENDMDL
