MODEL 1
REMARK minimizedAffinity -2.74301982
REMARK minimizedRMSD -1
REMARK  2 active torsions:
REMARK  status: ('A' for Active; 'I' for Inactive)
REMARK    1  A    between atoms: C2'_3  and  C1'_4 
REMARK    2  A    between atoms: C1'_4  and  C1_5 
ROOT
ATOM      1  C1  I4B d   1      -1.405   0.713   1.172  0.00  0.00    -0.075 A 
ATOM      2  C2  I4B d   1      -2.312  -0.038   1.877  0.00  0.00     0.003 A 
ATOM      3  C3  I4B d   1      -2.769   0.400   3.143  0.00  0.00     0.002 A 
ATOM      4  C4  I4B d   1      -2.259   1.562   3.685  0.00  0.00    -0.004 A 
ATOM      5  C5  I4B d   1      -1.357   2.334   2.959  0.00  0.00     0.002 A 
ATOM      6  C6  I4B d   1      -0.936   1.914   1.689  0.00  0.00     0.003 A 
ENDROOT
BRANCH   1   7
ATOM      7  C1' I4B d   1      -0.918   0.203  -0.148  0.00  0.00     0.060 C 
BRANCH   7   8
ATOM      8  C2' I4B d   1       0.095  -0.891   0.119  0.00  0.00    -0.013 C 
ATOM      9  C4' I4B d   1      -0.527  -2.256  -0.020  0.00  0.00     0.013 C 
ATOM     10  C3' I4B d   1       1.232  -0.714  -0.842  0.00  0.00     0.013 C 
ENDBRANCH   7   8
ENDBRANCH   1   7
TORSDOF 2
ENDMDL
