MODEL 1
REMARK minimizedAffinity -3.00197864
REMARK minimizedRMSD -1
REMARK  2 active torsions:
REMARK  status: ('A' for Active; 'I' for Inactive)
REMARK    1  A    between atoms: C2'_3  and  C1'_4 
REMARK    2  A    between atoms: C1'_4  and  C1_5 
ROOT
ATOM      1  C1  I4B d   1      -1.289   0.396   1.102  0.00  0.00    -0.075 A 
ATOM      2  C2  I4B d   1      -2.368  -0.249   1.653  0.00  0.00     0.003 A 
ATOM      3  C3  I4B d   1      -2.948   0.230   2.853  0.00  0.00     0.002 A 
ATOM      4  C4  I4B d   1      -2.390   1.319   3.491  0.00  0.00    -0.004 A 
ATOM      5  C5  I4B d   1      -1.310   1.985   2.918  0.00  0.00     0.002 A 
ATOM      6  C6  I4B d   1      -0.763   1.529   1.710  0.00  0.00     0.003 A 
ENDROOT
BRANCH   1   7
ATOM      7  C1' I4B d   1      -0.681  -0.156  -0.148  0.00  0.00     0.060 C 
BRANCH   7   8
ATOM      8  C2' I4B d   1       0.366  -1.175   0.253  0.00  0.00    -0.013 C 
ATOM      9  C4' I4B d   1      -0.246  -2.536   0.453  0.00  0.00     0.013 C 
ATOM     10  C3' I4B d   1       1.416  -1.205  -0.817  0.00  0.00     0.013 C 
ENDBRANCH   7   8
ENDBRANCH   1   7
TORSDOF 2
ENDMDL
