MODEL 1
REMARK minimizedAffinity -4.49109125
REMARK minimizedRMSD -1
REMARK  2 active torsions:
REMARK  status: ('A' for Active; 'I' for Inactive)
REMARK    1  A    between atoms: C2'_3  and  C1'_4 
REMARK    2  A    between atoms: C1'_4  and  C1_5 
ROOT
ATOM      1  C1  I4B d   1      -0.976   0.089   0.200  0.00  0.00    -0.075 A 
ATOM      2  C2  I4B d   1       0.185   0.755  -0.104  0.00  0.00     0.003 A 
ATOM      3  C3  I4B d   1       1.343   0.033  -0.480  0.00  0.00     0.002 A 
ATOM      4  C4  I4B d   1       1.310  -1.347  -0.491  0.00  0.00    -0.004 A 
ATOM      5  C5  I4B d   1       0.126  -2.019  -0.204  0.00  0.00     0.002 A 
ATOM      6  C6  I4B d   1      -1.028  -1.297   0.131  0.00  0.00     0.003 A 
ENDROOT
BRANCH   1   7
ATOM      7  C1' I4B d   1      -2.172   0.882   0.625  0.00  0.00     0.060 C 
BRANCH   7   8
ATOM      8  C2' I4B d   1      -2.309   0.749   2.128  0.00  0.00    -0.013 C 
ATOM      9  C4' I4B d   1      -2.160   2.083   2.810  0.00  0.00     0.013 C 
ATOM     10  C3' I4B d   1      -3.648   0.139   2.419  0.00  0.00     0.013 C 
ENDBRANCH   7   8
ENDBRANCH   1   7
TORSDOF 2
ENDMDL
