MODEL 1
REMARK minimizedAffinity -4.56882811
REMARK minimizedRMSD -1
REMARK  2 active torsions:
REMARK  status: ('A' for Active; 'I' for Inactive)
REMARK    1  A    between atoms: C2'_3  and  C1'_4 
REMARK    2  A    between atoms: C1'_4  and  C1_5 
ROOT
ATOM      1  C1  I4B d   1       0.113   0.280  -0.086  0.00  0.00    -0.075 A 
ATOM      2  C2  I4B d   1       0.800   1.399  -0.486  0.00  0.00     0.003 A 
ATOM      3  C3  I4B d   1       2.104   1.280  -1.025  0.00  0.00     0.002 A 
ATOM      4  C4  I4B d   1       2.698   0.037  -1.098  0.00  0.00    -0.004 A 
ATOM      5  C5  I4B d   1       1.991  -1.099  -0.713  0.00  0.00     0.002 A 
ATOM      6  C6  I4B d   1       0.686  -0.978  -0.216  0.00  0.00     0.003 A 
ENDROOT
BRANCH   1   7
ATOM      7  C1' I4B d   1      -1.249   0.446   0.509  0.00  0.00     0.060 C 
BRANCH   7   8
ATOM      8  C2' I4B d   1      -1.097   0.508   2.015  0.00  0.00    -0.013 C 
ATOM      9  C4' I4B d   1      -0.930   1.928   2.488  0.00  0.00     0.013 C 
ATOM     10  C3' I4B d   1      -2.307  -0.129   2.630  0.00  0.00     0.013 C 
ENDBRANCH   7   8
ENDBRANCH   1   7
TORSDOF 2
ENDMDL
