MODEL 1
REMARK minimizedAffinity -4.92123318
REMARK minimizedRMSD -1
REMARK  2 active torsions:
REMARK  status: ('A' for Active; 'I' for Inactive)
REMARK    1  A    between atoms: C2'_3  and  C1'_4 
REMARK    2  A    between atoms: C1'_4  and  C1_5 
ROOT
ATOM      1  C1  I4B d   1       0.751   0.384  -0.497  0.00  0.00    -0.075 A 
ATOM      2  C2  I4B d   1       0.383   1.520  -1.174  0.00  0.00     0.003 A 
ATOM      3  C3  I4B d   1      -0.977   1.908  -1.229  0.00  0.00     0.002 A 
ATOM      4  C4  I4B d   1      -1.936   1.110  -0.640  0.00  0.00    -0.004 A 
ATOM      5  C5  I4B d   1      -1.560  -0.030   0.065  0.00  0.00     0.002 A 
ATOM      6  C6  I4B d   1      -0.206  -0.389   0.148  0.00  0.00     0.003 A 
ENDROOT
BRANCH   1   7
ATOM      7  C1' I4B d   1       2.193  -0.015  -0.487  0.00  0.00     0.060 C 
BRANCH   7   8
ATOM      8  C2' I4B d   1       2.618  -0.266  -1.919  0.00  0.00    -0.013 C 
ATOM      9  C4' I4B d   1       4.118  -0.296  -2.045  0.00  0.00     0.013 C 
ATOM     10  C3' I4B d   1       2.010  -1.563  -2.362  0.00  0.00     0.013 C 
ENDBRANCH   7   8
ENDBRANCH   1   7
TORSDOF 2
ENDMDL
