MODEL 1
REMARK minimizedAffinity -2.51223207
REMARK minimizedRMSD -1
REMARK  2 active torsions:
REMARK  status: ('A' for Active; 'I' for Inactive)
REMARK    1  A    between atoms: C2'_3  and  C1'_4 
REMARK    2  A    between atoms: C1'_4  and  C1_5 
ROOT
ATOM      1  C1  I4B d   1       0.917  -0.831  -0.355  0.00  0.00    -0.075 A 
ATOM      2  C2  I4B d   1       1.223  -1.798  -1.280  0.00  0.00     0.003 A 
ATOM      3  C3  I4B d   1       2.497  -1.815  -1.898  0.00  0.00     0.002 A 
ATOM      4  C4  I4B d   1       3.410  -0.824  -1.600  0.00  0.00    -0.004 A 
ATOM      5  C5  I4B d   1       3.106   0.142  -0.645  0.00  0.00     0.002 A 
ATOM      6  C6  I4B d   1       1.856   0.132  -0.010  0.00  0.00     0.003 A 
ENDROOT
BRANCH   1   7
ATOM      7  C1' I4B d   1      -0.450  -0.823   0.253  0.00  0.00     0.060 C 
BRANCH   7   8
ATOM      8  C2' I4B d   1      -0.787   0.606   0.625  0.00  0.00    -0.013 C 
ATOM      9  C4' I4B d   1      -0.986   1.457  -0.601  0.00  0.00     0.013 C 
ATOM     10  C3' I4B d   1      -2.022   0.585   1.475  0.00  0.00     0.013 C 
ENDBRANCH   7   8
ENDBRANCH   1   7
TORSDOF 2
ENDMDL
