MODEL 1
REMARK minimizedAffinity -2.40076089
REMARK minimizedRMSD -1
REMARK  2 active torsions:
REMARK  status: ('A' for Active; 'I' for Inactive)
REMARK    1  A    between atoms: C2'_3  and  C1'_4 
REMARK    2  A    between atoms: C1'_4  and  C1_5 
ROOT
ATOM      1  C1  I4B d   1      -1.543   0.624   1.600  0.00  0.00    -0.075 A 
ATOM      2  C2  I4B d   1      -2.579  -0.010   2.239  0.00  0.00     0.003 A 
ATOM      3  C3  I4B d   1      -2.951   0.375   3.550  0.00  0.00     0.002 A 
ATOM      4  C4  I4B d   1      -2.232   1.357   4.199  0.00  0.00    -0.004 A 
ATOM      5  C5  I4B d   1      -1.197   2.015   3.542  0.00  0.00     0.002 A 
ATOM      6  C6  I4B d   1      -0.857   1.655   2.229  0.00  0.00     0.003 A 
ENDROOT
BRANCH   1   7
ATOM      7  C1' I4B d   1      -1.156   0.170   0.229  0.00  0.00     0.060 C 
BRANCH   7   8
ATOM      8  C2' I4B d   1      -0.044   1.073  -0.266  0.00  0.00    -0.013 C 
ATOM      9  C4' I4B d   1       1.121   0.270  -0.783  0.00  0.00     0.013 C 
ATOM     10  C3' I4B d   1      -0.609   1.959  -1.336  0.00  0.00     0.013 C 
ENDBRANCH   7   8
ENDBRANCH   1   7
TORSDOF 2
ENDMDL
