MODEL 1
REMARK minimizedAffinity 8.1899004
REMARK minimizedRMSD -1
REMARK  0 active torsions:
REMARK  status: ('A' for Active; 'I' for Inactive)
ROOT
ATOM      1  C   UNL d   1      -1.124   0.426   0.332  0.00  0.00     0.020 A 
ATOM      2  C1  UNL d   1       0.180   0.645   0.775  0.00  0.00     0.020 A 
ATOM      3  C2  UNL d   1       0.621   0.056   1.962  0.00  0.00     0.034 A 
ATOM      4  C3  UNL d   1      -0.241  -0.754   2.709  0.00  0.00     0.017 A 
ATOM      5  C4  UNL d   1      -1.549  -0.973   2.263  0.00  0.00     0.017 A 
ATOM      6  C5  UNL d   1      -1.987  -0.381   1.074  0.00  0.00     0.034 A 
ATOM      7 Cl   UNL d   1      -2.672  -1.961   3.131  0.00  0.00    -0.070 Cl
ATOM      8 Cl1  UNL d   1       0.372  -1.450   4.167  0.00  0.00    -0.070 Cl
ENDROOT
TORSDOF 0
ENDMDL
