MODEL 1
REMARK minimizedAffinity 1.21055794
REMARK minimizedRMSD -1
REMARK  0 active torsions:
REMARK  status: ('A' for Active; 'I' for Inactive)
ROOT
ATOM      1  C   UNL d   1       0.025   0.609   1.016  0.00  0.00     0.020 A 
ATOM      2  C1  UNL d   1       1.322   0.286   1.414  0.00  0.00     0.020 A 
ATOM      3  C2  UNL d   1       1.527  -0.619   2.457  0.00  0.00     0.034 A 
ATOM      4  C3  UNL d   1       0.434  -1.204   3.107  0.00  0.00     0.017 A 
ATOM      5  C4  UNL d   1      -0.867  -0.879   2.707  0.00  0.00     0.017 A 
ATOM      6  C5  UNL d   1      -1.067   0.028   1.661  0.00  0.00     0.034 A 
ATOM      7 Cl   UNL d   1      -2.266  -1.560   3.460  0.00  0.00    -0.070 Cl
ATOM      8 Cl1  UNL d   1       0.762  -2.315   4.389  0.00  0.00    -0.070 Cl
ENDROOT
TORSDOF 0
ENDMDL
