MODEL 1
REMARK minimizedAffinity 8.18246555
REMARK minimizedRMSD -1
REMARK  0 active torsions:
REMARK  status: ('A' for Active; 'I' for Inactive)
ROOT
ATOM      1  C   UNL d   1       0.258  -0.766   2.260  0.00  0.00     0.020 A 
ATOM      2  C1  UNL d   1      -0.758  -1.528   1.684  0.00  0.00     0.020 A 
ATOM      3  C2  UNL d   1      -1.761  -0.904   0.938  0.00  0.00     0.034 A 
ATOM      4  C3  UNL d   1      -1.749   0.485   0.767  0.00  0.00     0.017 A 
ATOM      5  C4  UNL d   1      -0.729   1.249   1.345  0.00  0.00     0.017 A 
ATOM      6  C5  UNL d   1       0.272   0.619   2.091  0.00  0.00     0.034 A 
ATOM      7 Cl   UNL d   1      -0.648   2.967   1.178  0.00  0.00    -0.070 Cl
ATOM      8 Cl1  UNL d   1      -3.020   1.190  -0.168  0.00  0.00    -0.070 Cl
ENDROOT
TORSDOF 0
ENDMDL
