MODEL 1
REMARK minimizedAffinity 3.38561106
REMARK minimizedRMSD -1
REMARK  0 active torsions:
REMARK  status: ('A' for Active; 'I' for Inactive)
ROOT
ATOM      1  C   UNL d   1      -0.056   0.420   2.155  0.00  0.00     0.020 A 
ATOM      2  C1  UNL d   1       0.677  -0.754   1.987  0.00  0.00     0.020 A 
ATOM      3  C2  UNL d   1       1.375  -1.302   3.066  0.00  0.00     0.034 A 
ATOM      4  C3  UNL d   1       1.342  -0.675   4.317  0.00  0.00     0.017 A 
ATOM      5  C4  UNL d   1       0.606   0.503   4.484  0.00  0.00     0.017 A 
ATOM      6  C5  UNL d   1      -0.091   1.048   3.401  0.00  0.00     0.034 A 
ATOM      7 Cl   UNL d   1       0.518   1.334   5.998  0.00  0.00    -0.070 Cl
ATOM      8 Cl1  UNL d   1       2.228  -1.408   5.606  0.00  0.00    -0.070 Cl
ENDROOT
TORSDOF 0
ENDMDL
