MODEL 1
REMARK minimizedAffinity 4.69043779
REMARK minimizedRMSD -1
REMARK  0 active torsions:
REMARK  status: ('A' for Active; 'I' for Inactive)
ROOT
ATOM      1  C   UNL d   1       1.337  -0.612   2.330  0.00  0.00     0.020 A 
ATOM      2  C1  UNL d   1       0.795  -1.501   3.257  0.00  0.00     0.020 A 
ATOM      3  C2  UNL d   1      -0.589  -1.662   3.344  0.00  0.00     0.034 A 
ATOM      4  C3  UNL d   1      -1.437  -0.931   2.504  0.00  0.00     0.017 A 
ATOM      5  C4  UNL d   1      -0.892  -0.038   1.574  0.00  0.00     0.017 A 
ATOM      6  C5  UNL d   1       0.495   0.118   1.491  0.00  0.00     0.034 A 
ATOM      7 Cl   UNL d   1      -1.874   0.898   0.503  0.00  0.00    -0.070 Cl
ATOM      8 Cl1  UNL d   1      -3.139  -1.180   2.666  0.00  0.00    -0.070 Cl
ENDROOT
TORSDOF 0
ENDMDL
