MODEL 1
REMARK minimizedAffinity 0.256976128
REMARK minimizedRMSD -1
REMARK  0 active torsions:
REMARK  status: ('A' for Active; 'I' for Inactive)
ROOT
ATOM      1  C   UNL d   1       0.750  -1.063   3.982  0.00  0.00     0.020 A 
ATOM      2  C1  UNL d   1       1.293  -0.685   2.755  0.00  0.00     0.020 A 
ATOM      3  C2  UNL d   1       0.454  -0.428   1.669  0.00  0.00     0.034 A 
ATOM      4  C3  UNL d   1      -0.934  -0.548   1.808  0.00  0.00     0.017 A 
ATOM      5  C4  UNL d   1      -1.478  -0.928   3.041  0.00  0.00     0.017 A 
ATOM      6  C5  UNL d   1      -0.633  -1.184   4.125  0.00  0.00     0.034 A 
ATOM      7 Cl   UNL d   1      -3.180  -1.097   3.289  0.00  0.00    -0.070 Cl
ATOM      8 Cl1  UNL d   1      -1.912  -0.215   0.424  0.00  0.00    -0.070 Cl
ENDROOT
TORSDOF 0
ENDMDL
