MODEL 1
REMARK minimizedAffinity 5.7166934
REMARK minimizedRMSD -1
REMARK  0 active torsions:
REMARK  status: ('A' for Active; 'I' for Inactive)
ROOT
ATOM      1  C   UNL d   1       1.974  -0.799   3.112  0.00  0.00     0.020 A 
ATOM      2  C1  UNL d   1       1.408  -1.818   3.876  0.00  0.00     0.020 A 
ATOM      3  C2  UNL d   1       0.049  -2.113   3.749  0.00  0.00     0.034 A 
ATOM      4  C3  UNL d   1      -0.749  -1.388   2.856  0.00  0.00     0.017 A 
ATOM      5  C4  UNL d   1      -0.179  -0.365   2.089  0.00  0.00     0.017 A 
ATOM      6  C5  UNL d   1       1.182  -0.074   2.220  0.00  0.00     0.034 A 
ATOM      7 Cl   UNL d   1      -1.099   0.573   0.966  0.00  0.00    -0.070 Cl
ATOM      8 Cl1  UNL d   1      -2.422  -1.807   2.750  0.00  0.00    -0.070 Cl
ENDROOT
TORSDOF 0
ENDMDL
