MODEL 1
REMARK minimizedAffinity -3.65141511
REMARK minimizedRMSD -1
REMARK  0 active torsions:
REMARK  status: ('A' for Active; 'I' for Inactive)
ROOT
ATOM      1  C   UNL d   1      -4.133  -0.905   0.448  0.00  0.00     0.078 C 
ATOM      2  C1  UNL d   1      -2.669  -0.607   0.321  0.00  0.00    -0.077 A 
ATOM      3  C2  UNL d   1      -2.028  -0.656  -0.923  0.00  0.00    -0.001 A 
ATOM      4  C3  UNL d   1      -0.663  -0.385  -1.025  0.00  0.00     0.003 A 
ATOM      5  C4  UNL d   1       0.074  -0.065   0.113  0.00  0.00    -0.005 A 
ATOM      6  C5  UNL d   1      -0.555  -0.016   1.356  0.00  0.00     0.003 A 
ATOM      7  C6  UNL d   1      -1.920  -0.286   1.460  0.00  0.00    -0.001 A 
ENDROOT
TORSDOF 0
ENDMDL
