MODEL 1
REMARK minimizedAffinity -3.58658695
REMARK minimizedRMSD -1
REMARK  0 active torsions:
REMARK  status: ('A' for Active; 'I' for Inactive)
ROOT
ATOM      1  C   UNL d   1       0.024  -1.319   2.732  0.00  0.00     0.078 C 
ATOM      2  C1  UNL d   1       0.133  -0.785   1.335  0.00  0.00    -0.077 A 
ATOM      3  C2  UNL d   1       1.143  -1.225   0.471  0.00  0.00    -0.001 A 
ATOM      4  C3  UNL d   1       1.238  -0.711  -0.823  0.00  0.00     0.003 A 
ATOM      5  C4  UNL d   1       0.327   0.246  -1.265  0.00  0.00    -0.005 A 
ATOM      6  C5  UNL d   1      -0.680   0.692  -0.412  0.00  0.00     0.003 A 
ATOM      7  C6  UNL d   1      -0.777   0.179   0.883  0.00  0.00    -0.001 A 
ENDROOT
TORSDOF 0
ENDMDL
