MODEL 1
REMARK minimizedAffinity -4.16405582
REMARK minimizedRMSD -1
REMARK  0 active torsions:
REMARK  status: ('A' for Active; 'I' for Inactive)
ROOT
ATOM      1  C   UNL d   1       0.146  -0.961   2.593  0.00  0.00     0.078 C 
ATOM      2  C1  UNL d   1      -0.189  -0.383   1.251  0.00  0.00    -0.077 A 
ATOM      3  C2  UNL d   1       0.641  -0.600   0.144  0.00  0.00    -0.001 A 
ATOM      4  C3  UNL d   1       0.322  -0.047  -1.097  0.00  0.00     0.003 A 
ATOM      5  C4  UNL d   1      -0.827   0.728  -1.243  0.00  0.00    -0.005 A 
ATOM      6  C5  UNL d   1      -1.658   0.952  -0.147  0.00  0.00     0.003 A 
ATOM      7  C6  UNL d   1      -1.340   0.399   1.095  0.00  0.00    -0.001 A 
ENDROOT
TORSDOF 0
ENDMDL
