MODEL 1
REMARK minimizedAffinity -4.84880352
REMARK minimizedRMSD -1
REMARK  0 active torsions:
REMARK  status: ('A' for Active; 'I' for Inactive)
ROOT
ATOM      1  C   UNL d   1      -0.181   0.774  -1.225  0.00  0.00     0.078 C 
ATOM      2  C1  UNL d   1       0.338   0.353   0.118  0.00  0.00    -0.077 A 
ATOM      3  C2  UNL d   1      -0.524   0.202   1.210  0.00  0.00    -0.001 A 
ATOM      4  C3  UNL d   1      -0.025  -0.181   2.456  0.00  0.00     0.003 A 
ATOM      5  C4  UNL d   1       1.338  -0.415   2.622  0.00  0.00    -0.005 A 
ATOM      6  C5  UNL d   1       2.205  -0.266   1.541  0.00  0.00     0.003 A 
ATOM      7  C6  UNL d   1       1.708   0.117   0.294  0.00  0.00    -0.001 A 
ENDROOT
TORSDOF 0
ENDMDL
