MODEL 1
REMARK minimizedAffinity -5.27487373
REMARK minimizedRMSD -1
REMARK  0 active torsions:
REMARK  status: ('A' for Active; 'I' for Inactive)
ROOT
ATOM      1  C   UNL d   1       1.428  -1.503   2.872  0.00  0.00     0.078 C 
ATOM      2  C1  UNL d   1       0.912  -1.161   1.506  0.00  0.00    -0.077 A 
ATOM      3  C2  UNL d   1       1.706  -1.345   0.368  0.00  0.00    -0.001 A 
ATOM      4  C3  UNL d   1       1.216  -1.013  -0.896  0.00  0.00     0.003 A 
ATOM      5  C4  UNL d   1      -0.069  -0.494  -1.034  0.00  0.00    -0.005 A 
ATOM      6  C5  UNL d   1      -0.867  -0.306   0.093  0.00  0.00     0.003 A 
ATOM      7  C6  UNL d   1      -0.379  -0.637   1.358  0.00  0.00    -0.001 A 
ENDROOT
TORSDOF 0
ENDMDL
