MODEL 1
REMARK minimizedAffinity 5.04169226
REMARK minimizedRMSD -1
REMARK  1 active torsions:
REMARK  status: ('A' for Active; 'I' for Inactive)
REMARK    1  A    between atoms: N_2  and  C1_3 
ROOT
ATOM      1  C1  UNL d   1      -5.154   0.812   0.373  0.00  0.00     0.143 A 
ATOM      2  C2  UNL d   1      -5.959   0.756  -0.770  0.00  0.00    -0.057 A 
ATOM      3  C3  UNL d   1      -5.993  -0.385  -1.579  0.00  0.00     0.033 A 
ATOM      4  C4  UNL d   1      -5.198  -1.485  -1.275  0.00  0.00    -0.042 A 
ATOM      5  C5  UNL d   1      -4.371  -1.443  -0.158  0.00  0.00     0.033 A 
ATOM      6  C6  UNL d   1      -4.346  -0.302   0.650  0.00  0.00    -0.057 A 
ENDROOT
BRANCH   1   7
ATOM      7  N   UNL d   1      -5.002   1.954   1.163  0.00  0.00    -0.732 N 
ATOM      8  C   UNL d   1      -4.053   1.974   2.255  0.00  0.00     0.284 C 
ATOM      9  H3  UNL d   1      -5.023   2.811   0.614  0.00  0.00     0.395 HD
ENDBRANCH   1   7
TORSDOF 1
ENDMDL
