MODEL 1
REMARK minimizedAffinity 7.23234081
REMARK minimizedRMSD -1
REMARK  1 active torsions:
REMARK  status: ('A' for Active; 'I' for Inactive)
REMARK    1  A    between atoms: N_2  and  C1_3 
ROOT
ATOM      1  C1  UNL d   1       1.114   0.883   1.359  0.00  0.00     0.143 A 
ATOM      2  C2  UNL d   1       1.822  -0.317   1.485  0.00  0.00    -0.057 A 
ATOM      3  C3  UNL d   1       1.854  -1.254   0.445  0.00  0.00     0.033 A 
ATOM      4  C4  UNL d   1       1.153  -1.019  -0.733  0.00  0.00    -0.042 A 
ATOM      5  C5  UNL d   1       0.423   0.156  -0.871  0.00  0.00     0.033 A 
ATOM      6  C6  UNL d   1       0.400   1.091   0.169  0.00  0.00    -0.057 A 
ENDROOT
BRANCH   1   7
ATOM      7  N   UNL d   1       0.963   1.809   2.394  0.00  0.00    -0.732 N 
ATOM      8  C   UNL d   1       1.527   3.137   2.283  0.00  0.00     0.284 C 
ATOM      9  H3  UNL d   1       0.031   1.786   2.802  0.00  0.00     0.395 HD
ENDBRANCH   1   7
TORSDOF 1
ENDMDL
