MODEL 1
REMARK minimizedAffinity 1.56950974
REMARK minimizedRMSD -1
REMARK  1 active torsions:
REMARK  status: ('A' for Active; 'I' for Inactive)
REMARK    1  A    between atoms: N_2  and  C1_3 
ROOT
ATOM      1  C1  UNL d   1       0.174  -3.187   5.914  0.00  0.00     0.143 A 
ATOM      2  C2  UNL d   1       1.437  -3.784   5.988  0.00  0.00    -0.057 A 
ATOM      3  C3  UNL d   1       1.582  -5.177   5.998  0.00  0.00     0.033 A 
ATOM      4  C4  UNL d   1       0.461  -5.999   5.964  0.00  0.00    -0.042 A 
ATOM      5  C5  UNL d   1      -0.805  -5.428   5.915  0.00  0.00     0.033 A 
ATOM      6  C6  UNL d   1      -0.943  -4.036   5.898  0.00  0.00    -0.057 A 
ENDROOT
BRANCH   1   7
ATOM      7  N   UNL d   1      -0.041  -1.809   5.999  0.00  0.00    -0.732 N 
ATOM      8  C   UNL d   1       1.074  -0.887   5.991  0.00  0.00     0.284 C 
ATOM      9  H3  UNL d   1      -0.836  -1.505   5.442  0.00  0.00     0.395 HD
ENDBRANCH   1   7
TORSDOF 1
ENDMDL
