MODEL 1
REMARK minimizedAffinity -1.21023178
REMARK minimizedRMSD -1
REMARK  1 active torsions:
REMARK  status: ('A' for Active; 'I' for Inactive)
REMARK    1  A    between atoms: N_2  and  C1_3 
ROOT
ATOM      1  C1  UNL d   1       1.538  -4.596   5.924  0.00  0.00     0.143 A 
ATOM      2  C2  UNL d   1       0.157  -4.815   5.965  0.00  0.00    -0.057 A 
ATOM      3  C3  UNL d   1      -0.747  -3.747   5.988  0.00  0.00     0.033 A 
ATOM      4  C4  UNL d   1      -0.284  -2.436   6.000  0.00  0.00    -0.042 A 
ATOM      5  C5  UNL d   1       1.085  -2.194   5.985  0.00  0.00     0.033 A 
ATOM      6  C6  UNL d   1       1.983  -3.265   5.955  0.00  0.00    -0.057 A 
ENDROOT
BRANCH   1   7
ATOM      7  N   UNL d   1       2.491  -5.615   5.999  0.00  0.00    -0.732 N 
ATOM      8  C   UNL d   1       3.276  -5.977   4.838  0.00  0.00     0.284 C 
ATOM      9  H3  UNL d   1       3.020  -5.589   6.867  0.00  0.00     0.395 HD
ENDBRANCH   1   7
TORSDOF 1
ENDMDL
