MODEL 1
REMARK minimizedAffinity -4.04937744
REMARK minimizedRMSD -1
REMARK  0 active torsions:
REMARK  status: ('A' for Active; 'I' for Inactive)
ROOT
ATOM      1  C   UNL d   1      -1.387  -0.017   0.075  0.00  0.00     0.172 C 
ATOM      2  N   UNL d   1      -0.740   0.188   1.350  0.00  0.00    -0.070 N 
ATOM      3  C1  UNL d   1      -1.357   0.602   2.500  0.00  0.00    -0.004 A 
ATOM      4  C2  UNL d   1      -0.400   0.673   3.490  0.00  0.00    -0.047 A 
ATOM      5  C3  UNL d   1       0.835   0.290   2.914  0.00  0.00    -0.047 A 
ATOM      6  C4  UNL d   1       0.595  -0.005   1.588  0.00  0.00    -0.004 A 
ENDROOT
TORSDOF 0
ENDMDL
