MODEL 1
REMARK minimizedAffinity 0.130007818
REMARK minimizedRMSD -1
REMARK  0 active torsions:
REMARK  status: ('A' for Active; 'I' for Inactive)
ROOT
ATOM      1  C   UNL d   1      -0.518  -0.783  -0.046  0.00  0.00     0.172 C 
ATOM      2  N   UNL d   1      -1.272  -1.931  -0.491  0.00  0.00    -0.070 N 
ATOM      3  C1  UNL d   1      -0.745  -3.063  -1.053  0.00  0.00    -0.004 A 
ATOM      4  C2  UNL d   1      -1.787  -3.918  -1.336  0.00  0.00    -0.047 A 
ATOM      5  C3  UNL d   1      -2.982  -3.278  -0.931  0.00  0.00    -0.047 A 
ATOM      6  C4  UNL d   1      -2.634  -2.049  -0.411  0.00  0.00    -0.004 A 
ENDROOT
TORSDOF 0
ENDMDL
