MODEL 1
REMARK minimizedAffinity -0.381421179
REMARK minimizedRMSD -1
REMARK  0 active torsions:
REMARK  status: ('A' for Active; 'I' for Inactive)
ROOT
ATOM      1  C   UNL d   1      -0.216   0.651   2.242  0.00  0.00     0.172 C 
ATOM      2  N   UNL d   1       0.446  -0.005   1.139  0.00  0.00    -0.070 N 
ATOM      3  C1  UNL d   1      -0.170  -0.516   0.028  0.00  0.00    -0.004 A 
ATOM      4  C2  UNL d   1       0.803  -1.055  -0.785  0.00  0.00    -0.047 A 
ATOM      5  C3  UNL d   1       2.048  -0.863  -0.139  0.00  0.00    -0.047 A 
ATOM      6  C4  UNL d   1       1.798  -0.211   1.049  0.00  0.00    -0.004 A 
ENDROOT
TORSDOF 0
ENDMDL
