MODEL 1
REMARK minimizedAffinity -3.46644521
REMARK minimizedRMSD -1
REMARK  0 active torsions:
REMARK  status: ('A' for Active; 'I' for Inactive)
ROOT
ATOM      1  C   UNL d   1      -0.246   1.828   2.732  0.00  0.00     0.172 C 
ATOM      2  N   UNL d   1       0.242   0.974   1.675  0.00  0.00    -0.070 N 
ATOM      3  C1  UNL d   1      -0.522   0.405   0.692  0.00  0.00    -0.004 A 
ATOM      4  C2  UNL d   1       0.314  -0.334  -0.118  0.00  0.00    -0.047 A 
ATOM      5  C3  UNL d   1       1.626  -0.205   0.398  0.00  0.00    -0.047 A 
ATOM      6  C4  UNL d   1       1.552   0.610   1.508  0.00  0.00    -0.004 A 
ENDROOT
TORSDOF 0
ENDMDL
