MODEL 1
REMARK minimizedAffinity -3.41858029
REMARK minimizedRMSD -1
REMARK  0 active torsions:
REMARK  status: ('A' for Active; 'I' for Inactive)
ROOT
ATOM      1  C   UNL d   1      -2.482  -0.778  -0.096  0.00  0.00     0.172 C 
ATOM      2  N   UNL d   1      -1.460  -0.142   0.702  0.00  0.00    -0.070 N 
ATOM      3  C1  UNL d   1      -0.158   0.050   0.326  0.00  0.00    -0.004 A 
ATOM      4  C2  UNL d   1       0.491   0.689   1.361  0.00  0.00    -0.047 A 
ATOM      5  C3  UNL d   1      -0.455   0.886   2.395  0.00  0.00    -0.047 A 
ATOM      6  C4  UNL d   1      -1.654   0.362   1.961  0.00  0.00    -0.004 A 
ENDROOT
TORSDOF 0
ENDMDL
