MODEL 1
REMARK minimizedAffinity -3.6098659
REMARK minimizedRMSD -1
REMARK  0 active torsions:
REMARK  status: ('A' for Active; 'I' for Inactive)
ROOT
ATOM      1  C   UNL d   1      -1.787  -0.701   0.301  0.00  0.00     0.172 C 
ATOM      2  N   UNL d   1      -0.923   0.079   1.156  0.00  0.00    -0.070 N 
ATOM      3  C1  UNL d   1      -1.219   0.495   2.426  0.00  0.00    -0.004 A 
ATOM      4  C2  UNL d   1      -0.140   1.208   2.900  0.00  0.00    -0.047 A 
ATOM      5  C3  UNL d   1       0.839   1.223   1.878  0.00  0.00    -0.047 A 
ATOM      6  C4  UNL d   1       0.329   0.517   0.809  0.00  0.00    -0.004 A 
ENDROOT
TORSDOF 0
ENDMDL
