MODEL 1
REMARK minimizedAffinity -0.487022877
REMARK minimizedRMSD -1
REMARK  0 active torsions:
REMARK  status: ('A' for Active; 'I' for Inactive)
ROOT
ATOM      1  C   UNL d   1       0.206   0.429  -2.228  0.00  0.00     0.172 C 
ATOM      2  N   UNL d   1       0.401   0.323  -0.801  0.00  0.00    -0.070 N 
ATOM      3  C1  UNL d   1       0.932  -0.756  -0.146  0.00  0.00    -0.004 A 
ATOM      4  C2  UNL d   1       0.950  -0.466   1.201  0.00  0.00    -0.047 A 
ATOM      5  C3  UNL d   1       0.410   0.833   1.361  0.00  0.00    -0.047 A 
ATOM      6  C4  UNL d   1       0.079   1.298   0.106  0.00  0.00    -0.004 A 
ENDROOT
TORSDOF 0
ENDMDL
