MODEL 1
REMARK minimizedAffinity 0.267101645
REMARK minimizedRMSD -1
REMARK  0 active torsions:
REMARK  status: ('A' for Active; 'I' for Inactive)
ROOT
ATOM      1  C   UNL d   1       1.636  -1.767   4.641  0.00  0.00     0.172 C 
ATOM      2  N   UNL d   1       1.137  -0.431   4.861  0.00  0.00    -0.070 N 
ATOM      3  C1  UNL d   1       1.695   0.721   4.374  0.00  0.00    -0.004 A 
ATOM      4  C2  UNL d   1       0.924   1.779   4.805  0.00  0.00    -0.047 A 
ATOM      5  C3  UNL d   1      -0.133   1.245   5.579  0.00  0.00    -0.047 A 
ATOM      6  C4  UNL d   1       0.023  -0.125   5.598  0.00  0.00    -0.004 A 
ENDROOT
TORSDOF 0
ENDMDL
