MODEL 1
REMARK minimizedAffinity -3.10810065
REMARK minimizedRMSD -1
REMARK  0 active torsions:
REMARK  status: ('A' for Active; 'I' for Inactive)
ROOT
ATOM      1  C   UNL d   1      -1.443   0.168  -5.467  0.00  0.00     0.172 C 
ATOM      2  N   UNL d   1      -0.164   0.365  -4.825  0.00  0.00    -0.070 N 
ATOM      3  C1  UNL d   1       0.285  -0.305  -3.718  0.00  0.00    -0.004 A 
ATOM      4  C2  UNL d   1       1.544   0.168  -3.421  0.00  0.00    -0.047 A 
ATOM      5  C3  UNL d   1       1.864   1.156  -4.382  0.00  0.00    -0.047 A 
ATOM      6  C4  UNL d   1       0.789   1.258  -5.240  0.00  0.00    -0.004 A 
ENDROOT
TORSDOF 0
ENDMDL
