MODEL 1
REMARK minimizedAffinity 12.458457
REMARK minimizedRMSD -1
REMARK  3 active torsions:
REMARK  status: ('A' for Active; 'I' for Inactive)
REMARK    1  A    between atoms: C3'_2  and  C2'_3 
REMARK    2  A    between atoms: C2'_3  and  C1'_4 
REMARK    3  A    between atoms: C1'_4  and  C1_5 
ROOT
ATOM      1  C1  N4B d   1      -4.149  -2.920   2.222  0.00  0.00    -0.075 A 
ATOM      2  C2  N4B d   1      -3.318  -4.047   2.046  0.00  0.00     0.002 A 
ATOM      3  C3  N4B d   1      -3.701  -5.057   1.198  0.00  0.00     0.002 A 
ATOM      4  C4  N4B d   1      -4.915  -4.971   0.533  0.00  0.00    -0.004 A 
ATOM      5  C5  N4B d   1      -5.701  -3.867   0.689  0.00  0.00     0.002 A 
ATOM      6  C6  N4B d   1      -5.326  -2.842   1.535  0.00  0.00     0.002 A 
ENDROOT
BRANCH   1   7
ATOM      7  C1' N4B d   1      -3.813  -1.830   3.204  0.00  0.00     0.057 C 
BRANCH   7   8
ATOM      8  C2' N4B d   1      -3.825  -0.486   2.483  0.00  0.00     0.009 C 
BRANCH   8   9
ATOM      9  C3' N4B d   1      -3.108   0.592   3.278  0.00  0.00     0.004 C 
ATOM     10  C4' N4B d   1      -1.907   1.138   2.566  0.00  0.00     0.003 C 
ENDBRANCH   8   9
ENDBRANCH   7   8
ENDBRANCH   1   7
TORSDOF 3
ENDMDL
