MODEL 1
REMARK minimizedAffinity 10.6388083
REMARK minimizedRMSD -1
REMARK  3 active torsions:
REMARK  status: ('A' for Active; 'I' for Inactive)
REMARK    1  A    between atoms: C3'_2  and  C2'_3 
REMARK    2  A    between atoms: C2'_3  and  C1'_4 
REMARK    3  A    between atoms: C1'_4  and  C1_5 
ROOT
ATOM      1  C1  N4B d   1      -1.614   0.224   2.590  0.00  0.00    -0.075 A 
ATOM      2  C2  N4B d   1      -2.196  -1.058   2.477  0.00  0.00     0.002 A 
ATOM      3  C3  N4B d   1      -3.525  -1.237   2.775  0.00  0.00     0.002 A 
ATOM      4  C4  N4B d   1      -4.283  -0.158   3.204  0.00  0.00    -0.004 A 
ATOM      5  C5  N4B d   1      -3.719   1.081   3.286  0.00  0.00     0.002 A 
ATOM      6  C6  N4B d   1      -2.386   1.277   2.986  0.00  0.00     0.002 A 
ENDROOT
BRANCH   1   7
ATOM      7  C1' N4B d   1      -0.145   0.452   2.358  0.00  0.00     0.057 C 
BRANCH   7   8
ATOM      8  C2' N4B d   1       0.301   1.681   3.145  0.00  0.00     0.009 C 
BRANCH   8   9
ATOM      9  C3' N4B d   1       1.754   1.582   3.577  0.00  0.00     0.004 C 
ATOM     10  C4' N4B d   1       1.918   1.576   5.068  0.00  0.00     0.003 C 
ENDBRANCH   8   9
ENDBRANCH   7   8
ENDBRANCH   1   7
TORSDOF 3
ENDMDL
