MODEL 1
REMARK minimizedAffinity 10.6603041
REMARK minimizedRMSD -1
REMARK  3 active torsions:
REMARK  status: ('A' for Active; 'I' for Inactive)
REMARK    1  A    between atoms: C3'_2  and  C2'_3 
REMARK    2  A    between atoms: C2'_3  and  C1'_4 
REMARK    3  A    between atoms: C1'_4  and  C1_5 
ROOT
ATOM      1  C1  N4B d   1      -2.477   3.624  -5.232  0.00  0.00    -0.075 A 
ATOM      2  C2  N4B d   1      -2.854   2.489  -4.480  0.00  0.00     0.002 A 
ATOM      3  C3  N4B d   1      -1.898   1.606  -4.043  0.00  0.00     0.002 A 
ATOM      4  C4  N4B d   1      -0.566   1.825  -4.361  0.00  0.00    -0.004 A 
ATOM      5  C5  N4B d   1      -0.207   2.937  -5.066  0.00  0.00     0.002 A 
ATOM      6  C6  N4B d   1      -1.157   3.835  -5.508  0.00  0.00     0.002 A 
ENDROOT
BRANCH   1   7
ATOM      7  C1' N4B d   1      -3.496   4.571  -5.804  0.00  0.00     0.057 C 
BRANCH   7   8
ATOM      8  C2' N4B d   1      -4.815   3.830  -6.000  0.00  0.00     0.009 C 
BRANCH   8   9
ATOM      9  C3' N4B d   1      -5.994   4.615  -5.452  0.00  0.00     0.004 C 
ATOM     10  C4' N4B d   1      -5.936   4.787  -3.963  0.00  0.00     0.003 C 
ENDBRANCH   8   9
ENDBRANCH   7   8
ENDBRANCH   1   7
TORSDOF 3
ENDMDL
