MODEL 1
REMARK minimizedAffinity 21.3111439
REMARK minimizedRMSD -1
REMARK  3 active torsions:
REMARK  status: ('A' for Active; 'I' for Inactive)
REMARK    1  A    between atoms: C3'_2  and  C2'_3 
REMARK    2  A    between atoms: C2'_3  and  C1'_4 
REMARK    3  A    between atoms: C1'_4  and  C1_5 
ROOT
ATOM      1  C1  N4B d   1       2.071   0.994  -2.734  0.00  0.00    -0.075 A 
ATOM      2  C2  N4B d   1       1.773  -0.344  -2.392  0.00  0.00     0.002 A 
ATOM      3  C3  N4B d   1       2.215  -0.863  -1.199  0.00  0.00     0.002 A 
ATOM      4  C4  N4B d   1       2.970  -0.073  -0.346  0.00  0.00    -0.004 A 
ATOM      5  C5  N4B d   1       3.233   1.226  -0.672  0.00  0.00     0.002 A 
ATOM      6  C6  N4B d   1       2.791   1.762  -1.865  0.00  0.00     0.002 A 
ENDROOT
BRANCH   1   7
ATOM      7  C1' N4B d   1       1.683   1.579  -4.064  0.00  0.00     0.057 C 
BRANCH   7   8
ATOM      8  C2' N4B d   1       0.495   2.517  -3.870  0.00  0.00     0.009 C 
BRANCH   8   9
ATOM      9  C3' N4B d   1      -0.580   2.297  -4.921  0.00  0.00     0.004 C 
ATOM     10  C4' N4B d   1      -1.885   2.943  -4.560  0.00  0.00     0.003 C 
ENDBRANCH   8   9
ENDBRANCH   7   8
ENDBRANCH   1   7
TORSDOF 3
ENDMDL
