MODEL 1
REMARK minimizedAffinity 8.91792011
REMARK minimizedRMSD -1
REMARK  3 active torsions:
REMARK  status: ('A' for Active; 'I' for Inactive)
REMARK    1  A    between atoms: C3'_2  and  C2'_3 
REMARK    2  A    between atoms: C2'_3  and  C1'_4 
REMARK    3  A    between atoms: C1'_4  and  C1_5 
ROOT
ATOM      1  C1  N4B d   1       1.107  -0.849  -2.117  0.00  0.00    -0.075 A 
ATOM      2  C2  N4B d   1       0.786  -2.224  -2.076  0.00  0.00     0.002 A 
ATOM      3  C3  N4B d   1       1.529  -3.080  -1.301  0.00  0.00     0.002 A 
ATOM      4  C4  N4B d   1       2.604  -2.589  -0.575  0.00  0.00    -0.004 A 
ATOM      5  C5  N4B d   1       2.892  -1.256  -0.600  0.00  0.00     0.002 A 
ATOM      6  C6  N4B d   1       2.151  -0.384  -1.372  0.00  0.00     0.002 A 
ENDROOT
BRANCH   1   7
ATOM      7  C1' N4B d   1       0.377   0.110  -3.017  0.00  0.00     0.057 C 
BRANCH   7   8
ATOM      8  C2' N4B d   1      -1.124  -0.137  -2.900  0.00  0.00     0.009 C 
BRANCH   8   9
ATOM      9  C3' N4B d   1      -1.933   0.946  -3.593  0.00  0.00     0.004 C 
ATOM     10  C4' N4B d   1      -1.856   0.860  -5.088  0.00  0.00     0.003 C 
ENDBRANCH   8   9
ENDBRANCH   7   8
ENDBRANCH   1   7
TORSDOF 3
ENDMDL
