MODEL 1
REMARK minimizedAffinity 12.2995234
REMARK minimizedRMSD -1
REMARK  3 active torsions:
REMARK  status: ('A' for Active; 'I' for Inactive)
REMARK    1  A    between atoms: C3'_2  and  C2'_3 
REMARK    2  A    between atoms: C2'_3  and  C1'_4 
REMARK    3  A    between atoms: C1'_4  and  C1_5 
ROOT
ATOM      1  C1  N4B d   1       2.833  -1.346  -0.521  0.00  0.00    -0.075 A 
ATOM      2  C2  N4B d   1       2.125  -0.528  -1.429  0.00  0.00     0.002 A 
ATOM      3  C3  N4B d   1       2.600   0.722  -1.741  0.00  0.00     0.002 A 
ATOM      4  C4  N4B d   1       3.766   1.181  -1.146  0.00  0.00    -0.004 A 
ATOM      5  C5  N4B d   1       4.457   0.375  -0.290  0.00  0.00     0.002 A 
ATOM      6  C6  N4B d   1       3.993  -0.886   0.030  0.00  0.00     0.002 A 
ENDROOT
BRANCH   1   7
ATOM      7  C1' N4B d   1       2.307  -2.686  -0.083  0.00  0.00     0.057 C 
BRANCH   7   8
ATOM      8  C2' N4B d   1       3.478  -3.648   0.098  0.00  0.00     0.009 C 
BRANCH   8   9
ATOM      9  C3' N4B d   1       3.030  -5.099   0.073  0.00  0.00     0.004 C 
ATOM     10  C4' N4B d   1       4.017  -6.000  -0.608  0.00  0.00     0.003 C 
ENDBRANCH   8   9
ENDBRANCH   7   8
ENDBRANCH   1   7
TORSDOF 3
ENDMDL
