MODEL 1
REMARK minimizedAffinity 4.29878521
REMARK minimizedRMSD -1
REMARK  3 active torsions:
REMARK  status: ('A' for Active; 'I' for Inactive)
REMARK    1  A    between atoms: C3'_2  and  C2'_3 
REMARK    2  A    between atoms: C2'_3  and  C1'_4 
REMARK    3  A    between atoms: C1'_4  and  C1_5 
ROOT
ATOM      1  C1  N4B d   1       2.847  -3.474  -1.899  0.00  0.00    -0.075 A 
ATOM      2  C2  N4B d   1       2.271  -2.819  -3.010  0.00  0.00     0.002 A 
ATOM      3  C3  N4B d   1       2.755  -3.056  -4.273  0.00  0.00     0.002 A 
ATOM      4  C4  N4B d   1       3.823  -3.924  -4.447  0.00  0.00    -0.004 A 
ATOM      5  C5  N4B d   1       4.357  -4.571  -3.371  0.00  0.00     0.002 A 
ATOM      6  C6  N4B d   1       3.878  -4.346  -2.097  0.00  0.00     0.002 A 
ENDROOT
BRANCH   1   7
ATOM      7  C1' N4B d   1       2.408  -3.182  -0.490  0.00  0.00     0.057 C 
BRANCH   7   8
ATOM      8  C2' N4B d   1       3.181  -1.977   0.036  0.00  0.00     0.009 C 
BRANCH   8   9
ATOM      9  C3' N4B d   1       2.768  -0.690  -0.656  0.00  0.00     0.004 C 
ATOM     10  C4' N4B d   1       3.657   0.468  -0.309  0.00  0.00     0.003 C 
ENDBRANCH   8   9
ENDBRANCH   7   8
ENDBRANCH   1   7
TORSDOF 3
ENDMDL
