MODEL 1
REMARK minimizedAffinity 9.81882954
REMARK minimizedRMSD -1
REMARK  3 active torsions:
REMARK  status: ('A' for Active; 'I' for Inactive)
REMARK    1  A    between atoms: C3'_2  and  C2'_3 
REMARK    2  A    between atoms: C2'_3  and  C1'_4 
REMARK    3  A    between atoms: C1'_4  and  C1_5 
ROOT
ATOM      1  C1  N4B d   1      -1.429   1.505   3.101  0.00  0.00    -0.075 A 
ATOM      2  C2  N4B d   1      -1.449   0.371   2.260  0.00  0.00     0.002 A 
ATOM      3  C3  N4B d   1      -2.610  -0.345   2.099  0.00  0.00     0.002 A 
ATOM      4  C4  N4B d   1      -3.754   0.042   2.780  0.00  0.00    -0.004 A 
ATOM      5  C5  N4B d   1      -3.733   1.154   3.571  0.00  0.00     0.002 A 
ATOM      6  C6  N4B d   1      -2.574   1.885   3.739  0.00  0.00     0.002 A 
ENDROOT
BRANCH   1   7
ATOM      7  C1' N4B d   1      -0.162   2.268   3.376  0.00  0.00     0.057 C 
BRANCH   7   8
ATOM      8  C2' N4B d   1       0.986   1.282   3.563  0.00  0.00     0.009 C 
BRANCH   8   9
ATOM      9  C3' N4B d   1       1.688   1.474   4.897  0.00  0.00     0.004 C 
ATOM     10  C4' N4B d   1       0.746   1.855   5.999  0.00  0.00     0.003 C 
ENDBRANCH   8   9
ENDBRANCH   7   8
ENDBRANCH   1   7
TORSDOF 3
ENDMDL
