MODEL 1
REMARK minimizedAffinity -3.45933437
REMARK minimizedRMSD -1
REMARK  1 active torsions:
REMARK  status: ('A' for Active; 'I' for Inactive)
REMARK    1  A    between atoms: C3_4  and  O_7 
ROOT
ATOM      1  C   UNL d   1      -0.470  -0.128   0.016  0.00  0.00    -0.033 A 
ATOM      2  C1  UNL d   1       0.264   1.058   0.070  0.00  0.00     0.039 A 
ATOM      3  C2  UNL d   1       1.636   1.020   0.328  0.00  0.00    -0.080 A 
ATOM      4  C3  UNL d   1       2.260  -0.208   0.528  0.00  0.00     0.150 A 
ATOM      5  C4  UNL d   1       1.535  -1.393   0.471  0.00  0.00    -0.007 A 
ATOM      6  C5  UNL d   1       0.165  -1.354   0.215  0.00  0.00     0.039 A 
ENDROOT
BRANCH   4   7
ATOM      7  O   UNL d   1       3.596  -0.295   0.787  0.00  0.00    -0.526 OA
ATOM      8  H5  UNL d   1       3.961   0.605   0.825  0.00  0.00     0.418 HD
ENDBRANCH   4   7
TORSDOF 1
ENDMDL
