MODEL 1
REMARK minimizedAffinity -4.92755747
REMARK minimizedRMSD -1
REMARK  1 active torsions:
REMARK  status: ('A' for Active; 'I' for Inactive)
REMARK    1  A    between atoms: C3_4  and  O_7 
ROOT
ATOM      1  C   UNL d   1       2.853   0.115   0.444  0.00  0.00    -0.033 A 
ATOM      2  C1  UNL d   1       1.490   0.102   0.138  0.00  0.00     0.039 A 
ATOM      3  C2  UNL d   1       0.653  -0.856   0.712  0.00  0.00    -0.080 A 
ATOM      4  C3  UNL d   1       1.189  -1.794   1.591  0.00  0.00     0.150 A 
ATOM      5  C4  UNL d   1       2.544  -1.784   1.904  0.00  0.00    -0.007 A 
ATOM      6  C5  UNL d   1       3.379  -0.827   1.328  0.00  0.00     0.039 A 
ENDROOT
BRANCH   4   7
ATOM      7  O   UNL d   1       0.412  -2.751   2.173  0.00  0.00    -0.526 OA
ATOM      8  H5  UNL d   1      -0.497  -2.653   1.841  0.00  0.00     0.418 HD
ENDBRANCH   4   7
TORSDOF 1
ENDMDL
