MODEL 1
REMARK minimizedAffinity -5.41979885
REMARK minimizedRMSD -1
REMARK  1 active torsions:
REMARK  status: ('A' for Active; 'I' for Inactive)
REMARK    1  A    between atoms: C3_4  and  O_7 
ROOT
ATOM      1  C   UNL d   1      -0.343  -1.581   1.436  0.00  0.00    -0.033 A 
ATOM      2  C1  UNL d   1       0.729  -2.345   1.901  0.00  0.00     0.039 A 
ATOM      3  C2  UNL d   1       2.040  -1.952   1.625  0.00  0.00    -0.080 A 
ATOM      4  C3  UNL d   1       2.265  -0.794   0.886  0.00  0.00     0.150 A 
ATOM      5  C4  UNL d   1       1.202  -0.026   0.423  0.00  0.00    -0.007 A 
ATOM      6  C5  UNL d   1      -0.106  -0.421   0.698  0.00  0.00     0.039 A 
ENDROOT
BRANCH   4   7
ATOM      7  O   UNL d   1       3.527  -0.373   0.588  0.00  0.00    -0.526 OA
ATOM      8  H5  UNL d   1       4.160  -1.017   0.948  0.00  0.00     0.418 HD
ENDBRANCH   4   7
TORSDOF 1
ENDMDL
