MODEL 1
REMARK minimizedAffinity -4.4352622
REMARK minimizedRMSD -1
REMARK  1 active torsions:
REMARK  status: ('A' for Active; 'I' for Inactive)
REMARK    1  A    between atoms: C3_4  and  O_7 
ROOT
ATOM      1  C   UNL d   1       1.949  -1.387   1.170  0.00  0.00    -0.033 A 
ATOM      2  C1  UNL d   1       2.984  -0.454   1.068  0.00  0.00     0.039 A 
ATOM      3  C2  UNL d   1       2.757   0.777   0.450  0.00  0.00    -0.080 A 
ATOM      4  C3  UNL d   1       1.494   1.064  -0.059  0.00  0.00     0.150 A 
ATOM      5  C4  UNL d   1       0.458   0.142   0.043  0.00  0.00    -0.007 A 
ATOM      6  C5  UNL d   1       0.686  -1.088   0.659  0.00  0.00     0.039 A 
ENDROOT
BRANCH   4   7
ATOM      7  O   UNL d   1       1.226   2.251  -0.674  0.00  0.00    -0.526 OA
ATOM      8  H5  UNL d   1       2.043   2.777  -0.696  0.00  0.00     0.418 HD
ENDBRANCH   4   7
TORSDOF 1
ENDMDL
