MODEL 1
REMARK minimizedAffinity -1.80225086
REMARK minimizedRMSD -1
REMARK  1 active torsions:
REMARK  status: ('A' for Active; 'I' for Inactive)
REMARK    1  A    between atoms: C3_4  and  O_7 
ROOT
ATOM      1  C   UNL d   1       1.324   0.910   1.278  0.00  0.00    -0.033 A 
ATOM      2  C1  UNL d   1       2.453   1.275   2.014  0.00  0.00     0.039 A 
ATOM      3  C2  UNL d   1       2.741   0.631   3.219  0.00  0.00    -0.080 A 
ATOM      4  C3  UNL d   1       1.893  -0.374   3.676  0.00  0.00     0.150 A 
ATOM      5  C4  UNL d   1       0.768  -0.745   2.946  0.00  0.00    -0.007 A 
ATOM      6  C5  UNL d   1       0.482  -0.100   1.743  0.00  0.00     0.039 A 
ENDROOT
BRANCH   4   7
ATOM      7  O   UNL d   1       2.129  -1.028   4.849  0.00  0.00    -0.526 OA
ATOM      8  H5  UNL d   1       2.924  -0.647   5.258  0.00  0.00     0.418 HD
ENDBRANCH   4   7
TORSDOF 1
ENDMDL
