MODEL 1
REMARK minimizedAffinity -5.0685668
REMARK minimizedRMSD -1
REMARK  1 active torsions:
REMARK  status: ('A' for Active; 'I' for Inactive)
REMARK    1  A    between atoms: C3_4  and  O_7 
ROOT
ATOM      1  C   UNL d   1      -0.366   0.346   0.340  0.00  0.00    -0.033 A 
ATOM      2  C1  UNL d   1       0.096  -0.970   0.399  0.00  0.00     0.039 A 
ATOM      3  C2  UNL d   1       1.444  -1.228   0.655  0.00  0.00    -0.080 A 
ATOM      4  C3  UNL d   1       2.318  -0.162   0.850  0.00  0.00     0.150 A 
ATOM      5  C4  UNL d   1       1.864   1.151   0.796  0.00  0.00    -0.007 A 
ATOM      6  C5  UNL d   1       0.518   1.407   0.540  0.00  0.00     0.039 A 
ENDROOT
BRANCH   4   7
ATOM      7  O   UNL d   1       3.644  -0.364   1.098  0.00  0.00    -0.526 OA
ATOM      8  H5  UNL d   1       3.819  -1.320   1.078  0.00  0.00     0.418 HD
ENDBRANCH   4   7
TORSDOF 1
ENDMDL
