MODEL 1
REMARK minimizedAffinity 0.38163805
REMARK minimizedRMSD -1
REMARK  0 active torsions:
REMARK  status: ('A' for Active; 'I' for Inactive)
ROOT
ATOM      1  C   UNL d   1       3.998  -5.989  -5.998  0.00  0.00     0.023 A 
ATOM      2  C1  UNL d   1       2.846  -5.987  -5.211  0.00  0.00     0.003 A 
ATOM      3  C2  UNL d   1       2.950  -5.990  -3.818  0.00  0.00     0.048 A 
ATOM      4  C3  UNL d   1       4.209  -5.992  -3.219  0.00  0.00     0.023 A 
ATOM      5  C4  UNL d   1       5.364  -5.993  -4.002  0.00  0.00     0.048 A 
ATOM      6  C5  UNL d   1       5.255  -5.992  -5.394  0.00  0.00     0.003 A 
ATOM      7  I   UNL d   1       4.366  -5.996  -1.147  0.00  0.00    -0.146 I 
ENDROOT
TORSDOF 0
ENDMDL
