MODEL 1
REMARK minimizedAffinity 10.6500978
REMARK minimizedRMSD -1
REMARK  0 active torsions:
REMARK  status: ('A' for Active; 'I' for Inactive)
ROOT
ATOM      1  C   UNL d   1       2.727   2.802  -0.854  0.00  0.00     0.023 A 
ATOM      2  C1  UNL d   1       1.530   3.214  -0.266  0.00  0.00     0.003 A 
ATOM      3  C2  UNL d   1       1.148   2.701   0.975  0.00  0.00     0.048 A 
ATOM      4  C3  UNL d   1       1.967   1.778   1.623  0.00  0.00     0.023 A 
ATOM      5  C4  UNL d   1       3.165   1.363   1.040  0.00  0.00     0.048 A 
ATOM      6  C5  UNL d   1       3.543   1.878  -0.202  0.00  0.00     0.003 A 
ATOM      7  I   UNL d   1       1.400   1.013   3.471  0.00  0.00    -0.146 I 
ENDROOT
TORSDOF 0
ENDMDL
