MODEL 1
REMARK minimizedAffinity 10.2328634
REMARK minimizedRMSD -1
REMARK  0 active torsions:
REMARK  status: ('A' for Active; 'I' for Inactive)
ROOT
ATOM      1  C   UNL d   1       2.623  -5.999   0.007  0.00  0.00     0.023 A 
ATOM      2  C1  UNL d   1       3.729  -6.000   0.857  0.00  0.00     0.003 A 
ATOM      3  C2  UNL d   1       3.842  -5.032   1.858  0.00  0.00     0.048 A 
ATOM      4  C3  UNL d   1       2.845  -4.068   2.003  0.00  0.00     0.023 A 
ATOM      5  C4  UNL d   1       1.736  -4.064   1.155  0.00  0.00     0.048 A 
ATOM      6  C5  UNL d   1       1.628  -5.033   0.155  0.00  0.00     0.003 A 
ATOM      7  I   UNL d   1       3.011  -2.628   3.492  0.00  0.00    -0.146 I 
ENDROOT
TORSDOF 0
ENDMDL
