MODEL 1
REMARK minimizedAffinity 3.30799246
REMARK minimizedRMSD -1
REMARK  0 active torsions:
REMARK  status: ('A' for Active; 'I' for Inactive)
ROOT
ATOM      1  C   UNL d   1       4.216  -5.975  -1.217  0.00  0.00     0.023 A 
ATOM      2  C1  UNL d   1       3.247  -5.997  -2.221  0.00  0.00     0.003 A 
ATOM      3  C2  UNL d   1       3.630  -5.999  -3.563  0.00  0.00     0.048 A 
ATOM      4  C3  UNL d   1       4.984  -5.981  -3.896  0.00  0.00     0.023 A 
ATOM      5  C4  UNL d   1       5.957  -5.960  -2.896  0.00  0.00     0.048 A 
ATOM      6  C5  UNL d   1       5.569  -5.957  -1.555  0.00  0.00     0.003 A 
ATOM      7  I   UNL d   1       5.557  -5.985  -5.894  0.00  0.00    -0.146 I 
ENDROOT
TORSDOF 0
ENDMDL
