MODEL 1
REMARK minimizedAffinity -2.91114235
REMARK minimizedRMSD -1
REMARK  0 active torsions:
REMARK  status: ('A' for Active; 'I' for Inactive)
ROOT
ATOM      1  C   UNL d   1       4.704  -3.729  -5.820  0.00  0.00     0.023 A 
ATOM      2  C1  UNL d   1       3.543  -2.977  -5.999  0.00  0.00     0.003 A 
ATOM      3  C2  UNL d   1       3.607  -1.582  -5.997  0.00  0.00     0.048 A 
ATOM      4  C3  UNL d   1       4.835  -0.946  -5.818  0.00  0.00     0.023 A 
ATOM      5  C4  UNL d   1       5.999  -1.695  -5.640  0.00  0.00     0.048 A 
ATOM      6  C5  UNL d   1       5.931  -3.089  -5.641  0.00  0.00     0.003 A 
ATOM      7  I   UNL d   1       4.932   1.130  -5.815  0.00  0.00    -0.146 I 
ENDROOT
TORSDOF 0
ENDMDL
