MODEL 1
REMARK minimizedAffinity -1.7892648
REMARK minimizedRMSD -1
REMARK  0 active torsions:
REMARK  status: ('A' for Active; 'I' for Inactive)
ROOT
ATOM      1  C   UNL d   1       4.897   0.369  -4.111  0.00  0.00     0.023 A 
ATOM      2  C1  UNL d   1       5.247   0.261  -5.457  0.00  0.00     0.003 A 
ATOM      3  C2  UNL d   1       5.563  -0.986  -5.999  0.00  0.00     0.048 A 
ATOM      4  C3  UNL d   1       5.527  -2.122  -5.190  0.00  0.00     0.023 A 
ATOM      5  C4  UNL d   1       5.176  -2.019  -3.843  0.00  0.00     0.048 A 
ATOM      6  C5  UNL d   1       4.862  -0.769  -3.305  0.00  0.00     0.003 A 
ATOM      7  I   UNL d   1       5.997  -3.979  -5.996  0.00  0.00    -0.146 I 
ENDROOT
TORSDOF 0
ENDMDL
