MODEL 1
REMARK minimizedAffinity 4.40565252
REMARK minimizedRMSD -1
REMARK  1 active torsions:
REMARK  status: ('A' for Active; 'I' for Inactive)
REMARK    1  A    between atoms: N_2  and  C1_3 
ROOT
ATOM      1  C1  UNL d   1      -3.359  -4.785   0.477  0.00  0.00     0.143 A 
ATOM      2  C2  UNL d   1      -1.982  -5.022   0.393  0.00  0.00    -0.057 A 
ATOM      3  C3  UNL d   1      -1.061  -3.968   0.423  0.00  0.00     0.033 A 
ATOM      4  C4  UNL d   1      -1.504  -2.652   0.510  0.00  0.00    -0.042 A 
ATOM      5  C5  UNL d   1      -2.868  -2.392   0.570  0.00  0.00     0.033 A 
ATOM      6  C6  UNL d   1      -3.783  -3.449   0.546  0.00  0.00    -0.057 A 
ENDROOT
BRANCH   1   7
ATOM      7  N   UNL d   1      -4.328  -5.783   0.353  0.00  0.00    -0.732 N 
ATOM      8  C   UNL d   1      -5.716  -5.505   0.656  0.00  0.00     0.284 C 
ATOM      9  H3  UNL d   1      -4.191  -6.358  -0.475  0.00  0.00     0.395 HD
ENDBRANCH   1   7
TORSDOF 1
ENDMDL
