MODEL 1
REMARK minimizedAffinity 1.66971433
REMARK minimizedRMSD -1
REMARK  1 active torsions:
REMARK  status: ('A' for Active; 'I' for Inactive)
REMARK    1  A    between atoms: N_2  and  C1_3 
ROOT
ATOM      1  C1  UNL d   1      -4.514   5.344  -0.527  0.00  0.00     0.143 A 
ATOM      2  C2  UNL d   1      -4.015   4.137  -0.026  0.00  0.00    -0.057 A 
ATOM      3  C3  UNL d   1      -4.516   3.580   1.157  0.00  0.00     0.033 A 
ATOM      4  C4  UNL d   1      -5.507   4.238   1.878  0.00  0.00    -0.042 A 
ATOM      5  C5  UNL d   1      -6.000   5.452   1.412  0.00  0.00     0.033 A 
ATOM      6  C6  UNL d   1      -5.501   5.999   0.226  0.00  0.00    -0.057 A 
ENDROOT
BRANCH   1   7
ATOM      7  N   UNL d   1      -3.989   5.998  -1.644  0.00  0.00    -0.732 N 
ATOM      8  C   UNL d   1      -4.706   5.999  -2.902  0.00  0.00     0.284 C 
ATOM      9  H3  UNL d   1      -3.565   6.892  -1.408  0.00  0.00     0.395 HD
ENDBRANCH   1   7
TORSDOF 1
ENDMDL
