MODEL 1
REMARK minimizedAffinity 14.7958641
REMARK minimizedRMSD -1
REMARK  1 active torsions:
REMARK  status: ('A' for Active; 'I' for Inactive)
REMARK    1  A    between atoms: N_2  and  C1_3 
ROOT
ATOM      1  C1  UNL d   1       3.081   2.253   0.183  0.00  0.00     0.143 A 
ATOM      2  C2  UNL d   1       2.072   2.492  -0.756  0.00  0.00    -0.057 A 
ATOM      3  C3  UNL d   1       1.522   1.449  -1.511  0.00  0.00     0.033 A 
ATOM      4  C4  UNL d   1       1.993   0.149  -1.360  0.00  0.00    -0.042 A 
ATOM      5  C5  UNL d   1       3.013  -0.107  -0.451  0.00  0.00     0.033 A 
ATOM      6  C6  UNL d   1       3.554   0.937   0.305  0.00  0.00    -0.057 A 
ENDROOT
BRANCH   1   7
ATOM      7  N   UNL d   1       3.737   3.262   0.893  0.00  0.00    -0.732 N 
ATOM      8  C   UNL d   1       4.450   4.311   0.195  0.00  0.00     0.284 C 
ATOM      9  H3  UNL d   1       3.199   3.587   1.693  0.00  0.00     0.395 HD
ENDBRANCH   1   7
TORSDOF 1
ENDMDL
