MODEL 1
REMARK minimizedAffinity 7.90460157
REMARK minimizedRMSD -1
REMARK  1 active torsions:
REMARK  status: ('A' for Active; 'I' for Inactive)
REMARK    1  A    between atoms: N_2  and  C1_3 
ROOT
ATOM      1  C1  UNL d   1      -2.332  -2.582   1.746  0.00  0.00     0.143 A 
ATOM      2  C2  UNL d   1      -2.651  -1.691   0.716  0.00  0.00    -0.057 A 
ATOM      3  C3  UNL d   1      -1.989  -1.738  -0.517  0.00  0.00     0.033 A 
ATOM      4  C4  UNL d   1      -0.972  -2.661  -0.732  0.00  0.00    -0.042 A 
ATOM      5  C5  UNL d   1      -0.620  -3.541   0.286  0.00  0.00     0.033 A 
ATOM      6  C6  UNL d   1      -1.290  -3.493   1.513  0.00  0.00    -0.057 A 
ENDROOT
BRANCH   1   7
ATOM      7  N   UNL d   1      -2.886  -2.522   3.027  0.00  0.00    -0.732 N 
ATOM      8  C   UNL d   1      -2.726  -1.338   3.844  0.00  0.00     0.284 C 
ATOM      9  H3  UNL d   1      -3.815  -2.933   3.068  0.00  0.00     0.395 HD
ENDBRANCH   1   7
TORSDOF 1
ENDMDL
