MODEL 1
REMARK minimizedAffinity 10.8625383
REMARK minimizedRMSD -1
REMARK  1 active torsions:
REMARK  status: ('A' for Active; 'I' for Inactive)
REMARK    1  A    between atoms: N_2  and  C1_3 
ROOT
ATOM      1  C1  UNL d   1      -0.869  -3.387   0.625  0.00  0.00     0.143 A 
ATOM      2  C2  UNL d   1      -0.728  -2.476  -0.427  0.00  0.00    -0.057 A 
ATOM      3  C3  UNL d   1      -1.495  -1.305  -0.481  0.00  0.00     0.033 A 
ATOM      4  C4  UNL d   1      -2.439  -1.039   0.505  0.00  0.00    -0.042 A 
ATOM      5  C5  UNL d   1      -2.614  -1.943   1.547  0.00  0.00     0.033 A 
ATOM      6  C6  UNL d   1      -1.840  -3.107   1.599  0.00  0.00    -0.057 A 
ENDROOT
BRANCH   1   7
ATOM      7  N   UNL d   1      -0.206  -4.616   0.684  0.00  0.00    -0.732 N 
ATOM      8  C   UNL d   1      -0.285  -5.440   1.870  0.00  0.00     0.284 C 
ATOM      9  H3  UNL d   1      -0.274  -5.135  -0.189  0.00  0.00     0.395 HD
ENDBRANCH   1   7
TORSDOF 1
ENDMDL
