MODEL 1
REMARK minimizedAffinity 9.30269051
REMARK minimizedRMSD -1
REMARK  1 active torsions:
REMARK  status: ('A' for Active; 'I' for Inactive)
REMARK    1  A    between atoms: N_2  and  C1_3 
ROOT
ATOM      1  C1  UNL d   1       0.147  -0.300  -1.868  0.00  0.00     0.143 A 
ATOM      2  C2  UNL d   1       0.022  -1.247  -2.890  0.00  0.00    -0.057 A 
ATOM      3  C3  UNL d   1      -0.924  -2.277  -2.813  0.00  0.00     0.033 A 
ATOM      4  C4  UNL d   1      -1.744  -2.395  -1.695  0.00  0.00    -0.042 A 
ATOM      5  C5  UNL d   1      -1.619  -1.479  -0.656  0.00  0.00     0.033 A 
ATOM      6  C6  UNL d   1      -0.678  -0.449  -0.742  0.00  0.00    -0.057 A 
ENDROOT
BRANCH   1   7
ATOM      7  N   UNL d   1       1.134   0.688  -1.841  0.00  0.00    -0.732 N 
ATOM      8  C   UNL d   1       2.507   0.369  -2.170  0.00  0.00     0.284 C 
ATOM      9  H3  UNL d   1       0.809   1.572  -2.226  0.00  0.00     0.395 HD
ENDBRANCH   1   7
TORSDOF 1
ENDMDL
