MODEL 1
REMARK minimizedAffinity 12.0722971
REMARK minimizedRMSD -1
REMARK  1 active torsions:
REMARK  status: ('A' for Active; 'I' for Inactive)
REMARK    1  A    between atoms: N_2  and  C1_3 
ROOT
ATOM      1  C1  UNL d   1       4.855   4.472   0.495  0.00  0.00     0.143 A 
ATOM      2  C2  UNL d   1       5.860   4.068  -0.391  0.00  0.00    -0.057 A 
ATOM      3  C3  UNL d   1       5.951   2.741  -0.830  0.00  0.00     0.033 A 
ATOM      4  C4  UNL d   1       5.053   1.786  -0.365  0.00  0.00    -0.042 A 
ATOM      5  C5  UNL d   1       4.062   2.159   0.536  0.00  0.00     0.033 A 
ATOM      6  C6  UNL d   1       3.972   3.487   0.965  0.00  0.00    -0.057 A 
ENDROOT
BRANCH   1   7
ATOM      7  N   UNL d   1       4.772   5.754   1.044  0.00  0.00    -0.732 N 
ATOM      8  C   UNL d   1       5.184   5.999   2.409  0.00  0.00     0.284 C 
ATOM      9  H3  UNL d   1       5.057   6.477   0.387  0.00  0.00     0.395 HD
ENDBRANCH   1   7
TORSDOF 1
ENDMDL
