MODEL 1
REMARK minimizedAffinity 15.8873005
REMARK minimizedRMSD -1
REMARK  1 active torsions:
REMARK  status: ('A' for Active; 'I' for Inactive)
REMARK    1  A    between atoms: N_2  and  C1_3 
ROOT
ATOM      1  C1  UNL d   1      -0.798  -3.696   0.721  0.00  0.00     0.143 A 
ATOM      2  C2  UNL d   1      -1.772  -2.978   1.423  0.00  0.00    -0.057 A 
ATOM      3  C3  UNL d   1      -2.398  -1.860   0.859  0.00  0.00     0.033 A 
ATOM      4  C4  UNL d   1      -2.040  -1.423  -0.412  0.00  0.00    -0.042 A 
ATOM      5  C5  UNL d   1      -1.058  -2.106  -1.119  0.00  0.00     0.033 A 
ATOM      6  C6  UNL d   1      -0.440  -3.225  -0.552  0.00  0.00    -0.057 A 
ENDROOT
BRANCH   1   7
ATOM      7  N   UNL d   1      -0.069  -4.756   1.265  0.00  0.00    -0.732 N 
ATOM      8  C   UNL d   1      -0.683  -5.667   2.207  0.00  0.00     0.284 C 
ATOM      9  H3  UNL d   1       0.529  -5.209   0.578  0.00  0.00     0.395 HD
ENDBRANCH   1   7
TORSDOF 1
ENDMDL
