MODEL 1
REMARK minimizedAffinity 5.82248449
REMARK minimizedRMSD -1
REMARK  1 active torsions:
REMARK  status: ('A' for Active; 'I' for Inactive)
REMARK    1  A    between atoms: N_2  and  C1_3 
ROOT
ATOM      1  C1  UNL d   1      -0.609  -1.269  -1.778  0.00  0.00     0.143 A 
ATOM      2  C2  UNL d   1      -0.411  -2.404  -0.984  0.00  0.00    -0.057 A 
ATOM      3  C3  UNL d   1      -1.370  -2.812  -0.049  0.00  0.00     0.033 A 
ATOM      4  C4  UNL d   1      -2.536  -2.073   0.128  0.00  0.00    -0.042 A 
ATOM      5  C5  UNL d   1      -2.742  -0.928  -0.634  0.00  0.00     0.033 A 
ATOM      6  C6  UNL d   1      -1.783  -0.530  -1.570  0.00  0.00    -0.057 A 
ENDROOT
BRANCH   1   7
ATOM      7  N   UNL d   1       0.351  -0.757  -2.655  0.00  0.00    -0.732 N 
ATOM      8  C   UNL d   1       1.566  -0.156  -2.148  0.00  0.00     0.284 C 
ATOM      9  H3  UNL d   1       0.489  -1.350  -3.470  0.00  0.00     0.395 HD
ENDBRANCH   1   7
TORSDOF 1
ENDMDL
