MODEL 1
REMARK minimizedAffinity 19.2292233
REMARK minimizedRMSD -1
REMARK  1 active torsions:
REMARK  status: ('A' for Active; 'I' for Inactive)
REMARK    1  A    between atoms: N_2  and  C1_3 
ROOT
ATOM      1  C1  UNL d   1      -1.195  -3.707   0.419  0.00  0.00     0.143 A 
ATOM      2  C2  UNL d   1      -2.394  -3.601   1.133  0.00  0.00    -0.057 A 
ATOM      3  C3  UNL d   1      -3.230  -2.488   0.987  0.00  0.00     0.033 A 
ATOM      4  C4  UNL d   1      -2.867  -1.443   0.144  0.00  0.00    -0.042 A 
ATOM      5  C5  UNL d   1      -1.667  -1.514  -0.556  0.00  0.00     0.033 A 
ATOM      6  C6  UNL d   1      -0.840  -2.632  -0.411  0.00  0.00    -0.057 A 
ENDROOT
BRANCH   1   7
ATOM      7  N   UNL d   1      -0.274  -4.742   0.595  0.00  0.00    -0.732 N 
ATOM      8  C   UNL d   1       0.084  -5.192   1.923  0.00  0.00     0.284 C 
ATOM      9  H3  UNL d   1      -0.401  -5.494  -0.079  0.00  0.00     0.395 HD
ENDBRANCH   1   7
TORSDOF 1
ENDMDL
