MODEL 1
REMARK minimizedAffinity 16.1953564
REMARK minimizedRMSD -1
REMARK  1 active torsions:
REMARK  status: ('A' for Active; 'I' for Inactive)
REMARK    1  A    between atoms: N_2  and  C1_3 
ROOT
ATOM      1  C1  UNL d   1       3.318   2.652   4.814  0.00  0.00     0.143 A 
ATOM      2  C2  UNL d   1       2.624   3.054   3.667  0.00  0.00    -0.057 A 
ATOM      3  C3  UNL d   1       2.707   2.325   2.475  0.00  0.00     0.033 A 
ATOM      4  C4  UNL d   1       3.512   1.193   2.399  0.00  0.00    -0.042 A 
ATOM      5  C5  UNL d   1       4.230   0.789   3.519  0.00  0.00     0.033 A 
ATOM      6  C6  UNL d   1       4.138   1.517   4.709  0.00  0.00    -0.057 A 
ENDROOT
BRANCH   1   7
ATOM      7  N   UNL d   1       3.354   3.389   6.000  0.00  0.00    -0.732 N 
ATOM      8  C   UNL d   1       3.323   4.835   5.971  0.00  0.00     0.284 C 
ATOM      9  H3  UNL d   1       2.779   2.976   6.731  0.00  0.00     0.395 HD
ENDBRANCH   1   7
TORSDOF 1
ENDMDL
