MODEL 1
REMARK minimizedAffinity -3.93833232
REMARK minimizedRMSD -1
REMARK  1 active torsions:
REMARK  status: ('A' for Active; 'I' for Inactive)
REMARK    1  A    between atoms: N_2  and  C1_3 
ROOT
ATOM      1  C1  UNL d   1      -0.337   0.923   0.552  0.00  0.00     0.143 A 
ATOM      2  C2  UNL d   1       0.154   1.613  -0.561  0.00  0.00    -0.057 A 
ATOM      3  C3  UNL d   1       1.086   1.026  -1.426  0.00  0.00     0.033 A 
ATOM      4  C4  UNL d   1       1.566  -0.255  -1.176  0.00  0.00    -0.042 A 
ATOM      5  C5  UNL d   1       1.111  -0.950  -0.061  0.00  0.00     0.033 A 
ATOM      6  C6  UNL d   1       0.176  -0.362   0.795  0.00  0.00    -0.057 A 
ENDROOT
BRANCH   1   7
ATOM      7  N   UNL d   1      -1.189   1.488   1.504  0.00  0.00    -0.732 N 
ATOM      8  C   UNL d   1      -2.433   2.109   1.103  0.00  0.00     0.284 C 
ATOM      9  H3  UNL d   1      -1.259   0.922   2.347  0.00  0.00     0.395 HD
ENDBRANCH   1   7
TORSDOF 1
ENDMDL
