MODEL 1
REMARK minimizedAffinity -4.90818405
REMARK minimizedRMSD -1
REMARK  1 active torsions:
REMARK  status: ('A' for Active; 'I' for Inactive)
REMARK    1  A    between atoms: N_2  and  C1_3 
ROOT
ATOM      1  C1  UNL d   1      -0.063   0.241   0.169  0.00  0.00     0.143 A 
ATOM      2  C2  UNL d   1      -0.424  -0.168   1.457  0.00  0.00    -0.057 A 
ATOM      3  C3  UNL d   1      -1.281   0.605   2.251  0.00  0.00     0.033 A 
ATOM      4  C4  UNL d   1      -1.770   1.818   1.779  0.00  0.00    -0.042 A 
ATOM      5  C5  UNL d   1      -1.403   2.257   0.512  0.00  0.00     0.033 A 
ATOM      6  C6  UNL d   1      -0.553   1.478  -0.279  0.00  0.00    -0.057 A 
ENDROOT
BRANCH   1   7
ATOM      7  N   UNL d   1       0.863  -0.434  -0.630  0.00  0.00    -0.732 N 
ATOM      8  C   UNL d   1       0.455  -1.563  -1.439  0.00  0.00     0.284 C 
ATOM      9  H3  UNL d   1       1.509   0.199  -1.096  0.00  0.00     0.395 HD
ENDBRANCH   1   7
TORSDOF 1
ENDMDL
