MODEL 1
REMARK minimizedAffinity -1.98659754
REMARK minimizedRMSD -1
REMARK  1 active torsions:
REMARK  status: ('A' for Active; 'I' for Inactive)
REMARK    1  A    between atoms: N_2  and  C1_3 
ROOT
ATOM      1  C1  UNL d   1      -1.235   1.138  -1.110  0.00  0.00     0.143 A 
ATOM      2  C2  UNL d   1      -0.115   1.731  -1.704  0.00  0.00    -0.057 A 
ATOM      3  C3  UNL d   1       1.184   1.373  -1.323  0.00  0.00     0.033 A 
ATOM      4  C4  UNL d   1       1.386   0.433  -0.317  0.00  0.00    -0.042 A 
ATOM      5  C5  UNL d   1       0.288  -0.151   0.304  0.00  0.00     0.033 A 
ATOM      6  C6  UNL d   1      -1.007   0.206  -0.086  0.00  0.00    -0.057 A 
ENDROOT
BRANCH   1   7
ATOM      7  N   UNL d   1      -2.551   1.522  -1.376  0.00  0.00    -0.732 N 
ATOM      8  C   UNL d   1      -3.645   1.002  -0.584  0.00  0.00     0.284 C 
ATOM      9  H3  UNL d   1      -2.630   2.513  -1.594  0.00  0.00     0.395 HD
ENDBRANCH   1   7
TORSDOF 1
ENDMDL
