MODEL 1
REMARK minimizedAffinity -0.528102219
REMARK minimizedRMSD -1
REMARK  1 active torsions:
REMARK  status: ('A' for Active; 'I' for Inactive)
REMARK    1  A    between atoms: N_2  and  C1_3 
ROOT
ATOM      1  C1  UNL d   1       0.928  -0.657  -0.913  0.00  0.00     0.143 A 
ATOM      2  C2  UNL d   1       0.219   0.493  -1.277  0.00  0.00    -0.057 A 
ATOM      3  C3  UNL d   1      -0.612   1.152  -0.363  0.00  0.00     0.033 A 
ATOM      4  C4  UNL d   1      -0.772   0.654   0.926  0.00  0.00    -0.042 A 
ATOM      5  C5  UNL d   1      -0.097  -0.502   1.301  0.00  0.00     0.033 A 
ATOM      6  C6  UNL d   1       0.737  -1.152   0.386  0.00  0.00    -0.057 A 
ENDROOT
BRANCH   1   7
ATOM      7  N   UNL d   1       1.693  -1.413  -1.805  0.00  0.00    -0.732 N 
ATOM      8  C   UNL d   1       1.574  -2.855  -1.840  0.00  0.00     0.284 C 
ATOM      9  H3  UNL d   1       1.761  -0.980  -2.723  0.00  0.00     0.395 HD
ENDBRANCH   1   7
TORSDOF 1
ENDMDL
