MODEL 1
REMARK minimizedAffinity -4.50541544
REMARK minimizedRMSD -1
REMARK  1 active torsions:
REMARK  status: ('A' for Active; 'I' for Inactive)
REMARK    1  A    between atoms: N_2  and  C1_3 
ROOT
ATOM      1  C1  UNL d   1      -0.025   0.309  -0.119  0.00  0.00     0.143 A 
ATOM      2  C2  UNL d   1      -0.485  -0.196   1.101  0.00  0.00    -0.057 A 
ATOM      3  C3  UNL d   1      -1.358   0.542   1.910  0.00  0.00     0.033 A 
ATOM      4  C4  UNL d   1      -1.763   1.816   1.525  0.00  0.00    -0.042 A 
ATOM      5  C5  UNL d   1      -1.298   2.349   0.328  0.00  0.00     0.033 A 
ATOM      6  C6  UNL d   1      -0.433   1.604  -0.479  0.00  0.00    -0.057 A 
ENDROOT
BRANCH   1   7
ATOM      7  N   UNL d   1       0.921  -0.335  -0.921  0.00  0.00    -0.732 N 
ATOM      8  C   UNL d   1       0.742  -1.719  -1.304  0.00  0.00     0.284 C 
ATOM      9  H3  UNL d   1       1.267   0.262  -1.669  0.00  0.00     0.395 HD
ENDBRANCH   1   7
TORSDOF 1
ENDMDL
