MODEL 1
REMARK minimizedAffinity -4.3246088
REMARK minimizedRMSD -1
REMARK  1 active torsions:
REMARK  status: ('A' for Active; 'I' for Inactive)
REMARK    1  A    between atoms: N_2  and  C1_3 
ROOT
ATOM      1  C1  UNL d   1       0.451   0.147  -0.299  0.00  0.00     0.143 A 
ATOM      2  C2  UNL d   1      -0.349   1.257  -0.594  0.00  0.00    -0.057 A 
ATOM      3  C3  UNL d   1      -1.275   1.752   0.332  0.00  0.00     0.033 A 
ATOM      4  C4  UNL d   1      -1.439   1.126   1.563  0.00  0.00    -0.042 A 
ATOM      5  C5  UNL d   1      -0.673   0.006   1.868  0.00  0.00     0.033 A 
ATOM      6  C6  UNL d   1       0.255  -0.479   0.942  0.00  0.00    -0.057 A 
ENDROOT
BRANCH   1   7
ATOM      7  N   UNL d   1       1.319  -0.452  -1.214  0.00  0.00    -0.732 N 
ATOM      8  C   UNL d   1       1.111  -1.818  -1.643  0.00  0.00     0.284 C 
ATOM      9  H3  UNL d   1       1.592   0.181  -1.963  0.00  0.00     0.395 HD
ENDBRANCH   1   7
TORSDOF 1
ENDMDL
