MODEL 1
REMARK minimizedAffinity -3.74389887
REMARK minimizedRMSD -1
REMARK  1 active torsions:
REMARK  status: ('A' for Active; 'I' for Inactive)
REMARK    1  A    between atoms: N_2  and  C1_3 
ROOT
ATOM      1  C1  UNL d   1      -1.165   1.082   0.808  0.00  0.00     0.143 A 
ATOM      2  C2  UNL d   1      -0.820   1.813  -0.334  0.00  0.00    -0.057 A 
ATOM      3  C3  UNL d   1       0.033   1.279  -1.308  0.00  0.00     0.033 A 
ATOM      4  C4  UNL d   1       0.581   0.011  -1.141  0.00  0.00    -0.042 A 
ATOM      5  C5  UNL d   1       0.271  -0.723  -0.002  0.00  0.00     0.033 A 
ATOM      6  C6  UNL d   1      -0.587  -0.187   0.963  0.00  0.00    -0.057 A 
ENDROOT
BRANCH   1   7
ATOM      7  N   UNL d   1      -1.929   1.596   1.858  0.00  0.00    -0.732 N 
ATOM      8  C   UNL d   1      -2.446   2.947   1.802  0.00  0.00     0.284 C 
ATOM      9  H3  UNL d   1      -2.587   0.914   2.230  0.00  0.00     0.395 HD
ENDBRANCH   1   7
TORSDOF 1
ENDMDL
