MODEL 1
REMARK minimizedAffinity -1.77951372
REMARK minimizedRMSD -1
REMARK  1 active torsions:
REMARK  status: ('A' for Active; 'I' for Inactive)
REMARK    1  A    between atoms: N_2  and  C1_3 
ROOT
ATOM      1  C1  UNL d   1      -0.325   0.327   0.084  0.00  0.00     0.143 A 
ATOM      2  C2  UNL d   1      -1.054   1.479  -0.234  0.00  0.00    -0.057 A 
ATOM      3  C3  UNL d   1      -0.607   2.373  -1.215  0.00  0.00     0.033 A 
ATOM      4  C4  UNL d   1       0.596   2.145  -1.876  0.00  0.00    -0.042 A 
ATOM      5  C5  UNL d   1       1.349   1.021  -1.558  0.00  0.00     0.033 A 
ATOM      6  C6  UNL d   1       0.894   0.128  -0.583  0.00  0.00    -0.057 A 
ENDROOT
BRANCH   1   7
ATOM      7  N   UNL d   1      -0.667  -0.549   1.117  0.00  0.00    -0.732 N 
ATOM      8  C   UNL d   1      -0.638  -0.109   2.496  0.00  0.00     0.284 C 
ATOM      9  H3  UNL d   1      -1.467  -1.132   0.883  0.00  0.00     0.395 HD
ENDBRANCH   1   7
TORSDOF 1
ENDMDL
