MODEL 1
REMARK minimizedAffinity -2.35532475
REMARK minimizedRMSD -1
REMARK  1 active torsions:
REMARK  status: ('A' for Active; 'I' for Inactive)
REMARK    1  A    between atoms: N_2  and  C1_3 
ROOT
ATOM      1  C1  UNL d   1      -0.202  -0.287   0.142  0.00  0.00     0.143 A 
ATOM      2  C2  UNL d   1      -0.954   0.691  -0.516  0.00  0.00    -0.057 A 
ATOM      3  C3  UNL d   1      -1.721   1.620   0.198  0.00  0.00     0.033 A 
ATOM      4  C4  UNL d   1      -1.772   1.567   1.587  0.00  0.00    -0.042 A 
ATOM      5  C5  UNL d   1      -1.052   0.587   2.261  0.00  0.00     0.033 A 
ATOM      6  C6  UNL d   1      -0.283  -0.333   1.543  0.00  0.00    -0.057 A 
ENDROOT
BRANCH   1   7
ATOM      7  N   UNL d   1       0.502  -1.300  -0.515  0.00  0.00    -0.732 N 
ATOM      8  C   UNL d   1      -0.201  -2.324  -1.257  0.00  0.00     0.284 C 
ATOM      9  H3  UNL d   1       1.340  -0.954  -0.976  0.00  0.00     0.395 HD
ENDBRANCH   1   7
TORSDOF 1
ENDMDL
