MODEL 1
REMARK minimizedAffinity -2.53723478
REMARK minimizedRMSD -1
REMARK  1 active torsions:
REMARK  status: ('A' for Active; 'I' for Inactive)
REMARK    1  A    between atoms: N_2  and  C1_3 
ROOT
ATOM      1  C1  UNL d   1      -1.046   1.031   0.298  0.00  0.00     0.143 A 
ATOM      2  C2  UNL d   1      -0.387  -0.135   0.702  0.00  0.00    -0.057 A 
ATOM      3  C3  UNL d   1       0.818  -0.530   0.110  0.00  0.00     0.033 A 
ATOM      4  C4  UNL d   1       1.373   0.221  -0.921  0.00  0.00    -0.042 A 
ATOM      5  C5  UNL d   1       0.722   1.371  -1.356  0.00  0.00     0.033 A 
ATOM      6  C6  UNL d   1      -0.478   1.764  -0.756  0.00  0.00    -0.057 A 
ENDROOT
BRANCH   1   7
ATOM      7  N   UNL d   1      -2.297   1.424   0.780  0.00  0.00    -0.732 N 
ATOM      8  C   UNL d   1      -3.350   1.813  -0.134  0.00  0.00     0.284 C 
ATOM      9  H3  UNL d   1      -2.613   0.848   1.556  0.00  0.00     0.395 HD
ENDBRANCH   1   7
TORSDOF 1
ENDMDL
