MODEL 1
REMARK minimizedAffinity -5.27709436
REMARK minimizedRMSD -1
REMARK  1 active torsions:
REMARK  status: ('A' for Active; 'I' for Inactive)
REMARK    1  A    between atoms: N_2  and  C1_3 
ROOT
ATOM      1  C1  UNL d   1      -0.125   0.027   0.256  0.00  0.00     0.143 A 
ATOM      2  C2  UNL d   1      -0.567  -0.276   1.549  0.00  0.00    -0.057 A 
ATOM      3  C3  UNL d   1      -1.522   0.519   2.194  0.00  0.00     0.033 A 
ATOM      4  C4  UNL d   1      -2.032   1.651   1.567  0.00  0.00    -0.042 A 
ATOM      5  C5  UNL d   1      -1.590   1.985   0.292  0.00  0.00     0.033 A 
ATOM      6  C6  UNL d   1      -0.641   1.183  -0.350  0.00  0.00    -0.057 A 
ENDROOT
BRANCH   1   7
ATOM      7  N   UNL d   1       0.894  -0.668  -0.400  0.00  0.00    -0.732 N 
ATOM      8  C   UNL d   1       0.608  -1.889  -1.122  0.00  0.00     0.284 C 
ATOM      9  H3  UNL d   1       1.544  -0.046  -0.876  0.00  0.00     0.395 HD
ENDBRANCH   1   7
TORSDOF 1
ENDMDL
