MODEL 1
REMARK minimizedAffinity -3.59423256
REMARK minimizedRMSD -1
REMARK  1 active torsions:
REMARK  status: ('A' for Active; 'I' for Inactive)
REMARK    1  A    between atoms: N_2  and  C1_3 
ROOT
ATOM      1  C1  UNL d   1       0.066   0.041   0.015  0.00  0.00     0.143 A 
ATOM      2  C2  UNL d   1      -0.988   0.882   0.387  0.00  0.00    -0.057 A 
ATOM      3  C3  UNL d   1      -1.171   2.130  -0.221  0.00  0.00     0.033 A 
ATOM      4  C4  UNL d   1      -0.283   2.572  -1.196  0.00  0.00    -0.042 A 
ATOM      5  C5  UNL d   1       0.786   1.764  -1.565  0.00  0.00     0.033 A 
ATOM      6  C6  UNL d   1       0.960   0.516  -0.958  0.00  0.00    -0.057 A 
ENDROOT
BRANCH   1   7
ATOM      7  N   UNL d   1       0.359  -1.167   0.651  0.00  0.00    -0.732 N 
ATOM      8  C   UNL d   1       0.179  -1.311   2.080  0.00  0.00     0.284 C 
ATOM      9  H3  UNL d   1       0.055  -1.974   0.111  0.00  0.00     0.395 HD
ENDBRANCH   1   7
TORSDOF 1
ENDMDL
