MODEL 1
REMARK minimizedAffinity -4.01137495
REMARK minimizedRMSD -1
REMARK  0 active torsions:
REMARK  status: ('A' for Active; 'I' for Inactive)
ROOT
ATOM      1  C   UNL d   1       1.210  -0.850  -0.906  0.00  0.00     0.020 A 
ATOM      2  C1  UNL d   1      -0.138  -0.531  -1.062  0.00  0.00     0.020 A 
ATOM      3  C2  UNL d   1      -0.945  -0.341   0.062  0.00  0.00     0.034 A 
ATOM      4  C3  UNL d   1      -0.405  -0.469   1.347  0.00  0.00     0.017 A 
ATOM      5  C4  UNL d   1       0.949  -0.790   1.502  0.00  0.00     0.017 A 
ATOM      6  C5  UNL d   1       1.752  -0.979   0.373  0.00  0.00     0.034 A 
ATOM      7 Cl   UNL d   1       1.688  -0.965   3.055  0.00  0.00    -0.070 Cl
ATOM      8 Cl1  UNL d   1      -1.460  -0.220   2.691  0.00  0.00    -0.070 Cl
ENDROOT
TORSDOF 0
ENDMDL
