MODEL 1
REMARK minimizedAffinity -4.9829855
REMARK minimizedRMSD -1
REMARK  0 active torsions:
REMARK  status: ('A' for Active; 'I' for Inactive)
ROOT
ATOM      1  C   UNL d   1       1.304  -1.405   2.853  0.00  0.00     0.020 A 
ATOM      2  C1  UNL d   1       0.223  -0.526   2.889  0.00  0.00     0.020 A 
ATOM      3  C2  UNL d   1      -0.203   0.104   1.717  0.00  0.00     0.034 A 
ATOM      4  C3  UNL d   1       0.452  -0.146   0.506  0.00  0.00     0.017 A 
ATOM      5  C4  UNL d   1       1.537  -1.029   0.471  0.00  0.00     0.017 A 
ATOM      6  C5  UNL d   1       1.960  -1.656   1.647  0.00  0.00     0.034 A 
ATOM      7 Cl   UNL d   1       2.395  -1.386  -0.986  0.00  0.00    -0.070 Cl
ATOM      8 Cl1  UNL d   1      -0.129   0.667  -0.904  0.00  0.00    -0.070 Cl
ENDROOT
TORSDOF 0
ENDMDL
