MODEL 1
REMARK minimizedAffinity -2.39925909
REMARK minimizedRMSD -1
REMARK  0 active torsions:
REMARK  status: ('A' for Active; 'I' for Inactive)
ROOT
ATOM      1  C   UNL d   1      -0.231  -1.092   2.629  0.00  0.00     0.020 A 
ATOM      2  C1  UNL d   1       0.871  -1.940   2.735  0.00  0.00     0.020 A 
ATOM      3  C2  UNL d   1       1.682  -2.173   1.623  0.00  0.00     0.034 A 
ATOM      4  C3  UNL d   1       1.393  -1.557   0.399  0.00  0.00     0.017 A 
ATOM      5  C4  UNL d   1       0.288  -0.705   0.294  0.00  0.00     0.017 A 
ATOM      6  C5  UNL d   1      -0.522  -0.476   1.411  0.00  0.00     0.034 A 
ATOM      7 Cl   UNL d   1      -0.132   0.091  -1.181  0.00  0.00    -0.070 Cl
ATOM      8 Cl1  UNL d   1       2.440  -1.889  -0.935  0.00  0.00    -0.070 Cl
ENDROOT
TORSDOF 0
ENDMDL
