MODEL 1
REMARK minimizedAffinity -2.00550246
REMARK minimizedRMSD -1
REMARK  0 active torsions:
REMARK  status: ('A' for Active; 'I' for Inactive)
ROOT
ATOM      1  C   UNL d   1      -0.373   0.876  -1.258  0.00  0.00     0.020 A 
ATOM      2  C1  UNL d   1      -0.991   1.284  -0.077  0.00  0.00     0.020 A 
ATOM      3  C2  UNL d   1      -0.642   0.686   1.136  0.00  0.00     0.034 A 
ATOM      4  C3  UNL d   1       0.328  -0.323   1.170  0.00  0.00     0.017 A 
ATOM      5  C4  UNL d   1       0.947  -0.731  -0.016  0.00  0.00     0.017 A 
ATOM      6  C5  UNL d   1       0.594  -0.129  -1.228  0.00  0.00     0.034 A 
ATOM      7 Cl   UNL d   1       2.152  -1.970  -0.054  0.00  0.00    -0.070 Cl
ATOM      8 Cl1  UNL d   1       0.710  -1.018   2.705  0.00  0.00    -0.070 Cl
ENDROOT
TORSDOF 0
ENDMDL
