MODEL 1
REMARK minimizedAffinity -4.19361115
REMARK minimizedRMSD -1
REMARK  0 active torsions:
REMARK  status: ('A' for Active; 'I' for Inactive)
ROOT
ATOM      1  C   UNL d   1      -1.238   0.723  -0.106  0.00  0.00     0.020 A 
ATOM      2  C1  UNL d   1      -0.598   0.427  -1.308  0.00  0.00     0.020 A 
ATOM      3  C2  UNL d   1       0.634  -0.231  -1.300  0.00  0.00     0.034 A 
ATOM      4  C3  UNL d   1       1.229  -0.596  -0.087  0.00  0.00     0.017 A 
ATOM      5  C4  UNL d   1       0.586  -0.298   1.120  0.00  0.00     0.017 A 
ATOM      6  C5  UNL d   1      -0.647   0.361   1.106  0.00  0.00     0.034 A 
ATOM      7 Cl   UNL d   1       1.258  -0.716   2.656  0.00  0.00    -0.070 Cl
ATOM      8 Cl1  UNL d   1       2.753  -1.408  -0.152  0.00  0.00    -0.070 Cl
ENDROOT
TORSDOF 0
ENDMDL
