MODEL 1
REMARK minimizedAffinity -1.51873791
REMARK minimizedRMSD -1
REMARK  0 active torsions:
REMARK  status: ('A' for Active; 'I' for Inactive)
ROOT
ATOM      1  C   UNL d   1      -0.967  -0.110   2.253  0.00  0.00     0.020 A 
ATOM      2  C1  UNL d   1       0.164  -0.819   2.655  0.00  0.00     0.020 A 
ATOM      3  C2  UNL d   1       1.159  -1.132   1.727  0.00  0.00     0.034 A 
ATOM      4  C3  UNL d   1       1.024  -0.736   0.391  0.00  0.00     0.017 A 
ATOM      5  C4  UNL d   1      -0.111  -0.024  -0.012  0.00  0.00     0.017 A 
ATOM      6  C5  UNL d   1      -1.105   0.286   0.922  0.00  0.00     0.034 A 
ATOM      7 Cl   UNL d   1      -0.348   0.498  -1.643  0.00  0.00    -0.070 Cl
ATOM      8 Cl1  UNL d   1       2.294  -1.156  -0.703  0.00  0.00    -0.070 Cl
ENDROOT
TORSDOF 0
ENDMDL
