MODEL 1
REMARK minimizedAffinity -3.26378608
REMARK minimizedRMSD -1
REMARK  0 active torsions:
REMARK  status: ('A' for Active; 'I' for Inactive)
ROOT
ATOM      1  C   UNL d   1       0.369   0.041  -1.583  0.00  0.00     0.020 A 
ATOM      2  C1  UNL d   1       1.394  -0.792  -1.136  0.00  0.00     0.020 A 
ATOM      3  C2  UNL d   1       1.385  -1.268   0.177  0.00  0.00     0.034 A 
ATOM      4  C3  UNL d   1       0.349  -0.910   1.048  0.00  0.00     0.017 A 
ATOM      5  C4  UNL d   1      -0.679  -0.074   0.598  0.00  0.00     0.017 A 
ATOM      6  C5  UNL d   1      -0.665   0.399  -0.717  0.00  0.00     0.034 A 
ATOM      7 Cl   UNL d   1      -1.991   0.410   1.614  0.00  0.00    -0.070 Cl
ATOM      8 Cl1  UNL d   1       0.401  -1.535   2.658  0.00  0.00    -0.070 Cl
ENDROOT
TORSDOF 0
ENDMDL
