MODEL 1
REMARK minimizedAffinity -1.7555629
REMARK minimizedRMSD -1
REMARK  0 active torsions:
REMARK  status: ('A' for Active; 'I' for Inactive)
ROOT
ATOM      1  C   UNL d   1      -0.691   1.260   1.641  0.00  0.00     0.020 A 
ATOM      2  C1  UNL d   1      -0.443  -0.111   1.715  0.00  0.00     0.020 A 
ATOM      3  C2  UNL d   1      -0.171  -0.835   0.552  0.00  0.00     0.034 A 
ATOM      4  C3  UNL d   1      -0.145  -0.189  -0.689  0.00  0.00     0.017 A 
ATOM      5  C4  UNL d   1      -0.394   1.186  -0.763  0.00  0.00     0.017 A 
ATOM      6  C5  UNL d   1      -0.666   1.906   0.405  0.00  0.00     0.034 A 
ATOM      7 Cl   UNL d   1      -0.380   2.052  -2.258  0.00  0.00    -0.070 Cl
ATOM      8 Cl1  UNL d   1       0.199  -1.147  -2.086  0.00  0.00    -0.070 Cl
ENDROOT
TORSDOF 0
ENDMDL
