MODEL 1
REMARK minimizedAffinity -4.46783543
REMARK minimizedRMSD -1
REMARK  0 active torsions:
REMARK  status: ('A' for Active; 'I' for Inactive)
ROOT
ATOM      1  C   UNL d   1      -1.284  -0.278   0.504  0.00  0.00     0.020 A 
ATOM      2  C1  UNL d   1      -0.812  -0.501  -0.789  0.00  0.00     0.020 A 
ATOM      3  C2  UNL d   1       0.536  -0.802  -0.998  0.00  0.00     0.034 A 
ATOM      4  C3  UNL d   1       1.416  -0.881   0.087  0.00  0.00     0.017 A 
ATOM      5  C4  UNL d   1       0.941  -0.657   1.385  0.00  0.00     0.017 A 
ATOM      6  C5  UNL d   1      -0.409  -0.356   1.588  0.00  0.00     0.034 A 
ATOM      7 Cl   UNL d   1       1.966  -0.737   2.774  0.00  0.00    -0.070 Cl
ATOM      8 Cl1  UNL d   1       3.069  -1.258  -0.244  0.00  0.00    -0.070 Cl
ENDROOT
TORSDOF 0
ENDMDL
