MODEL 1
REMARK minimizedAffinity -1.71457803
REMARK minimizedRMSD -1
REMARK  0 active torsions:
REMARK  status: ('A' for Active; 'I' for Inactive)
ROOT
ATOM      1  N1  IND d   1      -1.890   0.289   1.302  0.00  0.00    -0.196 N 
ATOM      2  C2  IND d   1      -2.422  -0.446   2.324  0.00  0.00     0.054 A 
ATOM      3  C3  IND d   1      -1.829  -1.659   2.390  0.00  0.00    -0.031 A 
ATOM      4  C4  IND d   1       0.108  -2.610   0.986  0.00  0.00     0.051 A 
ATOM      5  C5  IND d   1       0.901  -2.324  -0.090  0.00  0.00    -0.031 A 
ATOM      6  C6  IND d   1       0.803  -1.127  -0.770  0.00  0.00     0.015 A 
ATOM      7  C7  IND d   1      -0.087  -0.163  -0.389  0.00  0.00    -0.016 A 
ATOM      8  C8  IND d   1      -0.898  -0.453   0.699  0.00  0.00    -0.047 A 
ATOM      9  C9  IND d   1      -0.832  -1.683   1.366  0.00  0.00    -0.096 A 
ATOM     10  HN1 IND d   1      -2.134   1.081   1.074  0.00  0.00     0.298 HD
ENDROOT
TORSDOF 0
ENDMDL
