MODEL 1
REMARK minimizedAffinity -5.81291866
REMARK minimizedRMSD -1
REMARK  0 active torsions:
REMARK  status: ('A' for Active; 'I' for Inactive)
ROOT
ATOM      1  N1  IND d   1      -0.908   1.971   1.179  0.00  0.00    -0.196 N 
ATOM      2  C2  IND d   1       0.301   2.057   0.547  0.00  0.00     0.054 A 
ATOM      3  C3  IND d   1       0.709   0.832   0.144  0.00  0.00    -0.031 A 
ATOM      4  C4  IND d   1      -0.497  -1.435   0.326  0.00  0.00     0.051 A 
ATOM      5  C5  IND d   1      -1.611  -2.023   0.856  0.00  0.00    -0.031 A 
ATOM      6  C6  IND d   1      -2.568  -1.295   1.532  0.00  0.00     0.015 A 
ATOM      7  C7  IND d   1      -2.452   0.057   1.694  0.00  0.00    -0.016 A 
ATOM      8  C8  IND d   1      -1.319   0.656   1.164  0.00  0.00    -0.047 A 
ATOM      9  C9  IND d   1      -0.323  -0.084   0.513  0.00  0.00    -0.096 A 
ATOM     10  HN1 IND d   1      -1.339   2.628   1.528  0.00  0.00     0.298 HD
ENDROOT
TORSDOF 0
ENDMDL
