MODEL 1
REMARK minimizedAffinity -4.58017492
REMARK minimizedRMSD -1
REMARK  0 active torsions:
REMARK  status: ('A' for Active; 'I' for Inactive)
ROOT
ATOM      1  N1  IND d   1      -1.870   1.111   1.625  0.00  0.00    -0.196 N 
ATOM      2  C2  IND d   1      -3.177   1.346   1.300  0.00  0.00     0.054 A 
ATOM      3  C3  IND d   1      -3.768   0.206   0.877  0.00  0.00    -0.031 A 
ATOM      4  C4  IND d   1      -2.809  -2.178   0.734  0.00  0.00     0.051 A 
ATOM      5  C5  IND d   1      -1.649  -2.884   0.888  0.00  0.00    -0.031 A 
ATOM      6  C6  IND d   1      -0.480  -2.282   1.308  0.00  0.00     0.015 A 
ATOM      7  C7  IND d   1      -0.431  -0.948   1.600  0.00  0.00    -0.016 A 
ATOM      8  C8  IND d   1      -1.605  -0.227   1.437  0.00  0.00    -0.047 A 
ATOM      9  C9  IND d   1      -2.784  -0.824   0.971  0.00  0.00    -0.096 A 
ATOM     10  HN1 IND d   1      -1.308   1.701   1.901  0.00  0.00     0.298 HD
ENDROOT
TORSDOF 0
ENDMDL
