MODEL 1
REMARK minimizedAffinity -4.16560793
REMARK minimizedRMSD -1
REMARK  0 active torsions:
REMARK  status: ('A' for Active; 'I' for Inactive)
ROOT
ATOM      1  N1  IND d   1       1.715   0.285   0.374  0.00  0.00    -0.196 N 
ATOM      2  C2  IND d   1       1.259   1.534   0.056  0.00  0.00     0.054 A 
ATOM      3  C3  IND d   1      -0.071   1.502  -0.182  0.00  0.00    -0.031 A 
ATOM      4  C4  IND d   1      -1.718  -0.469  -0.008  0.00  0.00     0.051 A 
ATOM      5  C5  IND d   1      -1.765  -1.817   0.213  0.00  0.00    -0.031 A 
ATOM      6  C6  IND d   1      -0.632  -2.547   0.508  0.00  0.00     0.015 A 
ATOM      7  C7  IND d   1       0.594  -1.953   0.605  0.00  0.00    -0.016 A 
ATOM      8  C8  IND d   1       0.647  -0.585   0.373  0.00  0.00    -0.047 A 
ATOM      9  C9  IND d   1      -0.493   0.154   0.032  0.00  0.00    -0.096 A 
ATOM     10  HN1 IND d   1       2.532   0.077   0.546  0.00  0.00     0.298 HD
ENDROOT
TORSDOF 0
ENDMDL
