MODEL 1
REMARK minimizedAffinity -3.09060335
REMARK minimizedRMSD -1
REMARK  0 active torsions:
REMARK  status: ('A' for Active; 'I' for Inactive)
ROOT
ATOM      1  N1  IND d   1      -0.191   1.401  -0.933  0.00  0.00    -0.196 N 
ATOM      2  C2  IND d   1       1.151   1.433  -1.192  0.00  0.00     0.054 A 
ATOM      3  C3  IND d   1       1.758   0.348  -0.660  0.00  0.00    -0.031 A 
ATOM      4  C4  IND d   1       0.730  -1.654   0.590  0.00  0.00     0.051 A 
ATOM      5  C5  IND d   1      -0.452  -2.113   1.100  0.00  0.00    -0.031 A 
ATOM      6  C6  IND d   1      -1.631  -1.412   0.954  0.00  0.00     0.015 A 
ATOM      7  C7  IND d   1      -1.675  -0.225   0.279  0.00  0.00    -0.016 A 
ATOM      8  C8  IND d   1      -0.476   0.248  -0.235  0.00  0.00    -0.047 A 
ATOM      9  C9  IND d   1       0.732  -0.438  -0.053  0.00  0.00    -0.096 A 
ATOM     10  HN1 IND d   1      -0.761   2.001  -1.166  0.00  0.00     0.298 HD
ENDROOT
TORSDOF 0
ENDMDL
