MODEL 1
REMARK minimizedAffinity -2.21936035
REMARK minimizedRMSD -1
REMARK  0 active torsions:
REMARK  status: ('A' for Active; 'I' for Inactive)
ROOT
ATOM      1  N1  IND d   1       4.311   1.774  -4.202  0.00  0.00    -0.196 N 
ATOM      2  C2  IND d   1       5.200   1.878  -3.168  0.00  0.00     0.054 A 
ATOM      3  C3  IND d   1       4.544   2.074  -2.002  0.00  0.00    -0.031 A 
ATOM      4  C4  IND d   1       2.012   2.157  -1.544  0.00  0.00     0.051 A 
ATOM      5  C5  IND d   1       0.801   2.147  -2.179  0.00  0.00    -0.031 A 
ATOM      6  C6  IND d   1       0.697   2.007  -3.548  0.00  0.00     0.015 A 
ATOM      7  C7  IND d   1       1.804   1.859  -4.335  0.00  0.00    -0.016 A 
ATOM      8  C8  IND d   1       3.035   1.876  -3.695  0.00  0.00    -0.047 A 
ATOM      9  C9  IND d   1       3.149   2.060  -2.311  0.00  0.00    -0.096 A 
ATOM     10  HN1 IND d   1       4.516   1.664  -5.030  0.00  0.00     0.298 HD
ENDROOT
TORSDOF 0
ENDMDL
