MODEL 1
REMARK minimizedAffinity -2.53023434
REMARK minimizedRMSD -1
REMARK  0 active torsions:
REMARK  status: ('A' for Active; 'I' for Inactive)
ROOT
ATOM      1  N1  IND d   1       4.129   3.420  -4.424  0.00  0.00    -0.196 N 
ATOM      2  C2  IND d   1       5.021   3.147  -3.425  0.00  0.00     0.054 A 
ATOM      3  C3  IND d   1       4.396   2.541  -2.390  0.00  0.00    -0.031 A 
ATOM      4  C4  IND d   1       1.937   1.812  -2.164  0.00  0.00     0.051 A 
ATOM      5  C5  IND d   1       0.731   1.880  -2.802  0.00  0.00    -0.031 A 
ATOM      6  C6  IND d   1       0.593   2.474  -4.040  0.00  0.00     0.015 A 
ATOM      7  C7  IND d   1       1.664   3.015  -4.694  0.00  0.00    -0.016 A 
ATOM      8  C8  IND d   1       2.889   2.954  -4.045  0.00  0.00    -0.047 A 
ATOM      9  C9  IND d   1       3.027   2.391  -2.770  0.00  0.00    -0.096 A 
ATOM     10  HN1 IND d   1       4.312   3.817  -5.165  0.00  0.00     0.298 HD
ENDROOT
TORSDOF 0
ENDMDL
