MODEL 1
REMARK minimizedAffinity -4.00843859
REMARK minimizedRMSD -1
REMARK  0 active torsions:
REMARK  status: ('A' for Active; 'I' for Inactive)
ROOT
ATOM      1  N1  IND d   1      -0.038   0.673  -0.228  0.00  0.00    -0.196 N 
ATOM      2  C2  IND d   1       1.224   0.220  -0.492  0.00  0.00     0.054 A 
ATOM      3  C3  IND d   1       1.364  -1.056  -0.067  0.00  0.00    -0.031 A 
ATOM      4  C4  IND d   1      -0.376  -2.626   0.997  0.00  0.00     0.051 A 
ATOM      5  C5  IND d   1      -1.658  -2.650   1.471  0.00  0.00    -0.031 A 
ATOM      6  C6  IND d   1      -2.483  -1.546   1.398  0.00  0.00     0.015 A 
ATOM      7  C7  IND d   1      -2.058  -0.375   0.837  0.00  0.00    -0.016 A 
ATOM      8  C8  IND d   1      -0.755  -0.345   0.362  0.00  0.00    -0.047 A 
ATOM      9  C9  IND d   1       0.100  -1.449   0.471  0.00  0.00    -0.096 A 
ATOM     10  HN1 IND d   1      -0.334   1.462  -0.400  0.00  0.00     0.298 HD
ENDROOT
TORSDOF 0
ENDMDL
