MODEL 1
REMARK minimizedAffinity -2.06917524
REMARK minimizedRMSD -1
REMARK  0 active torsions:
REMARK  status: ('A' for Active; 'I' for Inactive)
ROOT
ATOM      1  N1  IND d   1       1.184   0.799  -3.703  0.00  0.00    -0.196 N 
ATOM      2  C2  IND d   1       1.584   2.105  -3.656  0.00  0.00     0.054 A 
ATOM      3  C3  IND d   1       1.490   2.581  -2.394  0.00  0.00    -0.031 A 
ATOM      4  C4  IND d   1       0.802   1.361  -0.234  0.00  0.00     0.051 A 
ATOM      5  C5  IND d   1       0.317   0.167   0.221  0.00  0.00    -0.031 A 
ATOM      6  C6  IND d   1       0.095  -0.900  -0.625  0.00  0.00     0.015 A 
ATOM      7  C7  IND d   1       0.361  -0.816  -1.962  0.00  0.00    -0.016 A 
ATOM      8  C8  IND d   1       0.847   0.398  -2.429  0.00  0.00    -0.047 A 
ATOM      9  C9  IND d   1       1.034   1.497  -1.582  0.00  0.00    -0.096 A 
ATOM     10  HN1 IND d   1       1.150   0.310  -4.410  0.00  0.00     0.298 HD
ENDROOT
TORSDOF 0
ENDMDL
