MODEL 1
REMARK minimizedAffinity -3.98431778
REMARK minimizedRMSD -1
REMARK  0 active torsions:
REMARK  status: ('A' for Active; 'I' for Inactive)
ROOT
ATOM      1  N1  IND d   1       4.558   1.864  -4.076  0.00  0.00    -0.196 N 
ATOM      2  C2  IND d   1       5.475   1.958  -3.066  0.00  0.00     0.054 A 
ATOM      3  C3  IND d   1       4.851   2.121  -1.878  0.00  0.00    -0.031 A 
ATOM      4  C4  IND d   1       2.333   2.160  -1.344  0.00  0.00     0.051 A 
ATOM      5  C5  IND d   1       1.105   2.147  -1.944  0.00  0.00    -0.031 A 
ATOM      6  C6  IND d   1       0.962   2.034  -3.311  0.00  0.00     0.015 A 
ATOM      7  C7  IND d   1       2.046   1.917  -4.134  0.00  0.00    -0.016 A 
ATOM      8  C8  IND d   1       3.296   1.937  -3.530  0.00  0.00    -0.047 A 
ATOM      9  C9  IND d   1       3.448   2.095  -2.146  0.00  0.00    -0.096 A 
ATOM     10  HN1 IND d   1       4.739   1.773  -4.911  0.00  0.00     0.298 HD
ENDROOT
TORSDOF 0
ENDMDL
