MODEL 1
REMARK minimizedAffinity -3.553123
REMARK minimizedRMSD -1
REMARK  0 active torsions:
REMARK  status: ('A' for Active; 'I' for Inactive)
ROOT
ATOM      1  N1  IND d   1      -1.916   0.969   1.754  0.00  0.00    -0.196 N 
ATOM      2  C2  IND d   1      -2.701   0.237   2.601  0.00  0.00     0.054 A 
ATOM      3  C3  IND d   1      -2.320  -1.060   2.593  0.00  0.00    -0.031 A 
ATOM      4  C4  IND d   1      -0.371  -2.184   1.342  0.00  0.00     0.051 A 
ATOM      5  C5  IND d   1       0.605  -1.932   0.419  0.00  0.00    -0.031 A 
ATOM      6  C6  IND d   1       0.796  -0.674  -0.115  0.00  0.00     0.015 A 
ATOM      7  C7  IND d   1       0.022   0.386   0.264  0.00  0.00    -0.016 A 
ATOM      8  C8  IND d   1      -0.975   0.132   1.196  0.00  0.00    -0.047 A 
ATOM      9  C9  IND d   1      -1.201  -1.152   1.710  0.00  0.00    -0.096 A 
ATOM     10  HN1 IND d   1      -1.997   1.810   1.596  0.00  0.00     0.298 HD
ENDROOT
TORSDOF 0
ENDMDL
