MODEL 1
REMARK minimizedAffinity -5.63998222
REMARK minimizedRMSD -1
REMARK  0 active torsions:
REMARK  status: ('A' for Active; 'I' for Inactive)
ROOT
ATOM      1  N1  IND d   1      -0.676   0.971   0.356  0.00  0.00    -0.196 N 
ATOM      2  C2  IND d   1       0.559   0.544  -0.046  0.00  0.00     0.054 A 
ATOM      3  C3  IND d   1       0.716  -0.770   0.231  0.00  0.00    -0.031 A 
ATOM      4  C4  IND d   1      -0.959  -2.438   1.250  0.00  0.00     0.051 A 
ATOM      5  C5  IND d   1      -2.203  -2.508   1.811  0.00  0.00    -0.031 A 
ATOM      6  C6  IND d   1      -3.019  -1.401   1.915  0.00  0.00     0.015 A 
ATOM      7  C7  IND d   1      -2.624  -0.178   1.450  0.00  0.00    -0.016 A 
ATOM      8  C8  IND d   1      -1.359  -0.102   0.886  0.00  0.00    -0.047 A 
ATOM      9  C9  IND d   1      -0.509  -1.213   0.816  0.00  0.00    -0.096 A 
ATOM     10  HN1 IND d   1      -0.975   1.774   0.289  0.00  0.00     0.298 HD
ENDROOT
TORSDOF 0
ENDMDL
