MODEL 1
REMARK minimizedAffinity -4.77802563
REMARK minimizedRMSD -1
REMARK  0 active torsions:
REMARK  status: ('A' for Active; 'I' for Inactive)
ROOT
ATOM      1  N1  IND d   1      -0.012   0.919  -0.065  0.00  0.00    -0.196 N 
ATOM      2  C2  IND d   1       1.236   0.456  -0.376  0.00  0.00     0.054 A 
ATOM      3  C3  IND d   1       1.338  -0.859  -0.081  0.00  0.00    -0.031 A 
ATOM      4  C4  IND d   1      -0.450  -2.475   0.826  0.00  0.00     0.051 A 
ATOM      5  C5  IND d   1      -1.732  -2.508   1.297  0.00  0.00    -0.031 A 
ATOM      6  C6  IND d   1      -2.524  -1.378   1.337  0.00  0.00     0.015 A 
ATOM      7  C7  IND d   1      -2.064  -0.170   0.894  0.00  0.00    -0.016 A 
ATOM      8  C8  IND d   1      -0.760  -0.132   0.421  0.00  0.00    -0.047 A 
ATOM      9  C9  IND d   1       0.062  -1.266   0.418  0.00  0.00    -0.096 A 
ATOM     10  HN1 IND d   1      -0.285   1.729  -0.157  0.00  0.00     0.298 HD
ENDROOT
TORSDOF 0
ENDMDL
