MODEL 1
REMARK minimizedAffinity -2.61366081
REMARK minimizedRMSD -1
REMARK  0 active torsions:
REMARK  status: ('A' for Active; 'I' for Inactive)
ROOT
ATOM      1  N1  IND d   1       0.069   1.756  -1.895  0.00  0.00    -0.196 N 
ATOM      2  C2  IND d   1       1.174   2.559  -1.838  0.00  0.00     0.054 A 
ATOM      3  C3  IND d   1       2.048   2.092  -0.917  0.00  0.00    -0.031 A 
ATOM      4  C4  IND d   1       1.914  -0.029   0.537  0.00  0.00     0.051 A 
ATOM      5  C5  IND d   1       1.079  -1.061   0.862  0.00  0.00    -0.031 A 
ATOM      6  C6  IND d   1      -0.159  -1.211   0.272  0.00  0.00     0.015 A 
ATOM      7  C7  IND d   1      -0.606  -0.338  -0.679  0.00  0.00    -0.016 A 
ATOM      8  C8  IND d   1       0.237   0.715  -1.007  0.00  0.00    -0.047 A 
ATOM      9  C9  IND d   1       1.476   0.897  -0.381  0.00  0.00    -0.096 A 
ATOM     10  HN1 IND d   1      -0.615   1.880  -2.400  0.00  0.00     0.298 HD
ENDROOT
TORSDOF 0
ENDMDL
