MODEL 1
REMARK minimizedAffinity 6.12383795
REMARK minimizedRMSD -1
REMARK  2 active torsions:
REMARK  status: ('A' for Active; 'I' for Inactive)
REMARK    1  A    between atoms: C2'_3  and  C1'_4 
REMARK    2  A    between atoms: C1'_4  and  C1_5 
ROOT
ATOM      1  C1  I4B d   1      -2.448   0.163  -0.274  0.00  0.00    -0.075 A 
ATOM      2  C2  I4B d   1      -1.875  -1.054  -0.004  0.00  0.00     0.003 A 
ATOM      3  C3  I4B d   1      -0.473  -1.160   0.164  0.00  0.00     0.002 A 
ATOM      4  C4  I4B d   1       0.317  -0.040   0.005  0.00  0.00    -0.004 A 
ATOM      5  C5  I4B d   1      -0.268   1.197  -0.246  0.00  0.00     0.002 A 
ATOM      6  C6  I4B d   1      -1.661   1.303  -0.374  0.00  0.00     0.003 A 
ENDROOT
BRANCH   1   7
ATOM      7  C1' I4B d   1      -3.929   0.233  -0.478  0.00  0.00     0.060 C 
BRANCH   7   8
ATOM      8  C2' I4B d   1      -4.597  -0.379   0.736  0.00  0.00    -0.013 C 
ATOM      9  C4' I4B d   1      -4.582   0.571   1.904  0.00  0.00     0.013 C 
ATOM     10  C3' I4B d   1      -6.000  -0.748   0.355  0.00  0.00     0.013 C 
ENDBRANCH   7   8
ENDBRANCH   1   7
TORSDOF 2
ENDMDL
