MODEL 1
REMARK minimizedAffinity 0.949853122
REMARK minimizedRMSD -1
REMARK  2 active torsions:
REMARK  status: ('A' for Active; 'I' for Inactive)
REMARK    1  A    between atoms: C2'_3  and  C1'_4 
REMARK    2  A    between atoms: C1'_4  and  C1_5 
ROOT
ATOM      1  C1  I4B d   1       0.539  -0.446   0.949  0.00  0.00    -0.075 A 
ATOM      2  C2  I4B d   1       0.280   0.074   2.193  0.00  0.00     0.003 A 
ATOM      3  C3  I4B d   1       1.310   0.151   3.161  0.00  0.00     0.002 A 
ATOM      4  C4  I4B d   1       2.563  -0.345   2.863  0.00  0.00    -0.004 A 
ATOM      5  C5  I4B d   1       2.829  -0.850   1.593  0.00  0.00     0.002 A 
ATOM      6  C6  I4B d   1       1.815  -0.889   0.626  0.00  0.00     0.003 A 
ENDROOT
BRANCH   1   7
ATOM      7  C1' I4B d   1      -0.580  -0.543  -0.039  0.00  0.00     0.060 C 
BRANCH   7   8
ATOM      8  C2' I4B d   1      -1.410  -1.760   0.315  0.00  0.00    -0.013 C 
ATOM      9  C4' I4B d   1      -1.177  -2.881  -0.663  0.00  0.00     0.013 C 
ATOM     10  C3' I4B d   1      -1.052  -2.176   1.710  0.00  0.00     0.013 C 
ENDBRANCH   7   8
ENDBRANCH   1   7
TORSDOF 2
ENDMDL
