MODEL 1
REMARK minimizedAffinity 8.7968235
REMARK minimizedRMSD -1
REMARK  2 active torsions:
REMARK  status: ('A' for Active; 'I' for Inactive)
REMARK    1  A    between atoms: C2'_3  and  C1'_4 
REMARK    2  A    between atoms: C1'_4  and  C1_5 
ROOT
ATOM      1  C1  I4B d   1       1.017  -1.234   0.175  0.00  0.00    -0.075 A 
ATOM      2  C2  I4B d   1       0.444  -0.256  -0.599  0.00  0.00     0.003 A 
ATOM      3  C3  I4B d   1      -0.052   0.928  -0.001  0.00  0.00     0.002 A 
ATOM      4  C4  I4B d   1      -0.000   1.069   1.371  0.00  0.00    -0.004 A 
ATOM      5  C5  I4B d   1       0.602   0.087   2.152  0.00  0.00     0.002 A 
ATOM      6  C6  I4B d   1       1.125  -1.067   1.550  0.00  0.00     0.003 A 
ENDROOT
BRANCH   1   7
ATOM      7  C1' I4B d   1       1.500  -2.486  -0.486  0.00  0.00     0.060 C 
BRANCH   7   8
ATOM      8  C2' I4B d   1       0.553  -3.607  -0.111  0.00  0.00    -0.013 C 
ATOM      9  C4' I4B d   1      -0.551  -3.751  -1.124  0.00  0.00     0.013 C 
ATOM     10  C3' I4B d   1       1.354  -4.871   0.000  0.00  0.00     0.013 C 
ENDBRANCH   7   8
ENDBRANCH   1   7
TORSDOF 2
ENDMDL
