MODEL 1
REMARK minimizedAffinity -1.40388715
REMARK minimizedRMSD -1
REMARK  2 active torsions:
REMARK  status: ('A' for Active; 'I' for Inactive)
REMARK    1  A    between atoms: C1_2  and  C2_3 
REMARK    2  A    between atoms: C2_3  and  C3_4 
ROOT
ATOM      1  C3  UNL d   1       1.711  -0.794  -0.045  0.00  0.00    -0.075 A 
ATOM      2  C4  UNL d   1       2.950  -1.058   0.556  0.00  0.00     0.002 A 
ATOM      3  C5  UNL d   1       3.447  -0.217   1.552  0.00  0.00     0.002 A 
ATOM      4  C6  UNL d   1       2.719   0.901   1.952  0.00  0.00    -0.004 A 
ATOM      5  C7  UNL d   1       1.494   1.182   1.349  0.00  0.00     0.002 A 
ATOM      6  C8  UNL d   1       0.992   0.340   0.356  0.00  0.00     0.002 A 
ENDROOT
BRANCH   1   7
ATOM      7  C2  UNL d   1       1.154  -1.717  -1.103  0.00  0.00     0.056 C 
BRANCH   7   8
ATOM      8  C1  UNL d   1       0.741  -3.095  -0.574  0.00  0.00     0.007 C 
ATOM      9  C   UNL d   1       0.161  -3.049   0.834  0.00  0.00     0.009 C 
ENDBRANCH   7   8
ENDBRANCH   1   7
TORSDOF 2
ENDMDL
