MODEL 1
REMARK minimizedAffinity -3.18926835
REMARK minimizedRMSD -1
REMARK  2 active torsions:
REMARK  status: ('A' for Active; 'I' for Inactive)
REMARK    1  A    between atoms: C1_2  and  C2_3 
REMARK    2  A    between atoms: C2_3  and  C3_4 
ROOT
ATOM      1  C3  UNL d   1      -3.395   1.724  -2.983  0.00  0.00    -0.075 A 
ATOM      2  C4  UNL d   1      -3.325   0.593  -3.810  0.00  0.00     0.002 A 
ATOM      3  C5  UNL d   1      -2.908  -0.636  -3.296  0.00  0.00     0.002 A 
ATOM      4  C6  UNL d   1      -2.548  -0.747  -1.955  0.00  0.00    -0.004 A 
ATOM      5  C7  UNL d   1      -2.598   0.374  -1.128  0.00  0.00     0.002 A 
ATOM      6  C8  UNL d   1      -3.018   1.603  -1.639  0.00  0.00     0.002 A 
ENDROOT
BRANCH   1   7
ATOM      7  C2  UNL d   1      -3.873   3.049  -3.526  0.00  0.00     0.056 C 
BRANCH   7   8
ATOM      8  C1  UNL d   1      -4.244   4.069  -2.445  0.00  0.00     0.007 C 
ATOM      9  C   UNL d   1      -5.747   4.268  -2.297  0.00  0.00     0.009 C 
ENDBRANCH   7   8
ENDBRANCH   1   7
TORSDOF 2
ENDMDL
