MODEL 1
REMARK minimizedAffinity -3.96161628
REMARK minimizedRMSD -1
REMARK  2 active torsions:
REMARK  status: ('A' for Active; 'I' for Inactive)
REMARK    1  A    between atoms: C1_2  and  C2_3 
REMARK    2  A    between atoms: C2_3  and  C3_4 
ROOT
ATOM      1  C3  UNL d   1      -0.175   0.102  -0.219  0.00  0.00    -0.075 A 
ATOM      2  C4  UNL d   1       0.482   1.341  -0.243  0.00  0.00     0.002 A 
ATOM      3  C5  UNL d   1       1.763   1.474   0.294  0.00  0.00     0.002 A 
ATOM      4  C6  UNL d   1       2.397   0.375   0.871  0.00  0.00    -0.004 A 
ATOM      5  C7  UNL d   1       1.747  -0.856   0.916  0.00  0.00     0.002 A 
ATOM      6  C8  UNL d   1       0.467  -0.993   0.375  0.00  0.00     0.002 A 
ENDROOT
BRANCH   1   7
ATOM      7  C2  UNL d   1      -1.549  -0.056  -0.825  0.00  0.00     0.056 C 
BRANCH   7   8
ATOM      8  C1  UNL d   1      -1.562  -0.828  -2.149  0.00  0.00     0.007 C 
ATOM      9  C   UNL d   1      -2.398  -0.155  -3.229  0.00  0.00     0.009 C 
ENDBRANCH   7   8
ENDBRANCH   1   7
TORSDOF 2
ENDMDL
