MODEL 1
REMARK minimizedAffinity -4.17021799
REMARK minimizedRMSD -1
REMARK  2 active torsions:
REMARK  status: ('A' for Active; 'I' for Inactive)
REMARK    1  A    between atoms: C1_2  and  C2_3 
REMARK    2  A    between atoms: C2_3  and  C3_4 
ROOT
ATOM      1  C3  UNL d   1      -0.739  -0.087  -0.213  0.00  0.00    -0.075 A 
ATOM      2  C4  UNL d   1       0.207   0.931  -0.027  0.00  0.00     0.002 A 
ATOM      3  C5  UNL d   1       1.473   0.637   0.482  0.00  0.00     0.002 A 
ATOM      4  C6  UNL d   1       1.804  -0.673   0.820  0.00  0.00    -0.004 A 
ATOM      5  C7  UNL d   1       0.866  -1.690   0.655  0.00  0.00     0.002 A 
ATOM      6  C8  UNL d   1      -0.399  -1.400   0.142  0.00  0.00     0.002 A 
ENDROOT
BRANCH   1   7
ATOM      7  C2  UNL d   1      -2.100   0.219  -0.790  0.00  0.00     0.056 C 
BRANCH   7   8
ATOM      8  C1  UNL d   1      -2.059   0.812  -2.203  0.00  0.00     0.007 C 
ATOM      9  C   UNL d   1      -2.648  -0.114  -3.259  0.00  0.00     0.009 C 
ENDBRANCH   7   8
ENDBRANCH   1   7
TORSDOF 2
ENDMDL
