MODEL 1
REMARK minimizedAffinity -5.677145
REMARK minimizedRMSD -1
REMARK  2 active torsions:
REMARK  status: ('A' for Active; 'I' for Inactive)
REMARK    1  A    between atoms: C1_2  and  C2_3 
REMARK    2  A    between atoms: C2_3  and  C3_4 
ROOT
ATOM      1  C3  UNL d   1       0.916  -0.102   0.308  0.00  0.00    -0.075 A 
ATOM      2  C4  UNL d   1       0.605  -1.367   0.828  0.00  0.00     0.002 A 
ATOM      3  C5  UNL d   1       1.570  -2.109   1.509  0.00  0.00     0.002 A 
ATOM      4  C6  UNL d   1       2.858  -1.602   1.670  0.00  0.00    -0.004 A 
ATOM      5  C7  UNL d   1       3.182  -0.354   1.144  0.00  0.00     0.002 A 
ATOM      6  C8  UNL d   1       2.218   0.393   0.466  0.00  0.00     0.002 A 
ENDROOT
BRANCH   1   7
ATOM      7  C2  UNL d   1      -0.132   0.720  -0.404  0.00  0.00     0.056 C 
BRANCH   7   8
ATOM      8  C1  UNL d   1      -1.527   0.086  -0.404  0.00  0.00     0.007 C 
ATOM      9  C   UNL d   1      -2.265   0.258  -1.726  0.00  0.00     0.009 C 
ENDBRANCH   7   8
ENDBRANCH   1   7
TORSDOF 2
ENDMDL
