MODEL 1
REMARK minimizedAffinity -5.16834211
REMARK minimizedRMSD -1
REMARK  2 active torsions:
REMARK  status: ('A' for Active; 'I' for Inactive)
REMARK    1  A    between atoms: C1_2  and  C2_3 
REMARK    2  A    between atoms: C2_3  and  C3_4 
ROOT
ATOM      1  C3  UNL d   1      -0.161  -0.169   0.401  0.00  0.00    -0.075 A 
ATOM      2  C4  UNL d   1      -0.224  -1.373   1.118  0.00  0.00     0.002 A 
ATOM      3  C5  UNL d   1       0.860  -1.797   1.887  0.00  0.00     0.002 A 
ATOM      4  C6  UNL d   1       2.022  -1.030   1.941  0.00  0.00    -0.004 A 
ATOM      5  C7  UNL d   1       2.101   0.159   1.219  0.00  0.00     0.002 A 
ATOM      6  C8  UNL d   1       1.017   0.588   0.452  0.00  0.00     0.002 A 
ENDROOT
BRANCH   1   7
ATOM      7  C2  UNL d   1      -1.342   0.310  -0.410  0.00  0.00     0.056 C 
BRANCH   7   8
ATOM      8  C1  UNL d   1      -1.613  -0.522  -1.669  0.00  0.00     0.007 C 
ATOM      9  C   UNL d   1      -2.659   0.100  -2.585  0.00  0.00     0.009 C 
ENDBRANCH   7   8
ENDBRANCH   1   7
TORSDOF 2
ENDMDL
