MODEL 1
REMARK minimizedAffinity 1.39358091
REMARK minimizedRMSD -1
REMARK  0 active torsions:
REMARK  status: ('A' for Active; 'I' for Inactive)
ROOT
ATOM      1  C   UNL d   1       0.608  -0.869  -0.588  0.00  0.00     0.023 A 
ATOM      2  C1  UNL d   1      -0.472  -1.528  -0.002  0.00  0.00     0.003 A 
ATOM      3  C2  UNL d   1      -0.291  -2.780   0.590  0.00  0.00     0.048 A 
ATOM      4  C3  UNL d   1       0.975  -3.366   0.594  0.00  0.00     0.023 A 
ATOM      5  C4  UNL d   1       2.059  -2.710   0.009  0.00  0.00     0.048 A 
ATOM      6  C5  UNL d   1       1.872  -1.459  -0.582  0.00  0.00     0.003 A 
ATOM      7  I   UNL d   1       1.247  -5.229   1.475  0.00  0.00    -0.146 I 
ENDROOT
TORSDOF 0
ENDMDL
