MODEL 1
REMARK minimizedAffinity 7.44781923
REMARK minimizedRMSD -1
REMARK  0 active torsions:
REMARK  status: ('A' for Active; 'I' for Inactive)
ROOT
ATOM      1  C   UNL d   1       2.212  -2.919   2.467  0.00  0.00     0.023 A 
ATOM      2  C1  UNL d   1       2.306  -1.529   2.548  0.00  0.00     0.003 A 
ATOM      3  C2  UNL d   1       2.098  -0.747   1.410  0.00  0.00     0.048 A 
ATOM      4  C3  UNL d   1       1.795  -1.360   0.195  0.00  0.00     0.023 A 
ATOM      5  C4  UNL d   1       1.699  -2.750   0.110  0.00  0.00     0.048 A 
ATOM      6  C5  UNL d   1       1.909  -3.529   1.250  0.00  0.00     0.003 A 
ATOM      7  I   UNL d   1       1.484  -0.198  -1.500  0.00  0.00    -0.146 I 
ENDROOT
TORSDOF 0
ENDMDL
