MODEL 1
REMARK minimizedAffinity 5.64182854
REMARK minimizedRMSD -1
REMARK  0 active torsions:
REMARK  status: ('A' for Active; 'I' for Inactive)
ROOT
ATOM      1  C   UNL d   1       1.232  -2.168  -1.083  0.00  0.00     0.023 A 
ATOM      2  C1  UNL d   1       1.013  -3.115  -0.083  0.00  0.00     0.003 A 
ATOM      3  C2  UNL d   1       1.655  -2.991   1.151  0.00  0.00     0.048 A 
ATOM      4  C3  UNL d   1       2.513  -1.916   1.379  0.00  0.00     0.023 A 
ATOM      5  C4  UNL d   1       2.734  -0.965   0.381  0.00  0.00     0.048 A 
ATOM      6  C5  UNL d   1       2.091  -1.094  -0.851  0.00  0.00     0.003 A 
ATOM      7  I   UNL d   1       3.469  -1.728   3.215  0.00  0.00    -0.146 I 
ENDROOT
TORSDOF 0
ENDMDL
