MODEL 1
REMARK minimizedAffinity 10.0549011
REMARK minimizedRMSD -1
REMARK  0 active torsions:
REMARK  status: ('A' for Active; 'I' for Inactive)
ROOT
ATOM      1  C   UNL d   1      -1.851   0.564   4.339  0.00  0.00     0.023 A 
ATOM      2  C1  UNL d   1      -2.889   1.488   4.217  0.00  0.00     0.003 A 
ATOM      3  C2  UNL d   1      -4.070   1.132   3.562  0.00  0.00     0.048 A 
ATOM      4  C3  UNL d   1      -4.207  -0.151   3.033  0.00  0.00     0.023 A 
ATOM      5  C4  UNL d   1      -3.172  -1.080   3.154  0.00  0.00     0.048 A 
ATOM      6  C5  UNL d   1      -1.992  -0.718   3.808  0.00  0.00     0.003 A 
ATOM      7  I   UNL d   1      -5.964  -0.685   2.059  0.00  0.00    -0.146 I 
ENDROOT
TORSDOF 0
ENDMDL
