MODEL 1
REMARK minimizedAffinity -0.994817495
REMARK minimizedRMSD -1
REMARK  0 active torsions:
REMARK  status: ('A' for Active; 'I' for Inactive)
ROOT
ATOM      1  C   UNL d   1      -0.009  -4.166   1.244  0.00  0.00     0.023 A 
ATOM      2  C1  UNL d   1      -1.040  -3.397   0.703  0.00  0.00     0.003 A 
ATOM      3  C2  UNL d   1      -0.743  -2.251  -0.037  0.00  0.00     0.048 A 
ATOM      4  C3  UNL d   1       0.586  -1.880  -0.234  0.00  0.00     0.023 A 
ATOM      5  C4  UNL d   1       1.621  -2.647   0.304  0.00  0.00     0.048 A 
ATOM      6  C5  UNL d   1       1.320  -3.792   1.044  0.00  0.00     0.003 A 
ATOM      7  I   UNL d   1       1.031  -0.175  -1.336  0.00  0.00    -0.146 I 
ENDROOT
TORSDOF 0
ENDMDL
