MODEL 1
REMARK minimizedAffinity -2.94028401
REMARK minimizedRMSD -1
REMARK  0 active torsions:
REMARK  status: ('A' for Active; 'I' for Inactive)
ROOT
ATOM      1  C   UNL d   1       0.490  -0.717  -0.780  0.00  0.00     0.023 A 
ATOM      2  C1  UNL d   1      -0.654  -1.387  -0.344  0.00  0.00     0.003 A 
ATOM      3  C2  UNL d   1      -0.543  -2.644   0.255  0.00  0.00     0.048 A 
ATOM      4  C3  UNL d   1       0.715  -3.225   0.414  0.00  0.00     0.023 A 
ATOM      5  C4  UNL d   1       1.862  -2.558  -0.020  0.00  0.00     0.048 A 
ATOM      6  C5  UNL d   1       1.746  -1.302  -0.619  0.00  0.00     0.003 A 
ATOM      7  I   UNL d   1       0.882  -5.095   1.305  0.00  0.00    -0.146 I 
ENDROOT
TORSDOF 0
ENDMDL
