MODEL 1
REMARK minimizedAffinity 0.660979986
REMARK minimizedRMSD -1
REMARK  0 active torsions:
REMARK  status: ('A' for Active; 'I' for Inactive)
ROOT
ATOM      1  C   UNL d   1       1.621  -0.405  -0.595  0.00  0.00     0.023 A 
ATOM      2  C1  UNL d   1       0.344  -0.737  -1.047  0.00  0.00     0.003 A 
ATOM      3  C2  UNL d   1      -0.287  -1.891  -0.577  0.00  0.00     0.048 A 
ATOM      4  C3  UNL d   1       0.365  -2.708   0.345  0.00  0.00     0.023 A 
ATOM      5  C4  UNL d   1       1.643  -2.380   0.801  0.00  0.00     0.048 A 
ATOM      6  C5  UNL d   1       2.270  -1.226   0.328  0.00  0.00     0.003 A 
ATOM      7  I   UNL d   1      -0.571  -4.427   1.046  0.00  0.00    -0.146 I 
ENDROOT
TORSDOF 0
ENDMDL
