MODEL 1
REMARK minimizedAffinity 5.52631998
REMARK minimizedRMSD -1
REMARK  0 active torsions:
REMARK  status: ('A' for Active; 'I' for Inactive)
ROOT
ATOM      1  C   UNL d   1       0.945  -1.305   0.194  0.00  0.00     0.023 A 
ATOM      2  C1  UNL d   1       1.998  -1.254  -0.719  0.00  0.00     0.003 A 
ATOM      3  C2  UNL d   1       1.734  -1.130  -2.085  0.00  0.00     0.048 A 
ATOM      4  C3  UNL d   1       0.415  -1.057  -2.531  0.00  0.00     0.023 A 
ATOM      5  C4  UNL d   1      -0.642  -1.107  -1.621  0.00  0.00     0.048 A 
ATOM      6  C5  UNL d   1      -0.374  -1.231  -0.256  0.00  0.00     0.003 A 
ATOM      7  I   UNL d   1       0.020  -0.872  -4.563  0.00  0.00    -0.146 I 
ENDROOT
TORSDOF 0
ENDMDL
