MODEL 1
REMARK minimizedAffinity 4.11841536
REMARK minimizedRMSD -1
REMARK  0 active torsions:
REMARK  status: ('A' for Active; 'I' for Inactive)
ROOT
ATOM      1  C   UNL d   1      -0.385   0.003  -1.506  0.00  0.00     0.023 A 
ATOM      2  C1  UNL d   1       0.926   0.271  -1.112  0.00  0.00     0.003 A 
ATOM      3  C2  UNL d   1       1.651  -0.685  -0.399  0.00  0.00     0.048 A 
ATOM      4  C3  UNL d   1       1.060  -1.908  -0.084  0.00  0.00     0.023 A 
ATOM      5  C4  UNL d   1      -0.251  -2.181  -0.477  0.00  0.00     0.048 A 
ATOM      6  C5  UNL d   1      -0.973  -1.222  -1.189  0.00  0.00     0.003 A 
ATOM      7  I   UNL d   1       2.139  -3.334   0.976  0.00  0.00    -0.146 I 
ENDROOT
TORSDOF 0
ENDMDL
