MODEL 1
REMARK minimizedAffinity 0.00528483512
REMARK minimizedRMSD -1
REMARK  0 active torsions:
REMARK  status: ('A' for Active; 'I' for Inactive)
ROOT
ATOM      1  C   UNL d   1       0.635  -1.314   0.068  0.00  0.00     0.023 A 
ATOM      2  C1  UNL d   1       1.744  -1.824   0.744  0.00  0.00     0.003 A 
ATOM      3  C2  UNL d   1       1.776  -3.169   1.118  0.00  0.00     0.048 A 
ATOM      4  C3  UNL d   1       0.697  -3.998   0.813  0.00  0.00     0.023 A 
ATOM      5  C4  UNL d   1      -0.414  -3.492   0.136  0.00  0.00     0.048 A 
ATOM      6  C5  UNL d   1      -0.442  -2.146  -0.236  0.00  0.00     0.003 A 
ATOM      7  I   UNL d   1       0.743  -6.000   1.369  0.00  0.00    -0.146 I 
ENDROOT
TORSDOF 0
ENDMDL
