MODEL 1
REMARK minimizedAffinity 2.96697021
REMARK minimizedRMSD -1
REMARK  0 active torsions:
REMARK  status: ('A' for Active; 'I' for Inactive)
ROOT
ATOM      1  C   UNL d   1       0.610  -1.925  -0.662  0.00  0.00     0.023 A 
ATOM      2  C1  UNL d   1       0.866  -0.587  -0.360  0.00  0.00     0.003 A 
ATOM      3  C2  UNL d   1       1.137   0.322  -1.384  0.00  0.00     0.048 A 
ATOM      4  C3  UNL d   1       1.150  -0.113  -2.709  0.00  0.00     0.023 A 
ATOM      5  C4  UNL d   1       0.894  -1.450  -3.016  0.00  0.00     0.048 A 
ATOM      6  C5  UNL d   1       0.624  -2.356  -1.988  0.00  0.00     0.003 A 
ATOM      7  I   UNL d   1       1.552   1.238  -4.236  0.00  0.00    -0.146 I 
ENDROOT
TORSDOF 0
ENDMDL
