MODEL 1
REMARK minimizedAffinity -1.76825547
REMARK minimizedRMSD -1
REMARK  0 active torsions:
REMARK  status: ('A' for Active; 'I' for Inactive)
ROOT
ATOM      1  C   UNL d   1      -4.343   5.985   4.746  0.00  0.00     0.023 A 
ATOM      2  C1  UNL d   1      -5.152   5.435   5.741  0.00  0.00     0.003 A 
ATOM      3  C2  UNL d   1      -5.142   4.058   5.969  0.00  0.00     0.048 A 
ATOM      4  C3  UNL d   1      -4.320   3.235   5.199  0.00  0.00     0.023 A 
ATOM      5  C4  UNL d   1      -3.508   3.781   4.204  0.00  0.00     0.048 A 
ATOM      6  C5  UNL d   1      -3.522   5.159   3.979  0.00  0.00     0.003 A 
ATOM      7  I   UNL d   1      -4.303   1.185   5.537  0.00  0.00    -0.146 I 
ENDROOT
TORSDOF 0
ENDMDL
