MODEL 1
REMARK minimizedAffinity -1.60489678
REMARK minimizedRMSD -1
REMARK  0 active torsions:
REMARK  status: ('A' for Active; 'I' for Inactive)
ROOT
ATOM      1  C   UNL d   1      -4.547   5.515   4.581  0.00  0.00     0.023 A 
ATOM      2  C1  UNL d   1      -4.895   4.930   5.799  0.00  0.00     0.003 A 
ATOM      3  C2  UNL d   1      -4.699   3.563   6.000  0.00  0.00     0.048 A 
ATOM      4  C3  UNL d   1      -4.153   2.785   4.979  0.00  0.00     0.023 A 
ATOM      5  C4  UNL d   1      -3.803   3.366   3.759  0.00  0.00     0.048 A 
ATOM      6  C5  UNL d   1      -4.002   4.733   3.562  0.00  0.00     0.003 A 
ATOM      7  I   UNL d   1      -3.860   0.749   5.276  0.00  0.00    -0.146 I 
ENDROOT
TORSDOF 0
ENDMDL
