MODEL 1
REMARK minimizedAffinity 2.47609043
REMARK minimizedRMSD -1
REMARK  0 active torsions:
REMARK  status: ('A' for Active; 'I' for Inactive)
ROOT
ATOM      1  C   UNL d   1       1.419  -2.659  -2.795  0.00  0.00     0.023 A 
ATOM      2  C1  UNL d   1       1.225  -2.205  -1.490  0.00  0.00     0.003 A 
ATOM      3  C2  UNL d   1       0.939  -0.860  -1.252  0.00  0.00     0.048 A 
ATOM      4  C3  UNL d   1       0.846   0.027  -2.324  0.00  0.00     0.023 A 
ATOM      5  C4  UNL d   1       1.038  -0.422  -3.631  0.00  0.00     0.048 A 
ATOM      6  C5  UNL d   1       1.325  -1.768  -3.864  0.00  0.00     0.003 A 
ATOM      7  I   UNL d   1       0.419   2.031  -1.972  0.00  0.00    -0.146 I 
ENDROOT
TORSDOF 0
ENDMDL
