MODEL 1
REMARK minimizedAffinity 1.30912232
REMARK minimizedRMSD -1
REMARK  0 active torsions:
REMARK  status: ('A' for Active; 'I' for Inactive)
ROOT
ATOM      1  C   UNL d   1       5.931   1.439  -5.084  0.00  0.00     0.023 A 
ATOM      2  C1  UNL d   1       6.000   2.654  -4.402  0.00  0.00     0.003 A 
ATOM      3  C2  UNL d   1       4.952   3.571  -4.499  0.00  0.00     0.048 A 
ATOM      4  C3  UNL d   1       3.837   3.267  -5.280  0.00  0.00     0.023 A 
ATOM      5  C4  UNL d   1       3.764   2.052  -5.964  0.00  0.00     0.048 A 
ATOM      6  C5  UNL d   1       4.815   1.138  -5.864  0.00  0.00     0.003 A 
ATOM      7  I   UNL d   1       2.275   4.630  -5.427  0.00  0.00    -0.146 I 
ENDROOT
TORSDOF 0
ENDMDL
