MODEL 1
REMARK minimizedAffinity 2.70988274
REMARK minimizedRMSD -1
REMARK  0 active torsions:
REMARK  status: ('A' for Active; 'I' for Inactive)
ROOT
ATOM      1  C   UNL d   1       5.858   1.368  -5.337  0.00  0.00     0.023 A 
ATOM      2  C1  UNL d   1       4.653   0.970  -5.915  0.00  0.00     0.003 A 
ATOM      3  C2  UNL d   1       3.587   1.868  -5.999  0.00  0.00     0.048 A 
ATOM      4  C3  UNL d   1       3.733   3.162  -5.502  0.00  0.00     0.023 A 
ATOM      5  C4  UNL d   1       4.937   3.566  -4.923  0.00  0.00     0.048 A 
ATOM      6  C5  UNL d   1       6.000   2.664  -4.841  0.00  0.00     0.003 A 
ATOM      7  I   UNL d   1       2.147   4.501  -5.625  0.00  0.00    -0.146 I 
ENDROOT
TORSDOF 0
ENDMDL
