MODEL 1
REMARK minimizedAffinity 6.57337332
REMARK minimizedRMSD -1
REMARK  0 active torsions:
REMARK  status: ('A' for Active; 'I' for Inactive)
ROOT
ATOM      1  C   UNL d   1       1.395  -1.576  -4.188  0.00  0.00     0.023 A 
ATOM      2  C1  UNL d   1       1.857  -0.280  -4.417  0.00  0.00     0.003 A 
ATOM      3  C2  UNL d   1       1.769   0.682  -3.410  0.00  0.00     0.048 A 
ATOM      4  C3  UNL d   1       1.218   0.342  -2.174  0.00  0.00     0.023 A 
ATOM      5  C4  UNL d   1       0.756  -0.954  -1.940  0.00  0.00     0.048 A 
ATOM      6  C5  UNL d   1       0.845  -1.913  -2.951  0.00  0.00     0.003 A 
ATOM      7  I   UNL d   1       1.086   1.772  -0.673  0.00  0.00    -0.146 I 
ENDROOT
TORSDOF 0
ENDMDL
