MODEL 1
REMARK minimizedAffinity -1.55347717
REMARK minimizedRMSD -1
REMARK  2 active torsions:
REMARK  status: ('A' for Active; 'I' for Inactive)
REMARK    1  A    between atoms: C1_2  and  C2_3 
REMARK    2  A    between atoms: C2_3  and  C3_4 
ROOT
ATOM      1  C3  UNL d   1       4.286  -0.484  -4.760  0.00  0.00    -0.075 A 
ATOM      2  C4  UNL d   1       3.363   0.571  -4.790  0.00  0.00     0.002 A 
ATOM      3  C5  UNL d   1       3.687   1.779  -5.409  0.00  0.00     0.002 A 
ATOM      4  C6  UNL d   1       4.939   1.950  -5.996  0.00  0.00    -0.004 A 
ATOM      5  C7  UNL d   1       5.870   0.914  -5.958  0.00  0.00     0.002 A 
ATOM      6  C8  UNL d   1       5.546  -0.297  -5.343  0.00  0.00     0.002 A 
ENDROOT
BRANCH   1   7
ATOM      7  C2  UNL d   1       3.930  -1.803  -4.117  0.00  0.00     0.056 C 
BRANCH   7   8
ATOM      8  C1  UNL d   1       3.287  -1.670  -2.733  0.00  0.00     0.007 C 
ATOM      9  C   UNL d   1       1.831  -2.115  -2.702  0.00  0.00     0.009 C 
ENDBRANCH   7   8
ENDBRANCH   1   7
TORSDOF 2
ENDMDL
