MODEL 1
REMARK minimizedAffinity 7.44572353
REMARK minimizedRMSD -1
REMARK  2 active torsions:
REMARK  status: ('A' for Active; 'I' for Inactive)
REMARK    1  A    between atoms: C1_2  and  C2_3 
REMARK    2  A    between atoms: C2_3  and  C3_4 
ROOT
ATOM      1  C3  UNL d   1       1.007  -2.818   4.568  0.00  0.00    -0.075 A 
ATOM      2  C4  UNL d   1       1.671  -3.580   3.596  0.00  0.00     0.002 A 
ATOM      3  C5  UNL d   1       1.957  -3.037   2.343  0.00  0.00     0.002 A 
ATOM      4  C6  UNL d   1       1.574  -1.731   2.043  0.00  0.00    -0.004 A 
ATOM      5  C7  UNL d   1       0.899  -0.971   2.995  0.00  0.00     0.002 A 
ATOM      6  C8  UNL d   1       0.615  -1.510   4.251  0.00  0.00     0.002 A 
ENDROOT
BRANCH   1   7
ATOM      7  C2  UNL d   1       0.720  -3.390   5.936  0.00  0.00     0.056 C 
BRANCH   7   8
ATOM      8  C1  UNL d   1       0.792  -4.919   6.000  0.00  0.00     0.007 C 
ATOM      9  C   UNL d   1      -0.578  -5.585   5.979  0.00  0.00     0.009 C 
ENDBRANCH   7   8
ENDBRANCH   1   7
TORSDOF 2
ENDMDL
