MODEL 1
REMARK minimizedAffinity 7.60239315
REMARK minimizedRMSD -1
REMARK  2 active torsions:
REMARK  status: ('A' for Active; 'I' for Inactive)
REMARK    1  A    between atoms: C1_2  and  C2_3 
REMARK    2  A    between atoms: C2_3  and  C3_4 
ROOT
ATOM      1  C3  UNL d   1       2.534  -1.701   2.748  0.00  0.00    -0.075 A 
ATOM      2  C4  UNL d   1       2.948  -0.546   2.069  0.00  0.00     0.002 A 
ATOM      3  C5  UNL d   1       2.008   0.337   1.536  0.00  0.00     0.002 A 
ATOM      4  C6  UNL d   1       0.646   0.071   1.665  0.00  0.00    -0.004 A 
ATOM      5  C7  UNL d   1       0.225  -1.083   2.323  0.00  0.00     0.002 A 
ATOM      6  C8  UNL d   1       1.163  -1.965   2.861  0.00  0.00     0.002 A 
ENDROOT
BRANCH   1   7
ATOM      7  C2  UNL d   1       3.546  -2.645   3.353  0.00  0.00     0.056 C 
BRANCH   7   8
ATOM      8  C1  UNL d   1       4.996  -2.335   2.967  0.00  0.00     0.007 C 
ATOM      9  C   UNL d   1       6.000  -2.724   4.045  0.00  0.00     0.009 C 
ENDBRANCH   7   8
ENDBRANCH   1   7
TORSDOF 2
ENDMDL
