MODEL 1
REMARK minimizedAffinity 10.6026707
REMARK minimizedRMSD -1
REMARK  2 active torsions:
REMARK  status: ('A' for Active; 'I' for Inactive)
REMARK    1  A    between atoms: C1_2  and  C2_3 
REMARK    2  A    between atoms: C2_3  and  C3_4 
ROOT
ATOM      1  C3  UNL d   1      -3.293   2.721   0.090  0.00  0.00    -0.075 A 
ATOM      2  C4  UNL d   1      -3.584   2.442  -1.253  0.00  0.00     0.002 A 
ATOM      3  C5  UNL d   1      -3.139   1.259  -1.844  0.00  0.00     0.002 A 
ATOM      4  C6  UNL d   1      -2.389   0.347  -1.105  0.00  0.00    -0.004 A 
ATOM      5  C7  UNL d   1      -2.080   0.621   0.226  0.00  0.00     0.002 A 
ATOM      6  C8  UNL d   1      -2.528   1.802   0.821  0.00  0.00     0.002 A 
ENDROOT
BRANCH   1   7
ATOM      7  C2  UNL d   1      -3.797   3.985   0.744  0.00  0.00     0.056 C 
BRANCH   7   8
ATOM      8  C1  UNL d   1      -5.319   4.034   0.915  0.00  0.00     0.007 C 
ATOM      9  C   UNL d   1      -5.999   5.008  -0.039  0.00  0.00     0.009 C 
ENDBRANCH   7   8
ENDBRANCH   1   7
TORSDOF 2
ENDMDL
