MODEL 1
REMARK minimizedAffinity 7.40778303
REMARK minimizedRMSD -1
REMARK  2 active torsions:
REMARK  status: ('A' for Active; 'I' for Inactive)
REMARK    1  A    between atoms: C1_2  and  C2_3 
REMARK    2  A    between atoms: C2_3  and  C3_4 
ROOT
ATOM      1  C3  UNL d   1       1.153  -1.098   3.638  0.00  0.00    -0.075 A 
ATOM      2  C4  UNL d   1       1.908  -2.140   3.082  0.00  0.00     0.002 A 
ATOM      3  C5  UNL d   1       2.300  -2.096   1.744  0.00  0.00     0.002 A 
ATOM      4  C6  UNL d   1       1.933  -1.016   0.943  0.00  0.00    -0.004 A 
ATOM      5  C7  UNL d   1       1.169   0.017   1.481  0.00  0.00     0.002 A 
ATOM      6  C8  UNL d   1       0.780  -0.022   2.821  0.00  0.00     0.002 A 
ENDROOT
BRANCH   1   7
ATOM      7  C2  UNL d   1       0.752  -1.126   5.094  0.00  0.00     0.056 C 
BRANCH   7   8
ATOM      8  C1  UNL d   1       1.740  -1.867   6.000  0.00  0.00     0.007 C 
ATOM      9  C   UNL d   1       1.544  -3.377   5.993  0.00  0.00     0.009 C 
ENDBRANCH   7   8
ENDBRANCH   1   7
TORSDOF 2
ENDMDL
