MODEL 1
REMARK minimizedAffinity 10.0319147
REMARK minimizedRMSD -1
REMARK  2 active torsions:
REMARK  status: ('A' for Active; 'I' for Inactive)
REMARK    1  A    between atoms: C1_2  and  C2_3 
REMARK    2  A    between atoms: C2_3  and  C3_4 
ROOT
ATOM      1  C3  UNL d   1      -4.796  -3.078  -3.998  0.00  0.00    -0.075 A 
ATOM      2  C4  UNL d   1      -5.638  -3.003  -5.117  0.00  0.00     0.002 A 
ATOM      3  C5  UNL d   1      -5.741  -4.078  -6.000  0.00  0.00     0.002 A 
ATOM      4  C6  UNL d   1      -4.997  -5.236  -5.781  0.00  0.00    -0.004 A 
ATOM      5  C7  UNL d   1      -4.144  -5.315  -4.682  0.00  0.00     0.002 A 
ATOM      6  C8  UNL d   1      -4.043  -4.242  -3.795  0.00  0.00     0.002 A 
ENDROOT
BRANCH   1   7
ATOM      7  C2  UNL d   1      -4.703  -1.929  -3.023  0.00  0.00     0.056 C 
BRANCH   7   8
ATOM      8  C1  UNL d   1      -3.492  -1.017  -3.247  0.00  0.00     0.007 C 
ATOM      9  C   UNL d   1      -3.570   0.288  -2.465  0.00  0.00     0.009 C 
ENDBRANCH   7   8
ENDBRANCH   1   7
TORSDOF 2
ENDMDL
