MODEL 1
REMARK minimizedAffinity 2.70746922
REMARK minimizedRMSD -1
REMARK  2 active torsions:
REMARK  status: ('A' for Active; 'I' for Inactive)
REMARK    1  A    between atoms: C1_2  and  C2_3 
REMARK    2  A    between atoms: C2_3  and  C3_4 
ROOT
ATOM      1  C3  UNL d   1      -0.760  -0.069   1.518  0.00  0.00    -0.075 A 
ATOM      2  C4  UNL d   1      -1.301   0.751   0.518  0.00  0.00     0.002 A 
ATOM      3  C5  UNL d   1      -2.590   1.267   0.646  0.00  0.00     0.002 A 
ATOM      4  C6  UNL d   1      -3.358   0.962   1.767  0.00  0.00    -0.004 A 
ATOM      5  C7  UNL d   1      -2.837   0.135   2.760  0.00  0.00     0.002 A 
ATOM      6  C8  UNL d   1      -1.545  -0.380   2.636  0.00  0.00     0.002 A 
ENDROOT
BRANCH   1   7
ATOM      7  C2  UNL d   1       0.646  -0.607   1.400  0.00  0.00     0.056 C 
BRANCH   7   8
ATOM      8  C1  UNL d   1       1.728   0.363   1.886  0.00  0.00     0.007 C 
ATOM      9  C   UNL d   1       2.412   1.117   0.753  0.00  0.00     0.009 C 
ENDBRANCH   7   8
ENDBRANCH   1   7
TORSDOF 2
ENDMDL
