MODEL 1
REMARK minimizedAffinity 1.08591008
REMARK minimizedRMSD -1
REMARK  2 active torsions:
REMARK  status: ('A' for Active; 'I' for Inactive)
REMARK    1  A    between atoms: C1_2  and  C2_3 
REMARK    2  A    between atoms: C2_3  and  C3_4 
ROOT
ATOM      1  C3  UNL d   1      -3.840  -1.921   5.228  0.00  0.00    -0.075 A 
ATOM      2  C4  UNL d   1      -4.476  -2.983   5.886  0.00  0.00     0.002 A 
ATOM      3  C5  UNL d   1      -4.870  -4.120   5.179  0.00  0.00     0.002 A 
ATOM      4  C6  UNL d   1      -4.642  -4.204   3.807  0.00  0.00    -0.004 A 
ATOM      5  C7  UNL d   1      -4.026  -3.148   3.141  0.00  0.00     0.002 A 
ATOM      6  C8  UNL d   1      -3.627  -2.011   3.846  0.00  0.00     0.002 A 
ENDROOT
BRANCH   1   7
ATOM      7  C2  UNL d   1      -3.385  -0.700   5.992  0.00  0.00     0.056 C 
BRANCH   7   8
ATOM      8  C1  UNL d   1      -4.391   0.455   5.980  0.00  0.00     0.007 C 
ATOM      9  C   UNL d   1      -3.731   1.826   5.926  0.00  0.00     0.009 C 
ENDBRANCH   7   8
ENDBRANCH   1   7
TORSDOF 2
ENDMDL
