MODEL 1
REMARK minimizedAffinity 5.17757559
REMARK minimizedRMSD -1
REMARK  2 active torsions:
REMARK  status: ('A' for Active; 'I' for Inactive)
REMARK    1  A    between atoms: C1_2  and  C2_3 
REMARK    2  A    between atoms: C2_3  and  C3_4 
ROOT
ATOM      1  C3  UNL d   1       3.331   0.138  -4.139  0.00  0.00    -0.075 A 
ATOM      2  C4  UNL d   1       2.392  -0.597  -4.877  0.00  0.00     0.002 A 
ATOM      3  C5  UNL d   1       2.238  -1.967  -4.663  0.00  0.00     0.002 A 
ATOM      4  C6  UNL d   1       3.027  -2.620  -3.719  0.00  0.00    -0.004 A 
ATOM      5  C7  UNL d   1       3.975  -1.903  -2.992  0.00  0.00     0.002 A 
ATOM      6  C8  UNL d   1       4.127  -0.531  -3.200  0.00  0.00     0.002 A 
ENDROOT
BRANCH   1   7
ATOM      7  C2  UNL d   1       3.481   1.626  -4.345  0.00  0.00     0.056 C 
BRANCH   7   8
ATOM      8  C1  UNL d   1       3.006   2.118  -5.716  0.00  0.00     0.007 C 
ATOM      9  C   UNL d   1       3.384   3.565  -6.000  0.00  0.00     0.009 C 
ENDBRANCH   7   8
ENDBRANCH   1   7
TORSDOF 2
ENDMDL
