MODEL 1
REMARK minimizedAffinity 12.5877113
REMARK minimizedRMSD -1
REMARK  2 active torsions:
REMARK  status: ('A' for Active; 'I' for Inactive)
REMARK    1  A    between atoms: C1_2  and  C2_3 
REMARK    2  A    between atoms: C2_3  and  C3_4 
ROOT
ATOM      1  C3  UNL d   1       3.145   1.154  -4.211  0.00  0.00    -0.075 A 
ATOM      2  C4  UNL d   1       4.080   1.543  -5.180  0.00  0.00     0.002 A 
ATOM      3  C5  UNL d   1       3.834   2.645  -6.000  0.00  0.00     0.002 A 
ATOM      4  C6  UNL d   1       2.648   3.363  -5.869  0.00  0.00    -0.004 A 
ATOM      5  C7  UNL d   1       1.704   2.975  -4.920  0.00  0.00     0.002 A 
ATOM      6  C8  UNL d   1       1.950   1.876  -4.096  0.00  0.00     0.002 A 
ENDROOT
BRANCH   1   7
ATOM      7  C2  UNL d   1       3.419  -0.020  -3.301  0.00  0.00     0.056 C 
BRANCH   7   8
ATOM      8  C1  UNL d   1       2.616  -1.278  -3.647  0.00  0.00     0.007 C 
ATOM      9  C   UNL d   1       2.571  -2.293  -2.512  0.00  0.00     0.009 C 
ENDBRANCH   7   8
ENDBRANCH   1   7
TORSDOF 2
ENDMDL
