MODEL 1
REMARK minimizedAffinity 3.9608767
REMARK minimizedRMSD -1
REMARK  2 active torsions:
REMARK  status: ('A' for Active; 'I' for Inactive)
REMARK    1  A    between atoms: C1_2  and  C2_3 
REMARK    2  A    between atoms: C2_3  and  C3_4 
ROOT
ATOM      1  C3  UNL d   1       3.083   1.411  -2.827  0.00  0.00    -0.075 A 
ATOM      2  C4  UNL d   1       3.842   0.927  -3.902  0.00  0.00     0.002 A 
ATOM      3  C5  UNL d   1       3.727   1.505  -5.167  0.00  0.00     0.002 A 
ATOM      4  C6  UNL d   1       2.847   2.564  -5.375  0.00  0.00    -0.004 A 
ATOM      5  C7  UNL d   1       2.076   3.042  -4.318  0.00  0.00     0.002 A 
ATOM      6  C8  UNL d   1       2.191   2.469  -3.050  0.00  0.00     0.002 A 
ENDROOT
BRANCH   1   7
ATOM      7  C2  UNL d   1       3.223   0.810  -1.449  0.00  0.00     0.056 C 
BRANCH   7   8
ATOM      8  C1  UNL d   1       2.547   1.624  -0.341  0.00  0.00     0.007 C 
ATOM      9  C   UNL d   1       2.118   0.778   0.850  0.00  0.00     0.009 C 
ENDBRANCH   7   8
ENDBRANCH   1   7
TORSDOF 2
ENDMDL
