MODEL 1
REMARK minimizedAffinity 1.80967057
REMARK minimizedRMSD -1
REMARK  2 active torsions:
REMARK  status: ('A' for Active; 'I' for Inactive)
REMARK    1  A    between atoms: C1_2  and  C2_3 
REMARK    2  A    between atoms: C2_3  and  C3_4 
ROOT
ATOM      1  C3  UNL d   1      -5.877   2.270   3.562  0.00  0.00    -0.075 A 
ATOM      2  C4  UNL d   1      -5.741   3.666   3.588  0.00  0.00     0.002 A 
ATOM      3  C5  UNL d   1      -5.600   4.342   4.800  0.00  0.00     0.002 A 
ATOM      4  C6  UNL d   1      -5.603   3.635   6.000  0.00  0.00    -0.004 A 
ATOM      5  C7  UNL d   1      -5.754   2.250   5.988  0.00  0.00     0.002 A 
ATOM      6  C8  UNL d   1      -5.891   1.570   4.776  0.00  0.00     0.002 A 
ENDROOT
BRANCH   1   7
ATOM      7  C2  UNL d   1      -6.000   1.529   2.252  0.00  0.00     0.056 C 
BRANCH   7   8
ATOM      8  C1  UNL d   1      -5.687   0.033   2.350  0.00  0.00     0.007 C 
ATOM      9  C   UNL d   1      -4.739  -0.455   1.262  0.00  0.00     0.009 C 
ENDBRANCH   7   8
ENDBRANCH   1   7
TORSDOF 2
ENDMDL
