MODEL 1
REMARK minimizedAffinity 0.120059721
REMARK minimizedRMSD -1
REMARK  2 active torsions:
REMARK  status: ('A' for Active; 'I' for Inactive)
REMARK    1  A    between atoms: C1_2  and  C2_3 
REMARK    2  A    between atoms: C2_3  and  C3_4 
ROOT
ATOM      1  C3  UNL d   1       1.123   4.783  -3.424  0.00  0.00    -0.075 A 
ATOM      2  C4  UNL d   1       0.723   5.989  -4.018  0.00  0.00     0.002 A 
ATOM      3  C5  UNL d   1       0.164   5.998  -5.296  0.00  0.00     0.002 A 
ATOM      4  C6  UNL d   1       0.007   4.806  -6.000  0.00  0.00    -0.004 A 
ATOM      5  C7  UNL d   1       0.416   3.604  -5.426  0.00  0.00     0.002 A 
ATOM      6  C8  UNL d   1       0.971   3.591  -4.146  0.00  0.00     0.002 A 
ENDROOT
BRANCH   1   7
ATOM      7  C2  UNL d   1       1.701   4.762  -2.029  0.00  0.00     0.056 C 
BRANCH   7   8
ATOM      8  C1  UNL d   1       1.648   3.389  -1.352  0.00  0.00     0.007 C 
ATOM      9  C   UNL d   1       2.971   2.980  -0.719  0.00  0.00     0.009 C 
ENDBRANCH   7   8
ENDBRANCH   1   7
TORSDOF 2
ENDMDL
