MODEL 1
REMARK minimizedAffinity 3.53660727
REMARK minimizedRMSD -1
REMARK  2 active torsions:
REMARK  status: ('A' for Active; 'I' for Inactive)
REMARK    1  A    between atoms: C1_2  and  C2_3 
REMARK    2  A    between atoms: C2_3  and  C3_4 
ROOT
ATOM      1  C3  UNL d   1      -0.593   0.647   1.490  0.00  0.00    -0.075 A 
ATOM      2  C4  UNL d   1      -0.154   1.453   2.550  0.00  0.00     0.002 A 
ATOM      3  C5  UNL d   1      -1.055   2.252   3.253  0.00  0.00     0.002 A 
ATOM      4  C6  UNL d   1      -2.403   2.264   2.899  0.00  0.00    -0.004 A 
ATOM      5  C7  UNL d   1      -2.848   1.481   1.837  0.00  0.00     0.002 A 
ATOM      6  C8  UNL d   1      -1.948   0.676   1.135  0.00  0.00     0.002 A 
ENDROOT
BRANCH   1   7
ATOM      7  C2  UNL d   1       0.373  -0.242   0.744  0.00  0.00     0.056 C 
BRANCH   7   8
ATOM      8  C1  UNL d   1       1.358   0.518  -0.150  0.00  0.00     0.007 C 
ATOM      9  C   UNL d   1       2.613  -0.281  -0.475  0.00  0.00     0.009 C 
ENDBRANCH   7   8
ENDBRANCH   1   7
TORSDOF 2
ENDMDL
