MODEL 1
REMARK minimizedAffinity -3.38941264
REMARK minimizedRMSD -1
REMARK  2 active torsions:
REMARK  status: ('A' for Active; 'I' for Inactive)
REMARK    1  A    between atoms: C1_2  and  C2_3 
REMARK    2  A    between atoms: C2_3  and  C3_4 
ROOT
ATOM      1  C3  UNL d   1      -2.590   1.386   2.528  0.00  0.00    -0.075 A 
ATOM      2  C4  UNL d   1      -1.286   1.127   2.976  0.00  0.00     0.002 A 
ATOM      3  C5  UNL d   1      -0.383   0.438   2.166  0.00  0.00     0.002 A 
ATOM      4  C6  UNL d   1      -0.773  -0.009   0.906  0.00  0.00    -0.004 A 
ATOM      5  C7  UNL d   1      -2.070   0.228   0.457  0.00  0.00     0.002 A 
ATOM      6  C8  UNL d   1      -2.975   0.921   1.263  0.00  0.00     0.002 A 
ENDROOT
BRANCH   1   7
ATOM      7  C2  UNL d   1      -3.563   2.157   3.387  0.00  0.00     0.056 C 
BRANCH   7   8
ATOM      8  C1  UNL d   1      -4.734   1.318   3.909  0.00  0.00     0.007 C 
ATOM      9  C   UNL d   1      -6.000   1.470   3.075  0.00  0.00     0.009 C 
ENDBRANCH   7   8
ENDBRANCH   1   7
TORSDOF 2
ENDMDL
