MODEL 1
REMARK minimizedAffinity 4.58206511
REMARK minimizedRMSD -1
REMARK  2 active torsions:
REMARK  status: ('A' for Active; 'I' for Inactive)
REMARK    1  A    between atoms: C1_2  and  C2_3 
REMARK    2  A    between atoms: C2_3  and  C3_4 
ROOT
ATOM      1  C3  UNL d   1      -3.041   1.088   1.819  0.00  0.00    -0.075 A 
ATOM      2  C4  UNL d   1      -1.973   1.398   2.673  0.00  0.00     0.002 A 
ATOM      3  C5  UNL d   1      -0.672   1.009   2.350  0.00  0.00     0.002 A 
ATOM      4  C6  UNL d   1      -0.425   0.298   1.177  0.00  0.00    -0.004 A 
ATOM      5  C7  UNL d   1      -1.482  -0.029   0.330  0.00  0.00     0.002 A 
ATOM      6  C8  UNL d   1      -2.783   0.362   0.648  0.00  0.00     0.002 A 
ENDROOT
BRANCH   1   7
ATOM      7  C2  UNL d   1      -4.447   1.531   2.148  0.00  0.00     0.056 C 
BRANCH   7   8
ATOM      8  C1  UNL d   1      -4.678   1.819   3.635  0.00  0.00     0.007 C 
ATOM      9  C   UNL d   1      -6.000   1.268   4.155  0.00  0.00     0.009 C 
ENDBRANCH   7   8
ENDBRANCH   1   7
TORSDOF 2
ENDMDL
