MODEL 1
REMARK minimizedAffinity 6.98822021
REMARK minimizedRMSD -1
REMARK  2 active torsions:
REMARK  status: ('A' for Active; 'I' for Inactive)
REMARK    1  A    between atoms: C1_2  and  C2_3 
REMARK    2  A    between atoms: C2_3  and  C3_4 
ROOT
ATOM      1  C3  UNL d   1      -0.983   0.298   1.421  0.00  0.00    -0.075 A 
ATOM      2  C4  UNL d   1      -1.191   1.003   2.615  0.00  0.00     0.002 A 
ATOM      3  C5  UNL d   1      -2.440   1.555   2.903  0.00  0.00     0.002 A 
ATOM      4  C6  UNL d   1      -3.491   1.417   1.999  0.00  0.00    -0.004 A 
ATOM      5  C7  UNL d   1      -3.290   0.733   0.802  0.00  0.00     0.002 A 
ATOM      6  C8  UNL d   1      -2.043   0.176   0.514  0.00  0.00     0.002 A 
ENDROOT
BRANCH   1   7
ATOM      7  C2  UNL d   1       0.358  -0.327   1.117  0.00  0.00     0.056 C 
BRANCH   7   8
ATOM      8  C1  UNL d   1       1.468   0.689   0.825  0.00  0.00     0.007 C 
ATOM      9  C   UNL d   1       2.682   0.073   0.143  0.00  0.00     0.009 C 
ENDBRANCH   7   8
ENDBRANCH   1   7
TORSDOF 2
ENDMDL
