MODEL 1
REMARK minimizedAffinity 0.76032269
REMARK minimizedRMSD -1
REMARK  2 active torsions:
REMARK  status: ('A' for Active; 'I' for Inactive)
REMARK    1  A    between atoms: C1_2  and  C2_3 
REMARK    2  A    between atoms: C2_3  and  C3_4 
ROOT
ATOM      1  C3  UNL d   1      -0.216   0.203   1.296  0.00  0.00    -0.075 A 
ATOM      2  C4  UNL d   1      -1.463   0.085   0.664  0.00  0.00     0.002 A 
ATOM      3  C5  UNL d   1      -2.581   0.745   1.175  0.00  0.00     0.002 A 
ATOM      4  C6  UNL d   1      -2.470   1.521   2.327  0.00  0.00    -0.004 A 
ATOM      5  C7  UNL d   1      -1.240   1.632   2.972  0.00  0.00     0.002 A 
ATOM      6  C8  UNL d   1      -0.118   0.976   2.460  0.00  0.00     0.002 A 
ENDROOT
BRANCH   1   7
ATOM      7  C2  UNL d   1       1.004  -0.484   0.731  0.00  0.00     0.056 C 
BRANCH   7   8
ATOM      8  C1  UNL d   1       1.923   0.439  -0.076  0.00  0.00     0.007 C 
ATOM      9  C   UNL d   1       3.367  -0.041  -0.121  0.00  0.00     0.009 C 
ENDBRANCH   7   8
ENDBRANCH   1   7
TORSDOF 2
ENDMDL
