MODEL 1
REMARK minimizedAffinity 4.93051004
REMARK minimizedRMSD -1
REMARK  2 active torsions:
REMARK  status: ('A' for Active; 'I' for Inactive)
REMARK    1  A    between atoms: C1_2  and  C2_3 
REMARK    2  A    between atoms: C2_3  and  C3_4 
ROOT
ATOM      1  C3  UNL d   1      -1.594   0.192   1.046  0.00  0.00    -0.075 A 
ATOM      2  C4  UNL d   1      -0.267   0.152   1.499  0.00  0.00     0.002 A 
ATOM      3  C5  UNL d   1       0.171   1.032   2.488  0.00  0.00     0.002 A 
ATOM      4  C6  UNL d   1      -0.706   1.970   3.029  0.00  0.00    -0.004 A 
ATOM      5  C7  UNL d   1      -2.022   2.030   2.575  0.00  0.00     0.002 A 
ATOM      6  C8  UNL d   1      -2.465   1.147   1.589  0.00  0.00     0.002 A 
ENDROOT
BRANCH   1   7
ATOM      7  C2  UNL d   1      -2.083  -0.778  -0.003  0.00  0.00     0.056 C 
BRANCH   7   8
ATOM      8  C1  UNL d   1      -2.640  -2.086   0.569  0.00  0.00     0.007 C 
ATOM      9  C   UNL d   1      -1.623  -3.220   0.572  0.00  0.00     0.009 C 
ENDBRANCH   7   8
ENDBRANCH   1   7
TORSDOF 2
ENDMDL
