MODEL 1
REMARK minimizedAffinity 3.84075594
REMARK minimizedRMSD -1
REMARK  2 active torsions:
REMARK  status: ('A' for Active; 'I' for Inactive)
REMARK    1  A    between atoms: C1_2  and  C2_3 
REMARK    2  A    between atoms: C2_3  and  C3_4 
ROOT
ATOM      1  C3  UNL d   1       3.848   1.758  -5.650  0.00  0.00    -0.075 A 
ATOM      2  C4  UNL d   1       2.550   2.290  -5.635  0.00  0.00     0.002 A 
ATOM      3  C5  UNL d   1       2.343   3.658  -5.814  0.00  0.00     0.002 A 
ATOM      4  C6  UNL d   1       3.429   4.511  -6.000  0.00  0.00    -0.004 A 
ATOM      5  C7  UNL d   1       4.723   3.996  -6.000  0.00  0.00     0.002 A 
ATOM      6  C8  UNL d   1       4.933   2.627  -5.825  0.00  0.00     0.002 A 
ENDROOT
BRANCH   1   7
ATOM      7  C2  UNL d   1       4.077   0.274  -5.487  0.00  0.00     0.056 C 
BRANCH   7   8
ATOM      8  C1  UNL d   1       4.331  -0.162  -4.040  0.00  0.00     0.007 C 
ATOM      9  C   UNL d   1       3.529  -1.390  -3.633  0.00  0.00     0.009 C 
ENDBRANCH   7   8
ENDBRANCH   1   7
TORSDOF 2
ENDMDL
