MODEL 1
REMARK minimizedAffinity 5.54498959
REMARK minimizedRMSD -1
REMARK  0 active torsions:
REMARK  status: ('A' for Active; 'I' for Inactive)
ROOT
ATOM      1  N1  IND d   1       5.257   2.484  -3.214  0.00  0.00    -0.196 N 
ATOM      2  C2  IND d   1       5.892   3.529  -2.604  0.00  0.00     0.054 A 
ATOM      3  C3  IND d   1       5.900   3.355  -1.263  0.00  0.00    -0.031 A 
ATOM      4  C4  IND d   1       5.022   1.381   0.136  0.00  0.00     0.051 A 
ATOM      5  C5  IND d   1       4.329   0.208   0.028  0.00  0.00    -0.031 A 
ATOM      6  C6  IND d   1       3.904  -0.278  -1.192  0.00  0.00     0.015 A 
ATOM      7  C7  IND d   1       4.167   0.389  -2.355  0.00  0.00    -0.016 A 
ATOM      8  C8  IND d   1       4.864   1.584  -2.248  0.00  0.00    -0.047 A 
ATOM      9  C9  IND d   1       5.261   2.104  -1.009  0.00  0.00    -0.096 A 
ATOM     10  HN1 IND d   1       5.125   2.402  -4.060  0.00  0.00     0.298 HD
ENDROOT
TORSDOF 0
ENDMDL
