MODEL 1
REMARK minimizedAffinity 9.29370689
REMARK minimizedRMSD -1
REMARK  0 active torsions:
REMARK  status: ('A' for Active; 'I' for Inactive)
ROOT
ATOM      1  N1  IND d   1       5.934   5.697   4.490  0.00  0.00    -0.196 N 
ATOM      2  C2  IND d   1       5.533   5.864   5.786  0.00  0.00     0.054 A 
ATOM      3  C3  IND d   1       4.355   5.236   5.999  0.00  0.00    -0.031 A 
ATOM      4  C4  IND d   1       2.958   3.791   4.391  0.00  0.00     0.051 A 
ATOM      5  C5  IND d   1       2.899   3.378   3.089  0.00  0.00    -0.031 A 
ATOM      6  C6  IND d   1       3.869   3.721   2.170  0.00  0.00     0.015 A 
ATOM      7  C7  IND d   1       4.946   4.485   2.523  0.00  0.00    -0.016 A 
ATOM      8  C8  IND d   1       5.006   4.912   3.842  0.00  0.00    -0.047 A 
ATOM      9  C9  IND d   1       4.002   4.602   4.769  0.00  0.00    -0.096 A 
ATOM     10  HN1 IND d   1       6.646   6.027   4.139  0.00  0.00     0.298 HD
ENDROOT
TORSDOF 0
ENDMDL
