MODEL 1
REMARK minimizedAffinity 7.47186852
REMARK minimizedRMSD -1
REMARK  0 active torsions:
REMARK  status: ('A' for Active; 'I' for Inactive)
ROOT
ATOM      1  N1  IND d   1      -1.888   1.086  -3.071  0.00  0.00    -0.196 N 
ATOM      2  C2  IND d   1      -1.835   0.273  -1.974  0.00  0.00     0.054 A 
ATOM      3  C3  IND d   1      -3.071  -0.177  -1.662  0.00  0.00    -0.031 A 
ATOM      4  C4  IND d   1      -5.308   0.211  -2.876  0.00  0.00     0.051 A 
ATOM      5  C5  IND d   1      -5.866   0.914  -3.907  0.00  0.00    -0.031 A 
ATOM      6  C6  IND d   1      -5.111   1.724  -4.731  0.00  0.00     0.015 A 
ATOM      7  C7  IND d   1      -3.762   1.853  -4.560  0.00  0.00    -0.016 A 
ATOM      8  C8  IND d   1      -3.193   1.147  -3.510  0.00  0.00    -0.047 A 
ATOM      9  C9  IND d   1      -3.960   0.357  -2.645  0.00  0.00    -0.096 A 
ATOM     10  HN1 IND d   1      -1.219   1.492  -3.428  0.00  0.00     0.298 HD
ENDROOT
TORSDOF 0
ENDMDL
