MODEL 1
REMARK minimizedAffinity 6.43734789
REMARK minimizedRMSD -1
REMARK  0 active torsions:
REMARK  status: ('A' for Active; 'I' for Inactive)
ROOT
ATOM      1  N1  IND d   1       2.647  -1.496  -2.905  0.00  0.00    -0.196 N 
ATOM      2  C2  IND d   1       3.423  -1.576  -4.028  0.00  0.00     0.054 A 
ATOM      3  C3  IND d   1       4.509  -0.780  -3.906  0.00  0.00    -0.031 A 
ATOM      4  C4  IND d   1       5.264   0.664  -1.913  0.00  0.00     0.051 A 
ATOM      5  C5  IND d   1       4.863   1.088  -0.677  0.00  0.00    -0.031 A 
ATOM      6  C6  IND d   1       3.681   0.661  -0.108  0.00  0.00     0.015 A 
ATOM      7  C7  IND d   1       2.857  -0.219  -0.752  0.00  0.00    -0.016 A 
ATOM      8  C8  IND d   1       3.257  -0.645  -2.010  0.00  0.00    -0.047 A 
ATOM      9  C9  IND d   1       4.435  -0.182  -2.611  0.00  0.00    -0.096 A 
ATOM     10  HN1 IND d   1       1.903  -1.908  -2.780  0.00  0.00     0.298 HD
ENDROOT
TORSDOF 0
ENDMDL
