MODEL 1
REMARK minimizedAffinity 3.1634624
REMARK minimizedRMSD -1
REMARK  0 active torsions:
REMARK  status: ('A' for Active; 'I' for Inactive)
ROOT
ATOM      1  N1  IND d   1       1.895   2.683   6.000  0.00  0.00    -0.196 N 
ATOM      2  C2  IND d   1       1.179   2.069   5.011  0.00  0.00     0.054 A 
ATOM      3  C3  IND d   1       1.727   2.329   3.802  0.00  0.00    -0.031 A 
ATOM      4  C4  IND d   1       3.856   3.655   3.224  0.00  0.00     0.051 A 
ATOM      5  C5  IND d   1       4.827   4.434   3.788  0.00  0.00    -0.031 A 
ATOM      6  C6  IND d   1       4.873   4.671   5.147  0.00  0.00     0.015 A 
ATOM      7  C7  IND d   1       3.952   4.127   5.997  0.00  0.00    -0.016 A 
ATOM      8  C8  IND d   1       2.960   3.342   5.426  0.00  0.00    -0.047 A 
ATOM      9  C9  IND d   1       2.884   3.132   4.043  0.00  0.00    -0.096 A 
ATOM     10  HN1 IND d   1       1.711   2.662   6.839  0.00  0.00     0.298 HD
ENDROOT
TORSDOF 0
ENDMDL
