MODEL 1
REMARK minimizedAffinity 1.01202679
REMARK minimizedRMSD -1
REMARK  0 active torsions:
REMARK  status: ('A' for Active; 'I' for Inactive)
ROOT
ATOM      1  N1  IND d   1      -4.454   2.350   2.237  0.00  0.00    -0.196 N 
ATOM      2  C2  IND d   1      -5.170   1.482   1.460  0.00  0.00     0.054 A 
ATOM      3  C3  IND d   1      -4.493   1.199   0.325  0.00  0.00    -0.031 A 
ATOM      4  C4  IND d   1      -2.152   1.970  -0.419  0.00  0.00     0.051 A 
ATOM      5  C5  IND d   1      -1.126   2.798  -0.060  0.00  0.00    -0.031 A 
ATOM      6  C6  IND d   1      -1.157   3.533   1.108  0.00  0.00     0.015 A 
ATOM      7  C7  IND d   1      -2.214   3.457   1.970  0.00  0.00    -0.016 A 
ATOM      8  C8  IND d   1      -3.261   2.622   1.605  0.00  0.00    -0.047 A 
ATOM      9  C9  IND d   1      -3.254   1.906   0.400  0.00  0.00    -0.096 A 
ATOM     10  HN1 IND d   1      -4.707   2.673   2.993  0.00  0.00     0.298 HD
ENDROOT
TORSDOF 0
ENDMDL
