MODEL 1
REMARK minimizedAffinity 13.1150017
REMARK minimizedRMSD -1
REMARK  0 active torsions:
REMARK  status: ('A' for Active; 'I' for Inactive)
ROOT
ATOM      1  N1  IND d   1       2.899   3.633   4.714  0.00  0.00    -0.196 N 
ATOM      2  C2  IND d   1       3.158   4.061   5.986  0.00  0.00     0.054 A 
ATOM      3  C3  IND d   1       4.218   4.900   5.993  0.00  0.00    -0.031 A 
ATOM      4  C4  IND d   1       5.614   5.789   4.021  0.00  0.00     0.051 A 
ATOM      5  C5  IND d   1       5.779   5.654   2.671  0.00  0.00    -0.031 A 
ATOM      6  C6  IND d   1       4.975   4.824   1.917  0.00  0.00     0.015 A 
ATOM      7  C7  IND d   1       3.963   4.103   2.486  0.00  0.00    -0.016 A 
ATOM      8  C8  IND d   1       3.797   4.232   3.858  0.00  0.00    -0.047 A 
ATOM      9  C9  IND d   1       4.637   5.040   4.635  0.00  0.00    -0.096 A 
ATOM     10  HN1 IND d   1       2.279   3.082   4.486  0.00  0.00     0.298 HD
ENDROOT
TORSDOF 0
ENDMDL
