MODEL 1
REMARK minimizedAffinity 10.3002148
REMARK minimizedRMSD -1
REMARK  0 active torsions:
REMARK  status: ('A' for Active; 'I' for Inactive)
ROOT
ATOM      1  N1  IND d   1       2.125   0.863  -0.001  0.00  0.00    -0.196 N 
ATOM      2  C2  IND d   1       1.000   1.473   0.481  0.00  0.00     0.054 A 
ATOM      3  C3  IND d   1      -0.049   0.620   0.445  0.00  0.00    -0.031 A 
ATOM      4  C4  IND d   1      -0.124  -1.852  -0.270  0.00  0.00     0.051 A 
ATOM      5  C5  IND d   1       0.647  -2.838  -0.818  0.00  0.00    -0.031 A 
ATOM      6  C6  IND d   1       1.977  -2.638  -1.126  0.00  0.00     0.015 A 
ATOM      7  C7  IND d   1       2.592  -1.442  -0.885  0.00  0.00    -0.016 A 
ATOM      8  C8  IND d   1       1.811  -0.436  -0.335  0.00  0.00    -0.047 A 
ATOM      9  C9  IND d   1       0.449  -0.620  -0.060  0.00  0.00    -0.096 A 
ATOM     10  HN1 IND d   1       2.898   1.230  -0.082  0.00  0.00     0.298 HD
ENDROOT
TORSDOF 0
ENDMDL
