MODEL 1
REMARK minimizedAffinity 3.68759894
REMARK minimizedRMSD -1
REMARK  0 active torsions:
REMARK  status: ('A' for Active; 'I' for Inactive)
ROOT
ATOM      1  N1  IND d   1       1.009   2.210  -0.213  0.00  0.00    -0.196 N 
ATOM      2  C2  IND d   1       0.721   2.754   1.008  0.00  0.00     0.054 A 
ATOM      3  C3  IND d   1      -0.029   1.899   1.739  0.00  0.00    -0.031 A 
ATOM      4  C4  IND d   1      -0.813  -0.486   1.170  0.00  0.00     0.051 A 
ATOM      5  C5  IND d   1      -0.827  -1.402   0.157  0.00  0.00    -0.031 A 
ATOM      6  C6  IND d   1      -0.215  -1.158  -1.056  0.00  0.00     0.015 A 
ATOM      7  C7  IND d   1       0.446   0.013  -1.296  0.00  0.00    -0.016 A 
ATOM      8  C8  IND d   1       0.457   0.949  -0.272  0.00  0.00    -0.047 A 
ATOM      9  C9  IND d   1      -0.199   0.724   0.946  0.00  0.00    -0.096 A 
ATOM     10  HN1 IND d   1       1.459   2.591  -0.838  0.00  0.00     0.298 HD
ENDROOT
TORSDOF 0
ENDMDL
