MODEL 1
REMARK minimizedAffinity 4.16610813
REMARK minimizedRMSD -1
REMARK  0 active torsions:
REMARK  status: ('A' for Active; 'I' for Inactive)
ROOT
ATOM      1  N1  IND d   1       0.347   1.324  -0.363  0.00  0.00    -0.196 N 
ATOM      2  C2  IND d   1       1.622   1.796  -0.225  0.00  0.00     0.054 A 
ATOM      3  C3  IND d   1       2.505   0.773  -0.217  0.00  0.00    -0.031 A 
ATOM      4  C4  IND d   1       2.087  -1.750  -0.519  0.00  0.00     0.051 A 
ATOM      5  C5  IND d   1       1.083  -2.668  -0.641  0.00  0.00    -0.031 A 
ATOM      6  C6  IND d   1      -0.246  -2.295  -0.680  0.00  0.00     0.015 A 
ATOM      7  C7  IND d   1      -0.619  -0.983  -0.610  0.00  0.00    -0.016 A 
ATOM      8  C8  IND d   1       0.398  -0.048  -0.479  0.00  0.00    -0.047 A 
ATOM      9  C9  IND d   1       1.745  -0.424  -0.396  0.00  0.00    -0.096 A 
ATOM     10  HN1 IND d   1      -0.368   1.802  -0.375  0.00  0.00     0.298 HD
ENDROOT
TORSDOF 0
ENDMDL
