MODEL 1
REMARK minimizedAffinity 7.42780352
REMARK minimizedRMSD -1
REMARK  0 active torsions:
REMARK  status: ('A' for Active; 'I' for Inactive)
ROOT
ATOM      1  N1  IND d   1      -0.248   0.259   0.082  0.00  0.00    -0.196 N 
ATOM      2  C2  IND d   1       0.211  -0.520   1.107  0.00  0.00     0.054 A 
ATOM      3  C3  IND d   1       0.331  -1.805   0.704  0.00  0.00    -0.031 A 
ATOM      4  C4  IND d   1      -0.073  -2.834  -1.621  0.00  0.00     0.051 A 
ATOM      5  C5  IND d   1      -0.535  -2.526  -2.870  0.00  0.00    -0.031 A 
ATOM      6  C6  IND d   1      -0.930  -1.247  -3.206  0.00  0.00     0.015 A 
ATOM      7  C7  IND d   1      -0.867  -0.222  -2.305  0.00  0.00    -0.016 A 
ATOM      8  C8  IND d   1      -0.405  -0.533  -1.034  0.00  0.00    -0.047 A 
ATOM      9  C9  IND d   1      -0.043  -1.837  -0.674  0.00  0.00    -0.096 A 
ATOM     10  HN1 IND d   1      -0.411   1.103   0.127  0.00  0.00     0.298 HD
ENDROOT
TORSDOF 0
ENDMDL
