MODEL 1
REMARK minimizedAffinity -2.16936636
REMARK minimizedRMSD -1
REMARK  1 active torsions:
REMARK  status: ('A' for Active; 'I' for Inactive)
REMARK    1  A    between atoms: C3_4  and  O_7 
ROOT
ATOM      1  C   UNL d   1       0.989   0.539  -1.129  0.00  0.00    -0.033 A 
ATOM      2  C1  UNL d   1       1.371   1.323  -2.219  0.00  0.00     0.039 A 
ATOM      3  C2  UNL d   1       1.376   2.715  -2.113  0.00  0.00    -0.080 A 
ATOM      4  C3  UNL d   1       0.998   3.310  -0.913  0.00  0.00     0.150 A 
ATOM      5  C4  UNL d   1       0.619   2.535   0.179  0.00  0.00    -0.007 A 
ATOM      6  C5  UNL d   1       0.614   1.145   0.071  0.00  0.00     0.039 A 
ENDROOT
BRANCH   4   7
ATOM      7  O   UNL d   1       0.982   4.665  -0.763  0.00  0.00    -0.526 OA
ATOM      8  H5  UNL d   1       1.239   5.071  -1.608  0.00  0.00     0.418 HD
ENDBRANCH   4   7
TORSDOF 1
ENDMDL
