MODEL 1
REMARK minimizedAffinity -4.81334448
REMARK minimizedRMSD -1
REMARK  1 active torsions:
REMARK  status: ('A' for Active; 'I' for Inactive)
REMARK    1  A    between atoms: C3_4  and  O_7 
ROOT
ATOM      1  C   UNL d   1       0.982  -0.065  -0.883  0.00  0.00    -0.033 A 
ATOM      2  C1  UNL d   1       0.880   0.706   0.277  0.00  0.00     0.039 A 
ATOM      3  C2  UNL d   1       1.121   2.080   0.227  0.00  0.00    -0.080 A 
ATOM      4  C3  UNL d   1       1.462   2.671  -0.986  0.00  0.00     0.150 A 
ATOM      5  C4  UNL d   1       1.562   1.909  -2.146  0.00  0.00    -0.007 A 
ATOM      6  C5  UNL d   1       1.322   0.537  -2.095  0.00  0.00     0.039 A 
ENDROOT
BRANCH   4   7
ATOM      7  O   UNL d   1       1.711   4.008  -1.084  0.00  0.00    -0.526 OA
ATOM      8  H5  UNL d   1       1.632   4.400  -0.198  0.00  0.00     0.418 HD
ENDBRANCH   4   7
TORSDOF 1
ENDMDL
