MODEL 1
REMARK minimizedAffinity -5.26399612
REMARK minimizedRMSD -1
REMARK  1 active torsions:
REMARK  status: ('A' for Active; 'I' for Inactive)
REMARK    1  A    between atoms: C3_4  and  O_7 
ROOT
ATOM      1  C   UNL d   1       0.951  -0.251  -0.487  0.00  0.00    -0.033 A 
ATOM      2  C1  UNL d   1       1.197   0.718   0.487  0.00  0.00     0.039 A 
ATOM      3  C2  UNL d   1       1.494   2.030   0.111  0.00  0.00    -0.080 A 
ATOM      4  C3  UNL d   1       1.540   2.359  -1.241  0.00  0.00     0.150 A 
ATOM      5  C4  UNL d   1       1.292   1.399  -2.217  0.00  0.00    -0.007 A 
ATOM      6  C5  UNL d   1       0.998   0.090  -1.839  0.00  0.00     0.039 A 
ENDROOT
BRANCH   4   7
ATOM      7  O   UNL d   1       1.830   3.624  -1.657  0.00  0.00    -0.526 OA
ATOM      8  H5  UNL d   1       2.007   4.172  -0.875  0.00  0.00     0.418 HD
ENDBRANCH   4   7
TORSDOF 1
ENDMDL
