MODEL 1
REMARK minimizedAffinity -2.73582244
REMARK minimizedRMSD -1
REMARK  1 active torsions:
REMARK  status: ('A' for Active; 'I' for Inactive)
REMARK    1  A    between atoms: C3_4  and  O_7 
ROOT
ATOM      1  C   UNL d   1       2.087  -0.075  -1.185  0.00  0.00    -0.033 A 
ATOM      2  C1  UNL d   1       1.669  -0.120   0.146  0.00  0.00     0.039 A 
ATOM      3  C2  UNL d   1       1.219   1.041   0.778  0.00  0.00    -0.080 A 
ATOM      4  C3  UNL d   1       1.191   2.238   0.068  0.00  0.00     0.150 A 
ATOM      5  C4  UNL d   1       1.603   2.289  -1.260  0.00  0.00    -0.007 A 
ATOM      6  C5  UNL d   1       2.053   1.129  -1.888  0.00  0.00     0.039 A 
ENDROOT
BRANCH   4   7
ATOM      7  O   UNL d   1       0.765   3.398   0.643  0.00  0.00    -0.526 OA
ATOM      8  H5  UNL d   1       0.539   3.217   1.571  0.00  0.00     0.418 HD
ENDBRANCH   4   7
TORSDOF 1
ENDMDL
