MODEL 1
REMARK minimizedAffinity -3.53095841
REMARK minimizedRMSD -1
REMARK  1 active torsions:
REMARK  status: ('A' for Active; 'I' for Inactive)
REMARK    1  A    between atoms: C3_4  and  O_7 
ROOT
ATOM      1  C   UNL d   1       0.843   0.471  -0.369  0.00  0.00    -0.033 A 
ATOM      2  C1  UNL d   1       0.869   1.443   0.632  0.00  0.00     0.039 A 
ATOM      3  C2  UNL d   1       1.372   2.717   0.358  0.00  0.00    -0.080 A 
ATOM      4  C3  UNL d   1       1.845   3.004  -0.919  0.00  0.00     0.150 A 
ATOM      5  C4  UNL d   1       1.819   2.041  -1.922  0.00  0.00    -0.007 A 
ATOM      6  C5  UNL d   1       1.317   0.770  -1.646  0.00  0.00     0.039 A 
ENDROOT
BRANCH   4   7
ATOM      7  O   UNL d   1       2.350   4.231  -1.232  0.00  0.00    -0.526 OA
ATOM      8  H5  UNL d   1       2.332   4.785  -0.434  0.00  0.00     0.418 HD
ENDBRANCH   4   7
TORSDOF 1
ENDMDL
