MODEL 1
REMARK minimizedAffinity -2.01026559
REMARK minimizedRMSD -1
REMARK  1 active torsions:
REMARK  status: ('A' for Active; 'I' for Inactive)
REMARK    1  A    between atoms: C3_4  and  O_7 
ROOT
ATOM      1  C   UNL d   1       0.926   0.296  -0.293  0.00  0.00    -0.033 A 
ATOM      2  C1  UNL d   1       1.240   1.468   0.399  0.00  0.00     0.039 A 
ATOM      3  C2  UNL d   1       1.545   2.635  -0.304  0.00  0.00    -0.080 A 
ATOM      4  C3  UNL d   1       1.530   2.618  -1.695  0.00  0.00     0.150 A 
ATOM      5  C4  UNL d   1       1.215   1.456  -2.391  0.00  0.00    -0.007 A 
ATOM      6  C5  UNL d   1       0.912   0.291  -1.688  0.00  0.00     0.039 A 
ENDROOT
BRANCH   4   7
ATOM      7  O   UNL d   1       1.825   3.732  -2.425  0.00  0.00    -0.526 OA
ATOM      8  H5  UNL d   1       2.052   4.451  -1.811  0.00  0.00     0.418 HD
ENDBRANCH   4   7
TORSDOF 1
ENDMDL
