MODEL 1
REMARK minimizedAffinity -4.0244832
REMARK minimizedRMSD -1
REMARK  1 active torsions:
REMARK  status: ('A' for Active; 'I' for Inactive)
REMARK    1  A    between atoms: C3_4  and  O_7 
ROOT
ATOM      1  C   UNL d   1       1.067   0.348   0.271  0.00  0.00    -0.033 A 
ATOM      2  C1  UNL d   1       1.086   1.642   0.794  0.00  0.00     0.039 A 
ATOM      3  C2  UNL d   1       1.321   2.733  -0.046  0.00  0.00    -0.080 A 
ATOM      4  C3  UNL d   1       1.534   2.516  -1.404  0.00  0.00     0.150 A 
ATOM      5  C4  UNL d   1       1.512   1.229  -1.933  0.00  0.00    -0.007 A 
ATOM      6  C5  UNL d   1       1.279   0.141  -1.093  0.00  0.00     0.039 A 
ENDROOT
BRANCH   4   7
ATOM      7  O   UNL d   1       1.772   3.548  -2.262  0.00  0.00    -0.526 OA
ATOM      8  H5  UNL d   1       1.787   4.375  -1.752  0.00  0.00     0.418 HD
ENDBRANCH   4   7
TORSDOF 1
ENDMDL
