MODEL 1
REMARK minimizedAffinity 1.46134448
REMARK minimizedRMSD -1
REMARK  1 active torsions:
REMARK  status: ('A' for Active; 'I' for Inactive)
REMARK    1  A    between atoms: C3_4  and  O_7 
ROOT
ATOM      1  C   UNL d   1      -3.049  -3.909   3.563  0.00  0.00    -0.033 A 
ATOM      2  C1  UNL d   1      -1.822  -4.370   3.083  0.00  0.00     0.039 A 
ATOM      3  C2  UNL d   1      -0.637  -3.745   3.476  0.00  0.00    -0.080 A 
ATOM      4  C3  UNL d   1      -0.692  -2.662   4.350  0.00  0.00     0.150 A 
ATOM      5  C4  UNL d   1      -1.911  -2.200   4.835  0.00  0.00    -0.007 A 
ATOM      6  C5  UNL d   1      -3.094  -2.824   4.441  0.00  0.00     0.039 A 
ENDROOT
BRANCH   4   7
ATOM      7  O   UNL d   1       0.437  -2.017   4.758  0.00  0.00    -0.526 OA
ATOM      8  H5  UNL d   1       1.201  -2.427   4.319  0.00  0.00     0.418 HD
ENDBRANCH   4   7
TORSDOF 1
ENDMDL
