MODEL 1
REMARK minimizedAffinity -1.8798666
REMARK minimizedRMSD -1
REMARK  1 active torsions:
REMARK  status: ('A' for Active; 'I' for Inactive)
REMARK    1  A    between atoms: C3_4  and  O_7 
ROOT
ATOM      1  C   UNL d   1       1.753   0.248  -1.697  0.00  0.00    -0.033 A 
ATOM      2  C1  UNL d   1       1.068   1.301  -2.308  0.00  0.00     0.039 A 
ATOM      3  C2  UNL d   1       0.846   2.490  -1.611  0.00  0.00    -0.080 A 
ATOM      4  C3  UNL d   1       1.313   2.614  -0.305  0.00  0.00     0.150 A 
ATOM      5  C4  UNL d   1       1.999   1.571   0.308  0.00  0.00    -0.007 A 
ATOM      6  C5  UNL d   1       2.220   0.384  -0.390  0.00  0.00     0.039 A 
ENDROOT
BRANCH   4   7
ATOM      7  O   UNL d   1       1.116   3.753   0.417  0.00  0.00    -0.526 OA
ATOM      8  H5  UNL d   1       0.603   4.376  -0.125  0.00  0.00     0.418 HD
ENDBRANCH   4   7
TORSDOF 1
ENDMDL
