MODEL 1
REMARK minimizedAffinity -3.16803193
REMARK minimizedRMSD -1
REMARK  1 active torsions:
REMARK  status: ('A' for Active; 'I' for Inactive)
REMARK    1  A    between atoms: C3_4  and  O_7 
ROOT
ATOM      1  C   UNL d   1       0.802   0.955   0.963  0.00  0.00    -0.033 A 
ATOM      2  C1  UNL d   1       0.711   2.307   0.626  0.00  0.00     0.039 A 
ATOM      3  C2  UNL d   1       0.933   2.717  -0.690  0.00  0.00    -0.080 A 
ATOM      4  C3  UNL d   1       1.243   1.766  -1.659  0.00  0.00     0.150 A 
ATOM      5  C4  UNL d   1       1.331   0.417  -1.331  0.00  0.00    -0.007 A 
ATOM      6  C5  UNL d   1       1.110   0.010  -0.016  0.00  0.00     0.039 A 
ENDROOT
BRANCH   4   7
ATOM      7  O   UNL d   1       1.473   2.119  -2.956  0.00  0.00    -0.526 OA
ATOM      8  H5  UNL d   1       1.406   3.086  -3.028  0.00  0.00     0.418 HD
ENDBRANCH   4   7
TORSDOF 1
ENDMDL
