MODEL 1
REMARK minimizedAffinity -1.99253833
REMARK minimizedRMSD -1
REMARK  1 active torsions:
REMARK  status: ('A' for Active; 'I' for Inactive)
REMARK    1  A    between atoms: C3_4  and  O_7 
ROOT
ATOM      1  C   UNL d   1       1.401   3.493  -0.642  0.00  0.00    -0.033 A 
ATOM      2  C1  UNL d   1       1.156   2.836   0.566  0.00  0.00     0.039 A 
ATOM      3  C2  UNL d   1       1.031   1.446   0.594  0.00  0.00    -0.080 A 
ATOM      4  C3  UNL d   1       1.153   0.725  -0.591  0.00  0.00     0.150 A 
ATOM      5  C4  UNL d   1       1.401   1.372  -1.797  0.00  0.00    -0.007 A 
ATOM      6  C5  UNL d   1       1.525   2.761  -1.823  0.00  0.00     0.039 A 
ENDROOT
BRANCH   4   7
ATOM      7  O   UNL d   1       1.034  -0.633  -0.615  0.00  0.00    -0.526 OA
ATOM      8  H5  UNL d   1       0.836  -0.940   0.285  0.00  0.00     0.418 HD
ENDBRANCH   4   7
TORSDOF 1
ENDMDL
