MODEL 1
REMARK minimizedAffinity -1.4154588
REMARK minimizedRMSD -1
REMARK  1 active torsions:
REMARK  status: ('A' for Active; 'I' for Inactive)
REMARK    1  A    between atoms: C3_4  and  O_7 
ROOT
ATOM      1  C   UNL d   1       0.984   0.921  -0.603  0.00  0.00    -0.033 A 
ATOM      2  C1  UNL d   1       1.004   1.842   0.447  0.00  0.00     0.039 A 
ATOM      3  C2  UNL d   1       1.267   3.189   0.191  0.00  0.00    -0.080 A 
ATOM      4  C3  UNL d   1       1.506   3.603  -1.116  0.00  0.00     0.150 A 
ATOM      5  C4  UNL d   1       1.484   2.692  -2.167  0.00  0.00    -0.007 A 
ATOM      6  C5  UNL d   1       1.223   1.347  -1.910  0.00  0.00     0.039 A 
ENDROOT
BRANCH   4   7
ATOM      7  O   UNL d   1       1.772   4.906  -1.414  0.00  0.00    -0.526 OA
ATOM      8  H5  UNL d   1       1.783   5.415  -0.586  0.00  0.00     0.418 HD
ENDBRANCH   4   7
TORSDOF 1
ENDMDL
