MODEL 1
REMARK minimizedAffinity -0.304707259
REMARK minimizedRMSD -1
REMARK  1 active torsions:
REMARK  status: ('A' for Active; 'I' for Inactive)
REMARK    1  A    between atoms: C3_4  and  O_7 
ROOT
ATOM      1  C   UNL d   1       1.305  -1.869  -0.269  0.00  0.00    -0.033 A 
ATOM      2  C1  UNL d   1       1.447  -0.632   0.363  0.00  0.00     0.039 A 
ATOM      3  C2  UNL d   1       1.444   0.543  -0.390  0.00  0.00    -0.080 A 
ATOM      4  C3  UNL d   1       1.298   0.469  -1.772  0.00  0.00     0.150 A 
ATOM      5  C4  UNL d   1       1.152  -0.760  -2.408  0.00  0.00    -0.007 A 
ATOM      6  C5  UNL d   1       1.156  -1.933  -1.654  0.00  0.00     0.039 A 
ENDROOT
BRANCH   4   7
ATOM      7  O   UNL d   1       1.294   1.588  -2.550  0.00  0.00    -0.526 OA
ATOM      8  H5  UNL d   1       1.432   2.361  -1.978  0.00  0.00     0.418 HD
ENDBRANCH   4   7
TORSDOF 1
ENDMDL
