MODEL 1
REMARK minimizedAffinity -2.07613683
REMARK minimizedRMSD -1
REMARK  1 active torsions:
REMARK  status: ('A' for Active; 'I' for Inactive)
REMARK    1  A    between atoms: C3_4  and  O_7 
ROOT
ATOM      1  C   UNL d   1       1.071   1.777  -0.285  0.00  0.00    -0.033 A 
ATOM      2  C1  UNL d   1       1.191   2.815   0.641  0.00  0.00     0.039 A 
ATOM      3  C2  UNL d   1       1.557   4.094   0.216  0.00  0.00    -0.080 A 
ATOM      4  C3  UNL d   1       1.800   4.321  -1.135  0.00  0.00     0.150 A 
ATOM      5  C4  UNL d   1       1.679   3.293  -2.064  0.00  0.00    -0.007 A 
ATOM      6  C5  UNL d   1       1.314   2.016  -1.638  0.00  0.00     0.039 A 
ENDROOT
BRANCH   4   7
ATOM      7  O   UNL d   1       2.165   5.551  -1.597  0.00  0.00    -0.526 OA
ATOM      8  H5  UNL d   1       2.236   6.155  -0.839  0.00  0.00     0.418 HD
ENDBRANCH   4   7
TORSDOF 1
ENDMDL
