MODEL 1
REMARK minimizedAffinity -5.04123926
REMARK minimizedRMSD -1
REMARK  1 active torsions:
REMARK  status: ('A' for Active; 'I' for Inactive)
REMARK    1  A    between atoms: C3_4  and  O_7 
ROOT
ATOM      1  C   UNL d   1       0.717   1.341  -0.140  0.00  0.00    -0.033 A 
ATOM      2  C1  UNL d   1       0.817   2.372   0.796  0.00  0.00     0.039 A 
ATOM      3  C2  UNL d   1       1.259   3.636   0.400  0.00  0.00    -0.080 A 
ATOM      4  C3  UNL d   1       1.595   3.856  -0.933  0.00  0.00     0.150 A 
ATOM      5  C4  UNL d   1       1.494   2.834  -1.871  0.00  0.00    -0.007 A 
ATOM      6  C5  UNL d   1       1.054   1.572  -1.474  0.00  0.00     0.039 A 
ENDROOT
BRANCH   4   7
ATOM      7  O   UNL d   1       2.036   5.071  -1.365  0.00  0.00    -0.526 OA
ATOM      8  H5  UNL d   1       2.082   5.671  -0.602  0.00  0.00     0.418 HD
ENDBRANCH   4   7
TORSDOF 1
ENDMDL
