MODEL 1
REMARK minimizedAffinity 2.35776305
REMARK minimizedRMSD -1
REMARK  0 active torsions:
REMARK  status: ('A' for Active; 'I' for Inactive)
ROOT
ATOM      1  C   UNL d   1       5.618  -5.996   5.239  0.00  0.00     0.077 C 
ATOM      2  C1  UNL d   1       5.356  -4.531   5.053  0.00  0.00    -0.074 A 
ATOM      3  C2  UNL d   1       5.789  -3.598   6.000  0.00  0.00    -0.005 A 
ATOM      4  C3  UNL d   1       5.546  -2.238   5.809  0.00  0.00     0.006 A 
ATOM      5  C4  UNL d   1       4.869  -1.798   4.671  0.00  0.00    -0.005 A 
ATOM      6  C5  UNL d   1       4.429  -2.717   3.713  0.00  0.00    -0.074 A 
ATOM      7  C6  UNL d   1       3.708  -2.260   2.479  0.00  0.00     0.077 C 
ATOM      8  C7  UNL d   1       4.683  -4.081   3.909  0.00  0.00    -0.001 A 
ENDROOT
TORSDOF 0
ENDMDL
