MODEL 1
REMARK minimizedAffinity 10.8943815
REMARK minimizedRMSD -1
REMARK  0 active torsions:
REMARK  status: ('A' for Active; 'I' for Inactive)
ROOT
ATOM      1  C   UNL d   1      -1.703   2.031  -3.900  0.00  0.00     0.077 C 
ATOM      2  C1  UNL d   1      -3.201   2.049  -3.961  0.00  0.00    -0.074 A 
ATOM      3  C2  UNL d   1      -3.946   2.870  -3.108  0.00  0.00    -0.005 A 
ATOM      4  C3  UNL d   1      -5.339   2.883  -3.184  0.00  0.00     0.006 A 
ATOM      5  C4  UNL d   1      -6.000   2.077  -4.111  0.00  0.00    -0.005 A 
ATOM      6  C5  UNL d   1      -5.272   1.251  -4.973  0.00  0.00    -0.074 A 
ATOM      7  C6  UNL d   1      -5.966   0.385  -5.982  0.00  0.00     0.077 C 
ATOM      8  C7  UNL d   1      -3.872   1.248  -4.896  0.00  0.00    -0.001 A 
ENDROOT
TORSDOF 0
ENDMDL
