MODEL 1
REMARK minimizedAffinity -0.439062774
REMARK minimizedRMSD -1
REMARK  0 active torsions:
REMARK  status: ('A' for Active; 'I' for Inactive)
ROOT
ATOM      1  C   UNL d   1       2.039  -2.823   0.874  0.00  0.00     0.077 C 
ATOM      2  C1  UNL d   1       1.010  -1.821   1.307  0.00  0.00    -0.074 A 
ATOM      3  C2  UNL d   1       0.827  -1.518   2.660  0.00  0.00    -0.005 A 
ATOM      4  C3  UNL d   1      -0.128  -0.577   3.046  0.00  0.00     0.006 A 
ATOM      5  C4  UNL d   1      -0.907   0.069   2.086  0.00  0.00    -0.005 A 
ATOM      6  C5  UNL d   1      -0.738  -0.221   0.728  0.00  0.00    -0.074 A 
ATOM      7  C6  UNL d   1      -1.561   0.471  -0.318  0.00  0.00     0.077 C 
ATOM      8  C7  UNL d   1       0.228  -1.163   0.347  0.00  0.00    -0.001 A 
ENDROOT
TORSDOF 0
ENDMDL
