MODEL 1
REMARK minimizedAffinity 6.24107218
REMARK minimizedRMSD -1
REMARK  0 active torsions:
REMARK  status: ('A' for Active; 'I' for Inactive)
ROOT
ATOM      1  C   UNL d   1       5.999   2.947   2.209  0.00  0.00     0.077 C 
ATOM      2  C1  UNL d   1       5.634   1.958   1.142  0.00  0.00    -0.074 A 
ATOM      3  C2  UNL d   1       5.202   2.386  -0.117  0.00  0.00    -0.005 A 
ATOM      4  C3  UNL d   1       4.875   1.454  -1.102  0.00  0.00     0.006 A 
ATOM      5  C4  UNL d   1       4.978   0.088  -0.839  0.00  0.00    -0.005 A 
ATOM      6  C5  UNL d   1       5.409  -0.359   0.414  0.00  0.00    -0.074 A 
ATOM      7  C6  UNL d   1       5.535  -1.824   0.710  0.00  0.00     0.077 C 
ATOM      8  C7  UNL d   1       5.742   0.584   1.397  0.00  0.00    -0.001 A 
ENDROOT
TORSDOF 0
ENDMDL
