MODEL 1
REMARK minimizedAffinity -2.81000829
REMARK minimizedRMSD -1
REMARK  0 active torsions:
REMARK  status: ('A' for Active; 'I' for Inactive)
ROOT
ATOM      1  C   UNL d   1       0.383  -1.765   1.981  0.00  0.00     0.077 C 
ATOM      2  C1  UNL d   1       1.822  -2.185   2.033  0.00  0.00    -0.074 A 
ATOM      3  C2  UNL d   1       2.498  -2.579   0.873  0.00  0.00    -0.005 A 
ATOM      4  C3  UNL d   1       3.840  -2.957   0.936  0.00  0.00     0.006 A 
ATOM      5  C4  UNL d   1       4.517  -2.945   2.155  0.00  0.00    -0.005 A 
ATOM      6  C5  UNL d   1       3.858  -2.553   3.325  0.00  0.00    -0.074 A 
ATOM      7  C6  UNL d   1       4.574  -2.525   4.642  0.00  0.00     0.077 C 
ATOM      8  C7  UNL d   1       2.512  -2.168   3.253  0.00  0.00    -0.001 A 
ENDROOT
TORSDOF 0
ENDMDL
