MODEL 1
REMARK minimizedAffinity 7.62268448
REMARK minimizedRMSD -1
REMARK  0 active torsions:
REMARK  status: ('A' for Active; 'I' for Inactive)
ROOT
ATOM      1  C   UNL d   1       6.000   6.000   1.209  0.00  0.00     0.077 C 
ATOM      2  C1  UNL d   1       5.251   4.723   0.965  0.00  0.00    -0.074 A 
ATOM      3  C2  UNL d   1       3.978   4.736   0.386  0.00  0.00    -0.005 A 
ATOM      4  C3  UNL d   1       3.298   3.541   0.157  0.00  0.00     0.006 A 
ATOM      5  C4  UNL d   1       3.882   2.322   0.503  0.00  0.00    -0.005 A 
ATOM      6  C5  UNL d   1       5.155   2.289   1.082  0.00  0.00    -0.074 A 
ATOM      7  C6  UNL d   1       5.802   0.987   1.452  0.00  0.00     0.077 C 
ATOM      8  C7  UNL d   1       5.835   3.495   1.303  0.00  0.00    -0.001 A 
ENDROOT
TORSDOF 0
ENDMDL
