MODEL 1
REMARK minimizedAffinity 1.09040737
REMARK minimizedRMSD -1
REMARK  0 active torsions:
REMARK  status: ('A' for Active; 'I' for Inactive)
ROOT
ATOM      1  C   UNL d   1       4.270  -3.966   5.184  0.00  0.00     0.077 C 
ATOM      2  C1  UNL d   1       3.714  -3.982   3.791  0.00  0.00    -0.074 A 
ATOM      3  C2  UNL d   1       4.542  -4.223   2.690  0.00  0.00    -0.005 A 
ATOM      4  C3  UNL d   1       4.009  -4.245   1.401  0.00  0.00     0.006 A 
ATOM      5  C4  UNL d   1       2.646  -4.026   1.201  0.00  0.00    -0.005 A 
ATOM      6  C5  UNL d   1       1.802  -3.785   2.290  0.00  0.00    -0.074 A 
ATOM      7  C6  UNL d   1       0.333  -3.558   2.093  0.00  0.00     0.077 C 
ATOM      8  C7  UNL d   1       2.344  -3.772   3.582  0.00  0.00    -0.001 A 
ENDROOT
TORSDOF 0
ENDMDL
