MODEL 1
REMARK minimizedAffinity 4.62227583
REMARK minimizedRMSD -1
REMARK  0 active torsions:
REMARK  status: ('A' for Active; 'I' for Inactive)
ROOT
ATOM      1  C   UNL d   1       5.016   3.630   0.402  0.00  0.00     0.077 C 
ATOM      2  C1  UNL d   1       4.910   2.135   0.355  0.00  0.00    -0.074 A 
ATOM      3  C2  UNL d   1       6.000   1.326   0.695  0.00  0.00    -0.005 A 
ATOM      4  C3  UNL d   1       5.884  -0.063   0.655  0.00  0.00     0.006 A 
ATOM      5  C4  UNL d   1       4.680  -0.657   0.275  0.00  0.00    -0.005 A 
ATOM      6  C5  UNL d   1       3.580   0.135  -0.067  0.00  0.00    -0.074 A 
ATOM      7  C6  UNL d   1       2.275  -0.488  -0.468  0.00  0.00     0.077 C 
ATOM      8  C7  UNL d   1       3.702   1.530  -0.018  0.00  0.00    -0.001 A 
ENDROOT
TORSDOF 0
ENDMDL
