MODEL 1
REMARK minimizedAffinity -3.0762918
REMARK minimizedRMSD -1
REMARK  0 active torsions:
REMARK  status: ('A' for Active; 'I' for Inactive)
ROOT
ATOM      1  C   UNL d   1       4.579  -2.986   5.263  0.00  0.00     0.077 C 
ATOM      2  C1  UNL d   1       4.112  -3.571   3.963  0.00  0.00    -0.074 A 
ATOM      3  C2  UNL d   1       4.569  -4.820   3.532  0.00  0.00    -0.005 A 
ATOM      4  C3  UNL d   1       4.119  -5.356   2.325  0.00  0.00     0.006 A 
ATOM      5  C4  UNL d   1       3.209  -4.649   1.539  0.00  0.00    -0.005 A 
ATOM      6  C5  UNL d   1       2.740  -3.398   1.954  0.00  0.00    -0.074 A 
ATOM      7  C6  UNL d   1       1.755  -2.630   1.125  0.00  0.00     0.077 C 
ATOM      8  C7  UNL d   1       3.192  -2.870   3.171  0.00  0.00    -0.001 A 
ENDROOT
TORSDOF 0
ENDMDL
