MODEL 1
REMARK minimizedAffinity 0.133003846
REMARK minimizedRMSD -1
REMARK  0 active torsions:
REMARK  status: ('A' for Active; 'I' for Inactive)
ROOT
ATOM      1  C   UNL d   1       1.605  -2.350   0.522  0.00  0.00     0.077 C 
ATOM      2  C1  UNL d   1       0.585  -1.490   1.206  0.00  0.00    -0.074 A 
ATOM      3  C2  UNL d   1      -0.053  -1.922   2.374  0.00  0.00    -0.005 A 
ATOM      4  C3  UNL d   1      -0.993  -1.106   3.004  0.00  0.00     0.006 A 
ATOM      5  C4  UNL d   1      -1.304   0.146   2.475  0.00  0.00    -0.005 A 
ATOM      6  C5  UNL d   1      -0.676   0.595   1.308  0.00  0.00    -0.074 A 
ATOM      7  C6  UNL d   1      -0.993   1.943   0.731  0.00  0.00     0.077 C 
ATOM      8  C7  UNL d   1       0.272  -0.227   0.684  0.00  0.00    -0.001 A 
ENDROOT
TORSDOF 0
ENDMDL
