MODEL 1
REMARK minimizedAffinity -2.17518497
REMARK minimizedRMSD -1
REMARK  0 active torsions:
REMARK  status: ('A' for Active; 'I' for Inactive)
ROOT
ATOM      1  C   UNL d   1      -1.172  -0.471  -1.591  0.00  0.00     0.077 C 
ATOM      2  C1  UNL d   1      -0.748  -0.848  -0.203  0.00  0.00    -0.074 A 
ATOM      3  C2  UNL d   1      -1.400  -0.320   0.916  0.00  0.00    -0.005 A 
ATOM      4  C3  UNL d   1      -1.000  -0.687   2.201  0.00  0.00     0.006 A 
ATOM      5  C4  UNL d   1       0.054  -1.585   2.380  0.00  0.00    -0.005 A 
ATOM      6  C5  UNL d   1       0.716  -2.124   1.273  0.00  0.00    -0.074 A 
ATOM      7  C6  UNL d   1       1.844  -3.097   1.447  0.00  0.00     0.077 C 
ATOM      8  C7  UNL d   1       0.305  -1.755  -0.015  0.00  0.00    -0.001 A 
ENDROOT
TORSDOF 0
ENDMDL
