MODEL 1
REMARK minimizedAffinity 0.952882469
REMARK minimizedRMSD -1
REMARK  0 active torsions:
REMARK  status: ('A' for Active; 'I' for Inactive)
ROOT
ATOM      1  C   UNL d   1      -5.999   1.365  -4.855  0.00  0.00     0.077 C 
ATOM      2  C1  UNL d   1      -4.703   0.610  -4.867  0.00  0.00    -0.074 A 
ATOM      3  C2  UNL d   1      -3.882   0.609  -6.000  0.00  0.00    -0.005 A 
ATOM      4  C3  UNL d   1      -2.675  -0.089  -5.993  0.00  0.00     0.006 A 
ATOM      5  C4  UNL d   1      -2.277  -0.793  -4.855  0.00  0.00    -0.005 A 
ATOM      6  C5  UNL d   1      -3.084  -0.803  -3.713  0.00  0.00    -0.074 A 
ATOM      7  C6  UNL d   1      -2.666  -1.545  -2.479  0.00  0.00     0.077 C 
ATOM      8  C7  UNL d   1      -4.292  -0.092  -3.726  0.00  0.00    -0.001 A 
ENDROOT
TORSDOF 0
ENDMDL
