MODEL 1
REMARK minimizedAffinity -0.763572574
REMARK minimizedRMSD -1
REMARK  1 active torsions:
REMARK  status: ('A' for Active; 'I' for Inactive)
REMARK    1  A    between atoms: C1_2  and  C2_3 
ROOT
ATOM      1  C2  UNL d   1       2.335  -0.240   0.145  0.00  0.00    -0.073 A 
ATOM      2  C3  UNL d   1       1.550   0.744  -0.467  0.00  0.00    -0.002 A 
ATOM      3  C4  UNL d   1       2.146   1.877  -1.023  0.00  0.00     0.004 A 
ATOM      4  C5  UNL d   1       3.531   2.034  -0.979  0.00  0.00    -0.004 A 
ATOM      5  C6  UNL d   1       4.334   1.056  -0.382  0.00  0.00    -0.075 A 
ATOM      6  C7  UNL d   1       5.825   1.212  -0.325  0.00  0.00     0.076 C 
ATOM      7  C8  UNL d   1       3.727  -0.077   0.176  0.00  0.00     0.001 A 
ENDROOT
BRANCH   1   8
ATOM      8  C1  UNL d   1       1.696  -1.467   0.741  0.00  0.00     0.053 C 
ATOM      9  C   UNL d   1       0.434  -1.872  -0.004  0.00  0.00     0.018 C 
ENDBRANCH   1   8
TORSDOF 1
ENDMDL
