MODEL 1
REMARK minimizedAffinity 7.37137842
REMARK minimizedRMSD -1
REMARK  1 active torsions:
REMARK  status: ('A' for Active; 'I' for Inactive)
REMARK    1  A    between atoms: C1_2  and  C2_3 
ROOT
ATOM      1  C2  UNL d   1      -0.168  -1.878   1.488  0.00  0.00    -0.073 A 
ATOM      2  C3  UNL d   1      -1.284  -2.262   0.736  0.00  0.00    -0.002 A 
ATOM      3  C4  UNL d   1      -1.284  -2.113  -0.652  0.00  0.00     0.004 A 
ATOM      4  C5  UNL d   1      -0.167  -1.586  -1.301  0.00  0.00    -0.004 A 
ATOM      5  C6  UNL d   1       0.962  -1.207  -0.568  0.00  0.00    -0.075 A 
ATOM      6  C7  UNL d   1       2.170  -0.637  -1.251  0.00  0.00     0.076 C 
ATOM      7  C8  UNL d   1       0.953  -1.358   0.826  0.00  0.00     0.001 A 
ENDROOT
BRANCH   1   8
ATOM      8  C1  UNL d   1      -0.161  -2.043   2.986  0.00  0.00     0.053 C 
ATOM      9  C   UNL d   1       0.386  -0.813   3.693  0.00  0.00     0.018 C 
ENDBRANCH   1   8
TORSDOF 1
ENDMDL
