MODEL 1
REMARK minimizedAffinity 3.89811516
REMARK minimizedRMSD -1
REMARK  1 active torsions:
REMARK  status: ('A' for Active; 'I' for Inactive)
REMARK    1  A    between atoms: C1_2  and  C2_3 
ROOT
ATOM      1  C2  UNL d   1       2.523  -0.269  -0.836  0.00  0.00    -0.073 A 
ATOM      2  C3  UNL d   1       1.821   0.735  -0.158  0.00  0.00    -0.002 A 
ATOM      3  C4  UNL d   1       2.220   2.068  -0.264  0.00  0.00     0.004 A 
ATOM      4  C5  UNL d   1       3.317   2.412  -1.053  0.00  0.00    -0.004 A 
ATOM      5  C6  UNL d   1       4.024   1.424  -1.748  0.00  0.00    -0.075 A 
ATOM      6  C7  UNL d   1       5.208   1.777  -2.599  0.00  0.00     0.076 C 
ATOM      7  C8  UNL d   1       3.619   0.087  -1.634  0.00  0.00     0.001 A 
ENDROOT
BRANCH   1   8
ATOM      8  C1  UNL d   1       2.092  -1.709  -0.729  0.00  0.00     0.053 C 
ATOM      9  C   UNL d   1       0.829  -1.866   0.103  0.00  0.00     0.018 C 
ENDBRANCH   1   8
TORSDOF 1
ENDMDL
