MODEL 1
REMARK minimizedAffinity 0.952836454
REMARK minimizedRMSD -1
REMARK  0 active torsions:
REMARK  status: ('A' for Active; 'I' for Inactive)
ROOT
ATOM      1  O1  BZF d   1       5.994   3.885  -2.050  0.00  0.00    -0.204 OA
ATOM      2  C2  BZF d   1       5.664   5.090  -1.461  0.00  0.00     0.174 A 
ATOM      3  C3  BZF d   1       5.305   5.996  -2.393  0.00  0.00    -0.012 A 
ATOM      4  C3A BZF d   1       5.329   5.287  -3.636  0.00  0.00    -0.107 A 
ATOM      5  C4  BZF d   1       5.052   5.643  -4.925  0.00  0.00     0.055 A 
ATOM      6  C5  BZF d   1       5.244   4.734  -5.916  0.00  0.00    -0.016 A 
ATOM      7  C6  BZF d   1       5.716   3.464  -5.656  0.00  0.00     0.022 A 
ATOM      8  C7  BZF d   1       6.000   3.063  -4.393  0.00  0.00     0.029 A 
ATOM      9  C7A BZF d   1       5.775   3.969  -3.385  0.00  0.00     0.058 A 
ENDROOT
TORSDOF 0
ENDMDL
