MODEL 1
REMARK minimizedAffinity -0.589993179
REMARK minimizedRMSD -1
REMARK  0 active torsions:
REMARK  status: ('A' for Active; 'I' for Inactive)
ROOT
ATOM      1  O1  BZF d   1       5.999   4.162  -2.088  0.00  0.00    -0.204 OA
ATOM      2  C2  BZF d   1       5.402   5.096  -1.264  0.00  0.00     0.174 A 
ATOM      3  C3  BZF d   1       4.697   5.991  -1.986  0.00  0.00    -0.012 A 
ATOM      4  C3A BZF d   1       4.788   5.537  -3.339  0.00  0.00    -0.107 A 
ATOM      5  C4  BZF d   1       4.280   5.999  -4.520  0.00  0.00     0.055 A 
ATOM      6  C5  BZF d   1       4.616   5.367  -5.675  0.00  0.00    -0.016 A 
ATOM      7  C6  BZF d   1       5.459   4.275  -5.687  0.00  0.00     0.022 A 
ATOM      8  C7  BZF d   1       5.983   3.778  -4.540  0.00  0.00     0.029 A 
ATOM      9  C7A BZF d   1       5.620   4.394  -3.368  0.00  0.00     0.058 A 
ENDROOT
TORSDOF 0
ENDMDL
