MODEL 1
REMARK minimizedAffinity 9.05656147
REMARK minimizedRMSD -1
REMARK  0 active torsions:
REMARK  status: ('A' for Active; 'I' for Inactive)
ROOT
ATOM      1  O1  BZF d   1       3.855   5.237  -0.629  0.00  0.00    -0.204 OA
ATOM      2  C2  BZF d   1       5.178   5.136  -0.243  0.00  0.00     0.174 A 
ATOM      3  C3  BZF d   1       5.998   5.275  -1.304  0.00  0.00    -0.012 A 
ATOM      4  C3A BZF d   1       5.138   5.568  -2.409  0.00  0.00    -0.107 A 
ATOM      5  C4  BZF d   1       5.362   5.825  -3.731  0.00  0.00     0.055 A 
ATOM      6  C5  BZF d   1       4.300   6.000  -4.560  0.00  0.00    -0.016 A 
ATOM      7  C6  BZF d   1       3.001   5.918  -4.102  0.00  0.00     0.022 A 
ATOM      8  C7  BZF d   1       2.728   5.670  -2.798  0.00  0.00     0.029 A 
ATOM      9  C7A BZF d   1       3.800   5.526  -1.952  0.00  0.00     0.058 A 
ENDROOT
TORSDOF 0
ENDMDL
