MODEL 1
REMARK minimizedAffinity 8.5565052
REMARK minimizedRMSD -1
REMARK  0 active torsions:
REMARK  status: ('A' for Active; 'I' for Inactive)
ROOT
ATOM      1  O1  BZF d   1       5.976   4.986  -2.919  0.00  0.00    -0.204 OA
ATOM      2  C2  BZF d   1       5.999   4.470  -1.638  0.00  0.00     0.174 A 
ATOM      3  C3  BZF d   1       4.761   4.464  -1.103  0.00  0.00    -0.012 A 
ATOM      4  C3A BZF d   1       3.897   4.925  -2.147  0.00  0.00    -0.107 A 
ATOM      5  C4  BZF d   1       2.549   5.121  -2.231  0.00  0.00     0.055 A 
ATOM      6  C5  BZF d   1       2.028   5.651  -3.370  0.00  0.00    -0.016 A 
ATOM      7  C6  BZF d   1       2.827   5.999  -4.439  0.00  0.00     0.022 A 
ATOM      8  C7  BZF d   1       4.170   5.818  -4.404  0.00  0.00     0.029 A 
ATOM      9  C7A BZF d   1       4.694   5.253  -3.268  0.00  0.00     0.058 A 
ENDROOT
TORSDOF 0
ENDMDL
