MODEL 1
REMARK minimizedAffinity -2.00946355
REMARK minimizedRMSD -1
REMARK  0 active torsions:
REMARK  status: ('A' for Active; 'I' for Inactive)
ROOT
ATOM      1  O1  BZF d   1       5.328   5.930  -1.616  0.00  0.00    -0.204 OA
ATOM      2  C2  BZF d   1       4.109   5.928  -0.966  0.00  0.00     0.174 A 
ATOM      3  C3  BZF d   1       3.094   5.998  -1.852  0.00  0.00    -0.012 A 
ATOM      4  C3A BZF d   1       3.715   5.955  -3.140  0.00  0.00    -0.107 A 
ATOM      5  C4  BZF d   1       3.231   5.975  -4.417  0.00  0.00     0.055 A 
ATOM      6  C5  BZF d   1       4.108   5.993  -5.455  0.00  0.00    -0.016 A 
ATOM      7  C6  BZF d   1       5.472   5.999  -5.254  0.00  0.00     0.022 A 
ATOM      8  C7  BZF d   1       6.000   5.975  -4.005  0.00  0.00     0.029 A 
ATOM      9  C7A BZF d   1       5.117   5.923  -2.954  0.00  0.00     0.058 A 
ENDROOT
TORSDOF 0
ENDMDL
