MODEL 1
REMARK minimizedAffinity 10.4593925
REMARK minimizedRMSD -1
REMARK  0 active torsions:
REMARK  status: ('A' for Active; 'I' for Inactive)
ROOT
ATOM      1  O1  BZF d   1       2.969  -1.495  -2.062  0.00  0.00    -0.204 OA
ATOM      2  C2  BZF d   1       3.984  -1.838  -2.934  0.00  0.00     0.174 A 
ATOM      3  C3  BZF d   1       3.493  -2.494  -4.005  0.00  0.00    -0.012 A 
ATOM      4  C3A BZF d   1       2.072  -2.484  -3.834  0.00  0.00    -0.107 A 
ATOM      5  C4  BZF d   1       1.034  -2.967  -4.577  0.00  0.00     0.055 A 
ATOM      6  C5  BZF d   1      -0.232  -2.858  -4.093  0.00  0.00    -0.016 A 
ATOM      7  C6  BZF d   1      -0.494  -2.278  -2.870  0.00  0.00     0.022 A 
ATOM      8  C7  BZF d   1       0.504  -1.780  -2.099  0.00  0.00     0.029 A 
ATOM      9  C7A BZF d   1       1.780  -1.859  -2.600  0.00  0.00     0.058 A 
ENDROOT
TORSDOF 0
ENDMDL
