MODEL 1
REMARK minimizedAffinity -2.83506894
REMARK minimizedRMSD -1
REMARK  0 active torsions:
REMARK  status: ('A' for Active; 'I' for Inactive)
ROOT
ATOM      1  O1  BZF d   1       4.919   2.285  -4.204  0.00  0.00    -0.204 OA
ATOM      2  C2  BZF d   1       5.899   2.059  -5.151  0.00  0.00     0.174 A 
ATOM      3  C3  BZF d   1       5.995   3.104  -5.999  0.00  0.00    -0.012 A 
ATOM      4  C3A BZF d   1       5.078   4.081  -5.498  0.00  0.00    -0.107 A 
ATOM      5  C4  BZF d   1       4.734   5.339  -5.901  0.00  0.00     0.055 A 
ATOM      6  C5  BZF d   1       3.750   6.000  -5.236  0.00  0.00    -0.016 A 
ATOM      7  C6  BZF d   1       3.087   5.431  -4.168  0.00  0.00     0.022 A 
ATOM      8  C7  BZF d   1       3.397   4.187  -3.728  0.00  0.00     0.029 A 
ATOM      9  C7A BZF d   1       4.414   3.530  -4.377  0.00  0.00     0.058 A 
ENDROOT
TORSDOF 0
ENDMDL
