MODEL 1
REMARK minimizedAffinity 5.633286
REMARK minimizedRMSD -1
REMARK  0 active torsions:
REMARK  status: ('A' for Active; 'I' for Inactive)
ROOT
ATOM      1  O1  BZF d   1       6.000   5.841  -2.582  0.00  0.00    -0.204 OA
ATOM      2  C2  BZF d   1       5.999   5.045  -1.452  0.00  0.00     0.174 A 
ATOM      3  C3  BZF d   1       4.937   4.215  -1.452  0.00  0.00    -0.012 A 
ATOM      4  C3A BZF d   1       4.279   4.445  -2.701  0.00  0.00    -0.107 A 
ATOM      5  C4  BZF d   1       3.170   3.909  -3.291  0.00  0.00     0.055 A 
ATOM      6  C5  BZF d   1       2.752   4.406  -4.485  0.00  0.00    -0.016 A 
ATOM      7  C6  BZF d   1       3.415   5.439  -5.114  0.00  0.00     0.022 A 
ATOM      8  C7  BZF d   1       4.523   5.999  -4.570  0.00  0.00     0.029 A 
ATOM      9  C7A BZF d   1       4.967   5.478  -3.380  0.00  0.00     0.058 A 
ENDROOT
TORSDOF 0
ENDMDL
