MODEL 1
REMARK minimizedAffinity -4.09102011
REMARK minimizedRMSD -1
REMARK  0 active torsions:
REMARK  status: ('A' for Active; 'I' for Inactive)
ROOT
ATOM      1  O1  BZF d   1       3.758   3.403  -5.295  0.00  0.00    -0.204 OA
ATOM      2  C2  BZF d   1       4.941   3.071  -5.928  0.00  0.00     0.174 A 
ATOM      3  C3  BZF d   1       6.000   3.554  -5.246  0.00  0.00    -0.012 A 
ATOM      4  C3A BZF d   1       5.449   4.150  -4.068  0.00  0.00    -0.107 A 
ATOM      5  C4  BZF d   1       6.000   4.784  -2.991  0.00  0.00     0.055 A 
ATOM      6  C5  BZF d   1       5.180   5.315  -2.047  0.00  0.00    -0.016 A 
ATOM      7  C6  BZF d   1       3.806   5.236  -2.150  0.00  0.00     0.022 A 
ATOM      8  C7  BZF d   1       3.214   4.613  -3.198  0.00  0.00     0.029 A 
ATOM      9  C7A BZF d   1       4.040   4.046  -4.137  0.00  0.00     0.058 A 
ENDROOT
TORSDOF 0
ENDMDL
