MODEL 1
REMARK minimizedAffinity 4.8571291
REMARK minimizedRMSD -1
REMARK  0 active torsions:
REMARK  status: ('A' for Active; 'I' for Inactive)
ROOT
ATOM      1  O1  BZF d   1       5.890   2.035  -3.836  0.00  0.00    -0.204 OA
ATOM      2  C2  BZF d   1       5.987   2.028  -5.215  0.00  0.00     0.174 A 
ATOM      3  C3  BZF d   1       5.987   3.287  -5.700  0.00  0.00    -0.012 A 
ATOM      4  C3A BZF d   1       5.978   4.135  -4.548  0.00  0.00    -0.107 A 
ATOM      5  C4  BZF d   1       5.990   5.490  -4.379  0.00  0.00     0.055 A 
ATOM      6  C5  BZF d   1       5.901   6.000  -3.122  0.00  0.00    -0.016 A 
ATOM      7  C6  BZF d   1       5.795   5.185  -2.014  0.00  0.00     0.022 A 
ATOM      8  C7  BZF d   1       5.784   3.835  -2.131  0.00  0.00     0.029 A 
ATOM      9  C7A BZF d   1       5.907   3.316  -3.397  0.00  0.00     0.058 A 
ENDROOT
TORSDOF 0
ENDMDL
