MODEL 1
REMARK minimizedAffinity -0.453140885
REMARK minimizedRMSD -1
REMARK  0 active torsions:
REMARK  status: ('A' for Active; 'I' for Inactive)
ROOT
ATOM      1  O1  BZF d   1       3.759   4.240  -5.272  0.00  0.00    -0.204 OA
ATOM      2  C2  BZF d   1       4.925   4.086  -5.997  0.00  0.00     0.174 A 
ATOM      3  C3  BZF d   1       5.974   4.614  -5.333  0.00  0.00    -0.012 A 
ATOM      4  C3A BZF d   1       5.444   5.046  -4.076  0.00  0.00    -0.107 A 
ATOM      5  C4  BZF d   1       5.999   5.637  -2.977  0.00  0.00     0.055 A 
ATOM      6  C5  BZF d   1       5.194   5.998  -1.944  0.00  0.00    -0.016 A 
ATOM      7  C6  BZF d   1       3.831   5.789  -1.978  0.00  0.00     0.022 A 
ATOM      8  C7  BZF d   1       3.235   5.202  -3.045  0.00  0.00     0.029 A 
ATOM      9  C7A BZF d   1       4.051   4.806  -4.077  0.00  0.00     0.058 A 
ENDROOT
TORSDOF 0
ENDMDL
