MODEL 1
REMARK minimizedAffinity 2.46234107
REMARK minimizedRMSD -1
REMARK  0 active torsions:
REMARK  status: ('A' for Active; 'I' for Inactive)
ROOT
ATOM      1  O1  BZF d   1       4.302   5.451  -1.999  0.00  0.00    -0.204 OA
ATOM      2  C2  BZF d   1       5.538   4.852  -1.850  0.00  0.00     0.174 A 
ATOM      3  C3  BZF d   1       5.999   4.404  -3.036  0.00  0.00    -0.012 A 
ATOM      4  C3A BZF d   1       5.030   4.827  -4.000  0.00  0.00    -0.107 A 
ATOM      5  C4  BZF d   1       4.937   4.696  -5.356  0.00  0.00     0.055 A 
ATOM      6  C5  BZF d   1       3.826   5.158  -5.989  0.00  0.00    -0.016 A 
ATOM      7  C6  BZF d   1       2.790   5.751  -5.298  0.00  0.00     0.022 A 
ATOM      8  C7  BZF d   1       2.840   5.907  -3.952  0.00  0.00     0.029 A 
ATOM      9  C7A BZF d   1       3.975   5.471  -3.314  0.00  0.00     0.058 A 
ENDROOT
TORSDOF 0
ENDMDL
