MODEL 1
REMARK minimizedAffinity 6.91846514
REMARK minimizedRMSD -1
REMARK  0 active torsions:
REMARK  status: ('A' for Active; 'I' for Inactive)
ROOT
ATOM      1  O1  BZF d   1       5.448   4.860  -4.559  0.00  0.00    -0.204 OA
ATOM      2  C2  BZF d   1       5.997   4.578  -3.323  0.00  0.00     0.174 A 
ATOM      3  C3  BZF d   1       5.112   4.831  -2.337  0.00  0.00    -0.012 A 
ATOM      4  C3A BZF d   1       3.905   5.212  -3.004  0.00  0.00    -0.107 A 
ATOM      5  C4  BZF d   1       2.662   5.568  -2.565  0.00  0.00     0.055 A 
ATOM      6  C5  BZF d   1       1.726   5.953  -3.472  0.00  0.00    -0.016 A 
ATOM      7  C6  BZF d   1       2.000   6.000  -4.823  0.00  0.00     0.022 A 
ATOM      8  C7  BZF d   1       3.217   5.651  -5.307  0.00  0.00     0.029 A 
ATOM      9  C7A BZF d   1       4.155   5.229  -4.396  0.00  0.00     0.058 A 
ENDROOT
TORSDOF 0
ENDMDL
