MODEL 1
REMARK minimizedAffinity -1.47330093
REMARK minimizedRMSD -1
REMARK  0 active torsions:
REMARK  status: ('A' for Active; 'I' for Inactive)
ROOT
ATOM      1  O1  BZF d   1       3.834   3.591  -5.219  0.00  0.00    -0.204 OA
ATOM      2  C2  BZF d   1       4.975   3.455  -5.986  0.00  0.00     0.174 A 
ATOM      3  C3  BZF d   1       5.984   4.191  -5.478  0.00  0.00    -0.012 A 
ATOM      4  C3A BZF d   1       5.466   4.755  -4.269  0.00  0.00    -0.107 A 
ATOM      5  C4  BZF d   1       5.998   5.568  -3.309  0.00  0.00     0.055 A 
ATOM      6  C5  BZF d   1       5.204   5.996  -2.292  0.00  0.00    -0.016 A 
ATOM      7  C6  BZF d   1       3.876   5.635  -2.207  0.00  0.00     0.022 A 
ATOM      8  C7  BZF d   1       3.305   4.826  -3.132  0.00  0.00     0.029 A 
ATOM      9  C7A BZF d   1       4.113   4.366  -4.143  0.00  0.00     0.058 A 
ENDROOT
TORSDOF 0
ENDMDL
