MODEL 1
REMARK minimizedAffinity 1.93916881
REMARK minimizedRMSD -1
REMARK  0 active torsions:
REMARK  status: ('A' for Active; 'I' for Inactive)
ROOT
ATOM      1  O1  BZF d   1       5.991   1.948  -3.542  0.00  0.00    -0.204 OA
ATOM      2  C2  BZF d   1       5.994   1.703  -4.901  0.00  0.00     0.174 A 
ATOM      3  C3  BZF d   1       5.923   2.858  -5.595  0.00  0.00    -0.012 A 
ATOM      4  C3A BZF d   1       5.966   3.893  -4.608  0.00  0.00    -0.107 A 
ATOM      5  C4  BZF d   1       5.947   5.257  -4.677  0.00  0.00     0.055 A 
ATOM      6  C5  BZF d   1       5.928   5.976  -3.524  0.00  0.00    -0.016 A 
ATOM      7  C6  BZF d   1       5.923   5.365  -2.287  0.00  0.00     0.022 A 
ATOM      8  C7  BZF d   1       5.946   4.015  -2.168  0.00  0.00     0.029 A 
ATOM      9  C7A BZF d   1       5.999   3.286  -3.331  0.00  0.00     0.058 A 
ENDROOT
TORSDOF 0
ENDMDL
