MODEL 1
REMARK minimizedAffinity -4.17076111
REMARK minimizedRMSD -1
REMARK  0 active torsions:
REMARK  status: ('A' for Active; 'I' for Inactive)
ROOT
ATOM      1  O1  BZF d   1       6.000   3.174  -4.103  0.00  0.00    -0.204 OA
ATOM      2  C2  BZF d   1       5.949   3.040  -5.477  0.00  0.00     0.174 A 
ATOM      3  C3  BZF d   1       4.989   3.830  -5.999  0.00  0.00    -0.012 A 
ATOM      4  C3A BZF d   1       4.465   4.568  -4.891  0.00  0.00    -0.107 A 
ATOM      5  C4  BZF d   1       3.498   5.525  -4.774  0.00  0.00     0.055 A 
ATOM      6  C5  BZF d   1       3.175   5.990  -3.538  0.00  0.00    -0.016 A 
ATOM      7  C6  BZF d   1       3.795   5.517  -2.400  0.00  0.00     0.022 A 
ATOM      8  C7  BZF d   1       4.763   4.572  -2.467  0.00  0.00     0.029 A 
ATOM      9  C7A BZF d   1       5.115   4.124  -3.717  0.00  0.00     0.058 A 
ENDROOT
TORSDOF 0
ENDMDL
