MODEL 1
REMARK minimizedAffinity -2.45758414
REMARK minimizedRMSD -1
REMARK  0 active torsions:
REMARK  status: ('A' for Active; 'I' for Inactive)
ROOT
ATOM      1  O1  BZF d   1       5.081   6.000  -2.598  0.00  0.00    -0.204 OA
ATOM      2  C2  BZF d   1       5.600   5.237  -1.569  0.00  0.00     0.174 A 
ATOM      3  C3  BZF d   1       5.991   4.028  -2.021  0.00  0.00    -0.012 A 
ATOM      4  C3A BZF d   1       5.784   4.070  -3.436  0.00  0.00    -0.107 A 
ATOM      5  C4  BZF d   1       5.999   3.173  -4.443  0.00  0.00     0.055 A 
ATOM      6  C5  BZF d   1       5.620   3.497  -5.708  0.00  0.00    -0.016 A 
ATOM      7  C6  BZF d   1       5.021   4.704  -5.999  0.00  0.00     0.022 A 
ATOM      8  C7  BZF d   1       4.791   5.628  -5.034  0.00  0.00     0.029 A 
ATOM      9  C7A BZF d   1       5.202   5.317  -3.761  0.00  0.00     0.058 A 
ENDROOT
TORSDOF 0
ENDMDL
