MODEL 1
REMARK minimizedAffinity -0.628749371
REMARK minimizedRMSD -1
REMARK  0 active torsions:
REMARK  status: ('A' for Active; 'I' for Inactive)
ROOT
ATOM      1  O1  BZF d   1       4.614   5.998  -2.472  0.00  0.00    -0.204 OA
ATOM      2  C2  BZF d   1       5.397   5.271  -1.596  0.00  0.00     0.174 A 
ATOM      3  C3  BZF d   1       6.000   4.246  -2.232  0.00  0.00    -0.012 A 
ATOM      4  C3A BZF d   1       5.640   4.393  -3.609  0.00  0.00    -0.107 A 
ATOM      5  C4  BZF d   1       5.944   3.689  -4.739  0.00  0.00     0.055 A 
ATOM      6  C5  BZF d   1       5.371   4.051  -5.917  0.00  0.00    -0.016 A 
ATOM      7  C6  BZF d   1       4.487   5.107  -6.000  0.00  0.00     0.022 A 
ATOM      8  C7  BZF d   1       4.160   5.839  -4.907  0.00  0.00     0.029 A 
ATOM      9  C7A BZF d   1       4.762   5.495  -3.721  0.00  0.00     0.058 A 
ENDROOT
TORSDOF 0
ENDMDL
