MODEL 1
REMARK minimizedAffinity -5.19632292
REMARK minimizedRMSD -1
REMARK  1 active torsions:
REMARK  status: ('A' for Active; 'I' for Inactive)
REMARK    1  A    between atoms: C1_2  and  C2_3 
ROOT
ATOM      1  C2  UNL d   1      -0.091  -0.014   0.084  0.00  0.00    -0.077 A 
ATOM      2  C3  UNL d   1      -0.863   0.981  -0.532  0.00  0.00     0.002 A 
ATOM      3  C4  UNL d   1      -1.429   2.007   0.227  0.00  0.00     0.002 A 
ATOM      4  C5  UNL d   1      -1.225   2.051   1.605  0.00  0.00    -0.004 A 
ATOM      5  C6  UNL d   1      -0.460   1.065   2.227  0.00  0.00     0.002 A 
ATOM      6  C7  UNL d   1       0.106   0.038   1.470  0.00  0.00     0.002 A 
ENDROOT
BRANCH   1   7
ATOM      7  C1  UNL d   1       0.561  -1.093  -0.740  0.00  0.00     0.055 C 
ATOM      8  C   UNL d   1      -0.310  -2.339  -0.808  0.00  0.00     0.019 C 
ENDBRANCH   1   7
TORSDOF 1
ENDMDL
