MODEL 1
REMARK minimizedAffinity -4.89444828
REMARK minimizedRMSD -1
REMARK  1 active torsions:
REMARK  status: ('A' for Active; 'I' for Inactive)
REMARK    1  A    between atoms: C1_2  and  C2_3 
ROOT
ATOM      1  C2  UNL d   1      -0.423   0.904  -0.275  0.00  0.00    -0.077 A 
ATOM      2  C3  UNL d   1      -0.934   1.990   0.450  0.00  0.00     0.002 A 
ATOM      3  C4  UNL d   1      -0.585   2.171   1.790  0.00  0.00     0.002 A 
ATOM      4  C5  UNL d   1       0.280   1.275   2.414  0.00  0.00    -0.004 A 
ATOM      5  C6  UNL d   1       0.792   0.191   1.702  0.00  0.00     0.002 A 
ATOM      6  C7  UNL d   1       0.443   0.007   0.363  0.00  0.00     0.002 A 
ENDROOT
BRANCH   1   7
ATOM      7  C1  UNL d   1      -0.759   0.734  -1.734  0.00  0.00     0.055 C 
ATOM      8  C   UNL d   1      -1.043   2.074  -2.396  0.00  0.00     0.019 C 
ENDBRANCH   1   7
TORSDOF 1
ENDMDL
