MODEL 1
REMARK minimizedAffinity -3.1383543
REMARK minimizedRMSD -1
REMARK  1 active torsions:
REMARK  status: ('A' for Active; 'I' for Inactive)
REMARK    1  A    between atoms: C1_2  and  C2_3 
ROOT
ATOM      1  C2  UNL d   1       0.038  -0.636  -0.293  0.00  0.00    -0.077 A 
ATOM      2  C3  UNL d   1       0.126  -0.505   1.100  0.00  0.00     0.002 A 
ATOM      3  C4  UNL d   1      -0.425   0.607   1.741  0.00  0.00     0.002 A 
ATOM      4  C5  UNL d   1      -1.070   1.593   0.998  0.00  0.00    -0.004 A 
ATOM      5  C6  UNL d   1      -1.160   1.473  -0.388  0.00  0.00     0.002 A 
ATOM      6  C7  UNL d   1      -0.610   0.363  -1.030  0.00  0.00     0.002 A 
ENDROOT
BRANCH   1   7
ATOM      7  C1  UNL d   1       0.588  -1.858  -0.981  0.00  0.00     0.055 C 
ATOM      8  C   UNL d   1      -0.478  -2.932  -1.137  0.00  0.00     0.019 C 
ENDBRANCH   1   7
TORSDOF 1
ENDMDL
