MODEL 1
REMARK minimizedAffinity 0.546135724
REMARK minimizedRMSD -1
REMARK  1 active torsions:
REMARK  status: ('A' for Active; 'I' for Inactive)
REMARK    1  A    between atoms: C1_2  and  C2_3 
ROOT
ATOM      1  C2  UNL d   1       1.138  -0.311   0.731  0.00  0.00    -0.077 A 
ATOM      2  C3  UNL d   1       0.570  -0.912   1.863  0.00  0.00     0.002 A 
ATOM      3  C4  UNL d   1      -0.126  -0.143   2.798  0.00  0.00     0.002 A 
ATOM      4  C5  UNL d   1      -0.265   1.231   2.607  0.00  0.00    -0.004 A 
ATOM      5  C6  UNL d   1       0.297   1.838   1.485  0.00  0.00     0.002 A 
ATOM      6  C7  UNL d   1       0.995   1.071   0.551  0.00  0.00     0.002 A 
ENDROOT
BRANCH   1   7
ATOM      7  C1  UNL d   1       1.847  -1.146  -0.302  0.00  0.00     0.055 C 
ATOM      8  C   UNL d   1       1.151  -2.484  -0.505  0.00  0.00     0.019 C 
ENDBRANCH   1   7
TORSDOF 1
ENDMDL
