MODEL 1
REMARK minimizedAffinity -1.98595226
REMARK minimizedRMSD -1
REMARK  1 active torsions:
REMARK  status: ('A' for Active; 'I' for Inactive)
REMARK    1  A    between atoms: C1_2  and  C2_3 
ROOT
ATOM      1  C2  UNL d   1       0.109  -1.124  -1.046  0.00  0.00    -0.077 A 
ATOM      2  C3  UNL d   1      -0.435  -0.562   0.118  0.00  0.00     0.002 A 
ATOM      3  C4  UNL d   1      -0.891   0.758   0.119  0.00  0.00     0.002 A 
ATOM      4  C5  UNL d   1      -0.811   1.525  -1.041  0.00  0.00    -0.004 A 
ATOM      5  C6  UNL d   1      -0.271   0.976  -2.203  0.00  0.00     0.002 A 
ATOM      6  C7  UNL d   1       0.187  -0.342  -2.206  0.00  0.00     0.002 A 
ENDROOT
BRANCH   1   7
ATOM      7  C1  UNL d   1       0.556  -2.562  -1.063  0.00  0.00     0.055 C 
ATOM      8  C   UNL d   1      -0.279  -3.390  -2.029  0.00  0.00     0.019 C 
ENDBRANCH   1   7
TORSDOF 1
ENDMDL
