MODEL 1
REMARK minimizedAffinity 13.861908
REMARK minimizedRMSD -1
REMARK  0 active torsions:
REMARK  status: ('A' for Active; 'I' for Inactive)
ROOT
ATOM      1  C   UNL d   1       2.039  -2.827   4.941  0.00  0.00     0.078 C 
ATOM      2  C1  UNL d   1       3.346  -3.468   5.300  0.00  0.00    -0.077 A 
ATOM      3  C2  UNL d   1       3.417  -4.828   5.627  0.00  0.00    -0.001 A 
ATOM      4  C3  UNL d   1       4.639  -5.409   5.970  0.00  0.00     0.003 A 
ATOM      5  C4  UNL d   1       5.799  -4.638   5.990  0.00  0.00    -0.005 A 
ATOM      6  C5  UNL d   1       5.738  -3.283   5.668  0.00  0.00     0.003 A 
ATOM      7  C6  UNL d   1       4.517  -2.700   5.325  0.00  0.00    -0.001 A 
ENDROOT
TORSDOF 0
ENDMDL
