MODEL 1
REMARK minimizedAffinity 6.45344162
REMARK minimizedRMSD -1
REMARK  0 active torsions:
REMARK  status: ('A' for Active; 'I' for Inactive)
ROOT
ATOM      1  C   UNL d   1       4.500  -0.101  -5.997  0.00  0.00     0.078 C 
ATOM      2  C1  UNL d   1       3.185  -0.822  -5.991  0.00  0.00    -0.077 A 
ATOM      3  C2  UNL d   1       3.129  -2.221  -5.993  0.00  0.00    -0.001 A 
ATOM      4  C3  UNL d   1       1.898  -2.879  -5.997  0.00  0.00     0.003 A 
ATOM      5  C4  UNL d   1       0.713  -2.145  -6.000  0.00  0.00    -0.005 A 
ATOM      6  C5  UNL d   1       0.759  -0.753  -6.000  0.00  0.00     0.003 A 
ATOM      7  C6  UNL d   1       1.989  -0.093  -5.996  0.00  0.00    -0.001 A 
ENDROOT
TORSDOF 0
ENDMDL
