MODEL 1
REMARK minimizedAffinity 12.2572994
REMARK minimizedRMSD -1
REMARK  0 active torsions:
REMARK  status: ('A' for Active; 'I' for Inactive)
ROOT
ATOM      1  C   UNL d   1       3.375   0.010  -5.242  0.00  0.00     0.078 C 
ATOM      2  C1  UNL d   1       1.941  -0.373  -5.029  0.00  0.00    -0.077 A 
ATOM      3  C2  UNL d   1       1.261  -0.001  -3.864  0.00  0.00    -0.001 A 
ATOM      4  C3  UNL d   1      -0.071  -0.372  -3.675  0.00  0.00     0.003 A 
ATOM      5  C4  UNL d   1      -0.734  -1.119  -4.647  0.00  0.00    -0.005 A 
ATOM      6  C5  UNL d   1      -0.065  -1.496  -5.809  0.00  0.00     0.003 A 
ATOM      7  C6  UNL d   1       1.267  -1.125  -6.000  0.00  0.00    -0.001 A 
ENDROOT
TORSDOF 0
ENDMDL
