MODEL 1
REMARK minimizedAffinity 7.0710144
REMARK minimizedRMSD -1
REMARK  0 active torsions:
REMARK  status: ('A' for Active; 'I' for Inactive)
ROOT
ATOM      1  C   UNL d   1       3.187   0.895   3.878  0.00  0.00     0.078 C 
ATOM      2  C1  UNL d   1       1.822   0.347   3.585  0.00  0.00    -0.077 A 
ATOM      3  C2  UNL d   1       0.763   1.195   3.239  0.00  0.00    -0.001 A 
ATOM      4  C3  UNL d   1      -0.504   0.672   2.978  0.00  0.00     0.003 A 
ATOM      5  C4  UNL d   1      -0.725  -0.701   3.062  0.00  0.00    -0.005 A 
ATOM      6  C5  UNL d   1       0.322  -1.553   3.408  0.00  0.00     0.003 A 
ATOM      7  C6  UNL d   1       1.590  -1.032   3.669  0.00  0.00    -0.001 A 
ENDROOT
TORSDOF 0
ENDMDL
