MODEL 1
REMARK minimizedAffinity 7.01354933
REMARK minimizedRMSD -1
REMARK  0 active torsions:
REMARK  status: ('A' for Active; 'I' for Inactive)
ROOT
ATOM      1  C   UNL d   1       3.122   3.006   1.410  0.00  0.00     0.078 C 
ATOM      2  C1  UNL d   1       4.118   3.657   2.322  0.00  0.00    -0.077 A 
ATOM      3  C2  UNL d   1       4.501   4.992   2.138  0.00  0.00    -0.001 A 
ATOM      4  C3  UNL d   1       5.436   5.582   2.989  0.00  0.00     0.003 A 
ATOM      5  C4  UNL d   1       5.998   4.845   4.030  0.00  0.00    -0.005 A 
ATOM      6  C5  UNL d   1       5.625   3.516   4.220  0.00  0.00     0.003 A 
ATOM      7  C6  UNL d   1       4.690   2.924   3.369  0.00  0.00    -0.001 A 
ENDROOT
TORSDOF 0
ENDMDL
