MODEL 1
REMARK minimizedAffinity 10.1416693
REMARK minimizedRMSD -1
REMARK  0 active torsions:
REMARK  status: ('A' for Active; 'I' for Inactive)
ROOT
ATOM      1  C   UNL d   1      -1.959  -0.341   2.429  0.00  0.00     0.078 C 
ATOM      2  C1  UNL d   1      -0.510  -0.431   2.806  0.00  0.00    -0.077 A 
ATOM      3  C2  UNL d   1       0.434   0.444   2.253  0.00  0.00    -0.001 A 
ATOM      4  C3  UNL d   1       1.781   0.342   2.605  0.00  0.00     0.003 A 
ATOM      5  C4  UNL d   1       2.196  -0.633   3.510  0.00  0.00    -0.005 A 
ATOM      6  C5  UNL d   1       1.264  -1.509   4.063  0.00  0.00     0.003 A 
ATOM      7  C6  UNL d   1      -0.083  -1.409   3.712  0.00  0.00    -0.001 A 
ENDROOT
TORSDOF 0
ENDMDL
