MODEL 1
REMARK minimizedAffinity 0.15637067
REMARK minimizedRMSD -1
REMARK  0 active torsions:
REMARK  status: ('A' for Active; 'I' for Inactive)
ROOT
ATOM      1  C   UNL d   1       2.316  -1.928   4.493  0.00  0.00     0.078 C 
ATOM      2  C1  UNL d   1       1.698  -0.743   3.812  0.00  0.00    -0.077 A 
ATOM      3  C2  UNL d   1       2.467   0.378   3.477  0.00  0.00    -0.001 A 
ATOM      4  C3  UNL d   1       1.877   1.478   2.853  0.00  0.00     0.003 A 
ATOM      5  C4  UNL d   1       0.515   1.468   2.558  0.00  0.00    -0.005 A 
ATOM      6  C5  UNL d   1      -0.259   0.357   2.889  0.00  0.00     0.003 A 
ATOM      7  C6  UNL d   1       0.330  -0.744   3.514  0.00  0.00    -0.001 A 
ENDROOT
TORSDOF 0
ENDMDL
