MODEL 1
REMARK minimizedAffinity 8.06612873
REMARK minimizedRMSD -1
REMARK  0 active torsions:
REMARK  status: ('A' for Active; 'I' for Inactive)
ROOT
ATOM      1  C   UNL d   1       5.900   0.651   4.170  0.00  0.00     0.078 C 
ATOM      2  C1  UNL d   1       5.238   1.921   3.726  0.00  0.00    -0.077 A 
ATOM      3  C2  UNL d   1       4.907   2.130   2.382  0.00  0.00    -0.001 A 
ATOM      4  C3  UNL d   1       4.301   3.322   1.981  0.00  0.00     0.003 A 
ATOM      5  C4  UNL d   1       4.021   4.314   2.918  0.00  0.00    -0.005 A 
ATOM      6  C5  UNL d   1       4.349   4.116   4.258  0.00  0.00     0.003 A 
ATOM      7  C6  UNL d   1       4.956   2.925   4.661  0.00  0.00    -0.001 A 
ENDROOT
TORSDOF 0
ENDMDL
