MODEL 1
REMARK minimizedAffinity -1.24075222
REMARK minimizedRMSD -1
REMARK  0 active torsions:
REMARK  status: ('A' for Active; 'I' for Inactive)
ROOT
ATOM      1  C   UNL d   1      -4.869   3.975   0.028  0.00  0.00     0.023 A 
ATOM      2  C1  UNL d   1      -5.188   2.857   0.799  0.00  0.00     0.003 A 
ATOM      3  C2  UNL d   1      -5.512   3.007   2.149  0.00  0.00     0.048 A 
ATOM      4  C3  UNL d   1      -5.517   4.279   2.721  0.00  0.00     0.023 A 
ATOM      5  C4  UNL d   1      -5.200   5.401   1.953  0.00  0.00     0.048 A 
ATOM      6  C5  UNL d   1      -4.875   5.245   0.605  0.00  0.00     0.003 A 
ATOM      7  I   UNL d   1      -6.000   4.505   4.730  0.00  0.00    -0.146 I 
ENDROOT
TORSDOF 0
ENDMDL
