MODEL 1
REMARK minimizedAffinity -0.57598573
REMARK minimizedRMSD -1
REMARK  0 active torsions:
REMARK  status: ('A' for Active; 'I' for Inactive)
ROOT
ATOM      1  C   UNL d   1      -5.517   4.809   0.364  0.00  0.00     0.023 A 
ATOM      2  C1  UNL d   1      -5.867   3.637   1.035  0.00  0.00     0.003 A 
ATOM      3  C2  UNL d   1      -6.000   3.640   2.425  0.00  0.00     0.048 A 
ATOM      4  C3  UNL d   1      -5.783   4.818   3.138  0.00  0.00     0.023 A 
ATOM      5  C4  UNL d   1      -5.433   5.994   2.471  0.00  0.00     0.048 A 
ATOM      6  C5  UNL d   1      -5.301   5.986   1.081  0.00  0.00     0.003 A 
ATOM      7  I   UNL d   1      -5.980   4.825   5.207  0.00  0.00    -0.146 I 
ENDROOT
TORSDOF 0
ENDMDL
