MODEL 1
REMARK minimizedAffinity -2.52206659
REMARK minimizedRMSD -1
REMARK  0 active torsions:
REMARK  status: ('A' for Active; 'I' for Inactive)
ROOT
ATOM      1  C   UNL d   1      -4.882   4.776   5.948  0.00  0.00     0.023 A 
ATOM      2  C1  UNL d   1      -4.327   3.866   5.048  0.00  0.00     0.003 A 
ATOM      3  C2  UNL d   1      -4.541   4.020   3.677  0.00  0.00     0.048 A 
ATOM      4  C3  UNL d   1      -5.310   5.086   3.212  0.00  0.00     0.023 A 
ATOM      5  C4  UNL d   1      -5.867   6.000   4.109  0.00  0.00     0.048 A 
ATOM      6  C5  UNL d   1      -5.651   5.841   5.479  0.00  0.00     0.003 A 
ATOM      7  I   UNL d   1      -5.630   5.317   1.172  0.00  0.00    -0.146 I 
ENDROOT
TORSDOF 0
ENDMDL
