MODEL 1
REMARK minimizedAffinity -1.86427653
REMARK minimizedRMSD -1
REMARK  0 active torsions:
REMARK  status: ('A' for Active; 'I' for Inactive)
ROOT
ATOM      1  C   UNL d   1      -5.994   5.129   1.605  0.00  0.00     0.023 A 
ATOM      2  C1  UNL d   1      -5.674   5.994   2.652  0.00  0.00     0.003 A 
ATOM      3  C2  UNL d   1      -5.360   5.480   3.912  0.00  0.00     0.048 A 
ATOM      4  C3  UNL d   1      -5.366   4.101   4.118  0.00  0.00     0.023 A 
ATOM      5  C4  UNL d   1      -5.685   3.232   3.073  0.00  0.00     0.048 A 
ATOM      6  C5  UNL d   1      -6.000   3.750   1.815  0.00  0.00     0.003 A 
ATOM      7  I   UNL d   1      -4.899   3.335   5.992  0.00  0.00    -0.146 I 
ENDROOT
TORSDOF 0
ENDMDL
