MODEL 1
REMARK minimizedAffinity -0.800540209
REMARK minimizedRMSD -1
REMARK  0 active torsions:
REMARK  status: ('A' for Active; 'I' for Inactive)
ROOT
ATOM      1  C   UNL d   1      -5.749   4.840   1.134  0.00  0.00     0.023 A 
ATOM      2  C1  UNL d   1      -5.647   6.000   1.904  0.00  0.00     0.003 A 
ATOM      3  C2  UNL d   1      -5.719   5.923   3.296  0.00  0.00     0.048 A 
ATOM      4  C3  UNL d   1      -5.891   4.685   3.913  0.00  0.00     0.023 A 
ATOM      5  C4  UNL d   1      -5.993   3.522   3.147  0.00  0.00     0.048 A 
ATOM      6  C5  UNL d   1      -5.922   3.603   1.755  0.00  0.00     0.003 A 
ATOM      7  I   UNL d   1      -5.998   4.569   5.985  0.00  0.00    -0.146 I 
ENDROOT
TORSDOF 0
ENDMDL
