MODEL 1
REMARK minimizedAffinity -2.49332905
REMARK minimizedRMSD -1
REMARK  0 active torsions:
REMARK  status: ('A' for Active; 'I' for Inactive)
ROOT
ATOM      1  C   UNL d   1      -5.250   5.429   1.532  0.00  0.00     0.023 A 
ATOM      2  C1  UNL d   1      -5.997   5.996   2.565  0.00  0.00     0.003 A 
ATOM      3  C2  UNL d   1      -6.000   5.407   3.831  0.00  0.00     0.048 A 
ATOM      4  C3  UNL d   1      -5.252   4.252   4.058  0.00  0.00     0.023 A 
ATOM      5  C4  UNL d   1      -4.502   3.682   3.028  0.00  0.00     0.048 A 
ATOM      6  C5  UNL d   1      -4.503   4.274   1.764  0.00  0.00     0.003 A 
ATOM      7  I   UNL d   1      -5.254   3.375   5.942  0.00  0.00    -0.146 I 
ENDROOT
TORSDOF 0
ENDMDL
