MODEL 1
REMARK minimizedAffinity 9.06221867
REMARK minimizedRMSD -1
REMARK  0 active torsions:
REMARK  status: ('A' for Active; 'I' for Inactive)
ROOT
ATOM      1  C   UNL d   1       4.246   2.900  -2.257  0.00  0.00     0.023 A 
ATOM      2  C1  UNL d   1       4.464   4.022  -1.456  0.00  0.00     0.003 A 
ATOM      3  C2  UNL d   1       3.959   4.061  -0.155  0.00  0.00     0.048 A 
ATOM      4  C3  UNL d   1       3.238   2.975   0.340  0.00  0.00     0.023 A 
ATOM      5  C4  UNL d   1       3.019   1.850  -0.457  0.00  0.00     0.048 A 
ATOM      6  C5  UNL d   1       3.525   1.816  -1.758  0.00  0.00     0.003 A 
ATOM      7  I   UNL d   1       2.486   3.031   2.277  0.00  0.00    -0.146 I 
ENDROOT
TORSDOF 0
ENDMDL
