MODEL 1
REMARK minimizedAffinity -3.15224695
REMARK minimizedRMSD -1
REMARK  0 active torsions:
REMARK  status: ('A' for Active; 'I' for Inactive)
ROOT
ATOM      1  C   UNL d   1      -4.668   5.783   2.358  0.00  0.00     0.023 A 
ATOM      2  C1  UNL d   1      -5.621   4.788   2.139  0.00  0.00     0.003 A 
ATOM      3  C2  UNL d   1      -6.000   3.941   3.182  0.00  0.00     0.048 A 
ATOM      4  C3  UNL d   1      -5.424   4.095   4.442  0.00  0.00     0.023 A 
ATOM      5  C4  UNL d   1      -4.471   5.091   4.667  0.00  0.00     0.048 A 
ATOM      6  C5  UNL d   1      -4.095   5.935   3.621  0.00  0.00     0.003 A 
ATOM      7  I   UNL d   1      -5.987   2.836   5.997  0.00  0.00    -0.146 I 
ENDROOT
TORSDOF 0
ENDMDL
