MODEL 1
REMARK minimizedAffinity -2.83241844
REMARK minimizedRMSD -1
REMARK  0 active torsions:
REMARK  status: ('A' for Active; 'I' for Inactive)
ROOT
ATOM      1  C   UNL d   1      -5.231   5.388   1.764  0.00  0.00     0.023 A 
ATOM      2  C1  UNL d   1      -4.817   6.000   2.947  0.00  0.00     0.003 A 
ATOM      3  C2  UNL d   1      -4.941   5.325   4.163  0.00  0.00     0.048 A 
ATOM      4  C3  UNL d   1      -5.477   4.038   4.189  0.00  0.00     0.023 A 
ATOM      5  C4  UNL d   1      -5.891   3.421   3.007  0.00  0.00     0.048 A 
ATOM      6  C5  UNL d   1      -5.767   4.101   1.793  0.00  0.00     0.003 A 
ATOM      7  I   UNL d   1      -5.661   3.031   5.998  0.00  0.00    -0.146 I 
ENDROOT
TORSDOF 0
ENDMDL
