MODEL 1
REMARK minimizedAffinity 0.177124172
REMARK minimizedRMSD -1
REMARK  0 active torsions:
REMARK  status: ('A' for Active; 'I' for Inactive)
ROOT
ATOM      1  C   UNL d   1      -4.117   3.732   4.682  0.00  0.00     0.023 A 
ATOM      2  C1  UNL d   1      -4.835   3.008   3.730  0.00  0.00     0.003 A 
ATOM      3  C2  UNL d   1      -5.375   3.657   2.618  0.00  0.00     0.048 A 
ATOM      4  C3  UNL d   1      -5.193   5.031   2.464  0.00  0.00     0.023 A 
ATOM      5  C4  UNL d   1      -4.475   5.760   3.413  0.00  0.00     0.048 A 
ATOM      6  C5  UNL d   1      -3.938   5.106   4.524  0.00  0.00     0.003 A 
ATOM      7  I   UNL d   1      -5.996   5.999   0.809  0.00  0.00    -0.146 I 
ENDROOT
TORSDOF 0
ENDMDL
