MODEL 1
REMARK minimizedAffinity -2.9347229
REMARK minimizedRMSD -1
REMARK  0 active torsions:
REMARK  status: ('A' for Active; 'I' for Inactive)
ROOT
ATOM      1  C   UNL d   1      -6.000   2.224   4.923  0.00  0.00     0.023 A 
ATOM      2  C1  UNL d   1      -5.612   2.028   3.598  0.00  0.00     0.003 A 
ATOM      3  C2  UNL d   1      -5.181   3.111   2.828  0.00  0.00     0.048 A 
ATOM      4  C3  UNL d   1      -5.139   4.386   3.391  0.00  0.00     0.023 A 
ATOM      5  C4  UNL d   1      -5.525   4.586   4.717  0.00  0.00     0.048 A 
ATOM      6  C5  UNL d   1      -5.956   3.501   5.482  0.00  0.00     0.003 A 
ATOM      7  I   UNL d   1      -4.498   5.999   2.247  0.00  0.00    -0.146 I 
ENDROOT
TORSDOF 0
ENDMDL
