MODEL 1
REMARK minimizedAffinity -2.09807634
REMARK minimizedRMSD -1
REMARK  0 active torsions:
REMARK  status: ('A' for Active; 'I' for Inactive)
ROOT
ATOM      1  C   UNL d   1      -6.000   3.948   5.475  0.00  0.00     0.023 A 
ATOM      2  C1  UNL d   1      -5.925   3.143   4.338  0.00  0.00     0.003 A 
ATOM      3  C2  UNL d   1      -5.800   3.727   3.075  0.00  0.00     0.048 A 
ATOM      4  C3  UNL d   1      -5.750   5.115   2.957  0.00  0.00     0.023 A 
ATOM      5  C4  UNL d   1      -5.824   5.924   4.092  0.00  0.00     0.048 A 
ATOM      6  C5  UNL d   1      -5.949   5.336   5.352  0.00  0.00     0.003 A 
ATOM      7  I   UNL d   1      -5.565   5.986   1.079  0.00  0.00    -0.146 I 
ENDROOT
TORSDOF 0
ENDMDL
