MODEL 1
REMARK minimizedAffinity -3.23018074
REMARK minimizedRMSD -1
REMARK  0 active torsions:
REMARK  status: ('A' for Active; 'I' for Inactive)
ROOT
ATOM      1  C   UNL d   1      -5.281   3.884   5.665  0.00  0.00     0.023 A 
ATOM      2  C1  UNL d   1      -5.045   3.107   4.530  0.00  0.00     0.003 A 
ATOM      3  C2  UNL d   1      -5.192   3.664   3.258  0.00  0.00     0.048 A 
ATOM      4  C3  UNL d   1      -5.575   4.998   3.127  0.00  0.00     0.023 A 
ATOM      5  C4  UNL d   1      -5.811   5.780   4.259  0.00  0.00     0.048 A 
ATOM      6  C5  UNL d   1      -5.664   5.219   5.529  0.00  0.00     0.003 A 
ATOM      7  I   UNL d   1      -5.794   5.829   1.235  0.00  0.00    -0.146 I 
ENDROOT
TORSDOF 0
ENDMDL
