MODEL 1
REMARK minimizedAffinity -3.03543758
REMARK minimizedRMSD -1
REMARK  0 active torsions:
REMARK  status: ('A' for Active; 'I' for Inactive)
ROOT
ATOM      1  C   UNL d   1      -5.068   4.342   5.725  0.00  0.00     0.023 A 
ATOM      2  C1  UNL d   1      -4.476   5.551   5.359  0.00  0.00     0.003 A 
ATOM      3  C2  UNL d   1      -4.558   5.998   4.038  0.00  0.00     0.048 A 
ATOM      4  C3  UNL d   1      -5.234   5.231   3.090  0.00  0.00     0.023 A 
ATOM      5  C4  UNL d   1      -5.828   4.021   3.452  0.00  0.00     0.048 A 
ATOM      6  C5  UNL d   1      -5.743   3.578   4.773  0.00  0.00     0.003 A 
ATOM      7  I   UNL d   1      -5.356   5.894   1.124  0.00  0.00    -0.146 I 
ENDROOT
TORSDOF 0
ENDMDL
