MODEL 1
REMARK minimizedAffinity -2.81244707
REMARK minimizedRMSD -1
REMARK  0 active torsions:
REMARK  status: ('A' for Active; 'I' for Inactive)
ROOT
ATOM      1  C   UNL d   1      -5.660   3.763   1.688  0.00  0.00     0.023 A 
ATOM      2  C1  UNL d   1      -5.661   3.012   2.864  0.00  0.00     0.003 A 
ATOM      3  C2  UNL d   1      -5.748   3.651   4.102  0.00  0.00     0.048 A 
ATOM      4  C3  UNL d   1      -5.835   5.042   4.158  0.00  0.00     0.023 A 
ATOM      5  C4  UNL d   1      -5.837   5.798   2.984  0.00  0.00     0.048 A 
ATOM      6  C5  UNL d   1      -5.748   5.154   1.748  0.00  0.00     0.003 A 
ATOM      7  I   UNL d   1      -5.965   5.996   6.000  0.00  0.00    -0.146 I 
ENDROOT
TORSDOF 0
ENDMDL
