MODEL 1
REMARK minimizedAffinity 2.26405835
REMARK minimizedRMSD -1
REMARK  2 active torsions:
REMARK  status: ('A' for Active; 'I' for Inactive)
REMARK    1  A    between atoms: C1_2  and  C2_3 
REMARK    2  A    between atoms: C2_3  and  C3_4 
ROOT
ATOM      1  C3  UNL d   1      -2.908  -1.570  -0.688  0.00  0.00    -0.075 A 
ATOM      2  C4  UNL d   1      -2.536  -0.392  -1.351  0.00  0.00     0.002 A 
ATOM      3  C5  UNL d   1      -3.459   0.303  -2.134  0.00  0.00     0.002 A 
ATOM      4  C6  UNL d   1      -4.760  -0.176  -2.271  0.00  0.00    -0.004 A 
ATOM      5  C7  UNL d   1      -5.136  -1.355  -1.630  0.00  0.00     0.002 A 
ATOM      6  C8  UNL d   1      -4.216  -2.049  -0.843  0.00  0.00     0.002 A 
ENDROOT
BRANCH   1   7
ATOM      7  C2  UNL d   1      -1.922  -2.310   0.184  0.00  0.00     0.056 C 
BRANCH   7   8
ATOM      8  C1  UNL d   1      -1.453  -3.647  -0.401  0.00  0.00     0.007 C 
ATOM      9  C   UNL d   1      -0.308  -4.276   0.381  0.00  0.00     0.009 C 
ENDBRANCH   7   8
ENDBRANCH   1   7
TORSDOF 2
ENDMDL
