MODEL 1
REMARK minimizedAffinity 0.10995695
REMARK minimizedRMSD -1
REMARK  2 active torsions:
REMARK  status: ('A' for Active; 'I' for Inactive)
REMARK    1  A    between atoms: C1_2  and  C2_3 
REMARK    2  A    between atoms: C2_3  and  C3_4 
ROOT
ATOM      1  C3  UNL d   1      -1.153  -2.913   0.496  0.00  0.00    -0.075 A 
ATOM      2  C4  UNL d   1      -0.072  -2.119   0.906  0.00  0.00     0.002 A 
ATOM      3  C5  UNL d   1       1.240  -2.541   0.687  0.00  0.00     0.002 A 
ATOM      4  C6  UNL d   1       1.487  -3.764   0.066  0.00  0.00    -0.004 A 
ATOM      5  C7  UNL d   1       0.420  -4.568  -0.330  0.00  0.00     0.002 A 
ATOM      6  C8  UNL d   1      -0.893  -4.146  -0.116  0.00  0.00     0.002 A 
ENDROOT
BRANCH   1   7
ATOM      7  C2  UNL d   1      -2.575  -2.448   0.703  0.00  0.00     0.056 C 
BRANCH   7   8
ATOM      8  C1  UNL d   1      -3.350  -2.213  -0.598  0.00  0.00     0.007 C 
ATOM      9  C   UNL d   1      -2.662  -1.234  -1.539  0.00  0.00     0.009 C 
ENDBRANCH   7   8
ENDBRANCH   1   7
TORSDOF 2
ENDMDL
