MODEL 1
REMARK minimizedAffinity 3.9782815
REMARK minimizedRMSD -1
REMARK  2 active torsions:
REMARK  status: ('A' for Active; 'I' for Inactive)
REMARK    1  A    between atoms: C1_2  and  C2_3 
REMARK    2  A    between atoms: C2_3  and  C3_4 
ROOT
ATOM      1  C3  UNL d   1      -2.307  -3.027   0.357  0.00  0.00    -0.075 A 
ATOM      2  C4  UNL d   1      -1.956  -4.282   0.875  0.00  0.00     0.002 A 
ATOM      3  C5  UNL d   1      -0.769  -4.903   0.485  0.00  0.00     0.002 A 
ATOM      4  C6  UNL d   1       0.075  -4.284  -0.435  0.00  0.00    -0.004 A 
ATOM      5  C7  UNL d   1      -0.272  -3.045  -0.969  0.00  0.00     0.002 A 
ATOM      6  C8  UNL d   1      -1.457  -2.419  -0.576  0.00  0.00     0.002 A 
ENDROOT
BRANCH   1   7
ATOM      7  C2  UNL d   1      -3.575  -2.337   0.798  0.00  0.00     0.056 C 
BRANCH   7   8
ATOM      8  C1  UNL d   1      -4.793  -2.651  -0.077  0.00  0.00     0.007 C 
ATOM      9  C   UNL d   1      -6.000  -1.776   0.237  0.00  0.00     0.009 C 
ENDBRANCH   7   8
ENDBRANCH   1   7
TORSDOF 2
ENDMDL
