MODEL 1
REMARK minimizedAffinity 5.08889246
REMARK minimizedRMSD -1
REMARK  2 active torsions:
REMARK  status: ('A' for Active; 'I' for Inactive)
REMARK    1  A    between atoms: C1_2  and  C2_3 
REMARK    2  A    between atoms: C2_3  and  C3_4 
ROOT
ATOM      1  C3  UNL d   1      -2.392  -2.589   0.330  0.00  0.00    -0.075 A 
ATOM      2  C4  UNL d   1      -1.734  -3.532  -0.474  0.00  0.00     0.002 A 
ATOM      3  C5  UNL d   1      -0.792  -4.400   0.079  0.00  0.00     0.002 A 
ATOM      4  C6  UNL d   1      -0.487  -4.329   1.436  0.00  0.00    -0.004 A 
ATOM      5  C7  UNL d   1      -1.122  -3.385   2.241  0.00  0.00     0.002 A 
ATOM      6  C8  UNL d   1      -2.069  -2.519   1.691  0.00  0.00     0.002 A 
ENDROOT
BRANCH   1   7
ATOM      7  C2  UNL d   1      -3.434  -1.667  -0.257  0.00  0.00     0.056 C 
BRANCH   7   8
ATOM      8  C1  UNL d   1      -4.852  -2.248  -0.254  0.00  0.00     0.007 C 
ATOM      9  C   UNL d   1      -5.910  -1.248   0.195  0.00  0.00     0.009 C 
ENDBRANCH   7   8
ENDBRANCH   1   7
TORSDOF 2
ENDMDL
