MODEL 1
REMARK minimizedAffinity 7.09464407
REMARK minimizedRMSD -1
REMARK  2 active torsions:
REMARK  status: ('A' for Active; 'I' for Inactive)
REMARK    1  A    between atoms: C1_2  and  C2_3 
REMARK    2  A    between atoms: C2_3  and  C3_4 
ROOT
ATOM      1  C3  UNL d   1      -2.043  -3.223   0.289  0.00  0.00    -0.075 A 
ATOM      2  C4  UNL d   1      -1.935  -4.463   0.934  0.00  0.00     0.002 A 
ATOM      3  C5  UNL d   1      -0.812  -5.267   0.741  0.00  0.00     0.002 A 
ATOM      4  C6  UNL d   1       0.212  -4.847  -0.105  0.00  0.00    -0.004 A 
ATOM      5  C7  UNL d   1       0.109  -3.624  -0.764  0.00  0.00     0.002 A 
ATOM      6  C8  UNL d   1      -1.013  -2.815  -0.569  0.00  0.00     0.002 A 
ENDROOT
BRANCH   1   7
ATOM      7  C2  UNL d   1      -3.243  -2.335   0.517  0.00  0.00     0.056 C 
BRANCH   7   8
ATOM      8  C1  UNL d   1      -4.397  -2.584  -0.459  0.00  0.00     0.007 C 
ATOM      9  C   UNL d   1      -5.742  -2.762   0.234  0.00  0.00     0.009 C 
ENDBRANCH   7   8
ENDBRANCH   1   7
TORSDOF 2
ENDMDL
