MODEL 1
REMARK minimizedAffinity 5.66029882
REMARK minimizedRMSD -1
REMARK  2 active torsions:
REMARK  status: ('A' for Active; 'I' for Inactive)
REMARK    1  A    between atoms: C1_2  and  C2_3 
REMARK    2  A    between atoms: C2_3  and  C3_4 
ROOT
ATOM      1  C3  UNL d   1       0.297   1.664   0.593  0.00  0.00    -0.075 A 
ATOM      2  C4  UNL d   1       0.332   2.355   1.813  0.00  0.00     0.002 A 
ATOM      3  C5  UNL d   1       0.701   1.699   2.988  0.00  0.00     0.002 A 
ATOM      4  C6  UNL d   1       1.029   0.345   2.960  0.00  0.00    -0.004 A 
ATOM      5  C7  UNL d   1       0.982  -0.354   1.756  0.00  0.00     0.002 A 
ATOM      6  C8  UNL d   1       0.617   0.300   0.578  0.00  0.00     0.002 A 
ENDROOT
BRANCH   1   7
ATOM      7  C2  UNL d   1      -0.073   2.376  -0.687  0.00  0.00     0.056 C 
BRANCH   7   8
ATOM      8  C1  UNL d   1       0.398   3.832  -0.750  0.00  0.00     0.007 C 
ATOM      9  C   UNL d   1      -0.303   4.644  -1.832  0.00  0.00     0.009 C 
ENDBRANCH   7   8
ENDBRANCH   1   7
TORSDOF 2
ENDMDL
