MODEL 1
REMARK minimizedAffinity 5.99639463
REMARK minimizedRMSD -1
REMARK  0 active torsions:
REMARK  status: ('A' for Active; 'I' for Inactive)
ROOT
ATOM      1  C   UNL d   1      -2.645  -5.152  -1.724  0.00  0.00     0.077 C 
ATOM      2  C1  UNL d   1      -3.811  -4.937  -0.805  0.00  0.00    -0.074 A 
ATOM      3  C2  UNL d   1      -4.360  -6.000  -0.080  0.00  0.00    -0.005 A 
ATOM      4  C3  UNL d   1      -5.437  -5.783   0.779  0.00  0.00     0.006 A 
ATOM      5  C4  UNL d   1      -5.976  -4.503   0.921  0.00  0.00    -0.005 A 
ATOM      6  C5  UNL d   1      -5.439  -3.428   0.205  0.00  0.00    -0.074 A 
ATOM      7  C6  UNL d   1      -6.000  -2.045   0.354  0.00  0.00     0.077 C 
ATOM      8  C7  UNL d   1      -4.352  -3.653  -0.650  0.00  0.00    -0.001 A 
ENDROOT
TORSDOF 0
ENDMDL
