MODEL 1
REMARK minimizedAffinity 6.33595085
REMARK minimizedRMSD -1
REMARK  0 active torsions:
REMARK  status: ('A' for Active; 'I' for Inactive)
ROOT
ATOM      1  C   UNL d   1       1.610   1.542   0.707  0.00  0.00     0.077 C 
ATOM      2  C1  UNL d   1       0.242   1.189   1.209  0.00  0.00    -0.074 A 
ATOM      3  C2  UNL d   1      -0.295   1.817   2.337  0.00  0.00    -0.005 A 
ATOM      4  C3  UNL d   1      -1.573   1.486   2.786  0.00  0.00     0.006 A 
ATOM      5  C4  UNL d   1      -2.327   0.524   2.112  0.00  0.00    -0.005 A 
ATOM      6  C5  UNL d   1      -1.807  -0.114   0.981  0.00  0.00    -0.074 A 
ATOM      7  C6  UNL d   1      -2.608  -1.143   0.240  0.00  0.00     0.077 C 
ATOM      8  C7  UNL d   1      -0.525   0.230   0.532  0.00  0.00    -0.001 A 
ENDROOT
TORSDOF 0
ENDMDL
