MODEL 1
REMARK minimizedAffinity 4.14448595
REMARK minimizedRMSD -1
REMARK  0 active torsions:
REMARK  status: ('A' for Active; 'I' for Inactive)
ROOT
ATOM      1  C   UNL d   1       1.997   1.554   1.269  0.00  0.00     0.077 C 
ATOM      2  C1  UNL d   1       0.530   1.244   1.306  0.00  0.00    -0.074 A 
ATOM      3  C2  UNL d   1      -0.277   1.713   2.348  0.00  0.00    -0.005 A 
ATOM      4  C3  UNL d   1      -1.642   1.424   2.363  0.00  0.00     0.006 A 
ATOM      5  C4  UNL d   1      -2.212   0.667   1.340  0.00  0.00    -0.005 A 
ATOM      6  C5  UNL d   1      -1.421   0.191   0.290  0.00  0.00    -0.074 A 
ATOM      7  C6  UNL d   1      -2.019  -0.617  -0.824  0.00  0.00     0.077 C 
ATOM      8  C7  UNL d   1      -0.052   0.490   0.277  0.00  0.00    -0.001 A 
ENDROOT
TORSDOF 0
ENDMDL
