MODEL 1
REMARK minimizedAffinity 2.27270365
REMARK minimizedRMSD -1
REMARK  0 active torsions:
REMARK  status: ('A' for Active; 'I' for Inactive)
ROOT
ATOM      1  C   UNL d   1      -0.646   0.699  -1.436  0.00  0.00     0.077 C 
ATOM      2  C1  UNL d   1      -0.871   0.630   0.045  0.00  0.00    -0.074 A 
ATOM      3  C2  UNL d   1      -0.935  -0.601   0.706  0.00  0.00    -0.005 A 
ATOM      4  C3  UNL d   1      -1.135  -0.649   2.085  0.00  0.00     0.006 A 
ATOM      5  C4  UNL d   1      -1.273   0.531   2.817  0.00  0.00    -0.005 A 
ATOM      6  C5  UNL d   1      -1.211   1.771   2.174  0.00  0.00    -0.074 A 
ATOM      7  C6  UNL d   1      -1.348   3.049   2.947  0.00  0.00     0.077 C 
ATOM      8  C7  UNL d   1      -1.003   1.812   0.788  0.00  0.00    -0.001 A 
ENDROOT
TORSDOF 0
ENDMDL
