MODEL 1
REMARK minimizedAffinity 3.73610425
REMARK minimizedRMSD -1
REMARK  0 active torsions:
REMARK  status: ('A' for Active; 'I' for Inactive)
ROOT
ATOM      1  C   UNL d   1       0.831   3.728   3.486  0.00  0.00     0.077 C 
ATOM      2  C1  UNL d   1      -0.130   2.813   2.788  0.00  0.00    -0.074 A 
ATOM      3  C2  UNL d   1      -1.503   2.879   3.048  0.00  0.00    -0.005 A 
ATOM      4  C3  UNL d   1      -2.386   2.028   2.384  0.00  0.00     0.006 A 
ATOM      5  C4  UNL d   1      -1.907   1.104   1.454  0.00  0.00    -0.005 A 
ATOM      6  C5  UNL d   1      -0.538   1.025   1.180  0.00  0.00    -0.074 A 
ATOM      7  C6  UNL d   1      -0.007   0.044   0.177  0.00  0.00     0.077 C 
ATOM      8  C7  UNL d   1       0.343   1.888   1.847  0.00  0.00    -0.001 A 
ENDROOT
TORSDOF 0
ENDMDL
