MODEL 1
REMARK minimizedAffinity 0.162234575
REMARK minimizedRMSD -1
REMARK  0 active torsions:
REMARK  status: ('A' for Active; 'I' for Inactive)
ROOT
ATOM      1  C   UNL d   1      -0.371  -5.997   4.240  0.00  0.00     0.077 C 
ATOM      2  C1  UNL d   1      -1.436  -5.990   3.183  0.00  0.00    -0.074 A 
ATOM      3  C2  UNL d   1      -1.101  -5.997   1.825  0.00  0.00    -0.005 A 
ATOM      4  C3  UNL d   1      -2.102  -6.000   0.854  0.00  0.00     0.006 A 
ATOM      5  C4  UNL d   1      -3.446  -5.995   1.230  0.00  0.00    -0.005 A 
ATOM      6  C5  UNL d   1      -3.800  -5.988   2.583  0.00  0.00    -0.074 A 
ATOM      7  C6  UNL d   1      -5.239  -5.993   3.005  0.00  0.00     0.077 C 
ATOM      8  C7  UNL d   1      -2.788  -5.993   3.553  0.00  0.00    -0.001 A 
ENDROOT
TORSDOF 0
ENDMDL
