MODEL 1
REMARK minimizedAffinity 6.43880081
REMARK minimizedRMSD -1
REMARK  0 active torsions:
REMARK  status: ('A' for Active; 'I' for Inactive)
ROOT
ATOM      1  C   UNL d   1      -1.009  -3.524   1.851  0.00  0.00     0.077 C 
ATOM      2  C1  UNL d   1      -0.891  -2.034   1.972  0.00  0.00    -0.074 A 
ATOM      3  C2  UNL d   1      -1.452  -1.355   3.059  0.00  0.00    -0.005 A 
ATOM      4  C3  UNL d   1      -1.326   0.030   3.164  0.00  0.00     0.006 A 
ATOM      5  C4  UNL d   1      -0.640   0.750   2.185  0.00  0.00    -0.005 A 
ATOM      6  C5  UNL d   1      -0.072   0.088   1.092  0.00  0.00    -0.074 A 
ATOM      7  C6  UNL d   1       0.678   0.845   0.036  0.00  0.00     0.077 C 
ATOM      8  C7  UNL d   1      -0.196  -1.305   0.997  0.00  0.00    -0.001 A 
ENDROOT
TORSDOF 0
ENDMDL
