MODEL 1
REMARK minimizedAffinity 6.94118214
REMARK minimizedRMSD -1
REMARK  0 active torsions:
REMARK  status: ('A' for Active; 'I' for Inactive)
ROOT
ATOM      1  C   UNL d   1      -1.540  -1.407   2.653  0.00  0.00     0.077 C 
ATOM      2  C1  UNL d   1      -0.650  -0.510   1.844  0.00  0.00    -0.074 A 
ATOM      3  C2  UNL d   1      -0.573   0.860   2.115  0.00  0.00    -0.005 A 
ATOM      4  C3  UNL d   1       0.267   1.680   1.361  0.00  0.00     0.006 A 
ATOM      5  C4  UNL d   1       1.035   1.139   0.329  0.00  0.00    -0.005 A 
ATOM      6  C5  UNL d   1       0.971  -0.228   0.044  0.00  0.00    -0.074 A 
ATOM      7  C6  UNL d   1       1.798  -0.827  -1.055  0.00  0.00     0.077 C 
ATOM      8  C7  UNL d   1       0.131  -1.047   0.811  0.00  0.00    -0.001 A 
ENDROOT
TORSDOF 0
ENDMDL
