MODEL 1
REMARK minimizedAffinity 2.58628178
REMARK minimizedRMSD -1
REMARK  0 active torsions:
REMARK  status: ('A' for Active; 'I' for Inactive)
ROOT
ATOM      1  C   UNL d   1      -1.908  -5.991   1.841  0.00  0.00     0.077 C 
ATOM      2  C1  UNL d   1      -0.507  -6.000   2.376  0.00  0.00    -0.074 A 
ATOM      3  C2  UNL d   1       0.592  -5.998   1.511  0.00  0.00    -0.005 A 
ATOM      4  C3  UNL d   1       1.890  -5.996   2.023  0.00  0.00     0.006 A 
ATOM      5  C4  UNL d   1       2.101  -5.996   3.402  0.00  0.00    -0.005 A 
ATOM      6  C5  UNL d   1       1.014  -5.997   4.282  0.00  0.00    -0.074 A 
ATOM      7  C6  UNL d   1       1.224  -5.988   5.767  0.00  0.00     0.077 C 
ATOM      8  C7  UNL d   1      -0.286  -5.992   3.760  0.00  0.00    -0.001 A 
ENDROOT
TORSDOF 0
ENDMDL
