MODEL 1
REMARK minimizedAffinity 10.5829201
REMARK minimizedRMSD -1
REMARK  0 active torsions:
REMARK  status: ('A' for Active; 'I' for Inactive)
ROOT
ATOM      1  C   UNL d   1       1.019   2.326  -0.520  0.00  0.00     0.077 C 
ATOM      2  C1  UNL d   1       0.136   1.359   0.210  0.00  0.00    -0.074 A 
ATOM      3  C2  UNL d   1      -0.040   1.450   1.594  0.00  0.00    -0.005 A 
ATOM      4  C3  UNL d   1      -0.872   0.549   2.258  0.00  0.00     0.006 A 
ATOM      5  C4  UNL d   1      -1.536  -0.451   1.545  0.00  0.00    -0.005 A 
ATOM      6  C5  UNL d   1      -1.373  -0.557   0.160  0.00  0.00    -0.074 A 
ATOM      7  C6  UNL d   1      -2.087  -1.619  -0.622  0.00  0.00     0.077 C 
ATOM      8  C7  UNL d   1      -0.540   0.357  -0.500  0.00  0.00    -0.001 A 
ENDROOT
TORSDOF 0
ENDMDL
