MODEL 1
REMARK minimizedAffinity 7.41801262
REMARK minimizedRMSD -1
REMARK  0 active torsions:
REMARK  status: ('A' for Active; 'I' for Inactive)
ROOT
ATOM      1  C   UNL d   1       2.243  -5.993   2.489  0.00  0.00     0.077 C 
ATOM      2  C1  UNL d   1       0.775  -5.992   2.795  0.00  0.00    -0.074 A 
ATOM      3  C2  UNL d   1       0.316  -5.980   4.116  0.00  0.00    -0.005 A 
ATOM      4  C3  UNL d   1      -1.052  -5.970   4.385  0.00  0.00     0.006 A 
ATOM      5  C4  UNL d   1      -1.974  -5.972   3.338  0.00  0.00    -0.005 A 
ATOM      6  C5  UNL d   1      -1.534  -5.983   2.011  0.00  0.00    -0.074 A 
ATOM      7  C6  UNL d   1      -2.512  -5.976   0.873  0.00  0.00     0.077 C 
ATOM      8  C7  UNL d   1      -0.157  -5.986   1.748  0.00  0.00    -0.001 A 
ENDROOT
TORSDOF 0
ENDMDL
