MODEL 1
REMARK minimizedAffinity 3.94991398
REMARK minimizedRMSD -1
REMARK  0 active torsions:
REMARK  status: ('A' for Active; 'I' for Inactive)
ROOT
ATOM      1  C   UNL d   1      -1.744  -5.988   1.817  0.00  0.00     0.077 C 
ATOM      2  C1  UNL d   1      -0.394  -5.999   2.470  0.00  0.00    -0.074 A 
ATOM      3  C2  UNL d   1       0.776  -5.998   1.703  0.00  0.00    -0.005 A 
ATOM      4  C3  UNL d   1       2.024  -5.998   2.324  0.00  0.00     0.006 A 
ATOM      5  C4  UNL d   1       2.116  -5.999   3.716  0.00  0.00    -0.005 A 
ATOM      6  C5  UNL d   1       0.958  -6.000   4.500  0.00  0.00    -0.074 A 
ATOM      7  C6  UNL d   1       1.039  -5.991   5.998  0.00  0.00     0.077 C 
ATOM      8  C7  UNL d   1      -0.293  -5.992   3.868  0.00  0.00    -0.001 A 
ENDROOT
TORSDOF 0
ENDMDL
