MODEL 1
REMARK minimizedAffinity 4.81077194
REMARK minimizedRMSD -1
REMARK  0 active torsions:
REMARK  status: ('A' for Active; 'I' for Inactive)
ROOT
ATOM      1  C   UNL d   1       1.603  -5.966   5.934  0.00  0.00     0.077 C 
ATOM      2  C1  UNL d   1       1.222  -5.955   4.484  0.00  0.00    -0.074 A 
ATOM      3  C2  UNL d   1       2.199  -5.956   3.484  0.00  0.00    -0.005 A 
ATOM      4  C3  UNL d   1       1.829  -5.955   2.139  0.00  0.00     0.006 A 
ATOM      5  C4  UNL d   1       0.481  -5.953   1.781  0.00  0.00    -0.005 A 
ATOM      6  C5  UNL d   1      -0.511  -5.953   2.767  0.00  0.00    -0.074 A 
ATOM      7  C6  UNL d   1      -1.965  -5.961   2.400  0.00  0.00     0.077 C 
ATOM      8  C7  UNL d   1      -0.131  -5.961   4.116  0.00  0.00    -0.001 A 
ENDROOT
TORSDOF 0
ENDMDL
