MODEL 1
REMARK minimizedAffinity 9.15995502
REMARK minimizedRMSD -1
REMARK  0 active torsions:
REMARK  status: ('A' for Active; 'I' for Inactive)
ROOT
ATOM      1  C   UNL d   1      -3.355  -1.027  -2.095  0.00  0.00     0.077 C 
ATOM      2  C1  UNL d   1      -2.521  -1.631  -3.185  0.00  0.00    -0.074 A 
ATOM      3  C2  UNL d   1      -3.117  -2.198  -4.317  0.00  0.00    -0.005 A 
ATOM      4  C3  UNL d   1      -2.328  -2.748  -5.327  0.00  0.00     0.006 A 
ATOM      5  C4  UNL d   1      -0.937  -2.737  -5.216  0.00  0.00    -0.005 A 
ATOM      6  C5  UNL d   1      -0.323  -2.174  -4.093  0.00  0.00    -0.074 A 
ATOM      7  C6  UNL d   1       1.171  -2.146  -3.962  0.00  0.00     0.077 C 
ATOM      8  C7  UNL d   1      -1.123  -1.617  -3.085  0.00  0.00    -0.001 A 
ENDROOT
TORSDOF 0
ENDMDL
