MODEL 1
REMARK minimizedAffinity 5.39145947
REMARK minimizedRMSD -1
REMARK  0 active torsions:
REMARK  status: ('A' for Active; 'I' for Inactive)
ROOT
ATOM      1  C   UNL d   1      -0.818  -5.946   2.298  0.00  0.00     0.077 C 
ATOM      2  C1  UNL d   1       0.405  -5.958   3.166  0.00  0.00    -0.074 A 
ATOM      3  C2  UNL d   1       0.296  -5.973   4.560  0.00  0.00    -0.005 A 
ATOM      4  C3  UNL d   1       1.442  -5.994   5.355  0.00  0.00     0.006 A 
ATOM      5  C4  UNL d   1       2.707  -5.999   4.765  0.00  0.00    -0.005 A 
ATOM      6  C5  UNL d   1       2.835  -5.984   3.372  0.00  0.00    -0.074 A 
ATOM      7  C6  UNL d   1       4.186  -5.999   2.722  0.00  0.00     0.077 C 
ATOM      8  C7  UNL d   1       1.679  -5.971   2.581  0.00  0.00    -0.001 A 
ENDROOT
TORSDOF 0
ENDMDL
