MODEL 1
REMARK minimizedAffinity 4.11694813
REMARK minimizedRMSD -1
REMARK  0 active torsions:
REMARK  status: ('A' for Active; 'I' for Inactive)
ROOT
ATOM      1  C   UNL d   1      -1.702  -6.000   2.559  0.00  0.00     0.077 C 
ATOM      2  C1  UNL d   1      -0.428  -5.991   3.352  0.00  0.00    -0.074 A 
ATOM      3  C2  UNL d   1      -0.452  -5.999   4.750  0.00  0.00    -0.005 A 
ATOM      4  C3  UNL d   1       0.741  -6.000   5.473  0.00  0.00     0.006 A 
ATOM      5  C4  UNL d   1       1.967  -5.993   4.807  0.00  0.00    -0.005 A 
ATOM      6  C5  UNL d   1       2.010  -5.985   3.409  0.00  0.00    -0.074 A 
ATOM      7  C6  UNL d   1       3.319  -5.988   2.677  0.00  0.00     0.077 C 
ATOM      8  C7  UNL d   1       0.808  -5.992   2.689  0.00  0.00    -0.001 A 
ENDROOT
TORSDOF 0
ENDMDL
