MODEL 1
REMARK minimizedAffinity 6.04408264
REMARK minimizedRMSD -1
REMARK  0 active torsions:
REMARK  status: ('A' for Active; 'I' for Inactive)
ROOT
ATOM      1  C   UNL d   1       2.691  -5.989   2.550  0.00  0.00     0.077 C 
ATOM      2  C1  UNL d   1       1.196  -5.989   2.433  0.00  0.00    -0.074 A 
ATOM      3  C2  UNL d   1       0.386  -5.999   3.574  0.00  0.00    -0.005 A 
ATOM      4  C3  UNL d   1      -1.003  -5.989   3.449  0.00  0.00     0.006 A 
ATOM      5  C4  UNL d   1      -1.596  -5.968   2.186  0.00  0.00    -0.005 A 
ATOM      6  C5  UNL d   1      -0.802  -5.956   1.035  0.00  0.00    -0.074 A 
ATOM      7  C6  UNL d   1      -1.422  -5.924  -0.330  0.00  0.00     0.077 C 
ATOM      8  C7  UNL d   1       0.593  -5.960   1.168  0.00  0.00    -0.001 A 
ENDROOT
TORSDOF 0
ENDMDL
