MODEL 1
REMARK minimizedAffinity 15.2447157
REMARK minimizedRMSD -1
REMARK  0 active torsions:
REMARK  status: ('A' for Active; 'I' for Inactive)
ROOT
ATOM      1  C   UNL d   1      -1.467   0.376  -2.320  0.00  0.00     0.077 C 
ATOM      2  C1  UNL d   1      -2.358  -0.555  -1.555  0.00  0.00    -0.074 A 
ATOM      3  C2  UNL d   1      -1.951  -1.098  -0.332  0.00  0.00    -0.005 A 
ATOM      4  C3  UNL d   1      -2.795  -1.956   0.373  0.00  0.00     0.006 A 
ATOM      5  C4  UNL d   1      -4.053  -2.279  -0.136  0.00  0.00    -0.005 A 
ATOM      6  C5  UNL d   1      -4.478  -1.745  -1.357  0.00  0.00    -0.074 A 
ATOM      7  C6  UNL d   1      -5.831  -2.074  -1.914  0.00  0.00     0.077 C 
ATOM      8  C7  UNL d   1      -3.627  -0.879  -2.056  0.00  0.00    -0.001 A 
ENDROOT
TORSDOF 0
ENDMDL
