MODEL 1
REMARK minimizedAffinity -2.16618013
REMARK minimizedRMSD -1
REMARK  1 active torsions:
REMARK  status: ('A' for Active; 'I' for Inactive)
REMARK    1  A    between atoms: C1_2  and  C2_3 
ROOT
ATOM      1  C2  UNL d   1       1.199   3.228  -0.722  0.00  0.00    -0.076 A 
ATOM      2  C3  UNL d   1       1.083   3.020  -2.108  0.00  0.00     0.004 A 
ATOM      3  C4  UNL d   1       0.827   1.751  -2.625  0.00  0.00    -0.003 A 
ATOM      4  C5  UNL d   1       0.681   0.669  -1.764  0.00  0.00     0.000 A 
ATOM      5  C6  UNL d   1       0.776   0.859  -0.386  0.00  0.00     0.000 A 
ATOM      6  C7  UNL d   1       1.017   2.135   0.152  0.00  0.00    -0.073 A 
ATOM      7  C8  UNL d   1       1.115   2.282   1.646  0.00  0.00     0.078 C 
ENDROOT
BRANCH   1   8
ATOM      8  C1  UNL d   1       1.504   4.621  -0.222  0.00  0.00     0.053 C 
ATOM      9  C   UNL d   1       1.842   5.585  -1.349  0.00  0.00     0.018 C 
ENDBRANCH   1   8
TORSDOF 1
ENDMDL
