MODEL 1
REMARK minimizedAffinity -0.469395936
REMARK minimizedRMSD -1
REMARK  1 active torsions:
REMARK  status: ('A' for Active; 'I' for Inactive)
REMARK    1  A    between atoms: C1_2  and  C2_3 
ROOT
ATOM      1  C2  UNL d   1       1.247   1.860   0.649  0.00  0.00    -0.076 A 
ATOM      2  C3  UNL d   1       1.265   3.251   0.450  0.00  0.00     0.004 A 
ATOM      3  C4  UNL d   1       1.397   3.791  -0.829  0.00  0.00    -0.003 A 
ATOM      4  C5  UNL d   1       1.512   2.948  -1.929  0.00  0.00     0.000 A 
ATOM      5  C6  UNL d   1       1.479   1.566  -1.751  0.00  0.00     0.000 A 
ATOM      6  C7  UNL d   1       1.330   1.005  -0.471  0.00  0.00    -0.073 A 
ATOM      7  C8  UNL d   1       1.307  -0.493  -0.337  0.00  0.00     0.078 C 
ENDROOT
BRANCH   1   8
ATOM      8  C1  UNL d   1       1.129   1.332   2.061  0.00  0.00     0.053 C 
ATOM      9  C   UNL d   1       2.281   1.779   2.948  0.00  0.00     0.018 C 
ENDBRANCH   1   8
TORSDOF 1
ENDMDL
