MODEL 1
REMARK minimizedAffinity 5.68368244
REMARK minimizedRMSD -1
REMARK  1 active torsions:
REMARK  status: ('A' for Active; 'I' for Inactive)
REMARK    1  A    between atoms: C1_2  and  C2_3 
ROOT
ATOM      1  C2  UNL d   1       1.883   4.256  -0.746  0.00  0.00    -0.076 A 
ATOM      2  C3  UNL d   1       1.767   3.524  -1.940  0.00  0.00     0.004 A 
ATOM      3  C4  UNL d   1       1.432   2.171  -1.922  0.00  0.00    -0.003 A 
ATOM      4  C5  UNL d   1       1.208   1.528  -0.710  0.00  0.00     0.000 A 
ATOM      5  C6  UNL d   1       1.302   2.243   0.484  0.00  0.00     0.000 A 
ATOM      6  C7  UNL d   1       1.622   3.612   0.482  0.00  0.00    -0.073 A 
ATOM      7  C8  UNL d   1       1.716   4.332   1.799  0.00  0.00     0.078 C 
ENDROOT
BRANCH   1   8
ATOM      8  C1  UNL d   1       2.275   5.714  -0.826  0.00  0.00     0.053 C 
ATOM      9  C   UNL d   1       3.227   6.000  -1.977  0.00  0.00     0.018 C 
ENDBRANCH   1   8
TORSDOF 1
ENDMDL
