MODEL 1
REMARK minimizedAffinity 7.16910124
REMARK minimizedRMSD -1
REMARK  1 active torsions:
REMARK  status: ('A' for Active; 'I' for Inactive)
REMARK    1  A    between atoms: C1_2  and  C2_3 
ROOT
ATOM      1  C2  UNL d   1       1.507   2.556  -1.118  0.00  0.00    -0.076 A 
ATOM      2  C3  UNL d   1       2.345   1.626  -0.480  0.00  0.00     0.004 A 
ATOM      3  C4  UNL d   1       2.399   0.299  -0.903  0.00  0.00    -0.003 A 
ATOM      4  C5  UNL d   1       1.615  -0.119  -1.973  0.00  0.00     0.000 A 
ATOM      5  C6  UNL d   1       0.791   0.794  -2.630  0.00  0.00     0.000 A 
ATOM      6  C7  UNL d   1       0.738   2.139  -2.226  0.00  0.00    -0.073 A 
ATOM      7  C8  UNL d   1      -0.173   3.080  -2.966  0.00  0.00     0.078 C 
ENDROOT
BRANCH   1   8
ATOM      8  C1  UNL d   1       1.471   3.975  -0.598  0.00  0.00     0.053 C 
ATOM      9  C   UNL d   1       1.160   4.042   0.890  0.00  0.00     0.018 C 
ENDBRANCH   1   8
TORSDOF 1
ENDMDL
