MODEL 1
REMARK minimizedAffinity -2.53423405
REMARK minimizedRMSD -1
REMARK  1 active torsions:
REMARK  status: ('A' for Active; 'I' for Inactive)
REMARK    1  A    between atoms: C1_2  and  C2_3 
ROOT
ATOM      1  C2  UNL d   1       1.505   2.656  -0.594  0.00  0.00    -0.076 A 
ATOM      2  C3  UNL d   1       1.478   2.372   0.782  0.00  0.00     0.004 A 
ATOM      3  C4  UNL d   1       1.164   1.096   1.245  0.00  0.00    -0.003 A 
ATOM      4  C5  UNL d   1       0.871   0.082   0.339  0.00  0.00     0.000 A 
ATOM      5  C6  UNL d   1       0.910   0.342  -1.030  0.00  0.00     0.000 A 
ATOM      6  C7  UNL d   1       1.241   1.619  -1.514  0.00  0.00    -0.073 A 
ATOM      7  C8  UNL d   1       1.262   1.845  -3.001  0.00  0.00     0.078 C 
ENDROOT
BRANCH   1   8
ATOM      8  C1  UNL d   1       1.826   4.066  -1.037  0.00  0.00     0.053 C 
ATOM      9  C   UNL d   1       1.663   5.080   0.085  0.00  0.00     0.018 C 
ENDBRANCH   1   8
TORSDOF 1
ENDMDL
