MODEL 1
REMARK minimizedAffinity 2.97654819
REMARK minimizedRMSD -1
REMARK  1 active torsions:
REMARK  status: ('A' for Active; 'I' for Inactive)
REMARK    1  A    between atoms: C1_2  and  C2_3 
ROOT
ATOM      1  C2  UNL d   1       1.153   3.837  -0.955  0.00  0.00    -0.076 A 
ATOM      2  C3  UNL d   1       1.115   2.999  -2.083  0.00  0.00     0.004 A 
ATOM      3  C4  UNL d   1       1.102   1.612  -1.946  0.00  0.00    -0.003 A 
ATOM      4  C5  UNL d   1       1.126   1.040  -0.679  0.00  0.00     0.000 A 
ATOM      5  C6  UNL d   1       1.146   1.857   0.452  0.00  0.00     0.000 A 
ATOM      6  C7  UNL d   1       1.143   3.257   0.331  0.00  0.00    -0.073 A 
ATOM      7  C8  UNL d   1       1.171   4.089   1.584  0.00  0.00     0.078 C 
ENDROOT
BRANCH   1   8
ATOM      8  C1  UNL d   1       1.193   5.334  -1.166  0.00  0.00     0.053 C 
ATOM      9  C   UNL d   1       2.483   5.959  -0.660  0.00  0.00     0.018 C 
ENDBRANCH   1   8
TORSDOF 1
ENDMDL
