MODEL 1
REMARK minimizedAffinity -2.02133608
REMARK minimizedRMSD -1
REMARK  1 active torsions:
REMARK  status: ('A' for Active; 'I' for Inactive)
REMARK    1  A    between atoms: C1_2  and  C2_3 
ROOT
ATOM      1  C2  UNL d   1       1.041   3.251  -0.786  0.00  0.00    -0.076 A 
ATOM      2  C3  UNL d   1       1.163   2.294  -1.809  0.00  0.00     0.004 A 
ATOM      3  C4  UNL d   1       1.160   0.930  -1.519  0.00  0.00    -0.003 A 
ATOM      4  C5  UNL d   1       1.034   0.501  -0.203  0.00  0.00     0.000 A 
ATOM      5  C6  UNL d   1       0.895   1.436   0.823  0.00  0.00     0.000 A 
ATOM      6  C7  UNL d   1       0.879   2.814   0.546  0.00  0.00    -0.073 A 
ATOM      7  C8  UNL d   1       0.732   3.778   1.692  0.00  0.00     0.078 C 
ENDROOT
BRANCH   1   8
ATOM      8  C1  UNL d   1       1.078   4.716  -1.157  0.00  0.00     0.053 C 
ATOM      9  C   UNL d   1       2.313   5.422  -0.620  0.00  0.00     0.018 C 
ENDBRANCH   1   8
TORSDOF 1
ENDMDL
