MODEL 1
REMARK minimizedAffinity 0.157563031
REMARK minimizedRMSD -1
REMARK  1 active torsions:
REMARK  status: ('A' for Active; 'I' for Inactive)
REMARK    1  A    between atoms: C1_2  and  C2_3 
ROOT
ATOM      1  C2  UNL d   1       1.315   3.643  -0.663  0.00  0.00    -0.076 A 
ATOM      2  C3  UNL d   1       1.270   2.849  -1.822  0.00  0.00     0.004 A 
ATOM      3  C4  UNL d   1       1.388   1.462  -1.746  0.00  0.00    -0.003 A 
ATOM      4  C5  UNL d   1       1.552   0.847  -0.509  0.00  0.00     0.000 A 
ATOM      5  C6  UNL d   1       1.581   1.618   0.652  0.00  0.00     0.000 A 
ATOM      6  C7  UNL d   1       1.448   3.016   0.594  0.00  0.00    -0.073 A 
ATOM      7  C8  UNL d   1       1.492   3.799   1.878  0.00  0.00     0.078 C 
ENDROOT
BRANCH   1   8
ATOM      8  C1  UNL d   1       1.210   5.144  -0.810  0.00  0.00     0.053 C 
ATOM      9  C   UNL d   1       2.540   5.790  -1.165  0.00  0.00     0.018 C 
ENDBRANCH   1   8
TORSDOF 1
ENDMDL
