MODEL 1
REMARK minimizedAffinity -1.94535458
REMARK minimizedRMSD -1
REMARK  1 active torsions:
REMARK  status: ('A' for Active; 'I' for Inactive)
REMARK    1  A    between atoms: C1_2  and  C2_3 
ROOT
ATOM      1  C2  UNL d   1       0.872   2.475  -0.277  0.00  0.00    -0.076 A 
ATOM      2  C3  UNL d   1       1.009   2.324  -1.667  0.00  0.00     0.004 A 
ATOM      3  C4  UNL d   1       1.106   1.059  -2.245  0.00  0.00    -0.003 A 
ATOM      4  C5  UNL d   1       1.066  -0.075  -1.442  0.00  0.00     0.000 A 
ATOM      5  C6  UNL d   1       0.913   0.056  -0.062  0.00  0.00     0.000 A 
ATOM      6  C7  UNL d   1       0.798   1.323   0.535  0.00  0.00    -0.073 A 
ATOM      7  C8  UNL d   1       0.640   1.406   2.029  0.00  0.00     0.078 C 
ENDROOT
BRANCH   1   8
ATOM      8  C1  UNL d   1       0.799   3.873   0.296  0.00  0.00     0.053 C 
ATOM      9  C   UNL d   1       1.549   4.890  -0.551  0.00  0.00     0.018 C 
ENDBRANCH   1   8
TORSDOF 1
ENDMDL
