MODEL 1
REMARK minimizedAffinity -0.695117414
REMARK minimizedRMSD -1
REMARK  1 active torsions:
REMARK  status: ('A' for Active; 'I' for Inactive)
REMARK    1  A    between atoms: C1_2  and  C2_3 
ROOT
ATOM      1  C2  UNL d   1       1.166   2.635  -0.599  0.00  0.00    -0.076 A 
ATOM      2  C3  UNL d   1       2.046   1.692  -0.040  0.00  0.00     0.004 A 
ATOM      3  C4  UNL d   1       2.123   0.395  -0.544  0.00  0.00    -0.003 A 
ATOM      4  C5  UNL d   1       1.321   0.020  -1.616  0.00  0.00     0.000 A 
ATOM      5  C6  UNL d   1       0.455   0.947  -2.194  0.00  0.00     0.000 A 
ATOM      6  C7  UNL d   1       0.377   2.264  -1.709  0.00  0.00    -0.073 A 
ATOM      7  C8  UNL d   1      -0.579   3.221  -2.366  0.00  0.00     0.078 C 
ENDROOT
BRANCH   1   8
ATOM      8  C1  UNL d   1       1.107   4.019   0.007  0.00  0.00     0.053 C 
ATOM      9  C   UNL d   1       1.837   5.055  -0.833  0.00  0.00     0.018 C 
ENDBRANCH   1   8
TORSDOF 1
ENDMDL
