MODEL 1
REMARK minimizedAffinity 1.3252207
REMARK minimizedRMSD -1
REMARK  1 active torsions:
REMARK  status: ('A' for Active; 'I' for Inactive)
REMARK    1  A    between atoms: C1_2  and  C2_3 
ROOT
ATOM      1  C2  UNL d   1       2.406   0.798  -0.226  0.00  0.00    -0.076 A 
ATOM      2  C3  UNL d   1       2.077   2.042  -0.793  0.00  0.00     0.004 A 
ATOM      3  C4  UNL d   1       1.196   2.130  -1.869  0.00  0.00    -0.003 A 
ATOM      4  C5  UNL d   1       0.629   0.975  -2.396  0.00  0.00     0.000 A 
ATOM      5  C6  UNL d   1       0.930  -0.266  -1.836  0.00  0.00     0.000 A 
ATOM      6  C7  UNL d   1       1.804  -0.370  -0.740  0.00  0.00    -0.073 A 
ATOM      7  C8  UNL d   1       2.098  -1.734  -0.179  0.00  0.00     0.078 C 
ENDROOT
BRANCH   1   8
ATOM      8  C1  UNL d   1       3.389   0.763   0.922  0.00  0.00     0.053 C 
ATOM      9  C   UNL d   1       2.928   1.595   2.109  0.00  0.00     0.018 C 
ENDBRANCH   1   8
TORSDOF 1
ENDMDL
