MODEL 1
REMARK minimizedAffinity 5.90912199
REMARK minimizedRMSD -1
REMARK  1 active torsions:
REMARK  status: ('A' for Active; 'I' for Inactive)
REMARK    1  A    between atoms: C1_2  and  C2_3 
ROOT
ATOM      1  C2  UNL d   1       1.416   3.800  -0.606  0.00  0.00    -0.076 A 
ATOM      2  C3  UNL d   1       1.441   3.284  -1.913  0.00  0.00     0.004 A 
ATOM      3  C4  UNL d   1       1.484   1.909  -2.140  0.00  0.00    -0.003 A 
ATOM      4  C5  UNL d   1       1.502   1.029  -1.064  0.00  0.00     0.000 A 
ATOM      5  C6  UNL d   1       1.460   1.523   0.239  0.00  0.00     0.000 A 
ATOM      6  C7  UNL d   1       1.400   2.905   0.486  0.00  0.00    -0.073 A 
ATOM      7  C8  UNL d   1       1.363   3.383   1.911  0.00  0.00     0.078 C 
ENDROOT
BRANCH   1   8
ATOM      8  C1  UNL d   1       1.397   5.301  -0.420  0.00  0.00     0.053 C 
ATOM      9  C   UNL d   1       2.519   5.995  -1.177  0.00  0.00     0.018 C 
ENDBRANCH   1   8
TORSDOF 1
ENDMDL
