MODEL 1
REMARK minimizedAffinity -0.918153763
REMARK minimizedRMSD -1
REMARK  1 active torsions:
REMARK  status: ('A' for Active; 'I' for Inactive)
REMARK    1  A    between atoms: C1_2  and  C2_3 
ROOT
ATOM      1  C2  UNL d   1       1.352   0.475  -0.112  0.00  0.00    -0.076 A 
ATOM      2  C3  UNL d   1       1.118  -0.831   0.353  0.00  0.00     0.004 A 
ATOM      3  C4  UNL d   1       0.942  -1.889  -0.538  0.00  0.00    -0.003 A 
ATOM      4  C5  UNL d   1       0.998  -1.658  -1.908  0.00  0.00     0.000 A 
ATOM      5  C6  UNL d   1       1.246  -0.372  -2.387  0.00  0.00     0.000 A 
ATOM      6  C7  UNL d   1       1.442   0.702  -1.502  0.00  0.00    -0.073 A 
ATOM      7  C8  UNL d   1       1.700   2.070  -2.074  0.00  0.00     0.078 C 
ENDROOT
BRANCH   1   8
ATOM      8  C1  UNL d   1       1.508   1.587   0.900  0.00  0.00     0.053 C 
ATOM      9  C   UNL d   1       1.603   1.068   2.326  0.00  0.00     0.018 C 
ENDBRANCH   1   8
TORSDOF 1
ENDMDL
