MODEL 1
REMARK minimizedAffinity 8.23301888
REMARK minimizedRMSD -1
REMARK  1 active torsions:
REMARK  status: ('A' for Active; 'I' for Inactive)
REMARK    1  A    between atoms: C1_2  and  C2_3 
ROOT
ATOM      1  C2  UNL d   1       1.875   3.904  -0.897  0.00  0.00    -0.076 A 
ATOM      2  C3  UNL d   1       1.502   3.303   0.318  0.00  0.00     0.004 A 
ATOM      3  C4  UNL d   1       1.481   4.035   1.503  0.00  0.00    -0.003 A 
ATOM      4  C5  UNL d   1       1.832   5.381   1.493  0.00  0.00     0.000 A 
ATOM      5  C6  UNL d   1       2.188   5.997   0.294  0.00  0.00     0.000 A 
ATOM      6  C7  UNL d   1       2.198   5.277  -0.913  0.00  0.00    -0.073 A 
ATOM      7  C8  UNL d   1       2.596   5.991  -2.176  0.00  0.00     0.078 C 
ENDROOT
BRANCH   1   8
ATOM      8  C1  UNL d   1       1.905   3.053  -2.147  0.00  0.00     0.053 C 
ATOM      9  C   UNL d   1       0.584   3.076  -2.900  0.00  0.00     0.018 C 
ENDBRANCH   1   8
TORSDOF 1
ENDMDL
