MODEL 1
REMARK minimizedAffinity 12.7803993
REMARK minimizedRMSD -1
REMARK  0 active torsions:
REMARK  status: ('A' for Active; 'I' for Inactive)
ROOT
ATOM      1  O1  BZF d   1       0.919  -5.486   1.793  0.00  0.00    -0.204 OA
ATOM      2  C2  BZF d   1       2.121  -5.912   1.262  0.00  0.00     0.174 A 
ATOM      3  C3  BZF d   1       2.886  -4.861   0.904  0.00  0.00    -0.012 A 
ATOM      4  C3A BZF d   1       2.152  -3.704   1.317  0.00  0.00    -0.107 A 
ATOM      5  C4  BZF d   1       2.399  -2.362   1.251  0.00  0.00     0.055 A 
ATOM      6  C5  BZF d   1       1.446  -1.493   1.678  0.00  0.00    -0.016 A 
ATOM      7  C6  BZF d   1       0.234  -1.930   2.171  0.00  0.00     0.022 A 
ATOM      8  C7  BZF d   1      -0.055  -3.251   2.261  0.00  0.00     0.029 A 
ATOM      9  C7A BZF d   1       0.919  -4.133   1.861  0.00  0.00     0.058 A 
ENDROOT
TORSDOF 0
ENDMDL
