MODEL 1
REMARK minimizedAffinity 3.42472315
REMARK minimizedRMSD -1
REMARK  0 active torsions:
REMARK  status: ('A' for Active; 'I' for Inactive)
ROOT
ATOM      1  O1  BZF d   1       5.400   2.996   3.008  0.00  0.00    -0.204 OA
ATOM      2  C2  BZF d   1       5.999   2.716   1.795  0.00  0.00     0.174 A 
ATOM      3  C3  BZF d   1       5.073   2.417   0.862  0.00  0.00    -0.012 A 
ATOM      4  C3A BZF d   1       3.811   2.607   1.509  0.00  0.00    -0.107 A 
ATOM      5  C4  BZF d   1       2.516   2.482   1.096  0.00  0.00     0.055 A 
ATOM      6  C5  BZF d   1       1.514   2.669   1.995  0.00  0.00    -0.016 A 
ATOM      7  C6  BZF d   1       1.772   2.977   3.315  0.00  0.00     0.022 A 
ATOM      8  C7  BZF d   1       3.041   3.117   3.771  0.00  0.00     0.029 A 
ATOM      9  C7A BZF d   1       4.054   2.960   2.857  0.00  0.00     0.058 A 
ENDROOT
TORSDOF 0
ENDMDL
