MODEL 1
REMARK minimizedAffinity 8.21380997
REMARK minimizedRMSD -1
REMARK  0 active torsions:
REMARK  status: ('A' for Active; 'I' for Inactive)
ROOT
ATOM      1  O1  BZF d   1      -0.201  -1.241  -1.211  0.00  0.00    -0.204 OA
ATOM      2  C2  BZF d   1       1.143  -1.417  -0.944  0.00  0.00     0.174 A 
ATOM      3  C3  BZF d   1       1.377  -1.370   0.384  0.00  0.00    -0.012 A 
ATOM      4  C3A BZF d   1       0.087  -1.244   0.989  0.00  0.00    -0.107 A 
ATOM      5  C4  BZF d   1      -0.339  -1.165   2.284  0.00  0.00     0.055 A 
ATOM      6  C5  BZF d   1      -1.661  -0.974   2.535  0.00  0.00    -0.016 A 
ATOM      7  C6  BZF d   1      -2.583  -0.853   1.515  0.00  0.00     0.022 A 
ATOM      8  C7  BZF d   1      -2.209  -0.931   0.215  0.00  0.00     0.029 A 
ATOM      9  C7A BZF d   1      -0.878  -1.156  -0.041  0.00  0.00     0.058 A 
ENDROOT
TORSDOF 0
ENDMDL
