MODEL 1
REMARK minimizedAffinity -1.6322124
REMARK minimizedRMSD -1
REMARK  0 active torsions:
REMARK  status: ('A' for Active; 'I' for Inactive)
ROOT
ATOM      1  O1  BZF d   1       3.044  -5.623   2.946  0.00  0.00    -0.204 OA
ATOM      2  C2  BZF d   1       2.598  -4.493   2.289  0.00  0.00     0.174 A 
ATOM      3  C3  BZF d   1       2.969  -3.377   2.950  0.00  0.00    -0.012 A 
ATOM      4  C3A BZF d   1       3.769  -3.837   4.044  0.00  0.00    -0.107 A 
ATOM      5  C4  BZF d   1       4.437  -3.200   5.050  0.00  0.00     0.055 A 
ATOM      6  C5  BZF d   1       5.064  -3.944   6.000  0.00  0.00    -0.016 A 
ATOM      7  C6  BZF d   1       5.039  -5.323   5.977  0.00  0.00     0.022 A 
ATOM      8  C7  BZF d   1       4.393  -5.999   4.995  0.00  0.00     0.029 A 
ATOM      9  C7A BZF d   1       3.787  -5.250   4.016  0.00  0.00     0.058 A 
ENDROOT
TORSDOF 0
ENDMDL
