MODEL 1
REMARK minimizedAffinity 4.18031406
REMARK minimizedRMSD -1
REMARK  0 active torsions:
REMARK  status: ('A' for Active; 'I' for Inactive)
ROOT
ATOM      1  O1  BZF d   1       5.965   4.866   2.232  0.00  0.00    -0.204 OA
ATOM      2  C2  BZF d   1       5.962   5.653   1.097  0.00  0.00     0.174 A 
ATOM      3  C3  BZF d   1       5.999   4.891  -0.014  0.00  0.00    -0.012 A 
ATOM      4  C3A BZF d   1       5.935   3.540   0.453  0.00  0.00    -0.107 A 
ATOM      5  C4  BZF d   1       5.918   2.328  -0.176  0.00  0.00     0.055 A 
ATOM      6  C5  BZF d   1       5.924   1.195   0.573  0.00  0.00    -0.016 A 
ATOM      7  C6  BZF d   1       5.952   1.236   1.952  0.00  0.00     0.022 A 
ATOM      8  C7  BZF d   1       5.964   2.414   2.621  0.00  0.00     0.029 A 
ATOM      9  C7A BZF d   1       5.924   3.562   1.867  0.00  0.00     0.058 A 
ENDROOT
TORSDOF 0
ENDMDL
