MODEL 1
REMARK minimizedAffinity 3.76966476
REMARK minimizedRMSD -1
REMARK  0 active torsions:
REMARK  status: ('A' for Active; 'I' for Inactive)
ROOT
ATOM      1  O1  BZF d   1      -3.574   0.522  -2.275  0.00  0.00    -0.204 OA
ATOM      2  C2  BZF d   1      -2.662  -0.362  -1.733  0.00  0.00     0.174 A 
ATOM      3  C3  BZF d   1      -1.433   0.192  -1.679  0.00  0.00    -0.012 A 
ATOM      4  C3A BZF d   1      -1.607   1.537  -2.135  0.00  0.00    -0.107 A 
ATOM      5  C4  BZF d   1      -0.754   2.592  -2.293  0.00  0.00     0.055 A 
ATOM      6  C5  BZF d   1      -1.226   3.748  -2.831  0.00  0.00    -0.016 A 
ATOM      7  C6  BZF d   1      -2.541   3.881  -3.225  0.00  0.00     0.022 A 
ATOM      8  C7  BZF d   1      -3.425   2.864  -3.084  0.00  0.00     0.029 A 
ATOM      9  C7A BZF d   1      -2.959   1.706  -2.510  0.00  0.00     0.058 A 
ENDROOT
TORSDOF 0
ENDMDL
