MODEL 1
REMARK minimizedAffinity 7.1024437
REMARK minimizedRMSD -1
REMARK  1 active torsions:
REMARK  status: ('A' for Active; 'I' for Inactive)
REMARK    1  A    between atoms: N_2  and  C1_3 
ROOT
ATOM      1  C1  UNL d   1       3.024   2.368  -1.395  0.00  0.00     0.143 A 
ATOM      2  C2  UNL d   1       1.844   1.651  -1.620  0.00  0.00    -0.057 A 
ATOM      3  C3  UNL d   1       1.384   0.702  -0.699  0.00  0.00     0.033 A 
ATOM      4  C4  UNL d   1       2.115   0.431   0.454  0.00  0.00    -0.042 A 
ATOM      5  C5  UNL d   1       3.304   1.114   0.685  0.00  0.00     0.033 A 
ATOM      6  C6  UNL d   1       3.755   2.065  -0.235  0.00  0.00    -0.057 A 
ENDROOT
BRANCH   1   7
ATOM      7  N   UNL d   1       3.585   3.253  -2.320  0.00  0.00    -0.732 N 
ATOM      8  C   UNL d   1       4.987   3.166  -2.667  0.00  0.00     0.284 C 
ATOM      9  H3  UNL d   1       2.970   3.428  -3.111  0.00  0.00     0.395 HD
ENDBRANCH   1   7
TORSDOF 1
ENDMDL
