MODEL 1
REMARK minimizedAffinity 9.22101593
REMARK minimizedRMSD -1
REMARK  1 active torsions:
REMARK  status: ('A' for Active; 'I' for Inactive)
REMARK    1  A    between atoms: N_2  and  C1_3 
ROOT
ATOM      1  C1  UNL d   1       3.557   1.172  -0.194  0.00  0.00     0.143 A 
ATOM      2  C2  UNL d   1       4.292   1.892   0.755  0.00  0.00    -0.057 A 
ATOM      3  C3  UNL d   1       5.286   2.799   0.368  0.00  0.00     0.033 A 
ATOM      4  C4  UNL d   1       5.583   2.981  -0.979  0.00  0.00    -0.042 A 
ATOM      5  C5  UNL d   1       4.883   2.258  -1.938  0.00  0.00     0.033 A 
ATOM      6  C6  UNL d   1       3.887   1.359  -1.545  0.00  0.00    -0.057 A 
ENDROOT
BRANCH   1   7
ATOM      7  N   UNL d   1       2.624   0.184   0.131  0.00  0.00    -0.732 N 
ATOM      8  C   UNL d   1       2.212  -0.793  -0.853  0.00  0.00     0.284 C 
ATOM      9  H3  UNL d   1       2.774  -0.200   1.061  0.00  0.00     0.395 HD
ENDBRANCH   1   7
TORSDOF 1
ENDMDL
