MODEL 1
REMARK minimizedAffinity 1.83927643
REMARK minimizedRMSD -1
REMARK  1 active torsions:
REMARK  status: ('A' for Active; 'I' for Inactive)
REMARK    1  A    between atoms: N_2  and  C1_3 
ROOT
ATOM      1  C1  UNL d   1       2.802  -0.928  -0.401  0.00  0.00     0.143 A 
ATOM      2  C2  UNL d   1       2.986   0.383   0.051  0.00  0.00    -0.057 A 
ATOM      3  C3  UNL d   1       3.478   1.382  -0.798  0.00  0.00     0.033 A 
ATOM      4  C4  UNL d   1       3.824   1.079  -2.111  0.00  0.00    -0.042 A 
ATOM      5  C5  UNL d   1       3.673  -0.223  -2.575  0.00  0.00     0.033 A 
ATOM      6  C6  UNL d   1       3.174  -1.214  -1.724  0.00  0.00    -0.057 A 
ENDROOT
BRANCH   1   7
ATOM      7  N   UNL d   1       2.410  -1.987   0.422  0.00  0.00    -0.732 N 
ATOM      8  C   UNL d   1       1.313  -2.849   0.040  0.00  0.00     0.284 C 
ATOM      9  H3  UNL d   1       3.203  -2.478   0.827  0.00  0.00     0.395 HD
ENDBRANCH   1   7
TORSDOF 1
ENDMDL
