MODEL 1
REMARK minimizedAffinity 1.83983803
REMARK minimizedRMSD -1
REMARK  1 active torsions:
REMARK  status: ('A' for Active; 'I' for Inactive)
REMARK    1  A    between atoms: N_2  and  C1_3 
ROOT
ATOM      1  C1  UNL d   1      -5.191   3.710   2.835  0.00  0.00     0.143 A 
ATOM      2  C2  UNL d   1      -4.890   3.692   4.202  0.00  0.00    -0.057 A 
ATOM      3  C3  UNL d   1      -5.162   4.795   5.020  0.00  0.00     0.033 A 
ATOM      4  C4  UNL d   1      -5.716   5.950   4.478  0.00  0.00    -0.042 A 
ATOM      5  C5  UNL d   1      -6.000   6.000   3.118  0.00  0.00     0.033 A 
ATOM      6  C6  UNL d   1      -5.732   4.893   2.307  0.00  0.00    -0.057 A 
ENDROOT
BRANCH   1   7
ATOM      7  N   UNL d   1      -4.854   2.682   1.951  0.00  0.00    -0.732 N 
ATOM      8  C   UNL d   1      -4.544   2.972   0.568  0.00  0.00     0.284 C 
ATOM      9  H3  UNL d   1      -4.245   1.987   2.377  0.00  0.00     0.395 HD
ENDBRANCH   1   7
TORSDOF 1
ENDMDL
