MODEL 1
REMARK minimizedAffinity 4.60929251
REMARK minimizedRMSD -1
REMARK  1 active torsions:
REMARK  status: ('A' for Active; 'I' for Inactive)
REMARK    1  A    between atoms: N_2  and  C1_3 
ROOT
ATOM      1  C1  UNL d   1       2.817  -0.065  -0.351  0.00  0.00     0.143 A 
ATOM      2  C2  UNL d   1       3.830   0.076   0.603  0.00  0.00    -0.057 A 
ATOM      3  C3  UNL d   1       4.735   1.143   0.550  0.00  0.00     0.033 A 
ATOM      4  C4  UNL d   1       4.659   2.075  -0.480  0.00  0.00    -0.042 A 
ATOM      5  C5  UNL d   1       3.676   1.941  -1.453  0.00  0.00     0.033 A 
ATOM      6  C6  UNL d   1       2.771   0.877  -1.390  0.00  0.00    -0.057 A 
ENDROOT
BRANCH   1   7
ATOM      7  N   UNL d   1       1.949  -1.158  -0.408  0.00  0.00    -0.732 N 
ATOM      8  C   UNL d   1       2.143  -2.300   0.460  0.00  0.00     0.284 C 
ATOM      9  H3  UNL d   1       0.977  -0.877  -0.514  0.00  0.00     0.395 HD
ENDBRANCH   1   7
TORSDOF 1
ENDMDL
