MODEL 1
REMARK minimizedAffinity 12.579443
REMARK minimizedRMSD -1
REMARK  1 active torsions:
REMARK  status: ('A' for Active; 'I' for Inactive)
REMARK    1  A    between atoms: N_2  and  C1_3 
ROOT
ATOM      1  C1  UNL d   1       3.558   1.607  -0.422  0.00  0.00     0.143 A 
ATOM      2  C2  UNL d   1       3.747   2.077  -1.726  0.00  0.00    -0.057 A 
ATOM      3  C3  UNL d   1       4.960   2.654  -2.121  0.00  0.00     0.033 A 
ATOM      4  C4  UNL d   1       5.999   2.798  -1.207  0.00  0.00    -0.042 A 
ATOM      5  C5  UNL d   1       5.824   2.361   0.102  0.00  0.00     0.033 A 
ATOM      6  C6  UNL d   1       4.612   1.779   0.488  0.00  0.00    -0.057 A 
ENDROOT
BRANCH   1   7
ATOM      7  N   UNL d   1       2.342   1.113   0.058  0.00  0.00    -0.732 N 
ATOM      8  C   UNL d   1       1.641   0.064  -0.651  0.00  0.00     0.284 C 
ATOM      9  H3  UNL d   1       2.339   1.006   1.069  0.00  0.00     0.395 HD
ENDBRANCH   1   7
TORSDOF 1
ENDMDL
