MODEL 1
REMARK minimizedAffinity 4.11741257
REMARK minimizedRMSD -1
REMARK  1 active torsions:
REMARK  status: ('A' for Active; 'I' for Inactive)
REMARK    1  A    between atoms: N_2  and  C1_3 
ROOT
ATOM      1  C1  UNL d   1      -0.554  -3.794   4.277  0.00  0.00     0.143 A 
ATOM      2  C2  UNL d   1      -1.432  -4.884   4.277  0.00  0.00    -0.057 A 
ATOM      3  C3  UNL d   1      -1.242  -5.970   5.139  0.00  0.00     0.033 A 
ATOM      4  C4  UNL d   1      -0.150  -6.000   6.000  0.00  0.00    -0.042 A 
ATOM      5  C5  UNL d   1       0.750  -4.939   6.000  0.00  0.00     0.033 A 
ATOM      6  C6  UNL d   1       0.551  -3.854   5.141  0.00  0.00    -0.057 A 
ENDROOT
BRANCH   1   7
ATOM      7  N   UNL d   1      -0.634  -2.731   3.375  0.00  0.00    -0.732 N 
ATOM      8  C   UNL d   1       0.351  -1.671   3.396  0.00  0.00     0.284 C 
ATOM      9  H3  UNL d   1      -0.900  -3.033   2.441  0.00  0.00     0.395 HD
ENDBRANCH   1   7
TORSDOF 1
ENDMDL
