MODEL 1
REMARK minimizedAffinity -4.67087126
REMARK minimizedRMSD -1
REMARK  1 active torsions:
REMARK  status: ('A' for Active; 'I' for Inactive)
REMARK    1  A    between atoms: N_2  and  C1_3 
ROOT
ATOM      1  C1  UNL d   1      -0.218   0.463  -0.254  0.00  0.00     0.143 A 
ATOM      2  C2  UNL d   1       0.430   0.432   0.986  0.00  0.00    -0.057 A 
ATOM      3  C3  UNL d   1      -0.281   0.594   2.181  0.00  0.00     0.033 A 
ATOM      4  C4  UNL d   1      -1.653   0.821   2.155  0.00  0.00    -0.042 A 
ATOM      5  C5  UNL d   1      -2.314   0.882   0.934  0.00  0.00     0.033 A 
ATOM      6  C6  UNL d   1      -1.599   0.712  -0.256  0.00  0.00    -0.057 A 
ENDROOT
BRANCH   1   7
ATOM      7  N   UNL d   1       0.448   0.406  -1.481  0.00  0.00    -0.732 N 
ATOM      8  C   UNL d   1       0.517  -0.833  -2.226  0.00  0.00     0.284 C 
ATOM      9  H3  UNL d   1       0.274   1.228  -2.056  0.00  0.00     0.395 HD
ENDBRANCH   1   7
TORSDOF 1
ENDMDL
