MODEL 1
REMARK minimizedAffinity -1.85689056
REMARK minimizedRMSD -1
REMARK  1 active torsions:
REMARK  status: ('A' for Active; 'I' for Inactive)
REMARK    1  A    between atoms: N_2  and  C1_3 
ROOT
ATOM      1  C1  UNL d   1       0.218   0.372  -0.334  0.00  0.00     0.143 A 
ATOM      2  C2  UNL d   1      -0.797   0.209   0.615  0.00  0.00    -0.057 A 
ATOM      3  C3  UNL d   1      -0.499  -0.022   1.964  0.00  0.00     0.033 A 
ATOM      4  C4  UNL d   1       0.823  -0.123   2.384  0.00  0.00    -0.042 A 
ATOM      5  C5  UNL d   1       1.848   0.011   1.453  0.00  0.00     0.033 A 
ATOM      6  C6  UNL d   1       1.544   0.248   0.109  0.00  0.00    -0.057 A 
ENDROOT
BRANCH   1   7
ATOM      7  N   UNL d   1      -0.013   0.505  -1.705  0.00  0.00    -0.732 N 
ATOM      8  C   UNL d   1       0.739  -0.281  -2.659  0.00  0.00     0.284 C 
ATOM      9  H3  UNL d   1      -1.003   0.591  -1.925  0.00  0.00     0.395 HD
ENDBRANCH   1   7
TORSDOF 1
ENDMDL
