MODEL 1
REMARK minimizedAffinity -3.58465719
REMARK minimizedRMSD -1
REMARK  1 active torsions:
REMARK  status: ('A' for Active; 'I' for Inactive)
REMARK    1  A    between atoms: N_2  and  C1_3 
ROOT
ATOM      1  C1  UNL d   1      -0.450   0.422   1.150  0.00  0.00     0.143 A 
ATOM      2  C2  UNL d   1      -1.573   0.685   0.360  0.00  0.00    -0.057 A 
ATOM      3  C3  UNL d   1      -1.479   0.759  -1.035  0.00  0.00     0.033 A 
ATOM      4  C4  UNL d   1      -0.248   0.599  -1.664  0.00  0.00    -0.042 A 
ATOM      5  C5  UNL d   1       0.886   0.362  -0.897  0.00  0.00     0.033 A 
ATOM      6  C6  UNL d   1       0.784   0.283   0.495  0.00  0.00    -0.057 A 
ENDROOT
BRANCH   1   7
ATOM      7  N   UNL d   1      -0.461   0.434   2.547  0.00  0.00    -0.732 N 
ATOM      8  C   UNL d   1      -1.640   0.860   3.271  0.00  0.00     0.284 C 
ATOM      9  H3  UNL d   1       0.000  -0.380   2.947  0.00  0.00     0.395 HD
ENDBRANCH   1   7
TORSDOF 1
ENDMDL
