MODEL 1
REMARK minimizedAffinity -1.91375899
REMARK minimizedRMSD -1
REMARK  1 active torsions:
REMARK  status: ('A' for Active; 'I' for Inactive)
REMARK    1  A    between atoms: N_2  and  C1_3 
ROOT
ATOM      1  C1  UNL d   1       0.612  -0.011  -1.822  0.00  0.00     0.143 A 
ATOM      2  C2  UNL d   1      -0.683   0.410  -1.498  0.00  0.00    -0.057 A 
ATOM      3  C3  UNL d   1      -1.046   0.688  -0.175  0.00  0.00     0.033 A 
ATOM      4  C4  UNL d   1      -0.125   0.521   0.855  0.00  0.00    -0.042 A 
ATOM      5  C5  UNL d   1       1.160   0.081   0.559  0.00  0.00     0.033 A 
ATOM      6  C6  UNL d   1       1.518  -0.189  -0.765  0.00  0.00    -0.057 A 
ENDROOT
BRANCH   1   7
ATOM      7  N   UNL d   1       1.006  -0.397  -3.106  0.00  0.00    -0.732 N 
ATOM      8  C   UNL d   1       0.365  -1.513  -3.769  0.00  0.00     0.284 C 
ATOM      9  H3  UNL d   1       1.186   0.399  -3.713  0.00  0.00     0.395 HD
ENDBRANCH   1   7
TORSDOF 1
ENDMDL
