MODEL 1
REMARK minimizedAffinity -1.00886321
REMARK minimizedRMSD -1
REMARK  1 active torsions:
REMARK  status: ('A' for Active; 'I' for Inactive)
REMARK    1  A    between atoms: N_2  and  C1_3 
ROOT
ATOM      1  C1  UNL d   1       0.558  -0.109  -2.203  0.00  0.00     0.143 A 
ATOM      2  C2  UNL d   1       1.873   0.040  -2.657  0.00  0.00    -0.057 A 
ATOM      3  C3  UNL d   1       2.420  -0.838  -3.599  0.00  0.00     0.033 A 
ATOM      4  C4  UNL d   1       1.668  -1.903  -4.085  0.00  0.00    -0.042 A 
ATOM      5  C5  UNL d   1       0.367  -2.085  -3.629  0.00  0.00     0.033 A 
ATOM      6  C6  UNL d   1      -0.175  -1.200  -2.693  0.00  0.00    -0.057 A 
ENDROOT
BRANCH   1   7
ATOM      7  N   UNL d   1      -0.010   0.673  -1.194  0.00  0.00    -0.732 N 
ATOM      8  C   UNL d   1       0.522   0.640   0.152  0.00  0.00     0.284 C 
ATOM      9  H3  UNL d   1      -0.261   1.604  -1.519  0.00  0.00     0.395 HD
ENDBRANCH   1   7
TORSDOF 1
ENDMDL
