MODEL 1
REMARK minimizedAffinity -3.32949996
REMARK minimizedRMSD -1
REMARK  1 active torsions:
REMARK  status: ('A' for Active; 'I' for Inactive)
REMARK    1  A    between atoms: N_2  and  C1_3 
ROOT
ATOM      1  C1  UNL d   1       0.052   0.411  -0.389  0.00  0.00     0.143 A 
ATOM      2  C2  UNL d   1       0.692   0.387   0.855  0.00  0.00    -0.057 A 
ATOM      3  C3  UNL d   1      -0.035   0.490   2.047  0.00  0.00     0.033 A 
ATOM      4  C4  UNL d   1      -1.417   0.648   2.015  0.00  0.00    -0.042 A 
ATOM      5  C5  UNL d   1      -2.071   0.700   0.789  0.00  0.00     0.033 A 
ATOM      6  C6  UNL d   1      -1.340   0.590  -0.398  0.00  0.00    -0.057 A 
ENDROOT
BRANCH   1   7
ATOM      7  N   UNL d   1       0.728   0.412  -1.612  0.00  0.00    -0.732 N 
ATOM      8  C   UNL d   1       0.813  -0.793  -2.409  0.00  0.00     0.284 C 
ATOM      9  H3  UNL d   1       0.553   1.256  -2.152  0.00  0.00     0.395 HD
ENDBRANCH   1   7
TORSDOF 1
ENDMDL
