MODEL 1
REMARK minimizedAffinity -1.54642546
REMARK minimizedRMSD -1
REMARK  1 active torsions:
REMARK  status: ('A' for Active; 'I' for Inactive)
REMARK    1  A    between atoms: N_2  and  C1_3 
ROOT
ATOM      1  C1  UNL d   1       0.747  -0.689  -1.499  0.00  0.00     0.143 A 
ATOM      2  C2  UNL d   1       0.486  -2.044  -1.731  0.00  0.00    -0.057 A 
ATOM      3  C3  UNL d   1       0.900  -2.672  -2.912  0.00  0.00     0.033 A 
ATOM      4  C4  UNL d   1       1.560  -1.945  -3.898  0.00  0.00    -0.042 A 
ATOM      5  C5  UNL d   1       1.808  -0.592  -3.700  0.00  0.00     0.033 A 
ATOM      6  C6  UNL d   1       1.398   0.028  -2.515  0.00  0.00    -0.057 A 
ENDROOT
BRANCH   1   7
ATOM      7  N   UNL d   1       0.274   0.015  -0.389  0.00  0.00    -0.732 N 
ATOM      8  C   UNL d   1       0.972   1.188   0.092  0.00  0.00     0.284 C 
ATOM      9  H3  UNL d   1      -0.740   0.105  -0.389  0.00  0.00     0.395 HD
ENDBRANCH   1   7
TORSDOF 1
ENDMDL
