MODEL 1
REMARK minimizedAffinity -2.98679185
REMARK minimizedRMSD -1
REMARK  1 active torsions:
REMARK  status: ('A' for Active; 'I' for Inactive)
REMARK    1  A    between atoms: N_2  and  C1_3 
ROOT
ATOM      1  C1  UNL d   1      -0.143   0.215  -0.113  0.00  0.00     0.143 A 
ATOM      2  C2  UNL d   1       1.062   0.105   0.591  0.00  0.00    -0.057 A 
ATOM      3  C3  UNL d   1       1.082   0.044   1.990  0.00  0.00     0.033 A 
ATOM      4  C4  UNL d   1      -0.103   0.122   2.713  0.00  0.00    -0.042 A 
ATOM      5  C5  UNL d   1      -1.310   0.258   2.036  0.00  0.00     0.033 A 
ATOM      6  C6  UNL d   1      -1.324   0.311   0.639  0.00  0.00    -0.057 A 
ENDROOT
BRANCH   1   7
ATOM      7  N   UNL d   1      -0.222   0.379  -1.498  0.00  0.00    -0.732 N 
ATOM      8  C   UNL d   1       0.977   0.394  -2.308  0.00  0.00     0.284 C 
ATOM      9  H3  UNL d   1      -0.994  -0.141  -1.907  0.00  0.00     0.395 HD
ENDBRANCH   1   7
TORSDOF 1
ENDMDL
