MODEL 1
REMARK minimizedAffinity -2.92948484
REMARK minimizedRMSD -1
REMARK  1 active torsions:
REMARK  status: ('A' for Active; 'I' for Inactive)
REMARK    1  A    between atoms: N_2  and  C1_3 
ROOT
ATOM      1  C1  UNL d   1      -1.652   0.495   0.772  0.00  0.00     0.143 A 
ATOM      2  C2  UNL d   1      -1.016   0.381  -0.469  0.00  0.00    -0.057 A 
ATOM      3  C3  UNL d   1       0.376   0.257  -0.563  0.00  0.00     0.033 A 
ATOM      4  C4  UNL d   1       1.160   0.275   0.585  0.00  0.00    -0.042 A 
ATOM      5  C5  UNL d   1       0.552   0.413   1.828  0.00  0.00     0.033 A 
ATOM      6  C6  UNL d   1      -0.839   0.529   1.915  0.00  0.00    -0.057 A 
ENDROOT
BRANCH   1   7
ATOM      7  N   UNL d   1      -3.022   0.720   0.925  0.00  0.00    -0.732 N 
ATOM      8  C   UNL d   1      -3.566   1.106   2.210  0.00  0.00     0.284 C 
ATOM      9  H3  UNL d   1      -3.425   1.221   0.136  0.00  0.00     0.395 HD
ENDBRANCH   1   7
TORSDOF 1
ENDMDL
