MODEL 1
REMARK minimizedAffinity -2.01321387
REMARK minimizedRMSD -1
REMARK  1 active torsions:
REMARK  status: ('A' for Active; 'I' for Inactive)
REMARK    1  A    between atoms: N_2  and  C1_3 
ROOT
ATOM      1  C1  UNL d   1       0.006   0.045   1.300  0.00  0.00     0.143 A 
ATOM      2  C2  UNL d   1      -1.232   0.077   0.649  0.00  0.00    -0.057 A 
ATOM      3  C3  UNL d   1      -1.317   0.065  -0.748  0.00  0.00     0.033 A 
ATOM      4  C4  UNL d   1      -0.161   0.050  -1.522  0.00  0.00    -0.042 A 
ATOM      5  C5  UNL d   1       1.080   0.043  -0.896  0.00  0.00     0.033 A 
ATOM      6  C6  UNL d   1       1.159   0.048   0.500  0.00  0.00    -0.057 A 
ENDROOT
BRANCH   1   7
ATOM      7  N   UNL d   1       0.159   0.154   2.685  0.00  0.00    -0.732 N 
ATOM      8  C   UNL d   1      -0.900   0.707   3.502  0.00  0.00     0.284 C 
ATOM      9  H3  UNL d   1       0.616  -0.659   3.090  0.00  0.00     0.395 HD
ENDBRANCH   1   7
TORSDOF 1
ENDMDL
