MODEL 1
REMARK minimizedAffinity -2.88014936
REMARK minimizedRMSD -1
REMARK  1 active torsions:
REMARK  status: ('A' for Active; 'I' for Inactive)
REMARK    1  A    between atoms: N_2  and  C1_3 
ROOT
ATOM      1  C1  UNL d   1       0.208  -0.910  -1.469  0.00  0.00     0.143 A 
ATOM      2  C2  UNL d   1       0.271  -1.656  -0.287  0.00  0.00    -0.057 A 
ATOM      3  C3  UNL d   1       0.550  -1.046   0.942  0.00  0.00     0.033 A 
ATOM      4  C4  UNL d   1       0.801   0.321   1.006  0.00  0.00    -0.042 A 
ATOM      5  C5  UNL d   1       0.770   1.077  -0.159  0.00  0.00     0.033 A 
ATOM      6  C6  UNL d   1       0.484   0.464  -1.383  0.00  0.00    -0.057 A 
ENDROOT
BRANCH   1   7
ATOM      7  N   UNL d   1       0.033  -1.473  -2.736  0.00  0.00    -0.732 N 
ATOM      8  C   UNL d   1       1.117  -1.483  -3.695  0.00  0.00     0.284 C 
ATOM      9  H3  UNL d   1      -0.504  -2.337  -2.706  0.00  0.00     0.395 HD
ENDBRANCH   1   7
TORSDOF 1
ENDMDL
