MODEL 1
REMARK minimizedAffinity -3.88335967
REMARK minimizedRMSD -1
REMARK  1 active torsions:
REMARK  status: ('A' for Active; 'I' for Inactive)
REMARK    1  A    between atoms: N_2  and  C1_3 
ROOT
ATOM      1  C1  UNL d   1      -1.500   0.580   0.687  0.00  0.00     0.143 A 
ATOM      2  C2  UNL d   1      -0.756   0.635  -0.496  0.00  0.00    -0.057 A 
ATOM      3  C3  UNL d   1       0.638   0.501  -0.483  0.00  0.00     0.033 A 
ATOM      4  C4  UNL d   1       1.316   0.336   0.720  0.00  0.00    -0.042 A 
ATOM      5  C5  UNL d   1       0.599   0.303   1.910  0.00  0.00     0.033 A 
ATOM      6  C6  UNL d   1      -0.794   0.432   1.891  0.00  0.00    -0.057 A 
ENDROOT
BRANCH   1   7
ATOM      7  N   UNL d   1      -2.878   0.806   0.750  0.00  0.00    -0.732 N 
ATOM      8  C   UNL d   1      -3.513   1.140   2.007  0.00  0.00     0.284 C 
ATOM      9  H3  UNL d   1      -3.220   1.342  -0.044  0.00  0.00     0.395 HD
ENDBRANCH   1   7
TORSDOF 1
ENDMDL
