MODEL 1
REMARK minimizedAffinity -3.07364845
REMARK minimizedRMSD -1
REMARK  1 active torsions:
REMARK  status: ('A' for Active; 'I' for Inactive)
REMARK    1  A    between atoms: N_2  and  C1_3 
ROOT
ATOM      1  C1  UNL d   1       0.212   0.082   0.016  0.00  0.00     0.143 A 
ATOM      2  C2  UNL d   1       1.413  -0.115   0.707  0.00  0.00    -0.057 A 
ATOM      3  C3  UNL d   1       1.459  -0.083   2.106  0.00  0.00     0.033 A 
ATOM      4  C4  UNL d   1       0.306   0.178   2.840  0.00  0.00    -0.042 A 
ATOM      5  C5  UNL d   1      -0.893   0.401   2.174  0.00  0.00     0.033 A 
ATOM      6  C6  UNL d   1      -0.934   0.361   0.777  0.00  0.00    -0.057 A 
ENDROOT
BRANCH   1   7
ATOM      7  N   UNL d   1       0.120   0.159  -1.375  0.00  0.00    -0.732 N 
ATOM      8  C   UNL d   1       0.754  -0.836  -2.213  0.00  0.00     0.284 C 
ATOM      9  H3  UNL d   1      -0.809   0.435  -1.688  0.00  0.00     0.395 HD
ENDBRANCH   1   7
TORSDOF 1
ENDMDL
