MODEL 1
REMARK minimizedAffinity 9.74936581
REMARK minimizedRMSD -1
REMARK  0 active torsions:
REMARK  status: ('A' for Active; 'I' for Inactive)
ROOT
ATOM      1  C   UNL d   1       2.279   0.529  -1.919  0.00  0.00     0.124 A 
ATOM      2  C1  UNL d   1       2.189   1.567  -1.003  0.00  0.00     0.062 A 
ATOM      3  C2  UNL d   1       2.056   1.292   0.355  0.00  0.00     0.162 A 
ATOM      4  C3  UNL d   1       2.013  -0.027   0.805  0.00  0.00    -0.034 A 
ATOM      5  C4  UNL d   1       2.103  -1.066  -0.123  0.00  0.00     0.162 A 
ATOM      6  C5  UNL d   1       2.236  -0.786  -1.479  0.00  0.00     0.062 A 
ATOM      7  F   UNL d   1       2.323  -1.791  -2.363  0.00  0.00    -0.097 F 
ATOM      8  F1  UNL d   1       2.066  -2.346   0.276  0.00  0.00    -0.096 F 
ATOM      9  I   UNL d   1       1.814  -0.443   2.835  0.00  0.00    -0.060 I 
ATOM     10  F2  UNL d   1       1.971   2.315   1.219  0.00  0.00    -0.096 F 
ATOM     11  F3  UNL d   1       2.229   2.839  -1.426  0.00  0.00    -0.097 F 
ATOM     12  F4  UNL d   1       2.406   0.796  -3.225  0.00  0.00    -0.092 F 
ENDROOT
TORSDOF 0
ENDMDL
