MODEL 1
REMARK minimizedAffinity 1.80260551
REMARK minimizedRMSD -1
REMARK  0 active torsions:
REMARK  status: ('A' for Active; 'I' for Inactive)
ROOT
ATOM      1  C   UNL d   1      -2.609  -1.692  -2.485  0.00  0.00     0.124 A 
ATOM      2  C1  UNL d   1      -3.290  -1.714  -3.695  0.00  0.00     0.062 A 
ATOM      3  C2  UNL d   1      -3.265  -0.603  -4.533  0.00  0.00     0.162 A 
ATOM      4  C3  UNL d   1      -2.555   0.540  -4.165  0.00  0.00    -0.034 A 
ATOM      5  C4  UNL d   1      -1.874   0.555  -2.947  0.00  0.00     0.162 A 
ATOM      6  C5  UNL d   1      -1.902  -0.557  -2.113  0.00  0.00     0.062 A 
ATOM      7  F   UNL d   1      -1.243  -0.534  -0.945  0.00  0.00    -0.097 F 
ATOM      8  F1  UNL d   1      -1.181   1.638  -2.562  0.00  0.00    -0.096 F 
ATOM      9  I   UNL d   1      -2.515   2.204  -5.415  0.00  0.00    -0.060 I 
ATOM     10  F2  UNL d   1      -3.932  -0.652  -5.695  0.00  0.00    -0.096 F 
ATOM     11  F3  UNL d   1      -3.976  -2.808  -4.057  0.00  0.00    -0.097 F 
ATOM     12  F4  UNL d   1      -2.636  -2.762  -1.681  0.00  0.00    -0.092 F 
ENDROOT
TORSDOF 0
ENDMDL
