MODEL 1
REMARK minimizedAffinity 12.8656864
REMARK minimizedRMSD -1
REMARK  0 active torsions:
REMARK  status: ('A' for Active; 'I' for Inactive)
ROOT
ATOM      1  C   UNL d   1       0.813  -1.518   1.141  0.00  0.00     0.124 A 
ATOM      2  C1  UNL d   1       2.194  -1.480   1.003  0.00  0.00     0.062 A 
ATOM      3  C2  UNL d   1       2.769  -0.893  -0.120  0.00  0.00     0.162 A 
ATOM      4  C3  UNL d   1       1.964  -0.339  -1.115  0.00  0.00    -0.034 A 
ATOM      5  C4  UNL d   1       0.577  -0.383  -0.971  0.00  0.00     0.162 A 
ATOM      6  C5  UNL d   1       0.006  -0.970   0.154  0.00  0.00     0.062 A 
ATOM      7  F   UNL d   1      -1.328  -1.006   0.285  0.00  0.00    -0.097 F 
ATOM      8  F1  UNL d   1      -0.227   0.141  -1.908  0.00  0.00    -0.096 F 
ATOM      9  I   UNL d   1       2.821   0.539  -2.796  0.00  0.00    -0.060 I 
ATOM     10  F2  UNL d   1       4.106  -0.870  -0.226  0.00  0.00    -0.096 F 
ATOM     11  F3  UNL d   1       2.976  -2.010   1.955  0.00  0.00    -0.097 F 
ATOM     12  F4  UNL d   1       0.262  -2.084   2.222  0.00  0.00    -0.092 F 
ENDROOT
TORSDOF 0
ENDMDL
