MODEL 1
REMARK minimizedAffinity 11.8487854
REMARK minimizedRMSD -1
REMARK  0 active torsions:
REMARK  status: ('A' for Active; 'I' for Inactive)
ROOT
ATOM      1  C   UNL d   1       0.235  -1.980   2.069  0.00  0.00     0.124 A 
ATOM      2  C1  UNL d   1      -1.063  -2.366   1.764  0.00  0.00     0.062 A 
ATOM      3  C2  UNL d   1      -2.113  -1.463   1.903  0.00  0.00     0.162 A 
ATOM      4  C3  UNL d   1      -1.870  -0.164   2.348  0.00  0.00    -0.034 A 
ATOM      5  C4  UNL d   1      -0.562   0.217   2.654  0.00  0.00     0.162 A 
ATOM      6  C5  UNL d   1       0.484  -0.689   2.514  0.00  0.00     0.062 A 
ATOM      7  F   UNL d   1       1.737  -0.314   2.809  0.00  0.00    -0.097 F 
ATOM      8  F1  UNL d   1      -0.293   1.458   3.085  0.00  0.00    -0.096 F 
ATOM      9  I   UNL d   1      -3.438   1.189   2.557  0.00  0.00    -0.060 I 
ATOM     10  F2  UNL d   1      -3.357  -1.864   1.600  0.00  0.00    -0.096 F 
ATOM     11  F3  UNL d   1      -1.306  -3.613   1.335  0.00  0.00    -0.097 F 
ATOM     12  F4  UNL d   1       1.243  -2.851   1.935  0.00  0.00    -0.092 F 
ENDROOT
TORSDOF 0
ENDMDL
