MODEL 1
REMARK minimizedAffinity 18.7878914
REMARK minimizedRMSD -1
REMARK  0 active torsions:
REMARK  status: ('A' for Active; 'I' for Inactive)
ROOT
ATOM      1  C   UNL d   1       1.033  -2.118   2.466  0.00  0.00     0.124 A 
ATOM      2  C1  UNL d   1       1.684  -2.520   1.308  0.00  0.00     0.062 A 
ATOM      3  C2  UNL d   1       2.046  -1.582   0.346  0.00  0.00     0.162 A 
ATOM      4  C3  UNL d   1       1.758  -0.231   0.538  0.00  0.00    -0.034 A 
ATOM      5  C4  UNL d   1       1.102   0.167   1.705  0.00  0.00     0.162 A 
ATOM      6  C5  UNL d   1       0.743  -0.775   2.663  0.00  0.00     0.062 A 
ATOM      7  F   UNL d   1       0.114  -0.385   3.781  0.00  0.00    -0.097 F 
ATOM      8  F1  UNL d   1       0.810   1.458   1.921  0.00  0.00    -0.096 F 
ATOM      9  I   UNL d   1       2.297   1.176  -0.898  0.00  0.00    -0.060 I 
ATOM     10  F2  UNL d   1       2.674  -1.999  -0.764  0.00  0.00    -0.096 F 
ATOM     11  F3  UNL d   1       1.965  -3.817   1.114  0.00  0.00    -0.097 F 
ATOM     12  F4  UNL d   1       0.686  -3.023   3.389  0.00  0.00    -0.092 F 
ENDROOT
TORSDOF 0
ENDMDL
