MODEL 1
REMARK minimizedAffinity 12.5568171
REMARK minimizedRMSD -1
REMARK  0 active torsions:
REMARK  status: ('A' for Active; 'I' for Inactive)
ROOT
ATOM      1  C   UNL d   1       2.324  -1.106  -1.184  0.00  0.00     0.124 A 
ATOM      2  C1  UNL d   1       2.780  -1.794  -0.067  0.00  0.00     0.062 A 
ATOM      3  C2  UNL d   1       1.979  -1.897   1.066  0.00  0.00     0.162 A 
ATOM      4  C3  UNL d   1       0.713  -1.312   1.089  0.00  0.00    -0.034 A 
ATOM      5  C4  UNL d   1       0.262  -0.621  -0.037  0.00  0.00     0.162 A 
ATOM      6  C5  UNL d   1       1.066  -0.521  -1.168  0.00  0.00     0.062 A 
ATOM      7  F   UNL d   1       0.624   0.143  -2.245  0.00  0.00    -0.097 F 
ATOM      8  F1  UNL d   1      -0.950  -0.047  -0.049  0.00  0.00    -0.096 F 
ATOM      9  I   UNL d   1      -0.487  -1.464   2.783  0.00  0.00    -0.060 I 
ATOM     10  F2  UNL d   1       2.445  -2.567   2.131  0.00  0.00    -0.096 F 
ATOM     11  F3  UNL d   1       3.996  -2.359  -0.080  0.00  0.00    -0.097 F 
ATOM     12  F4  UNL d   1       3.097  -1.008  -2.273  0.00  0.00    -0.092 F 
ENDROOT
TORSDOF 0
ENDMDL
