MODEL 1
REMARK minimizedAffinity 11.5999861
REMARK minimizedRMSD -1
REMARK  0 active torsions:
REMARK  status: ('A' for Active; 'I' for Inactive)
ROOT
ATOM      1  C   UNL d   1       1.210   0.936  -1.360  0.00  0.00     0.124 A 
ATOM      2  C1  UNL d   1       1.520  -0.415  -1.434  0.00  0.00     0.062 A 
ATOM      3  C2  UNL d   1       2.672  -0.904  -0.824  0.00  0.00     0.162 A 
ATOM      4  C3  UNL d   1       3.522  -0.040  -0.133  0.00  0.00    -0.034 A 
ATOM      5  C4  UNL d   1       3.204   1.317  -0.063  0.00  0.00     0.162 A 
ATOM      6  C5  UNL d   1       2.052   1.800  -0.675  0.00  0.00     0.062 A 
ATOM      7  F   UNL d   1       1.754   3.106  -0.602  0.00  0.00    -0.097 F 
ATOM      8  F1  UNL d   1       3.999   2.175   0.593  0.00  0.00    -0.096 F 
ATOM      9  I   UNL d   1       5.245  -0.767   0.781  0.00  0.00    -0.060 I 
ATOM     10  F2  UNL d   1       2.946  -2.214  -0.911  0.00  0.00    -0.096 F 
ATOM     11  F3  UNL d   1       0.709  -1.253  -2.096  0.00  0.00    -0.097 F 
ATOM     12  F4  UNL d   1       0.102   1.403  -1.949  0.00  0.00    -0.092 F 
ENDROOT
TORSDOF 0
ENDMDL
