MODEL 1
REMARK minimizedAffinity -1.44231963
REMARK minimizedRMSD -1
REMARK  0 active torsions:
REMARK  status: ('A' for Active; 'I' for Inactive)
ROOT
ATOM      1  N1  IND d   1       0.396   0.822   0.706  0.00  0.00    -0.196 N 
ATOM      2  C2  IND d   1       0.018  -0.003  -0.317  0.00  0.00     0.054 A 
ATOM      3  C3  IND d   1      -1.146  -0.622  -0.016  0.00  0.00    -0.031 A 
ATOM      4  C4  IND d   1      -2.656  -0.351   2.051  0.00  0.00     0.051 A 
ATOM      5  C5  IND d   1      -2.712   0.262   3.272  0.00  0.00    -0.031 A 
ATOM      6  C6  IND d   1      -1.716   1.113   3.706  0.00  0.00     0.015 A 
ATOM      7  C7  IND d   1      -0.628   1.392   2.929  0.00  0.00    -0.016 A 
ATOM      8  C8  IND d   1      -0.564   0.765   1.692  0.00  0.00    -0.047 A 
ATOM      9  C9  IND d   1      -1.551  -0.132   1.263  0.00  0.00    -0.096 A 
ATOM     10  HN1 IND d   1       1.112   1.297   0.728  0.00  0.00     0.298 HD
ENDROOT
TORSDOF 0
ENDMDL
