MODEL 1
REMARK minimizedAffinity -3.13663387
REMARK minimizedRMSD -1
REMARK  0 active torsions:
REMARK  status: ('A' for Active; 'I' for Inactive)
ROOT
ATOM      1  N1  IND d   1      -0.954   1.200  -0.720  0.00  0.00    -0.196 N 
ATOM      2  C2  IND d   1      -0.372   1.947  -1.706  0.00  0.00     0.054 A 
ATOM      3  C3  IND d   1       0.724   1.318  -2.188  0.00  0.00    -0.031 A 
ATOM      4  C4  IND d   1       1.686  -0.990  -1.577  0.00  0.00     0.051 A 
ATOM      5  C5  IND d   1       1.521  -2.030  -0.706  0.00  0.00    -0.031 A 
ATOM      6  C6  IND d   1       0.499  -2.048   0.221  0.00  0.00     0.015 A 
ATOM      7  C7  IND d   1      -0.405  -1.028   0.306  0.00  0.00    -0.016 A 
ATOM      8  C8  IND d   1      -0.236   0.033  -0.572  0.00  0.00    -0.047 A 
ATOM      9  C9  IND d   1       0.824   0.077  -1.488  0.00  0.00    -0.096 A 
ATOM     10  HN1 IND d   1      -1.651   1.421  -0.268  0.00  0.00     0.298 HD
ENDROOT
TORSDOF 0
ENDMDL
