MODEL 1
REMARK minimizedAffinity -0.140409082
REMARK minimizedRMSD -1
REMARK  0 active torsions:
REMARK  status: ('A' for Active; 'I' for Inactive)
ROOT
ATOM      1  N1  IND d   1       1.545   0.497  -2.512  0.00  0.00    -0.196 N 
ATOM      2  C2  IND d   1       0.897   1.700  -2.453  0.00  0.00     0.054 A 
ATOM      3  C3  IND d   1       0.072   1.738  -1.383  0.00  0.00    -0.031 A 
ATOM      4  C4  IND d   1      -0.296  -0.020   0.462  0.00  0.00     0.051 A 
ATOM      5  C5  IND d   1       0.045  -1.295   0.819  0.00  0.00    -0.031 A 
ATOM      6  C6  IND d   1       0.923  -2.051   0.070  0.00  0.00     0.015 A 
ATOM      7  C7  IND d   1       1.505  -1.555  -1.062  0.00  0.00    -0.016 A 
ATOM      8  C8  IND d   1       1.155  -0.264  -1.432  0.00  0.00    -0.047 A 
ATOM      9  C9  IND d   1       0.232   0.493  -0.699  0.00  0.00    -0.096 A 
ATOM     10  HN1 IND d   1       2.102   0.257  -3.121  0.00  0.00     0.298 HD
ENDROOT
TORSDOF 0
ENDMDL
