MODEL 1
REMARK minimizedAffinity 0.304156601
REMARK minimizedRMSD -1
REMARK  0 active torsions:
REMARK  status: ('A' for Active; 'I' for Inactive)
ROOT
ATOM      1  N1  IND d   1       1.093   0.157  -2.064  0.00  0.00    -0.196 N 
ATOM      2  C2  IND d   1       1.882  -0.949  -2.212  0.00  0.00     0.054 A 
ATOM      3  C3  IND d   1       1.595  -1.863  -1.257  0.00  0.00    -0.031 A 
ATOM      4  C4  IND d   1      -0.202  -1.793   0.585  0.00  0.00     0.051 A 
ATOM      5  C5  IND d   1      -1.144  -0.974   1.141  0.00  0.00    -0.031 A 
ATOM      6  C6  IND d   1      -1.395   0.289   0.646  0.00  0.00     0.015 A 
ATOM      7  C7  IND d   1      -0.719   0.778  -0.436  0.00  0.00    -0.016 A 
ATOM      8  C8  IND d   1       0.243  -0.049  -0.999  0.00  0.00    -0.047 A 
ATOM      9  C9  IND d   1       0.532  -1.316  -0.474  0.00  0.00    -0.096 A 
ATOM     10  HN1 IND d   1       1.122   0.864  -2.553  0.00  0.00     0.298 HD
ENDROOT
TORSDOF 0
ENDMDL
