MODEL 1
REMARK minimizedAffinity -4.43592882
REMARK minimizedRMSD -1
REMARK  0 active torsions:
REMARK  status: ('A' for Active; 'I' for Inactive)
ROOT
ATOM      1  N1  IND d   1      -0.079   0.557   0.395  0.00  0.00    -0.196 N 
ATOM      2  C2  IND d   1      -0.587  -0.705   0.523  0.00  0.00     0.054 A 
ATOM      3  C3  IND d   1       0.115  -1.575  -0.238  0.00  0.00    -0.031 A 
ATOM      4  C4  IND d   1       2.199  -1.162  -1.692  0.00  0.00     0.051 A 
ATOM      5  C5  IND d   1       3.011  -0.164  -2.153  0.00  0.00    -0.031 A 
ATOM      6  C6  IND d   1       2.832   1.152  -1.778  0.00  0.00     0.015 A 
ATOM      7  C7  IND d   1       1.838   1.519  -0.916  0.00  0.00    -0.016 A 
ATOM      8  C8  IND d   1       1.007   0.509  -0.452  0.00  0.00    -0.047 A 
ATOM      9  C9  IND d   1       1.157  -0.822  -0.862  0.00  0.00    -0.096 A 
ATOM     10  HN1 IND d   1      -0.386   1.263   0.778  0.00  0.00     0.298 HD
ENDROOT
TORSDOF 0
ENDMDL
