MODEL 1
REMARK minimizedAffinity -4.19048119
REMARK minimizedRMSD -1
REMARK  0 active torsions:
REMARK  status: ('A' for Active; 'I' for Inactive)
ROOT
ATOM      1  N1  IND d   1       1.914   0.867  -2.506  0.00  0.00    -0.196 N 
ATOM      2  C2  IND d   1       2.716  -0.240  -2.481  0.00  0.00     0.054 A 
ATOM      3  C3  IND d   1       2.283  -1.113  -1.545  0.00  0.00    -0.031 A 
ATOM      4  C4  IND d   1       0.221  -0.977  -0.009  0.00  0.00     0.051 A 
ATOM      5  C5  IND d   1      -0.796  -0.140   0.357  0.00  0.00    -0.031 A 
ATOM      6  C6  IND d   1      -0.966   1.099  -0.226  0.00  0.00     0.015 A 
ATOM      7  C7  IND d   1      -0.129   1.545  -1.209  0.00  0.00    -0.016 A 
ATOM      8  C8  IND d   1       0.908   0.701  -1.579  0.00  0.00    -0.047 A 
ATOM      9  C9  IND d   1       1.111  -0.540  -0.961  0.00  0.00    -0.096 A 
ATOM     10  HN1 IND d   1       2.019   1.552  -3.015  0.00  0.00     0.298 HD
ENDROOT
TORSDOF 0
ENDMDL
