MODEL 1
REMARK minimizedAffinity -2.3296721
REMARK minimizedRMSD -1
REMARK  0 active torsions:
REMARK  status: ('A' for Active; 'I' for Inactive)
ROOT
ATOM      1  N1  IND d   1       1.498  -1.638  -1.465  0.00  0.00    -0.196 N 
ATOM      2  C2  IND d   1       0.943  -2.262  -0.382  0.00  0.00     0.054 A 
ATOM      3  C3  IND d   1       0.069  -1.438   0.239  0.00  0.00    -0.031 A 
ATOM      4  C4  IND d   1      -0.680   0.939  -0.409  0.00  0.00     0.051 A 
ATOM      5  C5  IND d   1      -0.425   1.943  -1.299  0.00  0.00    -0.031 A 
ATOM      6  C6  IND d   1       0.501   1.802  -2.313  0.00  0.00     0.015 A 
ATOM      7  C7  IND d   1       1.201   0.641  -2.481  0.00  0.00    -0.016 A 
ATOM      8  C8  IND d   1       0.950  -0.379  -1.574  0.00  0.00    -0.047 A 
ATOM      9  C9  IND d   1       0.042  -0.226  -0.518  0.00  0.00    -0.096 A 
ATOM     10  HN1 IND d   1       2.090  -1.976  -1.989  0.00  0.00     0.298 HD
ENDROOT
TORSDOF 0
ENDMDL
