MODEL 1
REMARK minimizedAffinity 10.4271832
REMARK minimizedRMSD -1
REMARK  0 active torsions:
REMARK  status: ('A' for Active; 'I' for Inactive)
ROOT
ATOM      1  N1  IND d   1      -3.724  -1.784   5.100  0.00  0.00    -0.196 N 
ATOM      2  C2  IND d   1      -4.440  -2.585   4.255  0.00  0.00     0.054 A 
ATOM      3  C3  IND d   1      -4.241  -2.212   2.971  0.00  0.00    -0.031 A 
ATOM      4  C4  IND d   1      -2.701  -0.381   2.020  0.00  0.00     0.051 A 
ATOM      5  C5  IND d   1      -1.874   0.637   2.404  0.00  0.00    -0.031 A 
ATOM      6  C6  IND d   1      -1.614   0.904   3.732  0.00  0.00     0.015 A 
ATOM      7  C7  IND d   1      -2.165   0.152   4.731  0.00  0.00    -0.016 A 
ATOM      8  C8  IND d   1      -3.011  -0.878   4.345  0.00  0.00    -0.047 A 
ATOM      9  C9  IND d   1      -3.312  -1.127   3.000  0.00  0.00    -0.096 A 
ATOM     10  HN1 IND d   1      -3.719  -1.837   5.958  0.00  0.00     0.298 HD
ENDROOT
TORSDOF 0
ENDMDL
