MODEL 1
REMARK minimizedAffinity -3.42190456
REMARK minimizedRMSD -1
REMARK  0 active torsions:
REMARK  status: ('A' for Active; 'I' for Inactive)
ROOT
ATOM      1  N1  IND d   1       0.081   1.018  -0.760  0.00  0.00    -0.196 N 
ATOM      2  C2  IND d   1      -1.028   0.925   0.034  0.00  0.00     0.054 A 
ATOM      3  C3  IND d   1      -1.155  -0.331   0.518  0.00  0.00    -0.031 A 
ATOM      4  C4  IND d   1       0.396  -2.364   0.221  0.00  0.00     0.051 A 
ATOM      5  C5  IND d   1       1.515  -2.777  -0.448  0.00  0.00    -0.031 A 
ATOM      6  C6  IND d   1       2.229  -1.928  -1.269  0.00  0.00     0.015 A 
ATOM      7  C7  IND d   1       1.855  -0.625  -1.444  0.00  0.00    -0.016 A 
ATOM      8  C8  IND d   1       0.716  -0.205  -0.773  0.00  0.00    -0.047 A 
ATOM      9  C9  IND d   1      -0.037  -1.073   0.028  0.00  0.00    -0.096 A 
ATOM     10  HN1 IND d   1       0.338   1.722  -1.181  0.00  0.00     0.298 HD
ENDROOT
TORSDOF 0
ENDMDL
