MODEL 1
REMARK minimizedAffinity -2.85696602
REMARK minimizedRMSD -1
REMARK  0 active torsions:
REMARK  status: ('A' for Active; 'I' for Inactive)
ROOT
ATOM      1  N1  IND d   1      -0.169   1.102  -1.077  0.00  0.00    -0.196 N 
ATOM      2  C2  IND d   1      -1.278   1.046  -0.280  0.00  0.00     0.054 A 
ATOM      3  C3  IND d   1      -1.251  -0.067   0.487  0.00  0.00    -0.031 A 
ATOM      4  C4  IND d   1       0.566  -1.882   0.671  0.00  0.00     0.051 A 
ATOM      5  C5  IND d   1       1.749  -2.282   0.115  0.00  0.00    -0.031 A 
ATOM      6  C6  IND d   1       2.367  -1.559  -0.884  0.00  0.00     0.015 A 
ATOM      7  C7  IND d   1       1.828  -0.397  -1.360  0.00  0.00    -0.016 A 
ATOM      8  C8  IND d   1       0.624   0.009  -0.803  0.00  0.00    -0.047 A 
ATOM      9  C9  IND d   1      -0.030  -0.743   0.182  0.00  0.00    -0.096 A 
ATOM     10  HN1 IND d   1       0.005   1.717  -1.652  0.00  0.00     0.298 HD
ENDROOT
TORSDOF 0
ENDMDL
