MODEL 1
REMARK minimizedAffinity -5.66806555
REMARK minimizedRMSD -1
REMARK  0 active torsions:
REMARK  status: ('A' for Active; 'I' for Inactive)
ROOT
ATOM      1  N1  IND d   1       1.545   0.881  -2.331  0.00  0.00    -0.196 N 
ATOM      2  C2  IND d   1       2.220  -0.300  -2.466  0.00  0.00     0.054 A 
ATOM      3  C3  IND d   1       1.721  -1.227  -1.618  0.00  0.00    -0.031 A 
ATOM      4  C4  IND d   1      -0.267  -1.054   0.008  0.00  0.00     0.051 A 
ATOM      5  C5  IND d   1      -1.174  -0.164   0.510  0.00  0.00    -0.031 A 
ATOM      6  C6  IND d   1      -1.224   1.147   0.080  0.00  0.00     0.015 A 
ATOM      7  C7  IND d   1      -0.372   1.614  -0.881  0.00  0.00    -0.016 A 
ATOM      8  C8  IND d   1       0.555   0.714  -1.388  0.00  0.00    -0.047 A 
ATOM      9  C9  IND d   1       0.638  -0.605  -0.925  0.00  0.00    -0.096 A 
ATOM     10  HN1 IND d   1       1.711   1.606  -2.763  0.00  0.00     0.298 HD
ENDROOT
TORSDOF 0
ENDMDL
