MODEL 1
REMARK minimizedAffinity -3.51647925
REMARK minimizedRMSD -1
REMARK  0 active torsions:
REMARK  status: ('A' for Active; 'I' for Inactive)
ROOT
ATOM      1  N1  IND d   1      -0.745   1.749  -1.283  0.00  0.00    -0.196 N 
ATOM      2  C2  IND d   1      -1.476   1.259  -0.237  0.00  0.00     0.054 A 
ATOM      3  C3  IND d   1      -0.939   0.101   0.210  0.00  0.00    -0.031 A 
ATOM      4  C4  IND d   1       1.194  -1.118  -0.560  0.00  0.00     0.051 A 
ATOM      5  C5  IND d   1       2.177  -1.073  -1.508  0.00  0.00    -0.031 A 
ATOM      6  C6  IND d   1       2.239  -0.064  -2.447  0.00  0.00     0.015 A 
ATOM      7  C7  IND d   1       1.323   0.949  -2.466  0.00  0.00    -0.016 A 
ATOM      8  C8  IND d   1       0.319   0.903  -1.509  0.00  0.00    -0.047 A 
ATOM      9  C9  IND d   1       0.226  -0.141  -0.580  0.00  0.00    -0.096 A 
ATOM     10  HN1 IND d   1      -0.921   2.465  -1.726  0.00  0.00     0.298 HD
ENDROOT
TORSDOF 0
ENDMDL
