MODEL 1
REMARK minimizedAffinity -3.66109204
REMARK minimizedRMSD -1
REMARK  0 active torsions:
REMARK  status: ('A' for Active; 'I' for Inactive)
ROOT
ATOM      1  N1  IND d   1       0.972   0.825  -2.958  0.00  0.00    -0.196 N 
ATOM      2  C2  IND d   1       1.823  -0.238  -3.075  0.00  0.00     0.054 A 
ATOM      3  C3  IND d   1       1.676  -1.076  -2.026  0.00  0.00    -0.031 A 
ATOM      4  C4  IND d   1       0.027  -0.954  -0.053  0.00  0.00     0.051 A 
ATOM      5  C5  IND d   1      -0.925  -0.148   0.507  0.00  0.00    -0.031 A 
ATOM      6  C6  IND d   1      -1.302   1.046  -0.072  0.00  0.00     0.015 A 
ATOM      7  C7  IND d   1      -0.748   1.475  -1.245  0.00  0.00    -0.016 A 
ATOM      8  C8  IND d   1       0.224   0.663  -1.813  0.00  0.00    -0.047 A 
ATOM      9  C9  IND d   1       0.641  -0.529  -1.207  0.00  0.00    -0.096 A 
ATOM     10  HN1 IND d   1       0.913   1.484  -3.507  0.00  0.00     0.298 HD
ENDROOT
TORSDOF 0
ENDMDL
