MODEL 1
REMARK minimizedAffinity -3.76106691
REMARK minimizedRMSD -1
REMARK  0 active torsions:
REMARK  status: ('A' for Active; 'I' for Inactive)
ROOT
ATOM      1  N1  IND d   1      -2.840   1.349   2.321  0.00  0.00    -0.196 N 
ATOM      2  C2  IND d   1      -2.499   1.273   3.643  0.00  0.00     0.054 A 
ATOM      3  C3  IND d   1      -1.266   0.736   3.780  0.00  0.00    -0.031 A 
ATOM      4  C4  IND d   1       0.411   0.005   1.969  0.00  0.00     0.051 A 
ATOM      5  C5  IND d   1       0.536  -0.151   0.617  0.00  0.00    -0.031 A 
ATOM      6  C6  IND d   1      -0.477   0.195  -0.254  0.00  0.00     0.015 A 
ATOM      7  C7  IND d   1      -1.654   0.723   0.196  0.00  0.00    -0.016 A 
ATOM      8  C8  IND d   1      -1.788   0.876   1.569  0.00  0.00    -0.047 A 
ATOM      9  C9  IND d   1      -0.780   0.487   2.460  0.00  0.00    -0.096 A 
ATOM     10  HN1 IND d   1      -3.586   1.644   2.012  0.00  0.00     0.298 HD
ENDROOT
TORSDOF 0
ENDMDL
