MODEL 1
REMARK minimizedAffinity -2.70249319
REMARK minimizedRMSD -1
REMARK  0 active torsions:
REMARK  status: ('A' for Active; 'I' for Inactive)
ROOT
ATOM      1  N1  IND d   1       0.355   1.950  -1.910  0.00  0.00    -0.196 N 
ATOM      2  C2  IND d   1      -0.744   2.314  -1.183  0.00  0.00     0.054 A 
ATOM      3  C3  IND d   1      -1.093   1.323  -0.331  0.00  0.00    -0.031 A 
ATOM      4  C4  IND d   1       0.057  -0.938   0.107  0.00  0.00     0.051 A 
ATOM      5  C5  IND d   1       1.074  -1.734  -0.340  0.00  0.00    -0.031 A 
ATOM      6  C6  IND d   1       1.922  -1.333  -1.352  0.00  0.00     0.015 A 
ATOM      7  C7  IND d   1       1.791  -0.112  -1.950  0.00  0.00    -0.016 A 
ATOM      8  C8  IND d   1       0.755   0.696  -1.503  0.00  0.00    -0.047 A 
ATOM      9  C9  IND d   1      -0.135   0.278  -0.505  0.00  0.00    -0.096 A 
ATOM     10  HN1 IND d   1       0.732   2.425  -2.520  0.00  0.00     0.298 HD
ENDROOT
TORSDOF 0
ENDMDL
