MODEL 1
REMARK minimizedAffinity -1.73067176
REMARK minimizedRMSD -1
REMARK  0 active torsions:
REMARK  status: ('A' for Active; 'I' for Inactive)
ROOT
ATOM      1  N1  IND d   1       0.744   2.011  -2.829  0.00  0.00    -0.196 N 
ATOM      2  C2  IND d   1      -0.170   2.781  -2.165  0.00  0.00     0.054 A 
ATOM      3  C3  IND d   1      -0.706   2.091  -1.134  0.00  0.00    -0.031 A 
ATOM      4  C4  IND d   1      -0.156  -0.279  -0.291  0.00  0.00     0.051 A 
ATOM      5  C5  IND d   1       0.586  -1.385  -0.596  0.00  0.00    -0.031 A 
ATOM      6  C6  IND d   1       1.438  -1.416  -1.681  0.00  0.00     0.015 A 
ATOM      7  C7  IND d   1       1.588  -0.332  -2.499  0.00  0.00    -0.016 A 
ATOM      8  C8  IND d   1       0.831   0.791  -2.197  0.00  0.00    -0.047 A 
ATOM      9  C9  IND d   1      -0.067   0.813  -1.122  0.00  0.00    -0.096 A 
ATOM     10  HN1 IND d   1       1.189   2.250  -3.525  0.00  0.00     0.298 HD
ENDROOT
TORSDOF 0
ENDMDL
