MODEL 1
REMARK minimizedAffinity -3.80135751
REMARK minimizedRMSD -1
REMARK  0 active torsions:
REMARK  status: ('A' for Active; 'I' for Inactive)
ROOT
ATOM      1  N1  IND d   1       0.816   1.609  -1.610  0.00  0.00    -0.196 N 
ATOM      2  C2  IND d   1       0.705   0.770  -0.537  0.00  0.00     0.054 A 
ATOM      3  C3  IND d   1       1.567  -0.264  -0.657  0.00  0.00    -0.031 A 
ATOM      4  C4  IND d   1       3.323  -0.726  -2.482  0.00  0.00     0.051 A 
ATOM      5  C5  IND d   1       3.774  -0.261  -3.686  0.00  0.00    -0.031 A 
ATOM      6  C6  IND d   1       3.253   0.876  -4.269  0.00  0.00     0.015 A 
ATOM      7  C7  IND d   1       2.266   1.600  -3.663  0.00  0.00    -0.016 A 
ATOM      8  C8  IND d   1       1.801   1.126  -2.444  0.00  0.00    -0.047 A 
ATOM      9  C9  IND d   1       2.296  -0.050  -1.867  0.00  0.00    -0.096 A 
ATOM     10  HN1 IND d   1       0.350   2.319  -1.742  0.00  0.00     0.298 HD
ENDROOT
TORSDOF 0
ENDMDL
