MODEL 1
REMARK minimizedAffinity 2.03896451
REMARK minimizedRMSD -1
REMARK  1 active torsions:
REMARK  status: ('A' for Active; 'I' for Inactive)
REMARK    1  A    between atoms: N_2  and  C1_3 
ROOT
ATOM      1  C1  UNL d   1       2.968  -3.348  -1.227  0.00  0.00     0.143 A 
ATOM      2  C2  UNL d   1       2.713  -3.712  -2.554  0.00  0.00    -0.057 A 
ATOM      3  C3  UNL d   1       3.401  -4.769  -3.162  0.00  0.00     0.033 A 
ATOM      4  C4  UNL d   1       4.379  -5.465  -2.460  0.00  0.00    -0.042 A 
ATOM      5  C5  UNL d   1       4.667  -5.105  -1.148  0.00  0.00     0.033 A 
ATOM      6  C6  UNL d   1       3.972  -4.053  -0.544  0.00  0.00    -0.057 A 
ENDROOT
BRANCH   1   7
ATOM      7  N   UNL d   1       2.388  -2.244  -0.598  0.00  0.00    -0.732 N 
ATOM      8  C   UNL d   1       2.108  -1.035  -1.342  0.00  0.00     0.284 C 
ATOM      9  H3  UNL d   1       1.654  -2.510   0.056  0.00  0.00     0.395 HD
ENDBRANCH   1   7
TORSDOF 1
ENDMDL
