MODEL 1
REMARK minimizedAffinity -2.22814512
REMARK minimizedRMSD -1
REMARK  1 active torsions:
REMARK  status: ('A' for Active; 'I' for Inactive)
REMARK    1  A    between atoms: N_2  and  C1_3 
ROOT
ATOM      1  C1  UNL d   1       2.897  -2.946  -2.755  0.00  0.00     0.143 A 
ATOM      2  C2  UNL d   1       3.682  -3.651  -3.674  0.00  0.00    -0.057 A 
ATOM      3  C3  UNL d   1       4.524  -4.692  -3.263  0.00  0.00     0.033 A 
ATOM      4  C4  UNL d   1       4.617  -5.028  -1.917  0.00  0.00    -0.042 A 
ATOM      5  C5  UNL d   1       3.865  -4.325  -0.983  0.00  0.00     0.033 A 
ATOM      6  C6  UNL d   1       3.022  -3.291  -1.400  0.00  0.00    -0.057 A 
ENDROOT
BRANCH   1   7
ATOM      7  N   UNL d   1       2.116  -1.837  -3.089  0.00  0.00    -0.732 N 
ATOM      8  C   UNL d   1       2.190  -0.622  -2.307  0.00  0.00     0.284 C 
ATOM      9  H3  UNL d   1       2.069  -1.683  -4.093  0.00  0.00     0.395 HD
ENDBRANCH   1   7
TORSDOF 1
ENDMDL
