MODEL 1
REMARK minimizedAffinity 1.55197132
REMARK minimizedRMSD -1
REMARK  1 active torsions:
REMARK  status: ('A' for Active; 'I' for Inactive)
REMARK    1  A    between atoms: N_2  and  C1_3 
ROOT
ATOM      1  C1  UNL d   1       2.768  -1.881  -1.632  0.00  0.00     0.143 A 
ATOM      2  C2  UNL d   1       3.153  -2.718  -0.580  0.00  0.00    -0.057 A 
ATOM      3  C3  UNL d   1       3.584  -4.029  -0.816  0.00  0.00     0.033 A 
ATOM      4  C4  UNL d   1       3.610  -4.537  -2.111  0.00  0.00    -0.042 A 
ATOM      5  C5  UNL d   1       3.208  -3.730  -3.170  0.00  0.00     0.033 A 
ATOM      6  C6  UNL d   1       2.785  -2.420  -2.928  0.00  0.00    -0.057 A 
ENDROOT
BRANCH   1   7
ATOM      7  N   UNL d   1       2.237  -0.601  -1.453  0.00  0.00    -0.732 N 
ATOM      8  C   UNL d   1       2.477   0.440  -2.430  0.00  0.00     0.284 C 
ATOM      9  H3  UNL d   1       1.285  -0.622  -1.094  0.00  0.00     0.395 HD
ENDBRANCH   1   7
TORSDOF 1
ENDMDL
