MODEL 1
REMARK minimizedAffinity 8.57461548
REMARK minimizedRMSD -1
REMARK  1 active torsions:
REMARK  status: ('A' for Active; 'I' for Inactive)
REMARK    1  A    between atoms: N_2  and  C1_3 
ROOT
ATOM      1  C1  UNL d   1       3.479  -4.826  -1.699  0.00  0.00     0.143 A 
ATOM      2  C2  UNL d   1       2.222  -4.234  -1.539  0.00  0.00    -0.057 A 
ATOM      3  C3  UNL d   1       1.428  -3.905  -2.644  0.00  0.00     0.033 A 
ATOM      4  C4  UNL d   1       1.893  -4.136  -3.935  0.00  0.00    -0.042 A 
ATOM      5  C5  UNL d   1       3.150  -4.701  -4.118  0.00  0.00     0.033 A 
ATOM      6  C6  UNL d   1       3.935  -5.033  -3.010  0.00  0.00    -0.057 A 
ENDROOT
BRANCH   1   7
ATOM      7  N   UNL d   1       4.357  -5.085  -0.643  0.00  0.00    -0.732 N 
ATOM      8  C   UNL d   1       4.577  -4.099   0.393  0.00  0.00     0.284 C 
ATOM      9  H3  UNL d   1       4.278  -6.039  -0.298  0.00  0.00     0.395 HD
ENDBRANCH   1   7
TORSDOF 1
ENDMDL
