MODEL 1
REMARK minimizedAffinity 5.64832973
REMARK minimizedRMSD -1
REMARK  1 active torsions:
REMARK  status: ('A' for Active; 'I' for Inactive)
REMARK    1  A    between atoms: N_2  and  C1_3 
ROOT
ATOM      1  C1  UNL d   1       1.769   3.611  -1.340  0.00  0.00     0.143 A 
ATOM      2  C2  UNL d   1       1.387   3.592   0.006  0.00  0.00    -0.057 A 
ATOM      3  C3  UNL d   1       1.400   4.757   0.782  0.00  0.00     0.033 A 
ATOM      4  C4  UNL d   1       1.825   5.962   0.231  0.00  0.00    -0.042 A 
ATOM      5  C5  UNL d   1       2.234   6.000  -1.097  0.00  0.00     0.033 A 
ATOM      6  C6  UNL d   1       2.212   4.834  -1.869  0.00  0.00    -0.057 A 
ENDROOT
BRANCH   1   7
ATOM      7  N   UNL d   1       1.872   2.468  -2.136  0.00  0.00    -0.732 N 
ATOM      8  C   UNL d   1       0.978   2.268  -3.256  0.00  0.00     0.284 C 
ATOM      9  H3  UNL d   1       2.838   2.211  -2.323  0.00  0.00     0.395 HD
ENDBRANCH   1   7
TORSDOF 1
ENDMDL
