MODEL 1
REMARK minimizedAffinity 0.445135504
REMARK minimizedRMSD -1
REMARK  1 active torsions:
REMARK  status: ('A' for Active; 'I' for Inactive)
REMARK    1  A    between atoms: N_2  and  C1_3 
ROOT
ATOM      1  C1  UNL d   1      -3.951  -1.099   2.683  0.00  0.00     0.143 A 
ATOM      2  C2  UNL d   1      -4.502   0.186   2.621  0.00  0.00    -0.057 A 
ATOM      3  C3  UNL d   1      -3.745   1.317   2.951  0.00  0.00     0.033 A 
ATOM      4  C4  UNL d   1      -2.429   1.180   3.378  0.00  0.00    -0.042 A 
ATOM      5  C5  UNL d   1      -1.868  -0.089   3.471  0.00  0.00     0.033 A 
ATOM      6  C6  UNL d   1      -2.626  -1.214   3.134  0.00  0.00    -0.057 A 
ENDROOT
BRANCH   1   7
ATOM      7  N   UNL d   1      -4.680  -2.270   2.462  0.00  0.00    -0.732 N 
ATOM      8  C   UNL d   1      -5.956  -2.477   3.114  0.00  0.00     0.284 C 
ATOM      9  H3  UNL d   1      -4.658  -2.564   1.489  0.00  0.00     0.395 HD
ENDBRANCH   1   7
TORSDOF 1
ENDMDL
