MODEL 1
REMARK minimizedAffinity 4.64693928
REMARK minimizedRMSD -1
REMARK  1 active torsions:
REMARK  status: ('A' for Active; 'I' for Inactive)
REMARK    1  A    between atoms: N_2  and  C1_3 
ROOT
ATOM      1  C1  UNL d   1       2.204   2.001   0.342  0.00  0.00     0.143 A 
ATOM      2  C2  UNL d   1       2.602   0.754   0.835  0.00  0.00    -0.057 A 
ATOM      3  C3  UNL d   1       2.750  -0.349  -0.014  0.00  0.00     0.033 A 
ATOM      4  C4  UNL d   1       2.475  -0.231  -1.372  0.00  0.00    -0.042 A 
ATOM      5  C5  UNL d   1       2.054   0.993  -1.881  0.00  0.00     0.033 A 
ATOM      6  C6  UNL d   1       1.914   2.092  -1.028  0.00  0.00    -0.057 A 
ENDROOT
BRANCH   1   7
ATOM      7  N   UNL d   1       1.944   3.110   1.150  0.00  0.00    -0.732 N 
ATOM      8  C   UNL d   1       0.793   3.951   0.899  0.00  0.00     0.284 C 
ATOM      9  H3  UNL d   1       2.114   2.921   2.136  0.00  0.00     0.395 HD
ENDBRANCH   1   7
TORSDOF 1
ENDMDL
