MODEL 1
REMARK minimizedAffinity 10.297226
REMARK minimizedRMSD -1
REMARK  1 active torsions:
REMARK  status: ('A' for Active; 'I' for Inactive)
REMARK    1  A    between atoms: N_2  and  C1_3 
ROOT
ATOM      1  C1  UNL d   1      -2.005  -2.709  -3.434  0.00  0.00     0.143 A 
ATOM      2  C2  UNL d   1      -1.891  -3.362  -2.202  0.00  0.00    -0.057 A 
ATOM      3  C3  UNL d   1      -1.361  -4.655  -2.112  0.00  0.00     0.033 A 
ATOM      4  C4  UNL d   1      -0.960  -5.331  -3.259  0.00  0.00    -0.042 A 
ATOM      5  C5  UNL d   1      -1.087  -4.711  -4.497  0.00  0.00     0.033 A 
ATOM      6  C6  UNL d   1      -1.611  -3.417  -4.580  0.00  0.00    -0.057 A 
ENDROOT
BRANCH   1   7
ATOM      7  N   UNL d   1      -2.614  -1.463  -3.601  0.00  0.00    -0.732 N 
ATOM      8  C   UNL d   1      -2.130  -0.304  -2.882  0.00  0.00     0.284 C 
ATOM      9  H3  UNL d   1      -2.861  -1.278  -4.570  0.00  0.00     0.395 HD
ENDBRANCH   1   7
TORSDOF 1
ENDMDL
