MODEL 1
REMARK minimizedAffinity -2.10760188
REMARK minimizedRMSD -1
REMARK  0 active torsions:
REMARK  status: ('A' for Active; 'I' for Inactive)
ROOT
ATOM      1  C   UNL d   1      -1.517  -0.063   1.424  0.00  0.00     0.077 C 
ATOM      2  C1  UNL d   1      -0.785   0.534   0.259  0.00  0.00    -0.074 A 
ATOM      3  C2  UNL d   1       0.613   0.572   0.232  0.00  0.00    -0.005 A 
ATOM      4  C3  UNL d   1       1.280   1.122  -0.863  0.00  0.00     0.006 A 
ATOM      5  C4  UNL d   1       0.558   1.638  -1.939  0.00  0.00    -0.005 A 
ATOM      6  C5  UNL d   1      -0.840   1.608  -1.930  0.00  0.00    -0.074 A 
ATOM      7  C6  UNL d   1      -1.632   2.149  -3.083  0.00  0.00     0.077 C 
ATOM      8  C7  UNL d   1      -1.503   1.047  -0.829  0.00  0.00    -0.001 A 
ENDROOT
TORSDOF 0
ENDMDL
