MODEL 1
REMARK minimizedAffinity -3.11427331
REMARK minimizedRMSD -1
REMARK  0 active torsions:
REMARK  status: ('A' for Active; 'I' for Inactive)
ROOT
ATOM      1  C   UNL d   1      -1.094   1.083  -1.336  0.00  0.00     0.077 C 
ATOM      2  C1  UNL d   1       0.080   0.347  -0.761  0.00  0.00    -0.074 A 
ATOM      3  C2  UNL d   1       1.042  -0.233  -1.594  0.00  0.00    -0.005 A 
ATOM      4  C3  UNL d   1       2.133  -0.906  -1.045  0.00  0.00     0.006 A 
ATOM      5  C4  UNL d   1       2.274  -1.005   0.340  0.00  0.00    -0.005 A 
ATOM      6  C5  UNL d   1       1.322  -0.431   1.188  0.00  0.00    -0.074 A 
ATOM      7  C6  UNL d   1       1.463  -0.520   2.679  0.00  0.00     0.077 C 
ATOM      8  C7  UNL d   1       0.232   0.250   0.629  0.00  0.00    -0.001 A 
ENDROOT
TORSDOF 0
ENDMDL
