MODEL 1
REMARK minimizedAffinity -3.7616694
REMARK minimizedRMSD -1
REMARK  0 active torsions:
REMARK  status: ('A' for Active; 'I' for Inactive)
ROOT
ATOM      1  C   UNL d   1      -0.748  -2.428   2.996  0.00  0.00     0.077 C 
ATOM      2  C1  UNL d   1       0.012  -1.307   2.353  0.00  0.00    -0.074 A 
ATOM      3  C2  UNL d   1       1.166  -0.787   2.948  0.00  0.00    -0.005 A 
ATOM      4  C3  UNL d   1       1.868   0.250   2.333  0.00  0.00     0.006 A 
ATOM      5  C4  UNL d   1       1.423   0.777   1.119  0.00  0.00    -0.005 A 
ATOM      6  C5  UNL d   1       0.272   0.269   0.509  0.00  0.00    -0.074 A 
ATOM      7  C6  UNL d   1      -0.214   0.816  -0.800  0.00  0.00     0.077 C 
ATOM      8  C7  UNL d   1      -0.424  -0.778   1.130  0.00  0.00    -0.001 A 
ENDROOT
TORSDOF 0
ENDMDL
