MODEL 1
REMARK minimizedAffinity -4.55443239
REMARK minimizedRMSD -1
REMARK  0 active torsions:
REMARK  status: ('A' for Active; 'I' for Inactive)
ROOT
ATOM      1  C   UNL d   1       0.993  -0.388  -1.860  0.00  0.00     0.077 C 
ATOM      2  C1  UNL d   1       0.396  -0.238  -0.492  0.00  0.00    -0.074 A 
ATOM      3  C2  UNL d   1      -0.963   0.047  -0.328  0.00  0.00    -0.005 A 
ATOM      4  C3  UNL d   1      -1.506   0.175   0.951  0.00  0.00     0.006 A 
ATOM      5  C4  UNL d   1      -0.696   0.018   2.076  0.00  0.00    -0.005 A 
ATOM      6  C5  UNL d   1       0.665  -0.269   1.932  0.00  0.00    -0.074 A 
ATOM      7  C6  UNL d   1       1.547  -0.450   3.131  0.00  0.00     0.077 C 
ATOM      8  C7  UNL d   1       1.201  -0.402   0.644  0.00  0.00    -0.001 A 
ENDROOT
TORSDOF 0
ENDMDL
