MODEL 1
REMARK minimizedAffinity -0.781733096
REMARK minimizedRMSD -1
REMARK  0 active torsions:
REMARK  status: ('A' for Active; 'I' for Inactive)
ROOT
ATOM      1  C   UNL d   1      -3.026   2.263  -2.640  0.00  0.00     0.077 C 
ATOM      2  C1  UNL d   1      -1.547   2.072  -2.484  0.00  0.00    -0.074 A 
ATOM      3  C2  UNL d   1      -0.641   2.976  -3.049  0.00  0.00    -0.005 A 
ATOM      4  C3  UNL d   1       0.732   2.790  -2.887  0.00  0.00     0.006 A 
ATOM      5  C4  UNL d   1       1.212   1.701  -2.159  0.00  0.00    -0.005 A 
ATOM      6  C5  UNL d   1       0.322   0.788  -1.586  0.00  0.00    -0.074 A 
ATOM      7  C6  UNL d   1       0.822  -0.383  -0.792  0.00  0.00     0.077 C 
ATOM      8  C7  UNL d   1      -1.056   0.985  -1.747  0.00  0.00    -0.001 A 
ENDROOT
TORSDOF 0
ENDMDL
