MODEL 1
REMARK minimizedAffinity -2.63542438
REMARK minimizedRMSD -1
REMARK  0 active torsions:
REMARK  status: ('A' for Active; 'I' for Inactive)
ROOT
ATOM      1  C   UNL d   1       0.065   0.774  -1.932  0.00  0.00     0.077 C 
ATOM      2  C1  UNL d   1      -0.209   0.332  -0.525  0.00  0.00    -0.074 A 
ATOM      3  C2  UNL d   1      -1.515   0.083  -0.092  0.00  0.00    -0.005 A 
ATOM      4  C3  UNL d   1      -1.753  -0.336   1.217  0.00  0.00     0.006 A 
ATOM      5  C4  UNL d   1      -0.690  -0.510   2.104  0.00  0.00    -0.005 A 
ATOM      6  C5  UNL d   1       0.623  -0.266   1.688  0.00  0.00    -0.074 A 
ATOM      7  C6  UNL d   1       1.778  -0.458   2.626  0.00  0.00     0.077 C 
ATOM      8  C7  UNL d   1       0.855   0.148   0.369  0.00  0.00    -0.001 A 
ENDROOT
TORSDOF 0
ENDMDL
