MODEL 1
REMARK minimizedAffinity -2.87026453
REMARK minimizedRMSD -1
REMARK  0 active torsions:
REMARK  status: ('A' for Active; 'I' for Inactive)
ROOT
ATOM      1  C   UNL d   1       2.756  -1.157   0.005  0.00  0.00     0.077 C 
ATOM      2  C1  UNL d   1       1.398  -0.643   0.382  0.00  0.00    -0.074 A 
ATOM      3  C2  UNL d   1       0.966  -0.664   1.712  0.00  0.00    -0.005 A 
ATOM      4  C3  UNL d   1      -0.296  -0.174   2.049  0.00  0.00     0.006 A 
ATOM      5  C4  UNL d   1      -1.137   0.340   1.062  0.00  0.00    -0.005 A 
ATOM      6  C5  UNL d   1      -0.722   0.369  -0.274  0.00  0.00    -0.074 A 
ATOM      7  C6  UNL d   1      -1.609   0.928  -1.346  0.00  0.00     0.077 C 
ATOM      8  C7  UNL d   1       0.550  -0.118  -0.603  0.00  0.00    -0.001 A 
ENDROOT
TORSDOF 0
ENDMDL
