MODEL 1
REMARK minimizedAffinity -2.19095063
REMARK minimizedRMSD -1
REMARK  0 active torsions:
REMARK  status: ('A' for Active; 'I' for Inactive)
ROOT
ATOM      1  C   UNL d   1      -2.551  -0.567   1.567  0.00  0.00     0.077 C 
ATOM      2  C1  UNL d   1      -1.057  -0.436   1.550  0.00  0.00    -0.074 A 
ATOM      3  C2  UNL d   1      -0.283  -0.898   2.619  0.00  0.00    -0.005 A 
ATOM      4  C3  UNL d   1       1.106  -0.779   2.584  0.00  0.00     0.006 A 
ATOM      5  C4  UNL d   1       1.734  -0.196   1.483  0.00  0.00    -0.005 A 
ATOM      6  C5  UNL d   1       0.977   0.271   0.404  0.00  0.00    -0.074 A 
ATOM      7  C6  UNL d   1       1.636   0.890  -0.792  0.00  0.00     0.077 C 
ATOM      8  C7  UNL d   1      -0.418   0.140   0.443  0.00  0.00    -0.001 A 
ENDROOT
TORSDOF 0
ENDMDL
