MODEL 1
REMARK minimizedAffinity -4.32498646
REMARK minimizedRMSD -1
REMARK  0 active torsions:
REMARK  status: ('A' for Active; 'I' for Inactive)
ROOT
ATOM      1  C   UNL d   1       1.792  -1.156   3.598  0.00  0.00     0.077 C 
ATOM      2  C1  UNL d   1       0.974  -0.544   2.500  0.00  0.00    -0.074 A 
ATOM      3  C2  UNL d   1       1.553  -0.210   1.272  0.00  0.00    -0.005 A 
ATOM      4  C3  UNL d   1       0.777   0.350   0.257  0.00  0.00     0.006 A 
ATOM      5  C4  UNL d   1      -0.584   0.580   0.460  0.00  0.00    -0.005 A 
ATOM      6  C5  UNL d   1      -1.182   0.251   1.681  0.00  0.00    -0.074 A 
ATOM      7  C6  UNL d   1      -2.645   0.483   1.911  0.00  0.00     0.077 C 
ATOM      8  C7  UNL d   1      -0.396  -0.317   2.693  0.00  0.00    -0.001 A 
ENDROOT
TORSDOF 0
ENDMDL
