MODEL 1
REMARK minimizedAffinity -3.98745918
REMARK minimizedRMSD -1
REMARK  0 active torsions:
REMARK  status: ('A' for Active; 'I' for Inactive)
ROOT
ATOM      1  C   UNL d   1      -0.725   3.703  -1.881  0.00  0.00     0.077 C 
ATOM      2  C1  UNL d   1      -0.462   2.246  -1.643  0.00  0.00    -0.074 A 
ATOM      3  C2  UNL d   1      -0.259   1.368  -2.713  0.00  0.00    -0.005 A 
ATOM      4  C3  UNL d   1      -0.006   0.017  -2.476  0.00  0.00     0.006 A 
ATOM      5  C4  UNL d   1       0.046  -0.469  -1.169  0.00  0.00    -0.005 A 
ATOM      6  C5  UNL d   1      -0.155   0.393  -0.087  0.00  0.00    -0.074 A 
ATOM      7  C6  UNL d   1      -0.093  -0.111   1.324  0.00  0.00     0.077 C 
ATOM      8  C7  UNL d   1      -0.401   1.751  -0.333  0.00  0.00    -0.001 A 
ENDROOT
TORSDOF 0
ENDMDL
