MODEL 1
REMARK minimizedAffinity -4.05434942
REMARK minimizedRMSD -1
REMARK  0 active torsions:
REMARK  status: ('A' for Active; 'I' for Inactive)
ROOT
ATOM      1  C   UNL d   1       1.863  -0.861   3.259  0.00  0.00     0.077 C 
ATOM      2  C1  UNL d   1       0.881  -0.563   2.165  0.00  0.00    -0.074 A 
ATOM      3  C2  UNL d   1      -0.414  -0.123   2.461  0.00  0.00    -0.005 A 
ATOM      4  C3  UNL d   1      -1.313   0.159   1.433  0.00  0.00     0.006 A 
ATOM      5  C4  UNL d   1      -0.928   0.005   0.100  0.00  0.00    -0.005 A 
ATOM      6  C5  UNL d   1       0.362  -0.433  -0.215  0.00  0.00    -0.074 A 
ATOM      7  C6  UNL d   1       0.796  -0.594  -1.642  0.00  0.00     0.077 C 
ATOM      8  C7  UNL d   1       1.262  -0.707   0.824  0.00  0.00    -0.001 A 
ENDROOT
TORSDOF 0
ENDMDL
