MODEL 1
REMARK minimizedAffinity 5.19724035
REMARK minimizedRMSD -1
REMARK  0 active torsions:
REMARK  status: ('A' for Active; 'I' for Inactive)
ROOT
ATOM      1  O1  BZF d   1      -0.106  -2.128   3.071  0.00  0.00    -0.204 OA
ATOM      2  C2  BZF d   1       0.369  -0.950   2.527  0.00  0.00     0.174 A 
ATOM      3  C3  BZF d   1       1.703  -0.849   2.698  0.00  0.00    -0.012 A 
ATOM      4  C3A BZF d   1       2.099  -2.081   3.309  0.00  0.00    -0.107 A 
ATOM      5  C4  BZF d   1       3.303  -2.585   3.711  0.00  0.00     0.055 A 
ATOM      6  C5  BZF d   1       3.338  -3.789   4.340  0.00  0.00    -0.016 A 
ATOM      7  C6  BZF d   1       2.190  -4.512   4.588  0.00  0.00     0.022 A 
ATOM      8  C7  BZF d   1       0.973  -4.056   4.203  0.00  0.00     0.029 A 
ATOM      9  C7A BZF d   1       0.938  -2.854   3.538  0.00  0.00     0.058 A 
ENDROOT
TORSDOF 0
ENDMDL
