MODEL 1
REMARK minimizedAffinity 4.90056324
REMARK minimizedRMSD -1
REMARK  0 active torsions:
REMARK  status: ('A' for Active; 'I' for Inactive)
ROOT
ATOM      1  O1  BZF d   1      -5.603   1.751  -2.062  0.00  0.00    -0.204 OA
ATOM      2  C2  BZF d   1      -4.594   2.216  -2.883  0.00  0.00     0.174 A 
ATOM      3  C3  BZF d   1      -3.591   2.747  -2.155  0.00  0.00    -0.012 A 
ATOM      4  C3A BZF d   1      -3.956   2.521  -0.790  0.00  0.00    -0.107 A 
ATOM      5  C4  BZF d   1      -3.355   2.808   0.402  0.00  0.00     0.055 A 
ATOM      6  C5  BZF d   1      -4.010   2.520   1.558  0.00  0.00    -0.016 A 
ATOM      7  C6  BZF d   1      -5.267   1.951   1.558  0.00  0.00     0.022 A 
ATOM      8  C7  BZF d   1      -5.901   1.645   0.400  0.00  0.00     0.029 A 
ATOM      9  C7A BZF d   1      -5.228   1.904  -0.769  0.00  0.00     0.058 A 
ENDROOT
TORSDOF 0
ENDMDL
