MODEL 1
REMARK minimizedAffinity 1.95748675
REMARK minimizedRMSD -1
REMARK  0 active torsions:
REMARK  status: ('A' for Active; 'I' for Inactive)
ROOT
ATOM      1  O1  BZF d   1       3.000  -0.686   2.448  0.00  0.00    -0.204 OA
ATOM      2  C2  BZF d   1       1.655  -0.602   2.145  0.00  0.00     0.174 A 
ATOM      3  C3  BZF d   1       0.997  -1.698   2.577  0.00  0.00    -0.012 A 
ATOM      4  C3A BZF d   1       1.978  -2.476   3.270  0.00  0.00    -0.107 A 
ATOM      5  C4  BZF d   1       1.931  -3.667   3.936  0.00  0.00     0.055 A 
ATOM      6  C5  BZF d   1       3.081  -4.188   4.439  0.00  0.00    -0.016 A 
ATOM      7  C6  BZF d   1       4.294  -3.548   4.290  0.00  0.00     0.022 A 
ATOM      8  C7  BZF d   1       4.389  -2.361   3.641  0.00  0.00     0.029 A 
ATOM      9  C7A BZF d   1       3.224  -1.816   3.161  0.00  0.00     0.058 A 
ENDROOT
TORSDOF 0
ENDMDL
