MODEL 1
REMARK minimizedAffinity 0.705019116
REMARK minimizedRMSD -1
REMARK  0 active torsions:
REMARK  status: ('A' for Active; 'I' for Inactive)
ROOT
ATOM      1  O1  BZF d   1      -5.649   0.721  -2.094  0.00  0.00    -0.204 OA
ATOM      2  C2  BZF d   1      -4.740   1.264  -2.981  0.00  0.00     0.174 A 
ATOM      3  C3  BZF d   1      -3.901   2.110  -2.348  0.00  0.00    -0.012 A 
ATOM      4  C3A BZF d   1      -4.253   2.023  -0.964  0.00  0.00    -0.107 A 
ATOM      5  C4  BZF d   1      -3.769   2.616   0.167  0.00  0.00     0.055 A 
ATOM      6  C5  BZF d   1      -4.382   2.373   1.355  0.00  0.00    -0.016 A 
ATOM      7  C6  BZF d   1      -5.484   1.548   1.448  0.00  0.00     0.022 A 
ATOM      8  C7  BZF d   1      -5.997   0.934   0.355  0.00  0.00     0.029 A 
ATOM      9  C7A BZF d   1      -5.360   1.151  -0.842  0.00  0.00     0.058 A 
ENDROOT
TORSDOF 0
ENDMDL
