MODEL 1
REMARK minimizedAffinity 0.947411239
REMARK minimizedRMSD -1
REMARK  0 active torsions:
REMARK  status: ('A' for Active; 'I' for Inactive)
ROOT
ATOM      1  O1  BZF d   1       2.260  -5.167   2.886  0.00  0.00    -0.204 OA
ATOM      2  C2  BZF d   1       2.650  -4.941   4.192  0.00  0.00     0.174 A 
ATOM      3  C3  BZF d   1       2.462  -3.649   4.531  0.00  0.00    -0.012 A 
ATOM      4  C3A BZF d   1       1.835  -3.049   3.393  0.00  0.00    -0.107 A 
ATOM      5  C4  BZF d   1       1.386  -1.788   3.125  0.00  0.00     0.055 A 
ATOM      6  C5  BZF d   1       0.889  -1.512   1.891  0.00  0.00    -0.016 A 
ATOM      7  C6  BZF d   1       0.833  -2.471   0.900  0.00  0.00     0.022 A 
ATOM      8  C7  BZF d   1       1.262  -3.737   1.120  0.00  0.00     0.029 A 
ATOM      9  C7A BZF d   1       1.733  -4.028   2.377  0.00  0.00     0.058 A 
ENDROOT
TORSDOF 0
ENDMDL
