MODEL 1
REMARK minimizedAffinity 1.85978484
REMARK minimizedRMSD -1
REMARK  0 active torsions:
REMARK  status: ('A' for Active; 'I' for Inactive)
ROOT
ATOM      1  O1  BZF d   1      -3.715   2.230   2.027  0.00  0.00    -0.204 OA
ATOM      2  C2  BZF d   1      -3.182   3.409   1.544  0.00  0.00     0.174 A 
ATOM      3  C3  BZF d   1      -3.594   3.639   0.281  0.00  0.00    -0.012 A 
ATOM      4  C3A BZF d   1      -4.511   2.581  -0.014  0.00  0.00    -0.107 A 
ATOM      5  C4  BZF d   1      -5.265   2.270  -1.110  0.00  0.00     0.055 A 
ATOM      6  C5  BZF d   1      -6.000   1.126  -1.103  0.00  0.00    -0.016 A 
ATOM      7  C6  BZF d   1      -6.000   0.270  -0.021  0.00  0.00     0.022 A 
ATOM      8  C7  BZF d   1      -5.272   0.539   1.090  0.00  0.00     0.029 A 
ATOM      9  C7A BZF d   1      -4.554   1.710   1.099  0.00  0.00     0.058 A 
ENDROOT
TORSDOF 0
ENDMDL
