MODEL 1
REMARK minimizedAffinity 8.15501595
REMARK minimizedRMSD -1
REMARK  0 active torsions:
REMARK  status: ('A' for Active; 'I' for Inactive)
ROOT
ATOM      1  O1  BZF d   1       1.154  -3.211   2.258  0.00  0.00    -0.204 OA
ATOM      2  C2  BZF d   1       1.189  -1.915   2.736  0.00  0.00     0.174 A 
ATOM      3  C3  BZF d   1       1.140  -1.029   1.720  0.00  0.00    -0.012 A 
ATOM      4  C3A BZF d   1       0.977  -1.819   0.539  0.00  0.00    -0.107 A 
ATOM      5  C4  BZF d   1       0.848  -1.513  -0.786  0.00  0.00     0.055 A 
ATOM      6  C5  BZF d   1       0.779  -2.522  -1.694  0.00  0.00    -0.016 A 
ATOM      7  C6  BZF d   1       0.840  -3.846  -1.313  0.00  0.00     0.022 A 
ATOM      8  C7  BZF d   1       0.962  -4.200  -0.011  0.00  0.00     0.029 A 
ATOM      9  C7A BZF d   1       0.999  -3.183   0.912  0.00  0.00     0.058 A 
ENDROOT
TORSDOF 0
ENDMDL
