MODEL 1
REMARK minimizedAffinity 3.64075923
REMARK minimizedRMSD -1
REMARK  0 active torsions:
REMARK  status: ('A' for Active; 'I' for Inactive)
ROOT
ATOM      1  O1  BZF d   1      -5.864   1.049  -2.050  0.00  0.00    -0.204 OA
ATOM      2  C2  BZF d   1      -5.998   2.142  -2.883  0.00  0.00     0.174 A 
ATOM      3  C3  BZF d   1      -5.977   3.290  -2.175  0.00  0.00    -0.012 A 
ATOM      4  C3A BZF d   1      -5.726   2.893  -0.823  0.00  0.00    -0.107 A 
ATOM      5  C4  BZF d   1      -5.578   3.583   0.346  0.00  0.00     0.055 A 
ATOM      6  C5  BZF d   1      -5.416   2.892   1.505  0.00  0.00    -0.016 A 
ATOM      7  C6  BZF d   1      -5.403   1.513   1.532  0.00  0.00     0.022 A 
ATOM      8  C7  BZF d   1      -5.541   0.785   0.397  0.00  0.00     0.029 A 
ATOM      9  C7A BZF d   1      -5.672   1.480  -0.780  0.00  0.00     0.058 A 
ENDROOT
TORSDOF 0
ENDMDL
