MODEL 1
REMARK minimizedAffinity 0.630620301
REMARK minimizedRMSD -1
REMARK  0 active torsions:
REMARK  status: ('A' for Active; 'I' for Inactive)
ROOT
ATOM      1  O1  BZF d   1       1.506  -0.533   4.173  0.00  0.00    -0.204 OA
ATOM      2  C2  BZF d   1       1.524  -1.697   3.429  0.00  0.00     0.174 A 
ATOM      3  C3  BZF d   1       1.945  -1.454   2.171  0.00  0.00    -0.012 A 
ATOM      4  C3A BZF d   1       2.294  -0.066   2.152  0.00  0.00    -0.107 A 
ATOM      5  C4  BZF d   1       2.791   0.764   1.189  0.00  0.00     0.055 A 
ATOM      6  C5  BZF d   1       2.951   2.084   1.472  0.00  0.00    -0.016 A 
ATOM      7  C6  BZF d   1       2.620   2.607   2.705  0.00  0.00     0.022 A 
ATOM      8  C7  BZF d   1       2.128   1.822   3.694  0.00  0.00     0.029 A 
ATOM      9  C7A BZF d   1       1.996   0.482   3.421  0.00  0.00     0.058 A 
ENDROOT
TORSDOF 0
ENDMDL
