MODEL 1
REMARK minimizedAffinity 2.45685291
REMARK minimizedRMSD -1
REMARK  0 active torsions:
REMARK  status: ('A' for Active; 'I' for Inactive)
ROOT
ATOM      1  O1  BZF d   1      -4.045   2.612  -1.218  0.00  0.00    -0.204 OA
ATOM      2  C2  BZF d   1      -5.395   2.777  -1.460  0.00  0.00     0.174 A 
ATOM      3  C3  BZF d   1      -5.999   3.381  -0.416  0.00  0.00    -0.012 A 
ATOM      4  C3A BZF d   1      -4.944   3.691   0.500  0.00  0.00    -0.107 A 
ATOM      5  C4  BZF d   1      -4.909   4.310   1.717  0.00  0.00     0.055 A 
ATOM      6  C5  BZF d   1      -3.728   4.389   2.384  0.00  0.00    -0.016 A 
ATOM      7  C6  BZF d   1      -2.565   3.856   1.867  0.00  0.00     0.022 A 
ATOM      8  C7  BZF d   1      -2.549   3.238   0.661  0.00  0.00     0.029 A 
ATOM      9  C7A BZF d   1      -3.735   3.186  -0.030  0.00  0.00     0.058 A 
ENDROOT
TORSDOF 0
ENDMDL
