MODEL 1
REMARK minimizedAffinity -3.2166822
REMARK minimizedRMSD -1
REMARK  0 active torsions:
REMARK  status: ('A' for Active; 'I' for Inactive)
ROOT
ATOM      1  C   UNL d   1       4.261   2.612  -1.477  0.00  0.00     0.077 C 
ATOM      2  C1  UNL d   1       3.250   2.263  -0.426  0.00  0.00    -0.074 A 
ATOM      3  C2  UNL d   1       3.278   2.876   0.831  0.00  0.00    -0.005 A 
ATOM      4  C3  UNL d   1       2.325   2.549   1.795  0.00  0.00     0.006 A 
ATOM      5  C4  UNL d   1       1.336   1.606   1.513  0.00  0.00    -0.005 A 
ATOM      6  C5  UNL d   1       1.291   0.983   0.262  0.00  0.00    -0.074 A 
ATOM      7  C6  UNL d   1       0.228  -0.025  -0.060  0.00  0.00     0.077 C 
ATOM      8  C7  UNL d   1       2.248   1.322  -0.704  0.00  0.00    -0.001 A 
ENDROOT
TORSDOF 0
ENDMDL
