MODEL 1
REMARK minimizedAffinity -4.4644289
REMARK minimizedRMSD -1
REMARK  0 active torsions:
REMARK  status: ('A' for Active; 'I' for Inactive)
ROOT
ATOM      1  C   UNL d   1       1.446   0.667   0.323  0.00  0.00     0.077 C 
ATOM      2  C1  UNL d   1       0.221  -0.053  -0.157  0.00  0.00    -0.074 A 
ATOM      3  C2  UNL d   1      -0.604   0.507  -1.137  0.00  0.00    -0.005 A 
ATOM      4  C3  UNL d   1      -1.735  -0.179  -1.581  0.00  0.00     0.006 A 
ATOM      5  C4  UNL d   1      -2.050  -1.430  -1.050  0.00  0.00    -0.005 A 
ATOM      6  C5  UNL d   1      -1.236  -2.007  -0.070  0.00  0.00    -0.074 A 
ATOM      7  C6  UNL d   1      -1.555  -3.355   0.503  0.00  0.00     0.077 C 
ATOM      8  C7  UNL d   1      -0.098  -1.314   0.365  0.00  0.00    -0.001 A 
ENDROOT
TORSDOF 0
ENDMDL
