MODEL 1
REMARK minimizedAffinity -1.67577612
REMARK minimizedRMSD -1
REMARK  0 active torsions:
REMARK  status: ('A' for Active; 'I' for Inactive)
ROOT
ATOM      1  C   UNL d   1       1.169  -1.570   1.085  0.00  0.00     0.077 C 
ATOM      2  C1  UNL d   1       0.052  -1.113   0.194  0.00  0.00    -0.074 A 
ATOM      3  C2  UNL d   1       0.313  -0.373  -0.963  0.00  0.00    -0.005 A 
ATOM      4  C3  UNL d   1      -0.735   0.036  -1.787  0.00  0.00     0.006 A 
ATOM      5  C4  UNL d   1      -2.053  -0.290  -1.463  0.00  0.00    -0.005 A 
ATOM      6  C5  UNL d   1      -2.333  -1.030  -0.310  0.00  0.00    -0.074 A 
ATOM      7  C6  UNL d   1      -3.742  -1.397   0.048  0.00  0.00     0.077 C 
ATOM      8  C7  UNL d   1      -1.274  -1.444   0.509  0.00  0.00    -0.001 A 
ENDROOT
TORSDOF 0
ENDMDL
