MODEL 1
REMARK minimizedAffinity -3.53544497
REMARK minimizedRMSD -1
REMARK  0 active torsions:
REMARK  status: ('A' for Active; 'I' for Inactive)
ROOT
ATOM      1  C   UNL d   1      -2.049  -2.919   0.752  0.00  0.00     0.077 C 
ATOM      2  C1  UNL d   1      -1.668  -1.649   0.051  0.00  0.00    -0.074 A 
ATOM      3  C2  UNL d   1      -2.524  -1.061  -0.886  0.00  0.00    -0.005 A 
ATOM      4  C3  UNL d   1      -2.159   0.126  -1.523  0.00  0.00     0.006 A 
ATOM      5  C4  UNL d   1      -0.938   0.734  -1.230  0.00  0.00    -0.005 A 
ATOM      6  C5  UNL d   1      -0.070   0.161  -0.296  0.00  0.00    -0.074 A 
ATOM      7  C6  UNL d   1       1.241   0.807   0.038  0.00  0.00     0.077 C 
ATOM      8  C7  UNL d   1      -0.446  -1.028   0.346  0.00  0.00    -0.001 A 
ENDROOT
TORSDOF 0
ENDMDL
