MODEL 1
REMARK minimizedAffinity -3.52278161
REMARK minimizedRMSD -1
REMARK  0 active torsions:
REMARK  status: ('A' for Active; 'I' for Inactive)
ROOT
ATOM      1  C   UNL d   1      -1.262   0.440  -1.035  0.00  0.00     0.077 C 
ATOM      2  C1  UNL d   1       0.015   0.475  -0.249  0.00  0.00    -0.074 A 
ATOM      3  C2  UNL d   1       0.734  -0.697   0.007  0.00  0.00    -0.005 A 
ATOM      4  C3  UNL d   1       1.925  -0.648   0.731  0.00  0.00     0.006 A 
ATOM      5  C4  UNL d   1       2.409   0.572   1.206  0.00  0.00    -0.005 A 
ATOM      6  C5  UNL d   1       1.704   1.755   0.959  0.00  0.00    -0.074 A 
ATOM      7  C6  UNL d   1       2.215   3.075   1.453  0.00  0.00     0.077 C 
ATOM      8  C7  UNL d   1       0.512   1.698   0.224  0.00  0.00    -0.001 A 
ENDROOT
TORSDOF 0
ENDMDL
