MODEL 1
REMARK minimizedAffinity -2.77488256
REMARK minimizedRMSD -1
REMARK  0 active torsions:
REMARK  status: ('A' for Active; 'I' for Inactive)
ROOT
ATOM      1  C   UNL d   1       2.271   2.442   0.440  0.00  0.00     0.077 C 
ATOM      2  C1  UNL d   1       1.242   1.465  -0.045  0.00  0.00    -0.074 A 
ATOM      3  C2  UNL d   1       0.557   1.680  -1.246  0.00  0.00    -0.005 A 
ATOM      4  C3  UNL d   1      -0.391   0.757  -1.689  0.00  0.00     0.006 A 
ATOM      5  C4  UNL d   1      -0.663  -0.386  -0.937  0.00  0.00    -0.005 A 
ATOM      6  C5  UNL d   1       0.012  -0.618   0.265  0.00  0.00    -0.074 A 
ATOM      7  C6  UNL d   1      -0.262  -1.847   1.080  0.00  0.00     0.077 C 
ATOM      8  C7  UNL d   1       0.968   0.310   0.700  0.00  0.00    -0.001 A 
ENDROOT
TORSDOF 0
ENDMDL
