MODEL 1
REMARK minimizedAffinity -2.79615498
REMARK minimizedRMSD -1
REMARK  0 active torsions:
REMARK  status: ('A' for Active; 'I' for Inactive)
ROOT
ATOM      1  C   UNL d   1       2.260   1.852   1.078  0.00  0.00     0.077 C 
ATOM      2  C1  UNL d   1       1.124   1.287   0.279  0.00  0.00    -0.074 A 
ATOM      3  C2  UNL d   1      -0.204   1.557   0.626  0.00  0.00    -0.005 A 
ATOM      4  C3  UNL d   1      -1.250   1.032  -0.132  0.00  0.00     0.006 A 
ATOM      5  C4  UNL d   1      -0.980   0.232  -1.243  0.00  0.00    -0.005 A 
ATOM      6  C5  UNL d   1       0.341  -0.049  -1.606  0.00  0.00    -0.074 A 
ATOM      7  C6  UNL d   1       0.650  -0.899  -2.802  0.00  0.00     0.077 C 
ATOM      8  C7  UNL d   1       1.387   0.488  -0.843  0.00  0.00    -0.001 A 
ENDROOT
TORSDOF 0
ENDMDL
