MODEL 1
REMARK minimizedAffinity -2.00045323
REMARK minimizedRMSD -1
REMARK  0 active torsions:
REMARK  status: ('A' for Active; 'I' for Inactive)
ROOT
ATOM      1  C   UNL d   1      -1.529  -3.374   1.151  0.00  0.00     0.077 C 
ATOM      2  C1  UNL d   1      -1.362  -2.127   0.333  0.00  0.00    -0.074 A 
ATOM      3  C2  UNL d   1      -2.313  -1.764  -0.626  0.00  0.00    -0.005 A 
ATOM      4  C3  UNL d   1      -2.150  -0.597  -1.371  0.00  0.00     0.006 A 
ATOM      5  C4  UNL d   1      -1.036   0.218  -1.166  0.00  0.00    -0.005 A 
ATOM      6  C5  UNL d   1      -0.075  -0.129  -0.211  0.00  0.00    -0.074 A 
ATOM      7  C6  UNL d   1       1.123   0.741   0.029  0.00  0.00     0.077 C 
ATOM      8  C7  UNL d   1      -0.250  -1.300   0.539  0.00  0.00    -0.001 A 
ENDROOT
TORSDOF 0
ENDMDL
