MODEL 1
REMARK minimizedAffinity -1.59336853
REMARK minimizedRMSD -1
REMARK  0 active torsions:
REMARK  status: ('A' for Active; 'I' for Inactive)
ROOT
ATOM      1  C   UNL d   1       1.227   0.724   0.329  0.00  0.00     0.077 C 
ATOM      2  C1  UNL d   1      -0.028  -0.003  -0.054  0.00  0.00    -0.074 A 
ATOM      3  C2  UNL d   1      -0.875   0.500  -1.047  0.00  0.00    -0.005 A 
ATOM      4  C3  UNL d   1      -2.034  -0.192  -1.399  0.00  0.00     0.006 A 
ATOM      5  C4  UNL d   1      -2.357  -1.391  -0.762  0.00  0.00    -0.005 A 
ATOM      6  C5  UNL d   1      -1.522  -1.909   0.232  0.00  0.00    -0.074 A 
ATOM      7  C6  UNL d   1      -1.849  -3.202   0.919  0.00  0.00     0.077 C 
ATOM      8  C7  UNL d   1      -0.355  -1.212   0.575  0.00  0.00    -0.001 A 
ENDROOT
TORSDOF 0
ENDMDL
