MODEL 1
REMARK minimizedAffinity -2.86184216
REMARK minimizedRMSD -1
REMARK  0 active torsions:
REMARK  status: ('A' for Active; 'I' for Inactive)
ROOT
ATOM      1  C   UNL d   1       1.035   0.030   0.309  0.00  0.00     0.077 C 
ATOM      2  C1  UNL d   1      -0.257  -0.463  -0.272  0.00  0.00    -0.074 A 
ATOM      3  C2  UNL d   1      -0.916   0.258  -1.272  0.00  0.00    -0.005 A 
ATOM      4  C3  UNL d   1      -2.113  -0.218  -1.809  0.00  0.00     0.006 A 
ATOM      5  C4  UNL d   1      -2.660  -1.417  -1.352  0.00  0.00    -0.005 A 
ATOM      6  C5  UNL d   1      -2.014  -2.152  -0.353  0.00  0.00    -0.074 A 
ATOM      7  C6  UNL d   1      -2.584  -3.448   0.143  0.00  0.00     0.077 C 
ATOM      8  C7  UNL d   1      -0.809  -1.671   0.177  0.00  0.00    -0.001 A 
ENDROOT
TORSDOF 0
ENDMDL
