MODEL 1
REMARK minimizedAffinity -4.73780155
REMARK minimizedRMSD -1
REMARK  0 active torsions:
REMARK  status: ('A' for Active; 'I' for Inactive)
ROOT
ATOM      1  C   UNL d   1       1.189   1.275   0.390  0.00  0.00     0.077 C 
ATOM      2  C1  UNL d   1       0.051   0.431  -0.103  0.00  0.00    -0.074 A 
ATOM      3  C2  UNL d   1      -0.616   0.747  -1.291  0.00  0.00    -0.005 A 
ATOM      4  C3  UNL d   1      -1.667  -0.052  -1.741  0.00  0.00     0.006 A 
ATOM      5  C4  UNL d   1      -2.059  -1.174  -1.010  0.00  0.00    -0.005 A 
ATOM      6  C5  UNL d   1      -1.403  -1.506   0.179  0.00  0.00    -0.074 A 
ATOM      7  C6  UNL d   1      -1.806  -2.714   0.971  0.00  0.00     0.077 C 
ATOM      8  C7  UNL d   1      -0.344  -0.702   0.621  0.00  0.00    -0.001 A 
ENDROOT
TORSDOF 0
ENDMDL
