MODEL 1
REMARK minimizedAffinity -2.89954758
REMARK minimizedRMSD -1
REMARK  0 active torsions:
REMARK  status: ('A' for Active; 'I' for Inactive)
ROOT
ATOM      1  C   UNL d   1       3.143   2.981   1.302  0.00  0.00     0.077 C 
ATOM      2  C1  UNL d   1       1.866   2.427   0.743  0.00  0.00    -0.074 A 
ATOM      3  C2  UNL d   1       0.965   3.249   0.059  0.00  0.00    -0.005 A 
ATOM      4  C3  UNL d   1      -0.215   2.718  -0.464  0.00  0.00     0.006 A 
ATOM      5  C4  UNL d   1      -0.504   1.362  -0.309  0.00  0.00    -0.005 A 
ATOM      6  C5  UNL d   1       0.386   0.524   0.371  0.00  0.00    -0.074 A 
ATOM      7  C6  UNL d   1       0.095  -0.937   0.539  0.00  0.00     0.077 C 
ATOM      8  C7  UNL d   1       1.572   1.064   0.888  0.00  0.00    -0.001 A 
ENDROOT
TORSDOF 0
ENDMDL
