MODEL 1
REMARK minimizedAffinity 1.0104059
REMARK minimizedRMSD -1
REMARK  1 active torsions:
REMARK  status: ('A' for Active; 'I' for Inactive)
REMARK    1  A    between atoms: C3_4  and  O_7 
ROOT
ATOM      1  C   UNL d   1      -2.736   1.583  -1.044  0.00  0.00    -0.033 A 
ATOM      2  C1  UNL d   1      -2.737   0.202  -0.836  0.00  0.00     0.039 A 
ATOM      3  C2  UNL d   1      -1.806  -0.605  -1.492  0.00  0.00    -0.080 A 
ATOM      4  C3  UNL d   1      -0.880  -0.020  -2.352  0.00  0.00     0.150 A 
ATOM      5  C4  UNL d   1      -0.871   1.355  -2.561  0.00  0.00    -0.007 A 
ATOM      6  C5  UNL d   1      -1.802   2.160  -1.906  0.00  0.00     0.039 A 
ENDROOT
BRANCH   4   7
ATOM      7  O   UNL d   1       0.045  -0.768  -3.018  0.00  0.00    -0.526 OA
ATOM      8  H5  UNL d   1      -0.099  -1.703  -2.798  0.00  0.00     0.418 HD
ENDBRANCH   4   7
TORSDOF 1
ENDMDL
