MODEL 1
REMARK minimizedAffinity 2.72458625
REMARK minimizedRMSD -1
REMARK  1 active torsions:
REMARK  status: ('A' for Active; 'I' for Inactive)
REMARK    1  A    between atoms: C3_4  and  O_7 
ROOT
ATOM      1  C   UNL d   1       5.773  -4.753   1.286  0.00  0.00    -0.033 A 
ATOM      2  C1  UNL d   1       4.654  -5.183   2.003  0.00  0.00     0.039 A 
ATOM      3  C2  UNL d   1       3.370  -4.879   1.544  0.00  0.00    -0.080 A 
ATOM      4  C3  UNL d   1       3.220  -4.147   0.370  0.00  0.00     0.150 A 
ATOM      5  C4  UNL d   1       4.330  -3.719  -0.351  0.00  0.00    -0.007 A 
ATOM      6  C5  UNL d   1       5.611  -4.022   0.109  0.00  0.00     0.039 A 
ENDROOT
BRANCH   4   7
ATOM      7  O   UNL d   1       1.987  -3.822  -0.114  0.00  0.00    -0.526 OA
ATOM      8  H5  UNL d   1       1.316  -4.159   0.503  0.00  0.00     0.418 HD
ENDBRANCH   4   7
TORSDOF 1
ENDMDL
