MODEL 1
REMARK minimizedAffinity 3.04842734
REMARK minimizedRMSD -1
REMARK  1 active torsions:
REMARK  status: ('A' for Active; 'I' for Inactive)
REMARK    1  A    between atoms: C3_4  and  O_7 
ROOT
ATOM      1  C   UNL d   1       3.114   0.579  -0.079  0.00  0.00    -0.033 A 
ATOM      2  C1  UNL d   1       2.433  -0.639  -0.032  0.00  0.00     0.039 A 
ATOM      3  C2  UNL d   1       1.581  -0.924   1.037  0.00  0.00    -0.080 A 
ATOM      4  C3  UNL d   1       1.418   0.018   2.050  0.00  0.00     0.150 A 
ATOM      5  C4  UNL d   1       2.090   1.235   2.007  0.00  0.00    -0.007 A 
ATOM      6  C5  UNL d   1       2.941   1.517   0.939  0.00  0.00     0.039 A 
ENDROOT
BRANCH   4   7
ATOM      7  O   UNL d   1       0.601  -0.217   3.116  0.00  0.00    -0.526 OA
ATOM      8  H5  UNL d   1       0.226  -1.109   3.025  0.00  0.00     0.418 HD
ENDBRANCH   4   7
TORSDOF 1
ENDMDL
