MODEL 1
REMARK minimizedAffinity 1.25103199
REMARK minimizedRMSD -1
REMARK  1 active torsions:
REMARK  status: ('A' for Active; 'I' for Inactive)
REMARK    1  A    between atoms: C3_4  and  O_7 
ROOT
ATOM      1  C   UNL d   1      -4.041   0.680  -5.486  0.00  0.00    -0.033 A 
ATOM      2  C1  UNL d   1      -5.297   0.506  -4.902  0.00  0.00     0.039 A 
ATOM      3  C2  UNL d   1      -5.467  -0.417  -3.868  0.00  0.00    -0.080 A 
ATOM      4  C3  UNL d   1      -4.373  -1.156  -3.426  0.00  0.00     0.150 A 
ATOM      5  C4  UNL d   1      -3.118  -0.985  -4.000  0.00  0.00    -0.007 A 
ATOM      6  C5  UNL d   1      -2.951  -0.065  -5.034  0.00  0.00     0.039 A 
ENDROOT
BRANCH   4   7
ATOM      7  O   UNL d   1      -4.490  -2.072  -2.422  0.00  0.00    -0.526 OA
ATOM      8  H5  UNL d   1      -5.420  -2.103  -2.142  0.00  0.00     0.418 HD
ENDBRANCH   4   7
TORSDOF 1
ENDMDL
