MODEL 1
REMARK minimizedAffinity 2.46997046
REMARK minimizedRMSD -1
REMARK  1 active torsions:
REMARK  status: ('A' for Active; 'I' for Inactive)
REMARK    1  A    between atoms: C3_4  and  O_7 
ROOT
ATOM      1  C   UNL d   1       1.218   0.128   2.287  0.00  0.00    -0.033 A 
ATOM      2  C1  UNL d   1       1.892   1.224   2.831  0.00  0.00     0.039 A 
ATOM      3  C2  UNL d   1       2.817   1.929   2.059  0.00  0.00    -0.080 A 
ATOM      4  C3  UNL d   1       3.059   1.531   0.747  0.00  0.00     0.150 A 
ATOM      5  C4  UNL d   1       2.388   0.443   0.198  0.00  0.00    -0.007 A 
ATOM      6  C5  UNL d   1       1.465  -0.261   0.970  0.00  0.00     0.039 A 
ENDROOT
BRANCH   4   7
ATOM      7  O   UNL d   1       3.956   2.185  -0.043  0.00  0.00    -0.526 OA
ATOM      8  H5  UNL d   1       4.363   2.897   0.479  0.00  0.00     0.418 HD
ENDBRANCH   4   7
TORSDOF 1
ENDMDL
