MODEL 1
REMARK minimizedAffinity -0.971779943
REMARK minimizedRMSD -1
REMARK  1 active torsions:
REMARK  status: ('A' for Active; 'I' for Inactive)
REMARK    1  A    between atoms: C3_4  and  O_7 
ROOT
ATOM      1  C   UNL d   1      -4.872   0.670  -5.159  0.00  0.00    -0.033 A 
ATOM      2  C1  UNL d   1      -4.922  -0.265  -4.123  0.00  0.00     0.039 A 
ATOM      3  C2  UNL d   1      -3.860  -1.150  -3.929  0.00  0.00    -0.080 A 
ATOM      4  C3  UNL d   1      -2.756  -1.090  -4.775  0.00  0.00     0.150 A 
ATOM      5  C4  UNL d   1      -2.699  -0.159  -5.806  0.00  0.00    -0.007 A 
ATOM      6  C5  UNL d   1      -3.760   0.724  -6.000  0.00  0.00     0.039 A 
ENDROOT
BRANCH   4   7
ATOM      7  O   UNL d   1      -1.698  -1.937  -4.627  0.00  0.00    -0.526 OA
ATOM      8  H5  UNL d   1      -1.890  -2.544  -3.893  0.00  0.00     0.418 HD
ENDBRANCH   4   7
TORSDOF 1
ENDMDL
