MODEL 1
REMARK minimizedAffinity -5.10660839
REMARK minimizedRMSD -1
REMARK  1 active torsions:
REMARK  status: ('A' for Active; 'I' for Inactive)
REMARK    1  A    between atoms: C3_4  and  O_7 
ROOT
ATOM      1  C   UNL d   1      -2.283   0.680  -3.996  0.00  0.00    -0.033 A 
ATOM      2  C1  UNL d   1      -3.152   0.803  -5.082  0.00  0.00     0.039 A 
ATOM      3  C2  UNL d   1      -4.261  -0.039  -5.190  0.00  0.00    -0.080 A 
ATOM      4  C3  UNL d   1      -4.489  -0.997  -4.207  0.00  0.00     0.150 A 
ATOM      5  C4  UNL d   1      -3.629  -1.123  -3.121  0.00  0.00    -0.007 A 
ATOM      6  C5  UNL d   1      -2.522  -0.283  -3.015  0.00  0.00     0.039 A 
ENDROOT
BRANCH   4   7
ATOM      7  O   UNL d   1      -5.555  -1.845  -4.272  0.00  0.00    -0.526 OA
ATOM      8  H5  UNL d   1      -6.045  -1.661  -5.090  0.00  0.00     0.418 HD
ENDBRANCH   4   7
TORSDOF 1
ENDMDL
