MODEL 1
REMARK minimizedAffinity 4.36925697
REMARK minimizedRMSD -1
REMARK  1 active torsions:
REMARK  status: ('A' for Active; 'I' for Inactive)
REMARK    1  A    between atoms: C3_4  and  O_7 
ROOT
ATOM      1  C   UNL d   1       3.502  -4.545   1.942  0.00  0.00    -0.033 A 
ATOM      2  C1  UNL d   1       2.981  -4.683   0.654  0.00  0.00     0.039 A 
ATOM      3  C2  UNL d   1       2.169  -3.683   0.116  0.00  0.00    -0.080 A 
ATOM      4  C3  UNL d   1       1.887  -2.550   0.875  0.00  0.00     0.150 A 
ATOM      5  C4  UNL d   1       2.406  -2.404   2.157  0.00  0.00    -0.007 A 
ATOM      6  C5  UNL d   1       3.216  -3.404   2.693  0.00  0.00     0.039 A 
ENDROOT
BRANCH   4   7
ATOM      7  O   UNL d   1       1.096  -1.549   0.394  0.00  0.00    -0.526 OA
ATOM      8  H5  UNL d   1       0.787  -1.801  -0.492  0.00  0.00     0.418 HD
ENDBRANCH   4   7
TORSDOF 1
ENDMDL
