MODEL 1
REMARK minimizedAffinity -0.836198926
REMARK minimizedRMSD -1
REMARK  0 active torsions:
REMARK  status: ('A' for Active; 'I' for Inactive)
ROOT
ATOM      1  C   UNL d   1       1.811   4.463  -4.882  0.00  0.00     0.172 C 
ATOM      2  N   UNL d   1       3.162   4.870  -5.188  0.00  0.00    -0.070 N 
ATOM      3  C1  UNL d   1       3.517   5.956  -5.943  0.00  0.00    -0.004 A 
ATOM      4  C2  UNL d   1       4.894   6.000  -5.998  0.00  0.00    -0.047 A 
ATOM      5  C3  UNL d   1       5.382   4.902  -5.251  0.00  0.00    -0.047 A 
ATOM      6  C4  UNL d   1       4.289   4.219  -4.761  0.00  0.00    -0.004 A 
ENDROOT
TORSDOF 0
ENDMDL
