MODEL 1
REMARK minimizedAffinity 1.40995264
REMARK minimizedRMSD -1
REMARK  0 active torsions:
REMARK  status: ('A' for Active; 'I' for Inactive)
ROOT
ATOM      1  C   UNL d   1       5.878   5.999  -5.980  0.00  0.00     0.172 C 
ATOM      2  N   UNL d   1       4.620   5.442  -5.541  0.00  0.00    -0.070 N 
ATOM      3  C1  UNL d   1       4.466   4.291  -4.816  0.00  0.00    -0.004 A 
ATOM      4  C2  UNL d   1       3.118   4.105  -4.601  0.00  0.00    -0.047 A 
ATOM      5  C3  UNL d   1       2.438   5.181  -5.218  0.00  0.00    -0.047 A 
ATOM      6  C4  UNL d   1       3.392   5.994  -5.793  0.00  0.00    -0.004 A 
ENDROOT
TORSDOF 0
ENDMDL
