MODEL 1
REMARK minimizedAffinity 1.49265277
REMARK minimizedRMSD -1
REMARK  0 active torsions:
REMARK  status: ('A' for Active; 'I' for Inactive)
ROOT
ATOM      1  C   UNL d   1       3.317   3.511  -3.461  0.00  0.00     0.172 C 
ATOM      2  N   UNL d   1       3.321   4.521  -4.494  0.00  0.00    -0.070 N 
ATOM      3  C1  UNL d   1       4.436   5.080  -5.059  0.00  0.00    -0.004 A 
ATOM      4  C2  UNL d   1       4.018   5.997  -5.999  0.00  0.00    -0.047 A 
ATOM      5  C3  UNL d   1       2.603   5.989  -5.999  0.00  0.00    -0.047 A 
ATOM      6  C4  UNL d   1       2.198   5.066  -5.057  0.00  0.00    -0.004 A 
ENDROOT
TORSDOF 0
ENDMDL
