MODEL 1
REMARK minimizedAffinity -1.80433965
REMARK minimizedRMSD -1
REMARK  0 active torsions:
REMARK  status: ('A' for Active; 'I' for Inactive)
ROOT
ATOM      1  C   UNL d   1       2.447   6.000  -4.946  0.00  0.00     0.172 C 
ATOM      2  N   UNL d   1       3.796   5.507  -5.098  0.00  0.00    -0.070 N 
ATOM      3  C1  UNL d   1       4.718   5.972  -5.997  0.00  0.00    -0.004 A 
ATOM      4  C2  UNL d   1       5.877   5.245  -5.826  0.00  0.00    -0.047 A 
ATOM      5  C3  UNL d   1       5.642   4.310  -4.790  0.00  0.00    -0.047 A 
ATOM      6  C4  UNL d   1       4.345   4.494  -4.357  0.00  0.00    -0.004 A 
ENDROOT
TORSDOF 0
ENDMDL
