MODEL 1
REMARK minimizedAffinity -0.960983336
REMARK minimizedRMSD -1
REMARK  0 active torsions:
REMARK  status: ('A' for Active; 'I' for Inactive)
ROOT
ATOM      1  C   UNL d   1       4.119   2.882  -4.172  0.00  0.00     0.172 C 
ATOM      2  N   UNL d   1       3.910   4.149  -4.834  0.00  0.00    -0.070 N 
ATOM      3  C1  UNL d   1       2.727   4.836  -4.885  0.00  0.00    -0.004 A 
ATOM      4  C2  UNL d   1       2.941   5.992  -5.604  0.00  0.00    -0.047 A 
ATOM      5  C3  UNL d   1       4.300   5.999  -6.000  0.00  0.00    -0.047 A 
ATOM      6  C4  UNL d   1       4.876   4.846  -5.509  0.00  0.00    -0.004 A 
ENDROOT
TORSDOF 0
ENDMDL
