MODEL 1
REMARK minimizedAffinity -0.228678897
REMARK minimizedRMSD -1
REMARK  0 active torsions:
REMARK  status: ('A' for Active; 'I' for Inactive)
ROOT
ATOM      1  C   UNL d   1       2.187   5.963  -5.943  0.00  0.00     0.172 C 
ATOM      2  N   UNL d   1       3.496   5.481  -5.569  0.00  0.00    -0.070 N 
ATOM      3  C1  UNL d   1       4.689   6.000  -5.997  0.00  0.00    -0.004 A 
ATOM      4  C2  UNL d   1       5.701   5.265  -5.417  0.00  0.00    -0.047 A 
ATOM      5  C3  UNL d   1       5.095   4.271  -4.613  0.00  0.00    -0.047 A 
ATOM      6  C4  UNL d   1       3.729   4.427  -4.726  0.00  0.00    -0.004 A 
ENDROOT
TORSDOF 0
ENDMDL
