MODEL 1
REMARK minimizedAffinity -0.217036709
REMARK minimizedRMSD -1
REMARK  0 active torsions:
REMARK  status: ('A' for Active; 'I' for Inactive)
ROOT
ATOM      1  C   UNL d   1      -0.731   2.221   2.274  0.00  0.00     0.172 C 
ATOM      2  N   UNL d   1      -1.918   1.562   2.766  0.00  0.00    -0.070 N 
ATOM      3  C1  UNL d   1      -2.952   2.168   3.429  0.00  0.00    -0.004 A 
ATOM      4  C2  UNL d   1      -3.887   1.201   3.727  0.00  0.00    -0.047 A 
ATOM      5  C3  UNL d   1      -3.398  -0.029   3.227  0.00  0.00    -0.047 A 
ATOM      6  C4  UNL d   1      -2.178   0.223   2.637  0.00  0.00    -0.004 A 
ENDROOT
TORSDOF 0
ENDMDL
