MODEL 1
REMARK minimizedAffinity 2.12411094
REMARK minimizedRMSD -1
REMARK  0 active torsions:
REMARK  status: ('A' for Active; 'I' for Inactive)
ROOT
ATOM      1  C   UNL d   1      -3.289  -5.346  -1.612  0.00  0.00     0.172 C 
ATOM      2  N   UNL d   1      -3.186  -3.916  -1.785  0.00  0.00    -0.070 N 
ATOM      3  C1  UNL d   1      -3.319  -2.981  -0.795  0.00  0.00    -0.004 A 
ATOM      4  C2  UNL d   1      -3.153  -1.737  -1.364  0.00  0.00    -0.047 A 
ATOM      5  C3  UNL d   1      -2.913  -1.931  -2.745  0.00  0.00    -0.047 A 
ATOM      6  C4  UNL d   1      -2.938  -3.290  -2.979  0.00  0.00    -0.004 A 
ENDROOT
TORSDOF 0
ENDMDL
