MODEL 1
REMARK minimizedAffinity -2.62927556
REMARK minimizedRMSD -1
REMARK  0 active torsions:
REMARK  status: ('A' for Active; 'I' for Inactive)
ROOT
ATOM      1  C   UNL d   1       1.110   0.929   0.864  0.00  0.00     0.172 C 
ATOM      2  N   UNL d   1      -0.164   0.998   1.540  0.00  0.00    -0.070 N 
ATOM      3  C1  UNL d   1      -0.641   2.077   2.235  0.00  0.00    -0.004 A 
ATOM      4  C2  UNL d   1      -1.885   1.745   2.727  0.00  0.00    -0.047 A 
ATOM      5  C3  UNL d   1      -2.164   0.421   2.314  0.00  0.00    -0.047 A 
ATOM      6  C4  UNL d   1      -1.082  -0.018   1.581  0.00  0.00    -0.004 A 
ENDROOT
TORSDOF 0
ENDMDL
