MODEL 1
REMARK minimizedAffinity 3.2294004
REMARK minimizedRMSD -1
REMARK  0 active torsions:
REMARK  status: ('A' for Active; 'I' for Inactive)
ROOT
ATOM      1  C   UNL d   1      -4.422   2.070   4.844  0.00  0.00     0.172 C 
ATOM      2  N   UNL d   1      -3.306   1.899   3.944  0.00  0.00    -0.070 N 
ATOM      3  C1  UNL d   1      -2.923   0.720   3.362  0.00  0.00    -0.004 A 
ATOM      4  C2  UNL d   1      -1.821   0.975   2.576  0.00  0.00    -0.047 A 
ATOM      5  C3  UNL d   1      -1.530   2.356   2.690  0.00  0.00    -0.047 A 
ATOM      6  C4  UNL d   1      -2.464   2.903   3.543  0.00  0.00    -0.004 A 
ENDROOT
TORSDOF 0
ENDMDL
