MODEL 1
REMARK minimizedAffinity 4.14132118
REMARK minimizedRMSD -1
REMARK  0 active torsions:
REMARK  status: ('A' for Active; 'I' for Inactive)
ROOT
ATOM      1  C   UNL d   1       4.788   6.000  -5.992  0.00  0.00     0.172 C 
ATOM      2  N   UNL d   1       4.112   5.053  -5.137  0.00  0.00    -0.070 N 
ATOM      3  C1  UNL d   1       3.367   5.366  -4.032  0.00  0.00    -0.004 A 
ATOM      4  C2  UNL d   1       2.894   4.188  -3.494  0.00  0.00    -0.047 A 
ATOM      5  C3  UNL d   1       3.372   3.131  -4.304  0.00  0.00    -0.047 A 
ATOM      6  C4  UNL d   1       4.123   3.694  -5.314  0.00  0.00    -0.004 A 
ENDROOT
TORSDOF 0
ENDMDL
