MODEL 1
REMARK minimizedAffinity 2.61981392
REMARK minimizedRMSD -1
REMARK  0 active torsions:
REMARK  status: ('A' for Active; 'I' for Inactive)
ROOT
ATOM      1  C   UNL d   1      -3.675  -3.005   4.766  0.00  0.00     0.172 C 
ATOM      2  N   UNL d   1      -2.759  -2.364   3.852  0.00  0.00    -0.070 N 
ATOM      3  C1  UNL d   1      -3.108  -1.521   2.831  0.00  0.00    -0.004 A 
ATOM      4  C2  UNL d   1      -1.951  -1.123   2.197  0.00  0.00    -0.047 A 
ATOM      5  C3  UNL d   1      -0.869  -1.749   2.859  0.00  0.00    -0.047 A 
ATOM      6  C4  UNL d   1      -1.397  -2.511   3.880  0.00  0.00    -0.004 A 
ENDROOT
TORSDOF 0
ENDMDL
