MODEL 1
REMARK minimizedAffinity 0.383021265
REMARK minimizedRMSD -1
REMARK  0 active torsions:
REMARK  status: ('A' for Active; 'I' for Inactive)
ROOT
ATOM      1  C   UNL d   1       0.151   2.461   1.849  0.00  0.00     0.172 C 
ATOM      2  N   UNL d   1      -1.079   1.963   2.419  0.00  0.00    -0.070 N 
ATOM      3  C1  UNL d   1      -2.156   1.499   1.713  0.00  0.00    -0.004 A 
ATOM      4  C2  UNL d   1      -3.123   1.119   2.619  0.00  0.00    -0.047 A 
ATOM      5  C3  UNL d   1      -2.609   1.364   3.914  0.00  0.00    -0.047 A 
ATOM      6  C4  UNL d   1      -1.342   1.886   3.762  0.00  0.00    -0.004 A 
ENDROOT
TORSDOF 0
ENDMDL
