MODEL 1
REMARK minimizedAffinity 0.567703545
REMARK minimizedRMSD -1
REMARK  0 active torsions:
REMARK  status: ('A' for Active; 'I' for Inactive)
ROOT
ATOM      1  C   UNL d   1      -3.869   2.008   3.905  0.00  0.00     0.172 C 
ATOM      2  N   UNL d   1      -2.801   2.389   3.011  0.00  0.00    -0.070 N 
ATOM      3  C1  UNL d   1      -1.527   1.885   3.029  0.00  0.00    -0.004 A 
ATOM      4  C2  UNL d   1      -0.816   2.502   2.023  0.00  0.00    -0.047 A 
ATOM      5  C3  UNL d   1      -1.691   3.407   1.378  0.00  0.00    -0.047 A 
ATOM      6  C4  UNL d   1      -2.914   3.317   2.010  0.00  0.00    -0.004 A 
ENDROOT
TORSDOF 0
ENDMDL
