MODEL 1
REMARK minimizedAffinity 3.35999727
REMARK minimizedRMSD -1
REMARK  0 active torsions:
REMARK  status: ('A' for Active; 'I' for Inactive)
ROOT
ATOM      1  C   UNL d   1       6.000  -1.128  -0.376  0.00  0.00     0.172 C 
ATOM      2  N   UNL d   1       4.780  -0.999   0.386  0.00  0.00    -0.070 N 
ATOM      3  C1  UNL d   1       3.511  -1.109  -0.114  0.00  0.00    -0.004 A 
ATOM      4  C2  UNL d   1       2.628  -0.923   0.928  0.00  0.00    -0.047 A 
ATOM      5  C3  UNL d   1       3.394  -0.693   2.095  0.00  0.00    -0.047 A 
ATOM      6  C4  UNL d   1       4.723  -0.746   1.731  0.00  0.00    -0.004 A 
ENDROOT
TORSDOF 0
ENDMDL
