MODEL 1
REMARK minimizedAffinity 1.4811728
REMARK minimizedRMSD -1
REMARK  0 active torsions:
REMARK  status: ('A' for Active; 'I' for Inactive)
ROOT
ATOM      1  C   UNL d   1      -4.538   2.347   4.416  0.00  0.00     0.172 C 
ATOM      2  N   UNL d   1      -3.380   2.257   3.557  0.00  0.00    -0.070 N 
ATOM      3  C1  UNL d   1      -2.724   1.104   3.220  0.00  0.00    -0.004 A 
ATOM      4  C2  UNL d   1      -1.678   1.441   2.388  0.00  0.00    -0.047 A 
ATOM      5  C3  UNL d   1      -1.707   2.846   2.219  0.00  0.00    -0.047 A 
ATOM      6  C4  UNL d   1      -2.771   3.326   2.955  0.00  0.00    -0.004 A 
ENDROOT
TORSDOF 0
ENDMDL
