MODEL 1
REMARK minimizedAffinity -0.666611373
REMARK minimizedRMSD -1
REMARK  0 active torsions:
REMARK  status: ('A' for Active; 'I' for Inactive)
ROOT
ATOM      1  C   UNL d   1       2.964   0.216  -2.812  0.00  0.00     0.172 C 
ATOM      2  N   UNL d   1       3.240   0.141  -1.397  0.00  0.00    -0.070 N 
ATOM      3  C1  UNL d   1       4.132  -0.710  -0.801  0.00  0.00    -0.004 A 
ATOM      4  C2  UNL d   1       4.102  -0.471   0.556  0.00  0.00    -0.047 A 
ATOM      5  C3  UNL d   1       3.159   0.559   0.784  0.00  0.00    -0.047 A 
ATOM      6  C4  UNL d   1       2.640   0.919  -0.442  0.00  0.00    -0.004 A 
ENDROOT
TORSDOF 0
ENDMDL
