MODEL 1
REMARK minimizedAffinity 4.34764814
REMARK minimizedRMSD -1
REMARK  0 active torsions:
REMARK  status: ('A' for Active; 'I' for Inactive)
ROOT
ATOM      1  N1  IND d   1      -2.343  -2.443  -0.842  0.00  0.00    -0.196 N 
ATOM      2  C2  IND d   1      -1.481  -1.393  -0.991  0.00  0.00     0.054 A 
ATOM      3  C3  IND d   1      -0.737  -1.549  -2.109  0.00  0.00    -0.031 A 
ATOM      4  C4  IND d   1      -0.839  -3.401  -3.895  0.00  0.00     0.051 A 
ATOM      5  C5  IND d   1      -1.443  -4.595  -4.175  0.00  0.00    -0.031 A 
ATOM      6  C6  IND d   1      -2.399  -5.142  -3.344  0.00  0.00     0.015 A 
ATOM      7  C7  IND d   1      -2.796  -4.507  -2.201  0.00  0.00    -0.016 A 
ATOM      8  C8  IND d   1      -2.181  -3.298  -1.909  0.00  0.00    -0.047 A 
ATOM      9  C9  IND d   1      -1.179  -2.759  -2.727  0.00  0.00    -0.096 A 
ATOM     10  HN1 IND d   1      -2.894  -2.551  -0.191  0.00  0.00     0.298 HD
ENDROOT
TORSDOF 0
ENDMDL
