MODEL 1
REMARK minimizedAffinity -4.9193697
REMARK minimizedRMSD -1
REMARK  0 active torsions:
REMARK  status: ('A' for Active; 'I' for Inactive)
ROOT
ATOM      1  N1  IND d   1      -0.439  -4.395  -0.318  0.00  0.00    -0.196 N 
ATOM      2  C2  IND d   1      -0.048  -4.986  -1.487  0.00  0.00     0.054 A 
ATOM      3  C3  IND d   1       0.479  -4.066  -2.326  0.00  0.00    -0.031 A 
ATOM      4  C4  IND d   1       0.890  -1.553  -1.948  0.00  0.00     0.051 A 
ATOM      5  C5  IND d   1       0.665  -0.548  -1.049  0.00  0.00    -0.031 A 
ATOM      6  C6  IND d   1       0.051  -0.779   0.165  0.00  0.00     0.015 A 
ATOM      7  C7  IND d   1      -0.352  -2.032   0.532  0.00  0.00    -0.016 A 
ATOM      8  C8  IND d   1      -0.133  -3.053  -0.381  0.00  0.00    -0.047 A 
ATOM      9  C9  IND d   1       0.452  -2.817  -1.632  0.00  0.00    -0.096 A 
ATOM     10  HN1 IND d   1      -0.813  -4.794   0.345  0.00  0.00     0.298 HD
ENDROOT
TORSDOF 0
ENDMDL
