MODEL 1
REMARK minimizedAffinity -1.16586375
REMARK minimizedRMSD -1
REMARK  0 active torsions:
REMARK  status: ('A' for Active; 'I' for Inactive)
ROOT
ATOM      1  N1  IND d   1       1.511   0.522  -1.191  0.00  0.00    -0.196 N 
ATOM      2  C2  IND d   1       0.178   0.236  -1.297  0.00  0.00     0.054 A 
ATOM      3  C3  IND d   1      -0.552   1.123  -0.586  0.00  0.00    -0.031 A 
ATOM      4  C4  IND d   1       0.225   3.186   0.745  0.00  0.00     0.051 A 
ATOM      5  C5  IND d   1       1.352   3.837   1.163  0.00  0.00    -0.031 A 
ATOM      6  C6  IND d   1       2.615   3.409   0.808  0.00  0.00     0.015 A 
ATOM      7  C7  IND d   1       2.798   2.316   0.009  0.00  0.00    -0.016 A 
ATOM      8  C8  IND d   1       1.656   1.649  -0.412  0.00  0.00    -0.047 A 
ATOM      9  C9  IND d   1       0.374   2.053  -0.020  0.00  0.00    -0.096 A 
ATOM     10  HN1 IND d   1       2.151   0.074  -1.551  0.00  0.00     0.298 HD
ENDROOT
TORSDOF 0
ENDMDL
