MODEL 1
REMARK minimizedAffinity -4.9296031
REMARK minimizedRMSD -1
REMARK  0 active torsions:
REMARK  status: ('A' for Active; 'I' for Inactive)
ROOT
ATOM      1  N1  IND d   1      -0.100  -0.421  -2.055  0.00  0.00    -0.196 N 
ATOM      2  C2  IND d   1      -0.231   0.834  -1.529  0.00  0.00     0.054 A 
ATOM      3  C3  IND d   1      -0.449   0.764  -0.197  0.00  0.00    -0.031 A 
ATOM      4  C4  IND d   1      -0.527  -1.298   1.343  0.00  0.00     0.051 A 
ATOM      5  C5  IND d   1      -0.496  -2.664   1.316  0.00  0.00    -0.031 A 
ATOM      6  C6  IND d   1      -0.326  -3.366   0.141  0.00  0.00     0.015 A 
ATOM      7  C7  IND d   1      -0.168  -2.726  -1.056  0.00  0.00    -0.016 A 
ATOM      8  C8  IND d   1      -0.205  -1.339  -1.033  0.00  0.00    -0.047 A 
ATOM      9  C9  IND d   1      -0.420  -0.621   0.151  0.00  0.00    -0.096 A 
ATOM     10  HN1 IND d   1       0.027  -0.606  -2.885  0.00  0.00     0.298 HD
ENDROOT
TORSDOF 0
ENDMDL
