MODEL 1
REMARK minimizedAffinity -5.72855663
REMARK minimizedRMSD -1
REMARK  0 active torsions:
REMARK  status: ('A' for Active; 'I' for Inactive)
ROOT
ATOM      1  N1  IND d   1      -0.382   0.307  -0.740  0.00  0.00    -0.196 N 
ATOM      2  C2  IND d   1      -0.752   0.309   0.576  0.00  0.00     0.054 A 
ATOM      3  C3  IND d   1      -0.764  -0.951   1.064  0.00  0.00    -0.031 A 
ATOM      4  C4  IND d   1      -0.114  -3.158  -0.091  0.00  0.00     0.051 A 
ATOM      5  C5  IND d   1       0.254  -3.672  -1.303  0.00  0.00    -0.031 A 
ATOM      6  C6  IND d   1       0.435  -2.870  -2.411  0.00  0.00     0.015 A 
ATOM      7  C7  IND d   1       0.266  -1.516  -2.345  0.00  0.00    -0.016 A 
ATOM      8  C8  IND d   1      -0.115  -0.991  -1.118  0.00  0.00    -0.047 A 
ATOM      9  C9  IND d   1      -0.342  -1.806  -0.001  0.00  0.00    -0.096 A 
ATOM     10  HN1 IND d   1      -0.325   0.999  -1.247  0.00  0.00     0.298 HD
ENDROOT
TORSDOF 0
ENDMDL
