MODEL 1
REMARK minimizedAffinity 0.312735438
REMARK minimizedRMSD -1
REMARK  0 active torsions:
REMARK  status: ('A' for Active; 'I' for Inactive)
ROOT
ATOM      1  N1  IND d   1       1.220   0.378  -0.214  0.00  0.00    -0.196 N 
ATOM      2  C2  IND d   1      -0.102   0.030  -0.175  0.00  0.00     0.054 A 
ATOM      3  C3  IND d   1      -0.845   1.059   0.290  0.00  0.00    -0.031 A 
ATOM      4  C4  IND d   1      -0.116   3.438   0.949  0.00  0.00     0.051 A 
ATOM      5  C5  IND d   1       0.995   4.217   1.116  0.00  0.00    -0.031 A 
ATOM      6  C6  IND d   1       2.263   3.747   0.840  0.00  0.00     0.015 A 
ATOM      7  C7  IND d   1       2.467   2.479   0.374  0.00  0.00    -0.016 A 
ATOM      8  C8  IND d   1       1.342   1.683   0.210  0.00  0.00    -0.047 A 
ATOM      9  C9  IND d   1       0.057   2.140   0.529  0.00  0.00    -0.096 A 
ATOM     10  HN1 IND d   1       1.866  -0.132  -0.461  0.00  0.00     0.298 HD
ENDROOT
TORSDOF 0
ENDMDL
