MODEL 1
REMARK minimizedAffinity -0.40560919
REMARK minimizedRMSD -1
REMARK  0 active torsions:
REMARK  status: ('A' for Active; 'I' for Inactive)
ROOT
ATOM      1  N1  IND d   1       0.055  -2.028  -2.358  0.00  0.00    -0.196 N 
ATOM      2  C2  IND d   1       0.547  -0.992  -3.103  0.00  0.00     0.054 A 
ATOM      3  C3  IND d   1       0.499   0.160  -2.397  0.00  0.00    -0.031 A 
ATOM      4  C4  IND d   1      -0.254   0.559   0.032  0.00  0.00     0.051 A 
ATOM      5  C5  IND d   1      -0.819  -0.076   1.103  0.00  0.00    -0.031 A 
ATOM      6  C6  IND d   1      -1.125  -1.421   1.075  0.00  0.00     0.015 A 
ATOM      7  C7  IND d   1      -0.865  -2.188  -0.025  0.00  0.00    -0.016 A 
ATOM      8  C8  IND d   1      -0.299  -1.545  -1.117  0.00  0.00    -0.047 A 
ATOM      9  C9  IND d   1      -0.026  -0.171  -1.110  0.00  0.00    -0.096 A 
ATOM     10  HN1 IND d   1      -0.021  -2.843  -2.621  0.00  0.00     0.298 HD
ENDROOT
TORSDOF 0
ENDMDL
