MODEL 1
REMARK minimizedAffinity -5.09564877
REMARK minimizedRMSD -1
REMARK  0 active torsions:
REMARK  status: ('A' for Active; 'I' for Inactive)
ROOT
ATOM      1  N1  IND d   1      -0.123  -0.243  -1.634  0.00  0.00    -0.196 N 
ATOM      2  C2  IND d   1      -0.134   0.425  -0.442  0.00  0.00     0.054 A 
ATOM      3  C3  IND d   1       0.073  -0.434   0.581  0.00  0.00    -0.031 A 
ATOM      4  C4  IND d   1       0.554  -2.962   0.521  0.00  0.00     0.051 A 
ATOM      5  C5  IND d   1       0.628  -4.025  -0.335  0.00  0.00    -0.031 A 
ATOM      6  C6  IND d   1       0.454  -3.878  -1.696  0.00  0.00     0.015 A 
ATOM      7  C7  IND d   1       0.211  -2.655  -2.255  0.00  0.00    -0.016 A 
ATOM      8  C8  IND d   1       0.128  -1.575  -1.388  0.00  0.00    -0.047 A 
ATOM      9  C9  IND d   1       0.261  -1.725  -0.001  0.00  0.00    -0.096 A 
ATOM     10  HN1 IND d   1      -0.251   0.109  -2.408  0.00  0.00     0.298 HD
ENDROOT
TORSDOF 0
ENDMDL
