MODEL 1
REMARK minimizedAffinity -5.74707699
REMARK minimizedRMSD -1
REMARK  0 active torsions:
REMARK  status: ('A' for Active; 'I' for Inactive)
ROOT
ATOM      1  N1  IND d   1      -1.741  -1.395   1.224  0.00  0.00    -0.196 N 
ATOM      2  C2  IND d   1      -1.785  -0.036   1.367  0.00  0.00     0.054 A 
ATOM      3  C3  IND d   1      -0.738   0.537   0.731  0.00  0.00    -0.031 A 
ATOM      4  C4  IND d   1       1.109  -0.554  -0.691  0.00  0.00     0.051 A 
ATOM      5  C5  IND d   1       1.590  -1.772  -1.082  0.00  0.00    -0.031 A 
ATOM      6  C6  IND d   1       0.971  -2.951  -0.719  0.00  0.00     0.015 A 
ATOM      7  C7  IND d   1      -0.164  -2.954   0.043  0.00  0.00    -0.016 A 
ATOM      8  C8  IND d   1      -0.651  -1.719   0.447  0.00  0.00    -0.047 A 
ATOM      9  C9  IND d   1      -0.003  -0.522   0.117  0.00  0.00    -0.096 A 
ATOM     10  HN1 IND d   1      -2.301  -1.953   1.562  0.00  0.00     0.298 HD
ENDROOT
TORSDOF 0
ENDMDL
