MODEL 1
REMARK minimizedAffinity -5.59737492
REMARK minimizedRMSD -1
REMARK  0 active torsions:
REMARK  status: ('A' for Active; 'I' for Inactive)
ROOT
ATOM      1  N1  IND d   1      -0.126  -0.099  -1.028  0.00  0.00    -0.196 N 
ATOM      2  C2  IND d   1      -0.704   0.382   0.113  0.00  0.00     0.054 A 
ATOM      3  C3  IND d   1      -1.011  -0.634   0.949  0.00  0.00    -0.031 A 
ATOM      4  C4  IND d   1      -0.562  -3.156   0.693  0.00  0.00     0.051 A 
ATOM      5  C5  IND d   1      -0.089  -4.081  -0.195  0.00  0.00    -0.031 A 
ATOM      6  C6  IND d   1       0.408  -3.719  -1.430  0.00  0.00     0.015 A 
ATOM      7  C7  IND d   1       0.462  -2.411  -1.820  0.00  0.00    -0.016 A 
ATOM      8  C8  IND d   1      -0.024  -1.469  -0.924  0.00  0.00    -0.047 A 
ATOM      9  C9  IND d   1      -0.569  -1.835   0.314  0.00  0.00    -0.096 A 
ATOM     10  HN1 IND d   1       0.131   0.374  -1.699  0.00  0.00     0.298 HD
ENDROOT
TORSDOF 0
ENDMDL
