MODEL 1
REMARK minimizedAffinity -4.10406876
REMARK minimizedRMSD -1
REMARK  0 active torsions:
REMARK  status: ('A' for Active; 'I' for Inactive)
ROOT
ATOM      1  N1  IND d   1       2.538   3.158   0.173  0.00  0.00    -0.196 N 
ATOM      2  C2  IND d   1       1.538   3.731   0.908  0.00  0.00     0.054 A 
ATOM      3  C3  IND d   1       0.357   3.127   0.648  0.00  0.00    -0.031 A 
ATOM      4  C4  IND d   1      -0.149   1.111  -0.872  0.00  0.00     0.051 A 
ATOM      5  C5  IND d   1       0.437   0.271  -1.778  0.00  0.00    -0.031 A 
ATOM      6  C6  IND d   1       1.780   0.350  -2.083  0.00  0.00     0.015 A 
ATOM      7  C7  IND d   1       2.594   1.270  -1.483  0.00  0.00    -0.016 A 
ATOM      8  C8  IND d   1       2.002   2.129  -0.569  0.00  0.00    -0.047 A 
ATOM      9  C9  IND d   1       0.630   2.081  -0.287  0.00  0.00    -0.096 A 
ATOM     10  HN1 IND d   1       3.363   3.401   0.174  0.00  0.00     0.298 HD
ENDROOT
TORSDOF 0
ENDMDL
