MODEL 1
REMARK minimizedAffinity -5.09819508
REMARK minimizedRMSD -1
REMARK  0 active torsions:
REMARK  status: ('A' for Active; 'I' for Inactive)
ROOT
ATOM      1  N1  IND d   1       1.813   0.487  -0.632  0.00  0.00    -0.196 N 
ATOM      2  C2  IND d   1       1.384   1.726  -0.244  0.00  0.00     0.054 A 
ATOM      3  C3  IND d   1       0.200   1.633   0.401  0.00  0.00    -0.031 A 
ATOM      4  C4  IND d   1      -1.164  -0.459   1.023  0.00  0.00     0.051 A 
ATOM      5  C5  IND d   1      -1.196  -1.815   0.851  0.00  0.00    -0.031 A 
ATOM      6  C6  IND d   1      -0.205  -2.486   0.164  0.00  0.00     0.015 A 
ATOM      7  C7  IND d   1       0.866  -1.825  -0.368  0.00  0.00    -0.016 A 
ATOM      8  C8  IND d   1       0.898  -0.448  -0.202  0.00  0.00    -0.047 A 
ATOM      9  C9  IND d   1      -0.127   0.244   0.457  0.00  0.00    -0.096 A 
ATOM     10  HN1 IND d   1       2.533   0.320  -1.071  0.00  0.00     0.298 HD
ENDROOT
TORSDOF 0
ENDMDL
