MODEL 1
REMARK minimizedAffinity -3.26467276
REMARK minimizedRMSD -1
REMARK  0 active torsions:
REMARK  status: ('A' for Active; 'I' for Inactive)
ROOT
ATOM      1  N1  IND d   1       1.236  -2.219  -1.860  0.00  0.00    -0.196 N 
ATOM      2  C2  IND d   1       0.858  -3.532  -1.914  0.00  0.00     0.054 A 
ATOM      3  C3  IND d   1      -0.083  -3.789  -0.979  0.00  0.00    -0.031 A 
ATOM      4  C4  IND d   1      -1.225  -2.183   0.678  0.00  0.00     0.051 A 
ATOM      5  C5  IND d   1      -1.187  -0.892   1.127  0.00  0.00    -0.031 A 
ATOM      6  C6  IND d   1      -0.324   0.041   0.590  0.00  0.00     0.015 A 
ATOM      7  C7  IND d   1       0.529  -0.280  -0.428  0.00  0.00    -0.016 A 
ATOM      8  C8  IND d   1       0.499  -1.591  -0.881  0.00  0.00    -0.047 A 
ATOM      9  C9  IND d   1      -0.345  -2.553  -0.312  0.00  0.00    -0.096 A 
ATOM     10  HN1 IND d   1       1.834  -1.849  -2.355  0.00  0.00     0.298 HD
ENDROOT
TORSDOF 0
ENDMDL
