MODEL 1
REMARK minimizedAffinity -5.42929649
REMARK minimizedRMSD -1
REMARK  0 active torsions:
REMARK  status: ('A' for Active; 'I' for Inactive)
ROOT
ATOM      1  N1  IND d   1       0.314   0.367  -0.848  0.00  0.00    -0.196 N 
ATOM      2  C2  IND d   1      -0.180   0.577   0.410  0.00  0.00     0.054 A 
ATOM      3  C3  IND d   1      -0.668  -0.574   0.922  0.00  0.00    -0.031 A 
ATOM      4  C4  IND d   1      -0.670  -2.943  -0.087  0.00  0.00     0.051 A 
ATOM      5  C5  IND d   1      -0.361  -3.627  -1.229  0.00  0.00    -0.031 A 
ATOM      6  C6  IND d   1       0.202  -3.003  -2.323  0.00  0.00     0.015 A 
ATOM      7  C7  IND d   1       0.490  -1.668  -2.312  0.00  0.00    -0.016 A 
ATOM      8  C8  IND d   1       0.171  -0.968  -1.157  0.00  0.00    -0.047 A 
ATOM      9  C9  IND d   1      -0.440  -1.587  -0.059  0.00  0.00    -0.096 A 
ATOM     10  HN1 IND d   1       0.656   0.967  -1.359  0.00  0.00     0.298 HD
ENDROOT
TORSDOF 0
ENDMDL
