MODEL 1
REMARK minimizedAffinity 1.9208324
REMARK minimizedRMSD -1
REMARK  0 active torsions:
REMARK  status: ('A' for Active; 'I' for Inactive)
ROOT
ATOM      1  C   UNL d   1      -0.256  -1.420   0.563  0.00  0.00    -0.002 A 
ATOM      2  C1  UNL d   1      -0.571  -1.829   1.851  0.00  0.00     0.010 A 
ATOM      3  C2  UNL d   1       0.266  -2.707   2.542  0.00  0.00     0.041 A 
ATOM      4  C3  UNL d   1       1.438  -3.170   1.912  0.00  0.00    -0.075 A 
ATOM      5  S   UNL d   1       2.613  -4.249   2.565  0.00  0.00     0.015 SA
ATOM      6  C4  UNL d   1       3.562  -4.192   1.151  0.00  0.00     0.022 A 
ATOM      7  C5  UNL d   1       3.010  -3.375   0.193  0.00  0.00     0.026 A 
ATOM      8  C6  UNL d   1       1.777  -2.772   0.616  0.00  0.00    -0.082 A 
ATOM      9  C7  UNL d   1       0.908  -1.882  -0.059  0.00  0.00     0.045 A 
ENDROOT
TORSDOF 0
ENDMDL
