MODEL 1
REMARK minimizedAffinity 5.74736166
REMARK minimizedRMSD -1
REMARK  0 active torsions:
REMARK  status: ('A' for Active; 'I' for Inactive)
ROOT
ATOM      1  C   UNL d   1      -3.882   3.920  -2.615  0.00  0.00    -0.002 A 
ATOM      2  C1  UNL d   1      -4.153   2.606  -2.968  0.00  0.00     0.010 A 
ATOM      3  C2  UNL d   1      -3.333   1.930  -3.874  0.00  0.00     0.041 A 
ATOM      4  C3  UNL d   1      -2.225   2.603  -4.423  0.00  0.00    -0.075 A 
ATOM      5  S   UNL d   1      -1.082   1.976  -5.552  0.00  0.00     0.015 SA
ATOM      6  C4  UNL d   1      -0.206   3.438  -5.591  0.00  0.00     0.022 A 
ATOM      7  C5  UNL d   1      -0.758   4.392  -4.770  0.00  0.00     0.026 A 
ATOM      8  C6  UNL d   1      -1.930   3.927  -4.083  0.00  0.00    -0.082 A 
ATOM      9  C7  UNL d   1      -2.781   4.585  -3.162  0.00  0.00     0.045 A 
ENDROOT
TORSDOF 0
ENDMDL
