MODEL 1
REMARK minimizedAffinity 8.24102783
REMARK minimizedRMSD -1
REMARK  0 active torsions:
REMARK  status: ('A' for Active; 'I' for Inactive)
ROOT
ATOM      1  C   UNL d   1       0.662  -1.806   0.736  0.00  0.00    -0.002 A 
ATOM      2  C1  UNL d   1       0.814  -1.557   2.093  0.00  0.00     0.010 A 
ATOM      3  C2  UNL d   1       1.638  -2.368   2.876  0.00  0.00     0.041 A 
ATOM      4  C3  UNL d   1       2.316  -3.442   2.265  0.00  0.00    -0.075 A 
ATOM      5  S   UNL d   1       3.379  -4.566   3.025  0.00  0.00     0.015 SA
ATOM      6  C4  UNL d   1       3.657  -5.403   1.567  0.00  0.00     0.022 A 
ATOM      7  C5  UNL d   1       2.964  -4.851   0.516  0.00  0.00     0.026 A 
ATOM      8  C6  UNL d   1       2.180  -3.712   0.901  0.00  0.00    -0.082 A 
ATOM      9  C7  UNL d   1       1.335  -2.872   0.134  0.00  0.00     0.045 A 
ENDROOT
TORSDOF 0
ENDMDL
