MODEL 1
REMARK minimizedAffinity 1.9006139
REMARK minimizedRMSD -1
REMARK  0 active torsions:
REMARK  status: ('A' for Active; 'I' for Inactive)
ROOT
ATOM      1  C   UNL d   1      -5.349   1.305  -5.203  0.00  0.00    -0.002 A 
ATOM      2  C1  UNL d   1      -4.481   1.603  -4.162  0.00  0.00     0.010 A 
ATOM      3  C2  UNL d   1      -3.526   0.673  -3.747  0.00  0.00     0.041 A 
ATOM      4  C3  UNL d   1      -3.456  -0.572  -4.402  0.00  0.00    -0.075 A 
ATOM      5  S   UNL d   1      -2.366  -1.864  -4.065  0.00  0.00     0.015 SA
ATOM      6  C4  UNL d   1      -3.026  -2.842  -5.295  0.00  0.00     0.022 A 
ATOM      7  C5  UNL d   1      -4.054  -2.213  -5.957  0.00  0.00     0.026 A 
ATOM      8  C6  UNL d   1      -4.318  -0.894  -5.454  0.00  0.00    -0.082 A 
ATOM      9  C7  UNL d   1      -5.277   0.069  -5.851  0.00  0.00     0.045 A 
ENDROOT
TORSDOF 0
ENDMDL
