MODEL 1
REMARK minimizedAffinity 6.43567944
REMARK minimizedRMSD -1
REMARK  0 active torsions:
REMARK  status: ('A' for Active; 'I' for Inactive)
ROOT
ATOM      1  C   UNL d   1       2.379  -2.938  -0.104  0.00  0.00    -0.002 A 
ATOM      2  C1  UNL d   1       1.865  -4.186   0.217  0.00  0.00     0.010 A 
ATOM      3  C2  UNL d   1       0.737  -4.301   1.032  0.00  0.00     0.041 A 
ATOM      4  C3  UNL d   1       0.126  -3.129   1.520  0.00  0.00    -0.075 A 
ATOM      5  S   UNL d   1      -1.265  -3.027   2.533  0.00  0.00     0.015 SA
ATOM      6  C4  UNL d   1      -1.211  -1.324   2.562  0.00  0.00     0.022 A 
ATOM      7  C5  UNL d   1      -0.163  -0.829   1.823  0.00  0.00     0.026 A 
ATOM      8  C6  UNL d   1       0.625  -1.861   1.210  0.00  0.00    -0.082 A 
ATOM      9  C7  UNL d   1       1.771  -1.778   0.383  0.00  0.00     0.045 A 
ENDROOT
TORSDOF 0
ENDMDL
