MODEL 1
REMARK minimizedAffinity 10.8313484
REMARK minimizedRMSD -1
REMARK  0 active torsions:
REMARK  status: ('A' for Active; 'I' for Inactive)
ROOT
ATOM      1  C   UNL d   1      -4.714  -2.681  -6.000  0.00  0.00    -0.002 A 
ATOM      2  C1  UNL d   1      -3.770  -2.926  -5.013  0.00  0.00     0.010 A 
ATOM      3  C2  UNL d   1      -3.540  -1.992  -4.002  0.00  0.00     0.041 A 
ATOM      4  C3  UNL d   1      -4.283  -0.795  -3.997  0.00  0.00    -0.075 A 
ATOM      5  S   UNL d   1      -4.172   0.494  -2.858  0.00  0.00     0.015 SA
ATOM      6  C4  UNL d   1      -5.376   1.400  -3.653  0.00  0.00     0.022 A 
ATOM      7  C5  UNL d   1      -5.862   0.751  -4.763  0.00  0.00     0.026 A 
ATOM      8  C6  UNL d   1      -5.240  -0.525  -4.980  0.00  0.00    -0.082 A 
ATOM      9  C7  UNL d   1      -5.450  -1.493  -5.992  0.00  0.00     0.045 A 
ENDROOT
TORSDOF 0
ENDMDL
