MODEL 1
REMARK minimizedAffinity -0.138998538
REMARK minimizedRMSD -1
REMARK  0 active torsions:
REMARK  status: ('A' for Active; 'I' for Inactive)
ROOT
ATOM      1  C1  BNZ d   1       3.617   3.950   5.976  0.00  0.00     0.000 A 
ATOM      2  C2  BNZ d   1       3.640   5.319   5.993  0.00  0.00     0.000 A 
ATOM      3  C3  BNZ d   1       4.825   5.999   5.985  0.00  0.00     0.000 A 
ATOM      4  C4  BNZ d   1       5.985   5.311   6.000  0.00  0.00     0.000 A 
ATOM      5  C5  BNZ d   1       5.978   3.930   5.992  0.00  0.00     0.000 A 
ATOM      6  C6  BNZ d   1       4.783   3.249   5.961  0.00  0.00     0.000 A 
ENDROOT
TORSDOF 0
ENDMDL
