MODEL 1
REMARK minimizedAffinity 0.894792438
REMARK minimizedRMSD -1
REMARK  0 active torsions:
REMARK  status: ('A' for Active; 'I' for Inactive)
ROOT
ATOM      1  C1  BNZ d   1       3.215   4.866   5.996  0.00  0.00     0.000 A 
ATOM      2  C2  BNZ d   1       3.819   3.638   5.956  0.00  0.00     0.000 A 
ATOM      3  C3  BNZ d   1       5.181   3.529   5.925  0.00  0.00     0.000 A 
ATOM      4  C4  BNZ d   1       5.935   4.647   5.892  0.00  0.00     0.000 A 
ATOM      5  C5  BNZ d   1       5.340   5.892   5.923  0.00  0.00     0.000 A 
ATOM      6  C6  BNZ d   1       3.970   5.998   5.994  0.00  0.00     0.000 A 
ENDROOT
TORSDOF 0
ENDMDL
