MODEL 1
REMARK minimizedAffinity 0.454314679
REMARK minimizedRMSD -1
REMARK  0 active torsions:
REMARK  status: ('A' for Active; 'I' for Inactive)
ROOT
ATOM      1  C1  BNZ d   1       5.974   5.308   5.866  0.00  0.00     0.000 A 
ATOM      2  C2  BNZ d   1       5.999   3.941   5.941  0.00  0.00     0.000 A 
ATOM      3  C3  BNZ d   1       4.839   3.221   5.980  0.00  0.00     0.000 A 
ATOM      4  C4  BNZ d   1       3.656   3.869   5.984  0.00  0.00     0.000 A 
ATOM      5  C5  BNZ d   1       3.614   5.247   5.919  0.00  0.00     0.000 A 
ATOM      6  C6  BNZ d   1       4.784   5.967   5.841  0.00  0.00     0.000 A 
ENDROOT
TORSDOF 0
ENDMDL
