MODEL 1
REMARK minimizedAffinity 2.92331529
REMARK minimizedRMSD -1
REMARK  0 active torsions:
REMARK  status: ('A' for Active; 'I' for Inactive)
ROOT
ATOM      1  C1  BNZ d   1       4.324   5.747   6.000  0.00  0.00     0.000 A 
ATOM      2  C2  BNZ d   1       5.575   5.189   5.985  0.00  0.00     0.000 A 
ATOM      3  C3  BNZ d   1       5.736   3.832   5.953  0.00  0.00     0.000 A 
ATOM      4  C4  BNZ d   1       4.648   3.035   5.975  0.00  0.00     0.000 A 
ATOM      5  C5  BNZ d   1       3.381   3.582   6.000  0.00  0.00     0.000 A 
ATOM      6  C6  BNZ d   1       3.222   4.949   5.993  0.00  0.00     0.000 A 
ENDROOT
TORSDOF 0
ENDMDL
