MODEL 1
REMARK minimizedAffinity 12.0976524
REMARK minimizedRMSD -1
REMARK  0 active torsions:
REMARK  status: ('A' for Active; 'I' for Inactive)
ROOT
ATOM      1  C1  BNZ d   1       3.803  -1.043  -1.336  0.00  0.00     0.000 A 
ATOM      2  C2  BNZ d   1       2.704  -0.439  -0.785  0.00  0.00     0.000 A 
ATOM      3  C3  BNZ d   1       2.408   0.866  -1.066  0.00  0.00     0.000 A 
ATOM      4  C4  BNZ d   1       3.232   1.576  -1.864  0.00  0.00     0.000 A 
ATOM      5  C5  BNZ d   1       4.349   0.984  -2.419  0.00  0.00     0.000 A 
ATOM      6  C6  BNZ d   1       4.622  -0.341  -2.166  0.00  0.00     0.000 A 
ENDROOT
TORSDOF 0
ENDMDL
