MODEL 1
REMARK minimizedAffinity 5.46402597
REMARK minimizedRMSD -1
REMARK  0 active torsions:
REMARK  status: ('A' for Active; 'I' for Inactive)
ROOT
ATOM      1  C1  BNZ d   1       5.994   4.797   5.674  0.00  0.00     0.000 A 
ATOM      2  C2  BNZ d   1       5.334   3.600   5.586  0.00  0.00     0.000 A 
ATOM      3  C3  BNZ d   1       3.972   3.544   5.677  0.00  0.00     0.000 A 
ATOM      4  C4  BNZ d   1       3.274   4.677   5.895  0.00  0.00     0.000 A 
ATOM      5  C5  BNZ d   1       3.925   5.891   5.995  0.00  0.00     0.000 A 
ATOM      6  C6  BNZ d   1       5.294   5.949   5.865  0.00  0.00     0.000 A 
ENDROOT
TORSDOF 0
ENDMDL
