MODEL 1
REMARK minimizedAffinity 3.59992003
REMARK minimizedRMSD -1
REMARK  0 active torsions:
REMARK  status: ('A' for Active; 'I' for Inactive)
ROOT
ATOM      1  C1  BNZ d   1       3.837   3.576   5.813  0.00  0.00     0.000 A 
ATOM      2  C2  BNZ d   1       5.204   3.666   5.789  0.00  0.00     0.000 A 
ATOM      3  C3  BNZ d   1       5.827   4.878   5.896  0.00  0.00     0.000 A 
ATOM      4  C4  BNZ d   1       5.084   6.000   5.985  0.00  0.00     0.000 A 
ATOM      5  C5  BNZ d   1       3.705   5.926   6.000  0.00  0.00     0.000 A 
ATOM      6  C6  BNZ d   1       3.082   4.701   5.932  0.00  0.00     0.000 A 
ENDROOT
TORSDOF 0
ENDMDL
