MODEL 1
REMARK minimizedAffinity 3.97511005
REMARK minimizedRMSD -1
REMARK  0 active torsions:
REMARK  status: ('A' for Active; 'I' for Inactive)
ROOT
ATOM      1  C1  BNZ d   1       5.770   4.705   5.934  0.00  0.00     0.000 A 
ATOM      2  C2  BNZ d   1       5.139   5.920   5.957  0.00  0.00     0.000 A 
ATOM      3  C3  BNZ d   1       3.775   5.999   6.000  0.00  0.00     0.000 A 
ATOM      4  C4  BNZ d   1       3.044   4.865   5.979  0.00  0.00     0.000 A 
ATOM      5  C5  BNZ d   1       3.666   3.633   5.946  0.00  0.00     0.000 A 
ATOM      6  C6  BNZ d   1       5.040   3.557   5.943  0.00  0.00     0.000 A 
ENDROOT
TORSDOF 0
ENDMDL
