MODEL 1
REMARK minimizedAffinity -0.138379127
REMARK minimizedRMSD -1
REMARK  0 active torsions:
REMARK  status: ('A' for Active; 'I' for Inactive)
ROOT
ATOM      1  C1  BNZ d   1       4.018   5.940   5.958  0.00  0.00     0.000 A 
ATOM      2  C2  BNZ d   1       5.375   5.758   5.984  0.00  0.00     0.000 A 
ATOM      3  C3  BNZ d   1       5.913   4.501   5.985  0.00  0.00     0.000 A 
ATOM      4  C4  BNZ d   1       5.094   3.430   6.000  0.00  0.00     0.000 A 
ATOM      5  C5  BNZ d   1       3.723   3.597   5.982  0.00  0.00     0.000 A 
ATOM      6  C6  BNZ d   1       3.186   4.864   5.942  0.00  0.00     0.000 A 
ENDROOT
TORSDOF 0
ENDMDL
