MODEL 1
REMARK minimizedAffinity 1.08678722
REMARK minimizedRMSD -1
REMARK  0 active torsions:
REMARK  status: ('A' for Active; 'I' for Inactive)
ROOT
ATOM      1  C1  BNZ d   1       4.175   6.000   5.995  0.00  0.00     0.000 A 
ATOM      2  C2  BNZ d   1       3.299   4.947   5.989  0.00  0.00     0.000 A 
ATOM      3  C3  BNZ d   1       3.753   3.658   5.998  0.00  0.00     0.000 A 
ATOM      4  C4  BNZ d   1       5.081   3.423   5.972  0.00  0.00     0.000 A 
ATOM      5  C5  BNZ d   1       5.977   4.473   5.969  0.00  0.00     0.000 A 
ATOM      6  C6  BNZ d   1       5.516   5.769   5.999  0.00  0.00     0.000 A 
ENDROOT
TORSDOF 0
ENDMDL
