MODEL 1
REMARK minimizedAffinity 0.551872849
REMARK minimizedRMSD -1
REMARK  0 active torsions:
REMARK  status: ('A' for Active; 'I' for Inactive)
ROOT
ATOM      1  C1  BNZ d   1       3.272   4.859   5.901  0.00  0.00     0.000 A 
ATOM      2  C2  BNZ d   1       4.026   5.998   5.994  0.00  0.00     0.000 A 
ATOM      3  C3  BNZ d   1       5.391   5.935   5.998  0.00  0.00     0.000 A 
ATOM      4  C4  BNZ d   1       6.000   4.732   5.950  0.00  0.00     0.000 A 
ATOM      5  C5  BNZ d   1       5.253   3.574   5.866  0.00  0.00     0.000 A 
ATOM      6  C6  BNZ d   1       3.879   3.644   5.823  0.00  0.00     0.000 A 
ENDROOT
TORSDOF 0
ENDMDL
