MODEL 1
REMARK minimizedAffinity 2.16947103
REMARK minimizedRMSD -1
REMARK  0 active torsions:
REMARK  status: ('A' for Active; 'I' for Inactive)
ROOT
ATOM      1  C1  BNZ d   1       4.102   3.420   5.252  0.00  0.00     0.000 A 
ATOM      2  C2  BNZ d   1       3.565   4.434   6.000  0.00  0.00     0.000 A 
ATOM      3  C3  BNZ d   1       4.127   5.679   5.998  0.00  0.00     0.000 A 
ATOM      4  C4  BNZ d   1       5.248   5.900   5.281  0.00  0.00     0.000 A 
ATOM      5  C5  BNZ d   1       5.807   4.886   4.528  0.00  0.00     0.000 A 
ATOM      6  C6  BNZ d   1       5.215   3.644   4.502  0.00  0.00     0.000 A 
ENDROOT
TORSDOF 0
ENDMDL
