MODEL 1
REMARK minimizedAffinity 0.815352261
REMARK minimizedRMSD -1
REMARK  0 active torsions:
REMARK  status: ('A' for Active; 'I' for Inactive)
ROOT
ATOM      1  C1  BNZ d   1       4.416   5.943   5.982  0.00  0.00     0.000 A 
ATOM      2  C2  BNZ d   1       5.710   5.497   5.939  0.00  0.00     0.000 A 
ATOM      3  C3  BNZ d   1       5.988   4.159   5.897  0.00  0.00     0.000 A 
ATOM      4  C4  BNZ d   1       4.975   3.270   5.938  0.00  0.00     0.000 A 
ATOM      5  C5  BNZ d   1       3.666   3.704   5.990  0.00  0.00     0.000 A 
ATOM      6  C6  BNZ d   1       3.388   5.052   5.994  0.00  0.00     0.000 A 
ENDROOT
TORSDOF 0
ENDMDL
