MODEL 1
REMARK minimizedAffinity -0.0955417454
REMARK minimizedRMSD -1
REMARK  0 active torsions:
REMARK  status: ('A' for Active; 'I' for Inactive)
ROOT
ATOM      1  C1  BNZ d   1       3.576   3.873   5.985  0.00  0.00     0.000 A 
ATOM      2  C2  BNZ d   1       3.585   5.242   5.999  0.00  0.00     0.000 A 
ATOM      3  C3  BNZ d   1       4.763   5.935   5.986  0.00  0.00     0.000 A 
ATOM      4  C4  BNZ d   1       5.930   5.259   6.000  0.00  0.00     0.000 A 
ATOM      5  C5  BNZ d   1       5.938   3.879   5.996  0.00  0.00     0.000 A 
ATOM      6  C6  BNZ d   1       4.750   3.184   5.970  0.00  0.00     0.000 A 
ENDROOT
TORSDOF 0
ENDMDL
