MODEL 1
REMARK minimizedAffinity 0.675618708
REMARK minimizedRMSD -1
REMARK  0 active torsions:
REMARK  status: ('A' for Active; 'I' for Inactive)
ROOT
ATOM      1  C1  BNZ d   1       3.267   4.792   5.944  0.00  0.00     0.000 A 
ATOM      2  C2  BNZ d   1       3.968   5.968   5.973  0.00  0.00     0.000 A 
ATOM      3  C3  BNZ d   1       5.334   5.970   5.946  0.00  0.00     0.000 A 
ATOM      4  C4  BNZ d   1       5.999   4.796   5.932  0.00  0.00     0.000 A 
ATOM      5  C5  BNZ d   1       5.307   3.602   5.912  0.00  0.00     0.000 A 
ATOM      6  C6  BNZ d   1       3.931   3.605   5.899  0.00  0.00     0.000 A 
ENDROOT
TORSDOF 0
ENDMDL
