MODEL 1
REMARK minimizedAffinity 4.60680962
REMARK minimizedRMSD -1
REMARK  0 active torsions:
REMARK  status: ('A' for Active; 'I' for Inactive)
ROOT
ATOM      1  C   UNL d   1       5.369   1.662  -2.202  0.00  0.00    -0.002 A 
ATOM      2  C1  UNL d   1       4.587   1.182  -3.243  0.00  0.00     0.010 A 
ATOM      3  C2  UNL d   1       3.351   0.586  -2.987  0.00  0.00     0.041 A 
ATOM      4  C3  UNL d   1       2.908   0.482  -1.654  0.00  0.00    -0.075 A 
ATOM      5  S   UNL d   1       1.427  -0.208  -1.102  0.00  0.00     0.015 SA
ATOM      6  C4  UNL d   1       1.797   0.119   0.530  0.00  0.00     0.022 A 
ATOM      7  C5  UNL d   1       3.016   0.739   0.668  0.00  0.00     0.026 A 
ATOM      8  C6  UNL d   1       3.676   0.959  -0.588  0.00  0.00    -0.082 A 
ATOM      9  C7  UNL d   1       4.926   1.557  -0.881  0.00  0.00     0.045 A 
ENDROOT
TORSDOF 0
ENDMDL
