MODEL 1
REMARK minimizedAffinity 5.75250578
REMARK minimizedRMSD -1
REMARK  0 active torsions:
REMARK  status: ('A' for Active; 'I' for Inactive)
ROOT
ATOM      1  C   UNL d   1      -4.383   1.082   0.876  0.00  0.00    -0.002 A 
ATOM      2  C1  UNL d   1      -3.716   1.220  -0.333  0.00  0.00     0.010 A 
ATOM      3  C2  UNL d   1      -2.692   2.159  -0.476  0.00  0.00     0.041 A 
ATOM      4  C3  UNL d   1      -2.347   2.964   0.627  0.00  0.00    -0.075 A 
ATOM      5  S   UNL d   1      -1.126   4.180   0.684  0.00  0.00     0.015 SA
ATOM      6  C4  UNL d   1      -1.461   4.544   2.315  0.00  0.00     0.022 A 
ATOM      7  C5  UNL d   1      -2.477   3.767   2.819  0.00  0.00     0.026 A 
ATOM      8  C6  UNL d   1      -3.004   2.843   1.855  0.00  0.00    -0.082 A 
ATOM      9  C7  UNL d   1      -4.038   1.882   1.968  0.00  0.00     0.045 A 
ENDROOT
TORSDOF 0
ENDMDL
