MODEL 1
REMARK minimizedAffinity 7.6564045
REMARK minimizedRMSD -1
REMARK  0 active torsions:
REMARK  status: ('A' for Active; 'I' for Inactive)
ROOT
ATOM      1  C   UNL d   1       5.565   1.922  -1.037  0.00  0.00    -0.002 A 
ATOM      2  C1  UNL d   1       5.001   1.610  -2.266  0.00  0.00     0.010 A 
ATOM      3  C2  UNL d   1       3.758   0.979  -2.337  0.00  0.00     0.041 A 
ATOM      4  C3  UNL d   1       3.083   0.665  -1.140  0.00  0.00    -0.075 A 
ATOM      5  S   UNL d   1       1.550  -0.106  -0.983  0.00  0.00     0.015 SA
ATOM      6  C4  UNL d   1       1.607  -0.039   0.719  0.00  0.00     0.022 A 
ATOM      7  C5  UNL d   1       2.761   0.554   1.173  0.00  0.00     0.026 A 
ATOM      8  C6  UNL d   1       3.631   0.970   0.109  0.00  0.00    -0.082 A 
ATOM      9  C7  UNL d   1       4.893   1.609   0.148  0.00  0.00     0.045 A 
ENDROOT
TORSDOF 0
ENDMDL
