MODEL 1
REMARK minimizedAffinity 2.4364779
REMARK minimizedRMSD -1
REMARK  0 active torsions:
REMARK  status: ('A' for Active; 'I' for Inactive)
ROOT
ATOM      1  C   UNL d   1       1.675  -0.034   0.581  0.00  0.00    -0.002 A 
ATOM      2  C1  UNL d   1       2.700   0.750   1.090  0.00  0.00     0.010 A 
ATOM      3  C2  UNL d   1       3.750   1.167   0.269  0.00  0.00     0.041 A 
ATOM      4  C3  UNL d   1       3.750   0.781  -1.086  0.00  0.00    -0.075 A 
ATOM      5  S   UNL d   1       4.931   1.175  -2.278  0.00  0.00     0.015 SA
ATOM      6  C4  UNL d   1       4.102   0.312  -3.492  0.00  0.00     0.022 A 
ATOM      7  C5  UNL d   1       2.950  -0.269  -3.016  0.00  0.00     0.026 A 
ATOM      8  C6  UNL d   1       2.728  -0.008  -1.621  0.00  0.00    -0.082 A 
ATOM      9  C7  UNL d   1       1.679  -0.415  -0.763  0.00  0.00     0.045 A 
ENDROOT
TORSDOF 0
ENDMDL
