MODEL 1
REMARK minimizedAffinity 0.745387197
REMARK minimizedRMSD -1
REMARK  0 active torsions:
REMARK  status: ('A' for Active; 'I' for Inactive)
ROOT
ATOM      1  C   UNL d   1       2.106   0.158  -0.442  0.00  0.00    -0.002 A 
ATOM      2  C1  UNL d   1       1.146  -0.154  -1.394  0.00  0.00     0.010 A 
ATOM      3  C2  UNL d   1       0.016   0.651  -1.553  0.00  0.00     0.041 A 
ATOM      4  C3  UNL d   1      -0.133   1.786  -0.733  0.00  0.00    -0.075 A 
ATOM      5  S   UNL d   1      -1.434   2.917  -0.750  0.00  0.00     0.015 SA
ATOM      6  C4  UNL d   1      -0.745   3.842   0.505  0.00  0.00     0.022 A 
ATOM      7  C5  UNL d   1       0.448   3.314   0.939  0.00  0.00     0.026 A 
ATOM      8  C6  UNL d   1       0.821   2.121   0.232  0.00  0.00    -0.082 A 
ATOM      9  C7  UNL d   1       1.955   1.285   0.370  0.00  0.00     0.045 A 
ENDROOT
TORSDOF 0
ENDMDL
