MODEL 1
REMARK minimizedAffinity -3.24657702
REMARK minimizedRMSD -1
REMARK  0 active torsions:
REMARK  status: ('A' for Active; 'I' for Inactive)
ROOT
ATOM      1  C1  DEN d   1      -0.385   3.200   1.568  0.00  0.00     0.130 A 
ATOM      2  C2  DEN d   1       0.170   3.823   0.370  0.00  0.00    -0.031 A 
ATOM      3  C3  DEN d   1       0.671   2.750  -0.512  0.00  0.00     0.027 A 
ATOM      4  C4  DEN d   1       0.637   0.198  -0.143  0.00  0.00     0.027 A 
ATOM      5  C5  DEN d   1       0.278  -0.806   0.731  0.00  0.00    -0.003 A 
ATOM      6  C6  DEN d   1      -0.291  -0.544   1.949  0.00  0.00     0.001 A 
ATOM      7  C7  DEN d   1      -0.560   0.750   2.309  0.00  0.00     0.017 A 
ATOM      8  C8  DEN d   1      -0.194   1.767   1.437  0.00  0.00    -0.094 A 
ATOM      9  C9  DEN d   1       0.369   1.482   0.205  0.00  0.00    -0.072 A 
ENDROOT
TORSDOF 0
ENDMDL
