MODEL 1
REMARK minimizedAffinity -1.57380772
REMARK minimizedRMSD -1
REMARK  0 active torsions:
REMARK  status: ('A' for Active; 'I' for Inactive)
ROOT
ATOM      1  C1  DEN d   1       1.126   0.325  -1.023  0.00  0.00     0.130 A 
ATOM      2  C2  DEN d   1       0.952  -1.049  -1.489  0.00  0.00    -0.031 A 
ATOM      3  C3  DEN d   1      -0.063  -1.696  -0.633  0.00  0.00     0.027 A 
ATOM      4  C4  DEN d   1      -1.379  -0.708   1.353  0.00  0.00     0.027 A 
ATOM      5  C5  DEN d   1      -1.566   0.414   2.129  0.00  0.00    -0.003 A 
ATOM      6  C6  DEN d   1      -0.850   1.565   1.932  0.00  0.00     0.001 A 
ATOM      7  C7  DEN d   1       0.055   1.635   0.906  0.00  0.00     0.017 A 
ATOM      8  C8  DEN d   1       0.254   0.505   0.124  0.00  0.00    -0.094 A 
ATOM      9  C9  DEN d   1      -0.488  -0.646   0.331  0.00  0.00    -0.072 A 
ENDROOT
TORSDOF 0
ENDMDL
