MODEL 1
REMARK minimizedAffinity -3.24202609
REMARK minimizedRMSD -1
REMARK  0 active torsions:
REMARK  status: ('A' for Active; 'I' for Inactive)
ROOT
ATOM      1  C1  DEN d   1      -0.998  -1.481   0.666  0.00  0.00     0.130 A 
ATOM      2  C2  DEN d   1      -0.545  -0.114   0.908  0.00  0.00    -0.031 A 
ATOM      3  C3  DEN d   1       0.420   0.242  -0.151  0.00  0.00     0.027 A 
ATOM      4  C4  DEN d   1       1.250  -1.182  -2.135  0.00  0.00     0.027 A 
ATOM      5  C5  DEN d   1       1.159  -2.410  -2.751  0.00  0.00    -0.003 A 
ATOM      6  C6  DEN d   1       0.374  -3.419  -2.257  0.00  0.00     0.001 A 
ATOM      7  C7  DEN d   1      -0.385  -3.201  -1.137  0.00  0.00     0.017 A 
ATOM      8  C8  DEN d   1      -0.292  -1.967  -0.506  0.00  0.00    -0.094 A 
ATOM      9  C9  DEN d   1       0.497  -0.957  -1.029  0.00  0.00    -0.072 A 
ENDROOT
TORSDOF 0
ENDMDL
