MODEL 1
REMARK minimizedAffinity -1.38649726
REMARK minimizedRMSD -1
REMARK  0 active torsions:
REMARK  status: ('A' for Active; 'I' for Inactive)
ROOT
ATOM      1  C1  DEN d   1       1.108  -0.096  -0.738  0.00  0.00     0.130 A 
ATOM      2  C2  DEN d   1       0.946  -1.536  -0.553  0.00  0.00    -0.031 A 
ATOM      3  C3  DEN d   1       0.036  -1.750   0.590  0.00  0.00     0.027 A 
ATOM      4  C4  DEN d   1      -1.136  -0.001   2.080  0.00  0.00     0.027 A 
ATOM      5  C5  DEN d   1      -1.296   1.347   2.316  0.00  0.00    -0.003 A 
ATOM      6  C6  DEN d   1      -0.644   2.299   1.579  0.00  0.00     0.001 A 
ATOM      7  C7  DEN d   1       0.163   1.918   0.539  0.00  0.00     0.017 A 
ATOM      8  C8  DEN d   1       0.335   0.561   0.300  0.00  0.00    -0.094 A 
ATOM      9  C9  DEN d   1      -0.342  -0.386   1.049  0.00  0.00    -0.072 A 
ENDROOT
TORSDOF 0
ENDMDL
