MODEL 1
REMARK minimizedAffinity -3.46487427
REMARK minimizedRMSD -1
REMARK  0 active torsions:
REMARK  status: ('A' for Active; 'I' for Inactive)
ROOT
ATOM      1  C1  DEN d   1       0.101   2.900  -0.808  0.00  0.00     0.130 A 
ATOM      2  C2  DEN d   1      -0.289   4.032   0.028  0.00  0.00    -0.031 A 
ATOM      3  C3  DEN d   1      -0.871   3.499   1.276  0.00  0.00     0.027 A 
ATOM      4  C4  DEN d   1      -1.199   1.044   1.994  0.00  0.00     0.027 A 
ATOM      5  C5  DEN d   1      -1.033  -0.269   1.612  0.00  0.00    -0.003 A 
ATOM      6  C6  DEN d   1      -0.512  -0.615   0.393  0.00  0.00     0.001 A 
ATOM      7  C7  DEN d   1      -0.098   0.364  -0.470  0.00  0.00     0.017 A 
ATOM      8  C8  DEN d   1      -0.269   1.690  -0.095  0.00  0.00    -0.094 A 
ATOM      9  C9  DEN d   1      -0.786   2.020   1.146  0.00  0.00    -0.072 A 
ENDROOT
TORSDOF 0
ENDMDL
