MODEL 1
REMARK minimizedAffinity 2.34095573
REMARK minimizedRMSD -1
REMARK  0 active torsions:
REMARK  status: ('A' for Active; 'I' for Inactive)
ROOT
ATOM      1  C1  DEN d   1       1.038   0.397  -1.282  0.00  0.00     0.130 A 
ATOM      2  C2  DEN d   1       1.080  -1.059  -1.173  0.00  0.00    -0.031 A 
ATOM      3  C3  DEN d   1       0.246  -1.454  -0.019  0.00  0.00     0.027 A 
ATOM      4  C4  DEN d   1      -1.101   0.038   1.596  0.00  0.00     0.027 A 
ATOM      5  C5  DEN d   1      -1.434   1.337   1.911  0.00  0.00    -0.003 A 
ATOM      6  C6  DEN d   1      -0.943   2.407   1.210  0.00  0.00     0.001 A 
ATOM      7  C7  DEN d   1      -0.127   2.194   0.130  0.00  0.00     0.017 A 
ATOM      8  C8  DEN d   1       0.219   0.888  -0.189  0.00  0.00    -0.094 A 
ATOM      9  C9  DEN d   1      -0.298  -0.181   0.524  0.00  0.00    -0.072 A 
ENDROOT
TORSDOF 0
ENDMDL
