MODEL 1
REMARK minimizedAffinity 0.333838075
REMARK minimizedRMSD -1
REMARK  0 active torsions:
REMARK  status: ('A' for Active; 'I' for Inactive)
ROOT
ATOM      1  C1  DEN d   1       1.369  -0.546  -0.947  0.00  0.00     0.130 A 
ATOM      2  C2  DEN d   1       0.949  -1.822  -1.520  0.00  0.00    -0.031 A 
ATOM      3  C3  DEN d   1      -0.304  -2.231  -0.853  0.00  0.00     0.027 A 
ATOM      4  C4  DEN d   1      -1.629  -1.015   0.997  0.00  0.00     0.027 A 
ATOM      5  C5  DEN d   1      -1.659   0.095   1.811  0.00  0.00    -0.003 A 
ATOM      6  C6  DEN d   1      -0.672   1.045   1.788  0.00  0.00     0.001 A 
ATOM      7  C7  DEN d   1       0.364   0.925   0.900  0.00  0.00     0.017 A 
ATOM      8  C8  DEN d   1       0.405  -0.196   0.080  0.00  0.00    -0.094 A 
ATOM      9  C9  DEN d   1      -0.608  -1.139   0.111  0.00  0.00    -0.072 A 
ENDROOT
TORSDOF 0
ENDMDL
