MODEL 1
REMARK minimizedAffinity 2.29130578
REMARK minimizedRMSD -1
REMARK  0 active torsions:
REMARK  status: ('A' for Active; 'I' for Inactive)
ROOT
ATOM      1  C1  DEN d   1      -1.210  -0.329   1.649  0.00  0.00     0.130 A 
ATOM      2  C2  DEN d   1      -1.399   1.106   1.837  0.00  0.00    -0.031 A 
ATOM      3  C3  DEN d   1      -0.435   1.812   0.969  0.00  0.00     0.027 A 
ATOM      4  C4  DEN d   1       1.320   0.825  -0.644  0.00  0.00     0.027 A 
ATOM      5  C5  DEN d   1       1.862  -0.342  -1.135  0.00  0.00    -0.003 A 
ATOM      6  C6  DEN d   1       1.446  -1.576  -0.712  0.00  0.00     0.001 A 
ATOM      7  C7  DEN d   1       0.426  -1.673   0.198  0.00  0.00     0.017 A 
ATOM      8  C8  DEN d   1      -0.121  -0.500   0.704  0.00  0.00    -0.094 A 
ATOM      9  C9  DEN d   1       0.306   0.737   0.254  0.00  0.00    -0.072 A 
ENDROOT
TORSDOF 0
ENDMDL
