MODEL 1
REMARK minimizedAffinity -4.62867928
REMARK minimizedRMSD -1
REMARK  0 active torsions:
REMARK  status: ('A' for Active; 'I' for Inactive)
ROOT
ATOM      1  C1  DEN d   1      -0.737  -0.546   1.176  0.00  0.00     0.130 A 
ATOM      2  C2  DEN d   1       0.062  -0.838  -0.010  0.00  0.00    -0.031 A 
ATOM      3  C3  DEN d   1       0.370   0.441  -0.680  0.00  0.00     0.027 A 
ATOM      4  C4  DEN d   1      -0.306   2.835   0.004  0.00  0.00     0.027 A 
ATOM      5  C5  DEN d   1      -0.995   3.585   0.931  0.00  0.00    -0.003 A 
ATOM      6  C6  DEN d   1      -1.670   3.013   1.977  0.00  0.00     0.001 A 
ATOM      7  C7  DEN d   1      -1.632   1.654   2.147  0.00  0.00     0.017 A 
ATOM      8  C8  DEN d   1      -0.945   0.890   1.212  0.00  0.00    -0.094 A 
ATOM      9  C9  DEN d   1      -0.259   1.488   0.169  0.00  0.00    -0.072 A 
ENDROOT
TORSDOF 0
ENDMDL
