MODEL 1
REMARK minimizedAffinity -4.49712372
REMARK minimizedRMSD -1
REMARK  0 active torsions:
REMARK  status: ('A' for Active; 'I' for Inactive)
ROOT
ATOM      1  C1  DEN d   1       0.087   2.861  -1.183  0.00  0.00     0.130 A 
ATOM      2  C2  DEN d   1      -0.377   4.115  -0.596  0.00  0.00    -0.031 A 
ATOM      3  C3  DEN d   1      -0.993   3.808   0.710  0.00  0.00     0.027 A 
ATOM      4  C4  DEN d   1      -1.267   1.524   1.878  0.00  0.00     0.027 A 
ATOM      5  C5  DEN d   1      -1.039   0.170   1.763  0.00  0.00    -0.003 A 
ATOM      6  C6  DEN d   1      -0.456  -0.381   0.653  0.00  0.00     0.001 A 
ATOM      7  C7  DEN d   1      -0.039   0.431  -0.368  0.00  0.00     0.017 A 
ATOM      8  C8  DEN d   1      -0.271   1.796  -0.263  0.00  0.00    -0.094 A 
ATOM      9  C9  DEN d   1      -0.852   2.335   0.872  0.00  0.00    -0.072 A 
ENDROOT
TORSDOF 0
ENDMDL
