MODEL 1
REMARK minimizedAffinity -5.05982304
REMARK minimizedRMSD -1
REMARK  0 active torsions:
REMARK  status: ('A' for Active; 'I' for Inactive)
ROOT
ATOM      1  C1  DEN d   1       0.414  -0.031  -0.167  0.00  0.00     0.130 A 
ATOM      2  C2  DEN d   1       0.137  -1.119   0.767  0.00  0.00    -0.031 A 
ATOM      3  C3  DEN d   1      -0.774  -0.605   1.810  0.00  0.00     0.027 A 
ATOM      4  C4  DEN d   1      -1.779   1.757   2.065  0.00  0.00     0.027 A 
ATOM      5  C5  DEN d   1      -1.825   3.022   1.522  0.00  0.00    -0.003 A 
ATOM      6  C6  DEN d   1      -1.106   3.365   0.408  0.00  0.00     0.001 A 
ATOM      7  C7  DEN d   1      -0.346   2.419  -0.227  0.00  0.00     0.017 A 
ATOM      8  C8  DEN d   1      -0.289   1.143   0.318  0.00  0.00    -0.094 A 
ATOM      9  C9  DEN d   1      -1.033   0.812   1.438  0.00  0.00    -0.072 A 
ENDROOT
TORSDOF 0
ENDMDL
