MODEL 1
REMARK minimizedAffinity -5.15310907
REMARK minimizedRMSD -1
REMARK  0 active torsions:
REMARK  status: ('A' for Active; 'I' for Inactive)
ROOT
ATOM      1  C1  DEN d   1       1.211  -5.906  -0.747  0.00  0.00     0.130 A 
ATOM      2  C2  DEN d   1       2.226  -5.754   0.292  0.00  0.00    -0.031 A 
ATOM      3  C3  DEN d   1       2.708  -4.358   0.259  0.00  0.00     0.027 A 
ATOM      4  C4  DEN d   1       1.981  -2.427  -1.288  0.00  0.00     0.027 A 
ATOM      5  C5  DEN d   1       1.158  -2.076  -2.335  0.00  0.00    -0.003 A 
ATOM      6  C6  DEN d   1       0.327  -2.979  -2.944  0.00  0.00     0.001 A 
ATOM      7  C7  DEN d   1       0.267  -4.266  -2.480  0.00  0.00     0.017 A 
ATOM      8  C8  DEN d   1       1.099  -4.629  -1.429  0.00  0.00    -0.094 A 
ATOM      9  C9  DEN d   1       1.924  -3.699  -0.819  0.00  0.00    -0.072 A 
ENDROOT
TORSDOF 0
ENDMDL
