MODEL 1
REMARK minimizedAffinity -4.71664619
REMARK minimizedRMSD -1
REMARK  0 active torsions:
REMARK  status: ('A' for Active; 'I' for Inactive)
ROOT
ATOM      1  C1  DEN d   1       0.075   2.704   0.350  0.00  0.00     0.130 A 
ATOM      2  C2  DEN d   1      -0.854   3.001   1.437  0.00  0.00    -0.031 A 
ATOM      3  C3  DEN d   1      -1.434   1.726   1.903  0.00  0.00     0.027 A 
ATOM      4  C4  DEN d   1      -0.985  -0.668   1.054  0.00  0.00     0.027 A 
ATOM      5  C5  DEN d   1      -0.283  -1.421   0.138  0.00  0.00    -0.003 A 
ATOM      6  C6  DEN d   1       0.554  -0.854  -0.786  0.00  0.00     0.001 A 
ATOM      7  C7  DEN d   1       0.745   0.503  -0.785  0.00  0.00     0.017 A 
ATOM      8  C8  DEN d   1       0.036   1.269   0.130  0.00  0.00    -0.094 A 
ATOM      9  C9  DEN d   1      -0.796   0.676   1.064  0.00  0.00    -0.072 A 
ENDROOT
TORSDOF 0
ENDMDL
