MODEL 1
REMARK minimizedAffinity -1.60392022
REMARK minimizedRMSD -1
REMARK  0 active torsions:
REMARK  status: ('A' for Active; 'I' for Inactive)
ROOT
ATOM      1  C1  DEN d   1      -0.154   0.019   1.429  0.00  0.00     0.130 A 
ATOM      2  C2  DEN d   1       0.424  -0.749   0.330  0.00  0.00    -0.031 A 
ATOM      3  C3  DEN d   1       0.912   0.205  -0.686  0.00  0.00     0.027 A 
ATOM      4  C4  DEN d   1       0.832   2.783  -0.662  0.00  0.00     0.027 A 
ATOM      5  C5  DEN d   1       0.426   3.887   0.055  0.00  0.00    -0.003 A 
ATOM      6  C6  DEN d   1      -0.227   3.779   1.254  0.00  0.00     0.001 A 
ATOM      7  C7  DEN d   1      -0.454   2.540   1.794  0.00  0.00     0.017 A 
ATOM      8  C8  DEN d   1      -0.053   1.423   1.074  0.00  0.00    -0.094 A 
ATOM      9  C9  DEN d   1       0.617   1.553  -0.131  0.00  0.00    -0.072 A 
ENDROOT
TORSDOF 0
ENDMDL
