MODEL 1
REMARK minimizedAffinity -3.32904887
REMARK minimizedRMSD -1
REMARK  0 active torsions:
REMARK  status: ('A' for Active; 'I' for Inactive)
ROOT
ATOM      1  C   UNL d   1       2.690  -1.511  -0.325  0.00  0.00     0.078 C 
ATOM      2  C1  UNL d   1       1.358  -0.825  -0.257  0.00  0.00    -0.077 A 
ATOM      3  C2  UNL d   1       1.200   0.375   0.447  0.00  0.00    -0.001 A 
ATOM      4  C3  UNL d   1      -0.048   0.998   0.510  0.00  0.00     0.003 A 
ATOM      5  C4  UNL d   1      -1.147   0.427  -0.128  0.00  0.00    -0.005 A 
ATOM      6  C5  UNL d   1      -1.000  -0.768  -0.830  0.00  0.00     0.003 A 
ATOM      7  C6  UNL d   1       0.247  -1.392  -0.894  0.00  0.00    -0.001 A 
ENDROOT
TORSDOF 0
ENDMDL
