MODEL 1
REMARK minimizedAffinity -2.05053091
REMARK minimizedRMSD -1
REMARK  0 active torsions:
REMARK  status: ('A' for Active; 'I' for Inactive)
ROOT
ATOM      1  C   UNL d   1       2.586  -2.187  -0.281  0.00  0.00     0.078 C 
ATOM      2  C1  UNL d   1       1.337  -1.357  -0.275  0.00  0.00    -0.077 A 
ATOM      3  C2  UNL d   1       0.085  -1.936  -0.516  0.00  0.00    -0.001 A 
ATOM      4  C3  UNL d   1      -1.068  -1.150  -0.517  0.00  0.00     0.003 A 
ATOM      5  C4  UNL d   1      -0.981   0.220  -0.278  0.00  0.00    -0.005 A 
ATOM      6  C5  UNL d   1       0.260   0.806  -0.039  0.00  0.00     0.003 A 
ATOM      7  C6  UNL d   1       1.415   0.021  -0.038  0.00  0.00    -0.001 A 
ENDROOT
TORSDOF 0
ENDMDL
