MODEL 1
REMARK minimizedAffinity -3.88801193
REMARK minimizedRMSD -1
REMARK  0 active torsions:
REMARK  status: ('A' for Active; 'I' for Inactive)
ROOT
ATOM      1  C   UNL d   1       1.863  -1.800   0.813  0.00  0.00     0.078 C 
ATOM      2  C1  UNL d   1       0.739  -0.997   0.230  0.00  0.00    -0.077 A 
ATOM      3  C2  UNL d   1      -0.002  -1.477  -0.857  0.00  0.00    -0.001 A 
ATOM      4  C3  UNL d   1      -1.040  -0.715  -1.395  0.00  0.00     0.003 A 
ATOM      5  C4  UNL d   1      -1.346   0.532  -0.854  0.00  0.00    -0.005 A 
ATOM      6  C5  UNL d   1      -0.613   1.019   0.226  0.00  0.00     0.003 A 
ATOM      7  C6  UNL d   1       0.426   0.258   0.766  0.00  0.00    -0.001 A 
ENDROOT
TORSDOF 0
ENDMDL
