MODEL 1
REMARK minimizedAffinity -5.26285934
REMARK minimizedRMSD -1
REMARK  0 active torsions:
REMARK  status: ('A' for Active; 'I' for Inactive)
ROOT
ATOM      1  C   UNL d   1      -1.159   0.720  -0.045  0.00  0.00     0.078 C 
ATOM      2  C1  UNL d   1       0.118  -0.032   0.181  0.00  0.00    -0.077 A 
ATOM      3  C2  UNL d   1       0.245  -1.371  -0.210  0.00  0.00    -0.001 A 
ATOM      4  C3  UNL d   1       1.437  -2.062   0.015  0.00  0.00     0.003 A 
ATOM      5  C4  UNL d   1       2.510  -1.424   0.634  0.00  0.00    -0.005 A 
ATOM      6  C5  UNL d   1       2.392  -0.093   1.029  0.00  0.00     0.003 A 
ATOM      7  C6  UNL d   1       1.201   0.600   0.805  0.00  0.00    -0.001 A 
ENDROOT
TORSDOF 0
ENDMDL
