MODEL 1
REMARK minimizedAffinity -5.1438241
REMARK minimizedRMSD -1
REMARK  0 active torsions:
REMARK  status: ('A' for Active; 'I' for Inactive)
ROOT
ATOM      1  C   UNL d   1      -1.010   0.846  -0.026  0.00  0.00     0.078 C 
ATOM      2  C1  UNL d   1       0.261   0.050  -0.036  0.00  0.00    -0.077 A 
ATOM      3  C2  UNL d   1       0.247  -1.327  -0.288  0.00  0.00    -0.001 A 
ATOM      4  C3  UNL d   1       1.437  -2.057  -0.285  0.00  0.00     0.003 A 
ATOM      5  C4  UNL d   1       2.649  -1.418  -0.029  0.00  0.00    -0.005 A 
ATOM      6  C5  UNL d   1       2.672  -0.048   0.225  0.00  0.00     0.003 A 
ATOM      7  C6  UNL d   1       1.483   0.683   0.222  0.00  0.00    -0.001 A 
ENDROOT
TORSDOF 0
ENDMDL
