MODEL 1
REMARK minimizedAffinity -5.17799139
REMARK minimizedRMSD -1
REMARK  0 active torsions:
REMARK  status: ('A' for Active; 'I' for Inactive)
ROOT
ATOM      1  C   UNL d   1       2.237  -1.278   1.150  0.00  0.00     0.078 C 
ATOM      2  C1  UNL d   1       1.243  -0.586   0.265  0.00  0.00    -0.077 A 
ATOM      3  C2  UNL d   1       1.345   0.786   0.002  0.00  0.00    -0.001 A 
ATOM      4  C3  UNL d   1       0.408   1.419  -0.816  0.00  0.00     0.003 A 
ATOM      5  C4  UNL d   1      -0.638   0.689  -1.376  0.00  0.00    -0.005 A 
ATOM      6  C5  UNL d   1      -0.749  -0.676  -1.118  0.00  0.00     0.003 A 
ATOM      7  C6  UNL d   1       0.187  -1.311  -0.300  0.00  0.00    -0.001 A 
ENDROOT
TORSDOF 0
ENDMDL
