MODEL 1
REMARK minimizedAffinity -4.85381317
REMARK minimizedRMSD -1
REMARK  0 active torsions:
REMARK  status: ('A' for Active; 'I' for Inactive)
ROOT
ATOM      1  C   UNL d   1       2.525  -1.664  -0.283  0.00  0.00     0.078 C 
ATOM      2  C1  UNL d   1       1.316  -0.778  -0.307  0.00  0.00    -0.077 A 
ATOM      3  C2  UNL d   1       0.052  -1.290  -0.626  0.00  0.00    -0.001 A 
ATOM      4  C3  UNL d   1      -1.063  -0.451  -0.654  0.00  0.00     0.003 A 
ATOM      5  C4  UNL d   1      -0.926   0.905  -0.365  0.00  0.00    -0.005 A 
ATOM      6  C5  UNL d   1       0.327   1.424  -0.049  0.00  0.00     0.003 A 
ATOM      7  C6  UNL d   1       1.444   0.587  -0.020  0.00  0.00    -0.001 A 
ENDROOT
TORSDOF 0
ENDMDL
