MODEL 1
REMARK minimizedAffinity 28.4913578
REMARK minimizedRMSD -1
REMARK  0 active torsions:
REMARK  status: ('A' for Active; 'I' for Inactive)
ROOT
ATOM      1  C   UNL d   1      -2.199  -0.658   0.774  0.00  0.00     0.124 A 
ATOM      2  C1  UNL d   1      -1.144  -1.558   0.729  0.00  0.00     0.062 A 
ATOM      3  C2  UNL d   1      -0.005  -1.340   1.499  0.00  0.00     0.162 A 
ATOM      4  C3  UNL d   1       0.084  -0.217   2.322  0.00  0.00    -0.034 A 
ATOM      5  C4  UNL d   1      -0.981   0.684   2.361  0.00  0.00     0.162 A 
ATOM      6  C5  UNL d   1      -2.117   0.462   1.589  0.00  0.00     0.062 A 
ATOM      7  F   UNL d   1      -3.136   1.333   1.634  0.00  0.00    -0.097 F 
ATOM      8  F1  UNL d   1      -0.928   1.774   3.141  0.00  0.00    -0.096 F 
ATOM      9  I   UNL d   1       1.786   0.112   3.474  0.00  0.00    -0.060 I 
ATOM     10  F2  UNL d   1       1.000  -2.227   1.436  0.00  0.00    -0.096 F 
ATOM     11  F3  UNL d   1      -1.221  -2.640  -0.059  0.00  0.00    -0.097 F 
ATOM     12  F4  UNL d   1      -3.294  -0.869   0.031  0.00  0.00    -0.092 F 
ENDROOT
TORSDOF 0
ENDMDL
