MODEL 1
REMARK minimizedAffinity 13.5606689
REMARK minimizedRMSD -1
REMARK  0 active torsions:
REMARK  status: ('A' for Active; 'I' for Inactive)
ROOT
ATOM      1  C   UNL d   1       1.488  -1.162  -4.683  0.00  0.00     0.124 A 
ATOM      2  C1  UNL d   1       0.241  -0.713  -4.270  0.00  0.00     0.062 A 
ATOM      3  C2  UNL d   1      -0.883  -1.517  -4.437  0.00  0.00     0.162 A 
ATOM      4  C3  UNL d   1      -0.765  -2.779  -5.020  0.00  0.00    -0.034 A 
ATOM      5  C4  UNL d   1       0.492  -3.223  -5.433  0.00  0.00     0.162 A 
ATOM      6  C5  UNL d   1       1.612  -2.416  -5.264  0.00  0.00     0.062 A 
ATOM      7  F   UNL d   1       2.816  -2.851  -5.663  0.00  0.00    -0.097 F 
ATOM      8  F1  UNL d   1       0.641  -4.431  -5.997  0.00  0.00    -0.096 F 
ATOM      9  I   UNL d   1      -2.443  -3.985  -5.272  0.00  0.00    -0.060 I 
ATOM     10  F2  UNL d   1      -2.076  -1.058  -4.029  0.00  0.00    -0.096 F 
ATOM     11  F3  UNL d   1       0.117   0.498  -3.709  0.00  0.00    -0.097 F 
ATOM     12  F4  UNL d   1       2.567  -0.386  -4.521  0.00  0.00    -0.092 F 
ENDROOT
TORSDOF 0
ENDMDL
