MODEL 1
REMARK minimizedAffinity 20.0468369
REMARK minimizedRMSD -1
REMARK  0 active torsions:
REMARK  status: ('A' for Active; 'I' for Inactive)
ROOT
ATOM      1  C   UNL d   1      -2.266  -4.857  -3.638  0.00  0.00     0.124 A 
ATOM      2  C1  UNL d   1      -2.074  -4.150  -2.459  0.00  0.00     0.062 A 
ATOM      3  C2  UNL d   1      -1.347  -2.963  -2.465  0.00  0.00     0.162 A 
ATOM      4  C3  UNL d   1      -0.807  -2.474  -3.655  0.00  0.00    -0.034 A 
ATOM      5  C4  UNL d   1      -1.003  -3.192  -4.836  0.00  0.00     0.162 A 
ATOM      6  C5  UNL d   1      -1.730  -4.378  -4.825  0.00  0.00     0.062 A 
ATOM      7  F   UNL d   1      -1.914  -5.059  -5.965  0.00  0.00    -0.097 F 
ATOM      8  F1  UNL d   1      -0.498  -2.751  -5.998  0.00  0.00    -0.096 F 
ATOM      9  I   UNL d   1       0.281  -0.700  -3.668  0.00  0.00    -0.060 I 
ATOM     10  F2  UNL d   1      -1.177  -2.300  -1.311  0.00  0.00    -0.096 F 
ATOM     11  F3  UNL d   1      -2.589  -4.611  -1.310  0.00  0.00    -0.097 F 
ATOM     12  F4  UNL d   1      -2.965  -5.999  -3.629  0.00  0.00    -0.092 F 
ENDROOT
TORSDOF 0
ENDMDL
