MODEL 1
REMARK minimizedAffinity 20.8593063
REMARK minimizedRMSD -1
REMARK  0 active torsions:
REMARK  status: ('A' for Active; 'I' for Inactive)
ROOT
ATOM      1  C   UNL d   1      -2.154  -4.761  -3.631  0.00  0.00     0.124 A 
ATOM      2  C1  UNL d   1      -1.746  -4.188  -4.828  0.00  0.00     0.062 A 
ATOM      3  C2  UNL d   1      -1.029  -2.996  -4.825  0.00  0.00     0.162 A 
ATOM      4  C3  UNL d   1      -0.713  -2.368  -3.620  0.00  0.00    -0.034 A 
ATOM      5  C4  UNL d   1      -1.127  -2.949  -2.420  0.00  0.00     0.162 A 
ATOM      6  C5  UNL d   1      -1.844  -4.141  -2.429  0.00  0.00     0.062 A 
ATOM      7  F   UNL d   1      -2.237  -4.693  -1.272  0.00  0.00    -0.097 F 
ATOM      8  F1  UNL d   1      -0.840  -2.372  -1.244  0.00  0.00    -0.096 F 
ATOM      9  I   UNL d   1       0.360  -0.584  -3.611  0.00  0.00    -0.060 I 
ATOM     10  F2  UNL d   1      -0.648  -2.465  -5.996  0.00  0.00    -0.096 F 
ATOM     11  F3  UNL d   1      -2.045  -4.785  -5.991  0.00  0.00    -0.097 F 
ATOM     12  F4  UNL d   1      -2.845  -5.908  -3.637  0.00  0.00    -0.092 F 
ENDROOT
TORSDOF 0
ENDMDL
