MODEL 1
REMARK minimizedAffinity 24.963665
REMARK minimizedRMSD -1
REMARK  0 active torsions:
REMARK  status: ('A' for Active; 'I' for Inactive)
ROOT
ATOM      1  C   UNL d   1       1.594  -1.372  -4.284  0.00  0.00     0.124 A 
ATOM      2  C1  UNL d   1       1.866  -2.580  -4.909  0.00  0.00     0.062 A 
ATOM      3  C2  UNL d   1       0.826  -3.365  -5.400  0.00  0.00     0.162 A 
ATOM      4  C3  UNL d   1      -0.497  -2.942  -5.267  0.00  0.00    -0.034 A 
ATOM      5  C4  UNL d   1      -0.763  -1.725  -4.636  0.00  0.00     0.162 A 
ATOM      6  C5  UNL d   1       0.280  -0.945  -4.148  0.00  0.00     0.062 A 
ATOM      7  F   UNL d   1       0.015   0.222  -3.544  0.00  0.00    -0.097 F 
ATOM      8  F1  UNL d   1      -2.023  -1.289  -4.493  0.00  0.00    -0.096 F 
ATOM      9  I   UNL d   1      -2.055  -4.111  -5.999  0.00  0.00    -0.060 I 
ATOM     10  F2  UNL d   1       1.118  -4.528  -5.999  0.00  0.00    -0.096 F 
ATOM     11  F3  UNL d   1       3.134  -2.995  -5.041  0.00  0.00    -0.097 F 
ATOM     12  F4  UNL d   1       2.596  -0.620  -3.812  0.00  0.00    -0.092 F 
ENDROOT
TORSDOF 0
ENDMDL
