MODEL 1
REMARK minimizedAffinity 20.2026253
REMARK minimizedRMSD -1
REMARK  0 active torsions:
REMARK  status: ('A' for Active; 'I' for Inactive)
ROOT
ATOM      1  C   UNL d   1      -2.127  -4.839  -3.633  0.00  0.00     0.124 A 
ATOM      2  C1  UNL d   1      -1.846  -4.202  -2.433  0.00  0.00     0.062 A 
ATOM      3  C2  UNL d   1      -1.151  -2.996  -2.426  0.00  0.00     0.162 A 
ATOM      4  C3  UNL d   1      -0.733  -2.418  -3.625  0.00  0.00    -0.034 A 
ATOM      5  C4  UNL d   1      -1.019  -3.065  -4.829  0.00  0.00     0.162 A 
ATOM      6  C5  UNL d   1      -1.714  -4.270  -4.830  0.00  0.00     0.062 A 
ATOM      7  F   UNL d   1      -1.985  -4.884  -5.991  0.00  0.00    -0.097 F 
ATOM      8  F1  UNL d   1      -0.632  -2.537  -5.999  0.00  0.00    -0.096 F 
ATOM      9  I   UNL d   1       0.306  -0.614  -3.620  0.00  0.00    -0.060 I 
ATOM     10  F2  UNL d   1      -0.893  -2.402  -1.251  0.00  0.00    -0.096 F 
ATOM     11  F3  UNL d   1      -2.244  -4.749  -1.275  0.00  0.00    -0.097 F 
ATOM     12  F4  UNL d   1      -2.795  -6.000  -3.636  0.00  0.00    -0.092 F 
ENDROOT
TORSDOF 0
ENDMDL
