MODEL 1
REMARK minimizedAffinity 30.1058788
REMARK minimizedRMSD -1
REMARK  0 active torsions:
REMARK  status: ('A' for Active; 'I' for Inactive)
ROOT
ATOM      1  C   UNL d   1       0.169  -0.792  -2.439  0.00  0.00     0.124 A 
ATOM      2  C1  UNL d   1      -0.421  -1.965  -1.989  0.00  0.00     0.062 A 
ATOM      3  C2  UNL d   1      -1.040  -2.827  -2.890  0.00  0.00     0.162 A 
ATOM      4  C3  UNL d   1      -1.072  -2.520  -4.250  0.00  0.00    -0.034 A 
ATOM      5  C4  UNL d   1      -0.477  -1.338  -4.695  0.00  0.00     0.162 A 
ATOM      6  C5  UNL d   1       0.141  -0.479  -3.791  0.00  0.00     0.062 A 
ATOM      7  F   UNL d   1       0.710   0.653  -4.228  0.00  0.00    -0.097 F 
ATOM      8  F1  UNL d   1      -0.489  -1.012  -5.996  0.00  0.00    -0.096 F 
ATOM      9  I   UNL d   1      -1.997  -3.806  -5.599  0.00  0.00    -0.060 I 
ATOM     10  F2  UNL d   1      -1.602  -3.953  -2.427  0.00  0.00    -0.096 F 
ATOM     11  F3  UNL d   1      -0.395  -2.268  -0.684  0.00  0.00    -0.097 F 
ATOM     12  F4  UNL d   1       0.764   0.036  -1.571  0.00  0.00    -0.092 F 
ENDROOT
TORSDOF 0
ENDMDL
