MODEL 1
REMARK minimizedAffinity 12.8125648
REMARK minimizedRMSD -1
REMARK  0 active torsions:
REMARK  status: ('A' for Active; 'I' for Inactive)
ROOT
ATOM      1  C   UNL d   1      -1.898  -4.791  -3.584  0.00  0.00     0.124 A 
ATOM      2  C1  UNL d   1      -1.733  -4.048  -2.423  0.00  0.00     0.062 A 
ATOM      3  C2  UNL d   1      -1.056  -2.833  -2.460  0.00  0.00     0.162 A 
ATOM      4  C3  UNL d   1      -0.539  -2.352  -3.663  0.00  0.00    -0.034 A 
ATOM      5  C4  UNL d   1      -0.708  -3.105  -4.826  0.00  0.00     0.162 A 
ATOM      6  C5  UNL d   1      -1.385  -4.319  -4.784  0.00  0.00     0.062 A 
ATOM      7  F   UNL d   1      -1.544  -5.036  -5.906  0.00  0.00    -0.097 F 
ATOM      8  F1  UNL d   1      -0.223  -2.673  -6.000  0.00  0.00    -0.096 F 
ATOM      9  I   UNL d   1       0.475  -0.535  -3.723  0.00  0.00    -0.060 I 
ATOM     10  F2  UNL d   1      -0.911  -2.136  -1.323  0.00  0.00    -0.096 F 
ATOM     11  F3  UNL d   1      -2.227  -4.503  -1.262  0.00  0.00    -0.097 F 
ATOM     12  F4  UNL d   1      -2.550  -5.961  -3.545  0.00  0.00    -0.092 F 
ENDROOT
TORSDOF 0
ENDMDL
