MODEL 1
REMARK minimizedAffinity 14.9412165
REMARK minimizedRMSD -1
REMARK  0 active torsions:
REMARK  status: ('A' for Active; 'I' for Inactive)
ROOT
ATOM      1  C   UNL d   1       1.538  -0.639   4.280  0.00  0.00     0.124 A 
ATOM      2  C1  UNL d   1       1.066  -1.082   3.052  0.00  0.00     0.062 A 
ATOM      3  C2  UNL d   1       0.119  -0.336   2.356  0.00  0.00     0.162 A 
ATOM      4  C3  UNL d   1      -0.362   0.861   2.886  0.00  0.00    -0.034 A 
ATOM      5  C4  UNL d   1       0.117   1.299   4.122  0.00  0.00     0.162 A 
ATOM      6  C5  UNL d   1       1.063   0.551   4.814  0.00  0.00     0.062 A 
ATOM      7  F   UNL d   1       1.518   0.980   6.000  0.00  0.00    -0.097 F 
ATOM      8  F1  UNL d   1      -0.325   2.446   4.661  0.00  0.00    -0.096 F 
ATOM      9  I   UNL d   1      -1.779   1.979   1.849  0.00  0.00    -0.060 I 
ATOM     10  F2  UNL d   1      -0.320  -0.788   1.172  0.00  0.00    -0.096 F 
ATOM     11  F3  UNL d   1       1.523  -2.231   2.535  0.00  0.00    -0.097 F 
ATOM     12  F4  UNL d   1       2.449  -1.359   4.948  0.00  0.00    -0.092 F 
ENDROOT
TORSDOF 0
ENDMDL
