MODEL 1
REMARK minimizedAffinity 10.9769726
REMARK minimizedRMSD -1
REMARK  1 active torsions:
REMARK  status: ('A' for Active; 'I' for Inactive)
REMARK    1  A    between atoms: C1_2  and  C2_3 
ROOT
ATOM      1  C2  UNL d   1       4.022   3.243  -4.798  0.00  0.00    -0.076 A 
ATOM      2  C3  UNL d   1       3.453   4.448  -5.248  0.00  0.00     0.004 A 
ATOM      3  C4  UNL d   1       4.141   5.654  -5.128  0.00  0.00    -0.003 A 
ATOM      4  C5  UNL d   1       5.409   5.676  -4.557  0.00  0.00     0.000 A 
ATOM      5  C6  UNL d   1       5.995   4.488  -4.122  0.00  0.00     0.000 A 
ATOM      6  C7  UNL d   1       5.322   3.261  -4.250  0.00  0.00    -0.073 A 
ATOM      7  C8  UNL d   1       6.000   2.011  -3.758  0.00  0.00     0.078 C 
ENDROOT
BRANCH   1   8
ATOM      8  C1  UNL d   1       3.218   1.969  -4.929  0.00  0.00     0.053 C 
ATOM      9  C   UNL d   1       1.947   2.163  -5.742  0.00  0.00     0.018 C 
ENDBRANCH   1   8
TORSDOF 1
ENDMDL
