MODEL 1
REMARK minimizedAffinity -0.366584092
REMARK minimizedRMSD -1
REMARK  1 active torsions:
REMARK  status: ('A' for Active; 'I' for Inactive)
REMARK    1  A    between atoms: C1_2  and  C2_3 
ROOT
ATOM      1  C2  UNL d   1       5.985   3.674   4.857  0.00  0.00    -0.076 A 
ATOM      2  C3  UNL d   1       6.000   2.796   5.955  0.00  0.00     0.004 A 
ATOM      3  C4  UNL d   1       5.994   1.415   5.770  0.00  0.00    -0.003 A 
ATOM      4  C5  UNL d   1       5.974   0.889   4.483  0.00  0.00     0.000 A 
ATOM      5  C6  UNL d   1       5.977   1.745   3.382  0.00  0.00     0.000 A 
ATOM      6  C7  UNL d   1       6.000   3.140   3.551  0.00  0.00    -0.073 A 
ATOM      7  C8  UNL d   1       5.997   4.016   2.329  0.00  0.00     0.078 C 
ENDROOT
BRANCH   1   8
ATOM      8  C1  UNL d   1       5.965   5.163   5.121  0.00  0.00     0.053 C 
ATOM      9  C   UNL d   1       5.986   5.982   3.839  0.00  0.00     0.018 C 
ENDBRANCH   1   8
TORSDOF 1
ENDMDL
