MODEL 1
REMARK minimizedAffinity -0.58327049
REMARK minimizedRMSD -1
REMARK  1 active torsions:
REMARK  status: ('A' for Active; 'I' for Inactive)
REMARK    1  A    between atoms: C1_2  and  C2_3 
ROOT
ATOM      1  C2  UNL d   1       5.950  -0.432   3.569  0.00  0.00    -0.076 A 
ATOM      2  C3  UNL d   1       5.901  -1.836   3.535  0.00  0.00     0.004 A 
ATOM      3  C4  UNL d   1       5.883  -2.582   4.713  0.00  0.00    -0.003 A 
ATOM      4  C5  UNL d   1       5.915  -1.936   5.943  0.00  0.00     0.000 A 
ATOM      5  C6  UNL d   1       5.946  -0.542   5.996  0.00  0.00     0.000 A 
ATOM      6  C7  UNL d   1       5.948   0.225   4.818  0.00  0.00    -0.073 A 
ATOM      7  C8  UNL d   1       5.988   1.724   4.934  0.00  0.00     0.078 C 
ENDROOT
BRANCH   1   8
ATOM      8  C1  UNL d   1       5.995   0.323   2.260  0.00  0.00     0.053 C 
ATOM      9  C   UNL d   1       5.373  -0.460   1.114  0.00  0.00     0.018 C 
ENDBRANCH   1   8
TORSDOF 1
ENDMDL
