MODEL 1
REMARK minimizedAffinity 1.77526033
REMARK minimizedRMSD -1
REMARK  1 active torsions:
REMARK  status: ('A' for Active; 'I' for Inactive)
REMARK    1  A    between atoms: C1_2  and  C2_3 
ROOT
ATOM      1  C2  UNL d   1       5.918   2.666   3.620  0.00  0.00    -0.076 A 
ATOM      2  C3  UNL d   1       5.928   3.067   4.967  0.00  0.00     0.004 A 
ATOM      3  C4  UNL d   1       5.963   2.127   5.995  0.00  0.00    -0.003 A 
ATOM      4  C5  UNL d   1       5.990   0.770   5.693  0.00  0.00     0.000 A 
ATOM      5  C6  UNL d   1       5.999   0.355   4.362  0.00  0.00     0.000 A 
ATOM      6  C7  UNL d   1       5.980   1.290   3.313  0.00  0.00    -0.073 A 
ATOM      7  C8  UNL d   1       5.984   0.786   1.896  0.00  0.00     0.078 C 
ENDROOT
BRANCH   1   8
ATOM      8  C1  UNL d   1       5.852   3.730   2.548  0.00  0.00     0.053 C 
ATOM      9  C   UNL d   1       5.899   5.139   3.121  0.00  0.00     0.018 C 
ENDBRANCH   1   8
TORSDOF 1
ENDMDL
