MODEL 1
REMARK minimizedAffinity -0.872096121
REMARK minimizedRMSD -1
REMARK  1 active torsions:
REMARK  status: ('A' for Active; 'I' for Inactive)
REMARK    1  A    between atoms: C1_2  and  C2_3 
ROOT
ATOM      1  C2  UNL d   1       5.852   3.027   3.997  0.00  0.00    -0.076 A 
ATOM      2  C3  UNL d   1       5.995   2.882   5.387  0.00  0.00     0.004 A 
ATOM      3  C4  UNL d   1       5.996   1.620   5.980  0.00  0.00    -0.003 A 
ATOM      4  C5  UNL d   1       5.854   0.484   5.192  0.00  0.00     0.000 A 
ATOM      5  C6  UNL d   1       5.729   0.609   3.809  0.00  0.00     0.000 A 
ATOM      6  C7  UNL d   1       5.742   1.872   3.193  0.00  0.00    -0.073 A 
ATOM      7  C8  UNL d   1       5.598   1.948   1.698  0.00  0.00     0.078 C 
ENDROOT
BRANCH   1   8
ATOM      8  C1  UNL d   1       5.831   4.422   3.413  0.00  0.00     0.053 C 
ATOM      9  C   UNL d   1       5.544   5.488   4.459  0.00  0.00     0.018 C 
ENDBRANCH   1   8
TORSDOF 1
ENDMDL
