MODEL 1
REMARK minimizedAffinity 3.02297878
REMARK minimizedRMSD -1
REMARK  1 active torsions:
REMARK  status: ('A' for Active; 'I' for Inactive)
REMARK    1  A    between atoms: C1_2  and  C2_3 
ROOT
ATOM      1  C2  UNL d   1       5.975   1.729   3.649  0.00  0.00    -0.076 A 
ATOM      2  C3  UNL d   1       5.977   0.361   3.325  0.00  0.00     0.004 A 
ATOM      3  C4  UNL d   1       5.990  -0.612   4.322  0.00  0.00    -0.003 A 
ATOM      4  C5  UNL d   1       6.000  -0.234   5.660  0.00  0.00     0.000 A 
ATOM      5  C6  UNL d   1       5.980   1.118   6.000  0.00  0.00     0.000 A 
ATOM      6  C7  UNL d   1       5.951   2.112   5.007  0.00  0.00    -0.073 A 
ATOM      7  C8  UNL d   1       5.937   3.555   5.431  0.00  0.00     0.078 C 
ENDROOT
BRANCH   1   8
ATOM      8  C1  UNL d   1       5.989   2.740   2.525  0.00  0.00     0.053 C 
ATOM      9  C   UNL d   1       4.632   2.882   1.852  0.00  0.00     0.018 C 
ENDBRANCH   1   8
TORSDOF 1
ENDMDL
