MODEL 1
REMARK minimizedAffinity -3.7865839
REMARK minimizedRMSD -1
REMARK  1 active torsions:
REMARK  status: ('A' for Active; 'I' for Inactive)
REMARK    1  A    between atoms: C1_2  and  C2_3 
ROOT
ATOM      1  C2  UNL d   1       5.559  -1.501   4.723  0.00  0.00    -0.076 A 
ATOM      2  C3  UNL d   1       5.609  -0.814   3.498  0.00  0.00     0.004 A 
ATOM      3  C4  UNL d   1       5.826  -1.495   2.301  0.00  0.00    -0.003 A 
ATOM      4  C5  UNL d   1       5.997  -2.875   2.310  0.00  0.00     0.000 A 
ATOM      5  C6  UNL d   1       5.933  -3.575   3.514  0.00  0.00     0.000 A 
ATOM      6  C7  UNL d   1       5.698  -2.906   4.727  0.00  0.00    -0.073 A 
ATOM      7  C8  UNL d   1       5.645  -3.710   5.997  0.00  0.00     0.078 C 
ENDROOT
BRANCH   1   8
ATOM      8  C1  UNL d   1       5.348  -0.706   5.991  0.00  0.00     0.053 C 
ATOM      9  C   UNL d   1       5.584   0.783   5.792  0.00  0.00     0.018 C 
ENDBRANCH   1   8
TORSDOF 1
ENDMDL
