MODEL 1
REMARK minimizedAffinity -0.866125762
REMARK minimizedRMSD -1
REMARK  1 active torsions:
REMARK  status: ('A' for Active; 'I' for Inactive)
REMARK    1  A    between atoms: C1_2  and  C2_3 
ROOT
ATOM      1  C2  UNL d   1       5.828   1.363   5.141  0.00  0.00    -0.076 A 
ATOM      2  C3  UNL d   1       6.000   2.625   5.737  0.00  0.00     0.004 A 
ATOM      3  C4  UNL d   1       5.886   3.794   4.986  0.00  0.00    -0.003 A 
ATOM      4  C5  UNL d   1       5.598   3.720   3.627  0.00  0.00     0.000 A 
ATOM      5  C6  UNL d   1       5.407   2.477   3.024  0.00  0.00     0.000 A 
ATOM      6  C7  UNL d   1       5.503   1.290   3.770  0.00  0.00    -0.073 A 
ATOM      7  C8  UNL d   1       5.294  -0.023   3.067  0.00  0.00     0.078 C 
ENDROOT
BRANCH   1   8
ATOM      8  C1  UNL d   1       5.991   0.129   6.000  0.00  0.00     0.053 C 
ATOM      9  C   UNL d   1       4.775  -0.783   5.945  0.00  0.00     0.018 C 
ENDBRANCH   1   8
TORSDOF 1
ENDMDL
