MODEL 1
REMARK minimizedAffinity 0.213690326
REMARK minimizedRMSD -1
REMARK  1 active torsions:
REMARK  status: ('A' for Active; 'I' for Inactive)
REMARK    1  A    between atoms: C1_2  and  C2_3 
ROOT
ATOM      1  C2  UNL d   1       3.770   3.801  -1.745  0.00  0.00    -0.076 A 
ATOM      2  C3  UNL d   1       4.158   3.276  -2.989  0.00  0.00     0.004 A 
ATOM      3  C4  UNL d   1       4.238   1.900  -3.194  0.00  0.00    -0.003 A 
ATOM      4  C5  UNL d   1       3.931   1.025  -2.157  0.00  0.00     0.000 A 
ATOM      5  C6  UNL d   1       3.527   1.528  -0.921  0.00  0.00     0.000 A 
ATOM      6  C7  UNL d   1       3.425   2.913  -0.703  0.00  0.00    -0.073 A 
ATOM      7  C8  UNL d   1       2.990   3.400   0.652  0.00  0.00     0.078 C 
ENDROOT
BRANCH   1   8
ATOM      8  C1  UNL d   1       3.727   5.302  -1.573  0.00  0.00     0.053 C 
ATOM      9  C   UNL d   1       2.966   5.995  -2.693  0.00  0.00     0.018 C 
ENDBRANCH   1   8
TORSDOF 1
ENDMDL
