MODEL 1
REMARK minimizedAffinity -2.72280574
REMARK minimizedRMSD -1
REMARK  1 active torsions:
REMARK  status: ('A' for Active; 'I' for Inactive)
REMARK    1  A    between atoms: C1_2  and  C2_3 
ROOT
ATOM      1  C2  UNL d   1       5.297   2.679   4.060  0.00  0.00    -0.076 A 
ATOM      2  C3  UNL d   1       5.912   2.597   5.321  0.00  0.00     0.004 A 
ATOM      3  C4  UNL d   1       5.998   1.382   5.999  0.00  0.00    -0.003 A 
ATOM      4  C5  UNL d   1       5.472   0.229   5.426  0.00  0.00     0.000 A 
ATOM      5  C6  UNL d   1       4.874   0.289   4.168  0.00  0.00     0.000 A 
ATOM      6  C7  UNL d   1       4.793   1.503   3.464  0.00  0.00    -0.073 A 
ATOM      7  C8  UNL d   1       4.133   1.511   2.112  0.00  0.00     0.078 C 
ENDROOT
BRANCH   1   8
ATOM      8  C1  UNL d   1       5.208   4.029   3.384  0.00  0.00     0.053 C 
ATOM      9  C   UNL d   1       5.974   5.107   4.134  0.00  0.00     0.018 C 
ENDBRANCH   1   8
TORSDOF 1
ENDMDL
