MODEL 1
REMARK minimizedAffinity -3.77012181
REMARK minimizedRMSD -1
REMARK  1 active torsions:
REMARK  status: ('A' for Active; 'I' for Inactive)
REMARK    1  A    between atoms: C1_2  and  C2_3 
ROOT
ATOM      1  C2  UNL d   1       5.884   3.925   3.356  0.00  0.00    -0.076 A 
ATOM      2  C3  UNL d   1       5.762   2.807   2.513  0.00  0.00     0.004 A 
ATOM      3  C4  UNL d   1       5.677   1.519   3.039  0.00  0.00    -0.003 A 
ATOM      4  C5  UNL d   1       5.711   1.328   4.416  0.00  0.00     0.000 A 
ATOM      5  C6  UNL d   1       5.814   2.428   5.267  0.00  0.00     0.000 A 
ATOM      6  C7  UNL d   1       5.884   3.734   4.754  0.00  0.00    -0.073 A 
ATOM      7  C8  UNL d   1       6.000   4.883   5.718  0.00  0.00     0.078 C 
ENDROOT
BRANCH   1   8
ATOM      8  C1  UNL d   1       6.000   5.296   2.728  0.00  0.00     0.053 C 
ATOM      9  C   UNL d   1       5.979   5.244   1.208  0.00  0.00     0.018 C 
ENDBRANCH   1   8
TORSDOF 1
ENDMDL
