MODEL 1
REMARK minimizedAffinity 1.7208885
REMARK minimizedRMSD -1
REMARK  1 active torsions:
REMARK  status: ('A' for Active; 'I' for Inactive)
REMARK    1  A    between atoms: C1_2  and  C2_3 
ROOT
ATOM      1  C2  UNL d   1       5.249   2.337   4.020  0.00  0.00    -0.076 A 
ATOM      2  C3  UNL d   1       5.999   2.085   5.182  0.00  0.00     0.004 A 
ATOM      3  C4  UNL d   1       5.999   0.824   5.777  0.00  0.00    -0.003 A 
ATOM      4  C5  UNL d   1       5.250  -0.205   5.218  0.00  0.00     0.000 A 
ATOM      5  C6  UNL d   1       4.514   0.022   4.055  0.00  0.00     0.000 A 
ATOM      6  C7  UNL d   1       4.516   1.283   3.435  0.00  0.00    -0.073 A 
ATOM      7  C8  UNL d   1       3.699   1.475   2.186  0.00  0.00     0.078 C 
ENDROOT
BRANCH   1   8
ATOM      8  C1  UNL d   1       5.266   3.732   3.436  0.00  0.00     0.053 C 
ATOM      9  C   UNL d   1       5.996   4.727   4.325  0.00  0.00     0.018 C 
ENDBRANCH   1   8
TORSDOF 1
ENDMDL
