MODEL 1
REMARK minimizedAffinity -2.11952353
REMARK minimizedRMSD -1
REMARK  1 active torsions:
REMARK  status: ('A' for Active; 'I' for Inactive)
REMARK    1  A    between atoms: C1_2  and  C2_3 
ROOT
ATOM      1  C2  UNL d   1       5.082   3.866   2.919  0.00  0.00    -0.076 A 
ATOM      2  C3  UNL d   1       5.997   2.902   2.461  0.00  0.00     0.004 A 
ATOM      3  C4  UNL d   1       5.985   1.603   2.968  0.00  0.00    -0.003 A 
ATOM      4  C5  UNL d   1       5.056   1.248   3.941  0.00  0.00     0.000 A 
ATOM      5  C6  UNL d   1       4.130   2.187   4.393  0.00  0.00     0.000 A 
ATOM      6  C7  UNL d   1       4.118   3.495   3.881  0.00  0.00    -0.073 A 
ATOM      7  C8  UNL d   1       3.100   4.469   4.409  0.00  0.00     0.078 C 
ENDROOT
BRANCH   1   8
ATOM      8  C1  UNL d   1       5.161   5.265   2.352  0.00  0.00     0.053 C 
ATOM      9  C   UNL d   1       5.276   5.274   0.835  0.00  0.00     0.018 C 
ENDBRANCH   1   8
TORSDOF 1
ENDMDL
