MODEL 1
REMARK minimizedAffinity 0.192792729
REMARK minimizedRMSD -1
REMARK  1 active torsions:
REMARK  status: ('A' for Active; 'I' for Inactive)
REMARK    1  A    between atoms: C1_2  and  C2_3 
ROOT
ATOM      1  C2  UNL d   1       5.903   3.123   4.117  0.00  0.00    -0.076 A 
ATOM      2  C3  UNL d   1       6.000   4.425   4.639  0.00  0.00     0.004 A 
ATOM      3  C4  UNL d   1       5.944   5.539   3.803  0.00  0.00    -0.003 A 
ATOM      4  C5  UNL d   1       5.790   5.370   2.431  0.00  0.00     0.000 A 
ATOM      5  C6  UNL d   1       5.675   4.086   1.898  0.00  0.00     0.000 A 
ATOM      6  C7  UNL d   1       5.713   2.953   2.729  0.00  0.00    -0.073 A 
ATOM      7  C8  UNL d   1       5.589   1.593   2.099  0.00  0.00     0.078 C 
ENDROOT
BRANCH   1   8
ATOM      8  C1  UNL d   1       5.997   1.952   5.069  0.00  0.00     0.053 C 
ATOM      9  C   UNL d   1       4.853   0.966   4.894  0.00  0.00     0.018 C 
ENDBRANCH   1   8
TORSDOF 1
ENDMDL
