MODEL 1
REMARK minimizedAffinity 8.47752666
REMARK minimizedRMSD -1
REMARK  0 active torsions:
REMARK  status: ('A' for Active; 'I' for Inactive)
ROOT
ATOM      1  C   UNL d   1      -5.370   2.717   5.999  0.00  0.00     0.023 A 
ATOM      2  C1  UNL d   1      -5.835   1.408   5.876  0.00  0.00     0.003 A 
ATOM      3  C2  UNL d   1      -4.930   0.352   5.754  0.00  0.00     0.048 A 
ATOM      4  C3  UNL d   1      -3.560   0.613   5.755  0.00  0.00     0.023 A 
ATOM      5  C4  UNL d   1      -3.089   1.921   5.878  0.00  0.00     0.048 A 
ATOM      6  C5  UNL d   1      -3.999   2.974   6.000  0.00  0.00     0.003 A 
ATOM      7  I   UNL d   1      -2.210  -0.957   5.573  0.00  0.00    -0.146 I 
ENDROOT
TORSDOF 0
ENDMDL
