MODEL 1
REMARK minimizedAffinity 13.4763517
REMARK minimizedRMSD -1
REMARK  0 active torsions:
REMARK  status: ('A' for Active; 'I' for Inactive)
ROOT
ATOM      1  C   UNL d   1       2.559   0.016  -2.494  0.00  0.00     0.023 A 
ATOM      2  C1  UNL d   1       2.505   1.344  -2.071  0.00  0.00     0.003 A 
ATOM      3  C2  UNL d   1       1.650   2.247  -2.708  0.00  0.00     0.048 A 
ATOM      4  C3  UNL d   1       0.852   1.814  -3.766  0.00  0.00     0.023 A 
ATOM      5  C4  UNL d   1       0.902   0.486  -4.192  0.00  0.00     0.048 A 
ATOM      6  C5  UNL d   1       1.759  -0.413  -3.553  0.00  0.00     0.003 A 
ATOM      7  I   UNL d   1      -0.420   3.155  -4.716  0.00  0.00    -0.146 I 
ENDROOT
TORSDOF 0
ENDMDL
