MODEL 1
REMARK minimizedAffinity 15.1240635
REMARK minimizedRMSD -1
REMARK  0 active torsions:
REMARK  status: ('A' for Active; 'I' for Inactive)
ROOT
ATOM      1  C   UNL d   1      -1.600  -3.125   1.826  0.00  0.00     0.023 A 
ATOM      2  C1  UNL d   1      -2.244  -2.009   1.292  0.00  0.00     0.003 A 
ATOM      3  C2  UNL d   1      -1.914  -1.556   0.013  0.00  0.00     0.048 A 
ATOM      4  C3  UNL d   1      -0.940  -2.224  -0.727  0.00  0.00     0.023 A 
ATOM      5  C4  UNL d   1      -0.294  -3.343  -0.198  0.00  0.00     0.048 A 
ATOM      6  C5  UNL d   1      -0.626  -3.792   1.081  0.00  0.00     0.003 A 
ATOM      7  I   UNL d   1      -0.448  -1.552  -2.631  0.00  0.00    -0.146 I 
ENDROOT
TORSDOF 0
ENDMDL
