MODEL 1
REMARK minimizedAffinity 11.8776827
REMARK minimizedRMSD -1
REMARK  0 active torsions:
REMARK  status: ('A' for Active; 'I' for Inactive)
ROOT
ATOM      1  C   UNL d   1       4.336   4.654   0.844  0.00  0.00     0.023 A 
ATOM      2  C1  UNL d   1       3.892   3.352   0.611  0.00  0.00     0.003 A 
ATOM      3  C2  UNL d   1       4.368   2.637  -0.490  0.00  0.00     0.048 A 
ATOM      4  C3  UNL d   1       5.289   3.230  -1.353  0.00  0.00     0.023 A 
ATOM      5  C4  UNL d   1       5.737   4.531  -1.124  0.00  0.00     0.048 A 
ATOM      6  C5  UNL d   1       5.257   5.243  -0.022  0.00  0.00     0.003 A 
ATOM      7  I   UNL d   1       6.000   2.167  -2.992  0.00  0.00    -0.146 I 
ENDROOT
TORSDOF 0
ENDMDL
