MODEL 1
REMARK minimizedAffinity 14.6548042
REMARK minimizedRMSD -1
REMARK  0 active torsions:
REMARK  status: ('A' for Active; 'I' for Inactive)
ROOT
ATOM      1  C   UNL d   1       1.501   2.946  -5.973  0.00  0.00     0.023 A 
ATOM      2  C1  UNL d   1       0.717   1.792  -5.998  0.00  0.00     0.003 A 
ATOM      3  C2  UNL d   1      -0.562   1.804  -5.438  0.00  0.00     0.048 A 
ATOM      4  C3  UNL d   1      -1.052   2.973  -4.856  0.00  0.00     0.023 A 
ATOM      5  C4  UNL d   1      -0.271   4.130  -4.830  0.00  0.00     0.048 A 
ATOM      6  C5  UNL d   1       1.007   4.113  -5.390  0.00  0.00     0.003 A 
ATOM      7  I   UNL d   1      -2.955   2.992  -4.022  0.00  0.00    -0.146 I 
ENDROOT
TORSDOF 0
ENDMDL
