MODEL 1
REMARK minimizedAffinity 17.4943504
REMARK minimizedRMSD -1
REMARK  0 active torsions:
REMARK  status: ('A' for Active; 'I' for Inactive)
ROOT
ATOM      1  C   UNL d   1      -3.010   1.871  -3.363  0.00  0.00     0.023 A 
ATOM      2  C1  UNL d   1      -3.027   3.060  -4.092  0.00  0.00     0.003 A 
ATOM      3  C2  UNL d   1      -1.913   3.434  -4.847  0.00  0.00     0.048 A 
ATOM      4  C3  UNL d   1      -0.786   2.613  -4.869  0.00  0.00     0.023 A 
ATOM      5  C4  UNL d   1      -0.765   1.421  -4.143  0.00  0.00     0.048 A 
ATOM      6  C5  UNL d   1      -1.881   1.052  -3.389  0.00  0.00     0.003 A 
ATOM      7  I   UNL d   1       0.872   3.167  -5.993  0.00  0.00    -0.146 I 
ENDROOT
TORSDOF 0
ENDMDL
