MODEL 1
REMARK minimizedAffinity 11.2721214
REMARK minimizedRMSD -1
REMARK  0 active torsions:
REMARK  status: ('A' for Active; 'I' for Inactive)
ROOT
ATOM      1  C   UNL d   1      -5.491   4.272   1.654  0.00  0.00     0.023 A 
ATOM      2  C1  UNL d   1      -4.614   3.545   0.848  0.00  0.00     0.003 A 
ATOM      3  C2  UNL d   1      -4.242   4.039  -0.404  0.00  0.00     0.048 A 
ATOM      4  C3  UNL d   1      -4.751   5.260  -0.844  0.00  0.00     0.023 A 
ATOM      5  C4  UNL d   1      -5.628   5.991  -0.042  0.00  0.00     0.048 A 
ATOM      6  C5  UNL d   1      -5.997   5.493   1.209  0.00  0.00     0.003 A 
ATOM      7  I   UNL d   1      -4.200   5.997  -2.708  0.00  0.00    -0.146 I 
ENDROOT
TORSDOF 0
ENDMDL
