MODEL 1
REMARK minimizedAffinity 18.4047356
REMARK minimizedRMSD -1
REMARK  0 active torsions:
REMARK  status: ('A' for Active; 'I' for Inactive)
ROOT
ATOM      1  C   UNL d   1      -2.250   3.059  -4.614  0.00  0.00     0.023 A 
ATOM      2  C1  UNL d   1      -3.216   2.602  -5.511  0.00  0.00     0.003 A 
ATOM      3  C2  UNL d   1      -4.256   3.444  -5.908  0.00  0.00     0.048 A 
ATOM      4  C3  UNL d   1      -4.324   4.743  -5.406  0.00  0.00     0.023 A 
ATOM      5  C4  UNL d   1      -3.360   5.206  -4.510  0.00  0.00     0.048 A 
ATOM      6  C5  UNL d   1      -2.322   4.359  -4.115  0.00  0.00     0.003 A 
ATOM      7  I   UNL d   1      -5.872   5.999  -5.997  0.00  0.00    -0.146 I 
ENDROOT
TORSDOF 0
ENDMDL
