MODEL 1
REMARK minimizedAffinity 19.5013065
REMARK minimizedRMSD -1
REMARK  0 active torsions:
REMARK  status: ('A' for Active; 'I' for Inactive)
ROOT
ATOM      1  C   UNL d   1      -0.209  -5.999   1.824  0.00  0.00     0.023 A 
ATOM      2  C1  UNL d   1      -0.428  -5.998   0.446  0.00  0.00     0.003 A 
ATOM      3  C2  UNL d   1      -0.830  -4.826  -0.198  0.00  0.00     0.048 A 
ATOM      4  C3  UNL d   1      -1.010  -3.658   0.542  0.00  0.00     0.023 A 
ATOM      5  C4  UNL d   1      -0.792  -3.654   1.921  0.00  0.00     0.048 A 
ATOM      6  C5  UNL d   1      -0.391  -4.828   2.560  0.00  0.00     0.003 A 
ATOM      7  I   UNL d   1      -1.608  -1.912  -0.414  0.00  0.00    -0.146 I 
ENDROOT
TORSDOF 0
ENDMDL
