MODEL 1
REMARK minimizedAffinity 15.958333
REMARK minimizedRMSD -1
REMARK  0 active torsions:
REMARK  status: ('A' for Active; 'I' for Inactive)
ROOT
ATOM      1  C   UNL d   1      -0.530  -5.376   1.760  0.00  0.00     0.023 A 
ATOM      2  C1  UNL d   1      -0.633  -5.500   0.375  0.00  0.00     0.003 A 
ATOM      3  C2  UNL d   1      -0.966  -4.390  -0.404  0.00  0.00     0.048 A 
ATOM      4  C3  UNL d   1      -1.194  -3.159   0.209  0.00  0.00     0.023 A 
ATOM      5  C4  UNL d   1      -1.092  -3.030   1.595  0.00  0.00     0.048 A 
ATOM      6  C5  UNL d   1      -0.759  -4.143   2.370  0.00  0.00     0.003 A 
ATOM      7  I   UNL d   1      -1.690  -1.505  -0.948  0.00  0.00    -0.146 I 
ENDROOT
TORSDOF 0
ENDMDL
