MODEL 1
REMARK minimizedAffinity 14.7998466
REMARK minimizedRMSD -1
REMARK  0 active torsions:
REMARK  status: ('A' for Active; 'I' for Inactive)
ROOT
ATOM      1  C   UNL d   1      -0.840  -2.612   4.439  0.00  0.00     0.023 A 
ATOM      2  C1  UNL d   1      -2.027  -2.278   3.787  0.00  0.00     0.003 A 
ATOM      3  C2  UNL d   1      -2.791  -1.198   4.234  0.00  0.00     0.048 A 
ATOM      4  C3  UNL d   1      -2.361  -0.455   5.333  0.00  0.00     0.023 A 
ATOM      5  C4  UNL d   1      -1.173  -0.784   5.988  0.00  0.00     0.048 A 
ATOM      6  C5  UNL d   1      -0.413  -1.866   5.538  0.00  0.00     0.003 A 
ATOM      7  I   UNL d   1      -3.496   1.154   5.999  0.00  0.00    -0.146 I 
ENDROOT
TORSDOF 0
ENDMDL
