MODEL 1
REMARK minimizedAffinity 13.1341429
REMARK minimizedRMSD -1
REMARK  0 active torsions:
REMARK  status: ('A' for Active; 'I' for Inactive)
ROOT
ATOM      1  C   UNL d   1      -5.414   3.161   6.000  0.00  0.00     0.023 A 
ATOM      2  C1  UNL d   1      -4.026   3.306   5.983  0.00  0.00     0.003 A 
ATOM      3  C2  UNL d   1      -3.216   2.239   5.590  0.00  0.00     0.048 A 
ATOM      4  C3  UNL d   1      -3.799   1.030   5.213  0.00  0.00     0.023 A 
ATOM      5  C4  UNL d   1      -5.187   0.881   5.227  0.00  0.00     0.048 A 
ATOM      6  C5  UNL d   1      -5.993   1.950   5.622  0.00  0.00     0.003 A 
ATOM      7  I   UNL d   1      -2.595  -0.559   4.627  0.00  0.00    -0.146 I 
ENDROOT
TORSDOF 0
ENDMDL
