MODEL 1
REMARK minimizedAffinity 10.0423603
REMARK minimizedRMSD -1
REMARK  0 active torsions:
REMARK  status: ('A' for Active; 'I' for Inactive)
ROOT
ATOM      1  C   UNL d   1      -0.880  -2.699   4.167  0.00  0.00     0.023 A 
ATOM      2  C1  UNL d   1      -2.049  -2.352   3.489  0.00  0.00     0.003 A 
ATOM      3  C2  UNL d   1      -2.828  -1.284   3.939  0.00  0.00     0.048 A 
ATOM      4  C3  UNL d   1      -2.431  -0.565   5.066  0.00  0.00     0.023 A 
ATOM      5  C4  UNL d   1      -1.262  -0.908   5.747  0.00  0.00     0.048 A 
ATOM      6  C5  UNL d   1      -0.487  -1.977   5.294  0.00  0.00     0.003 A 
ATOM      7  I   UNL d   1      -3.589   1.025   5.737  0.00  0.00    -0.146 I 
ENDROOT
TORSDOF 0
ENDMDL
