MODEL 1
REMARK minimizedAffinity 6.97243166
REMARK minimizedRMSD -1
REMARK  0 active torsions:
REMARK  status: ('A' for Active; 'I' for Inactive)
ROOT
ATOM      1  C   UNL d   1      -5.829   5.349  -5.663  0.00  0.00     0.023 A 
ATOM      2  C1  UNL d   1      -4.758   5.982  -5.033  0.00  0.00     0.003 A 
ATOM      3  C2  UNL d   1      -3.597   5.263  -4.737  0.00  0.00     0.048 A 
ATOM      4  C3  UNL d   1      -3.515   3.913  -5.075  0.00  0.00     0.023 A 
ATOM      5  C4  UNL d   1      -4.585   3.276  -5.706  0.00  0.00     0.048 A 
ATOM      6  C5  UNL d   1      -5.743   3.998  -6.000  0.00  0.00     0.003 A 
ATOM      7  I   UNL d   1      -1.789   2.842  -4.635  0.00  0.00    -0.146 I 
ENDROOT
TORSDOF 0
ENDMDL
