MODEL 1
REMARK minimizedAffinity 9.57959938
REMARK minimizedRMSD -1
REMARK  0 active torsions:
REMARK  status: ('A' for Active; 'I' for Inactive)
ROOT
ATOM      1  C   UNL d   1      -5.264   1.529   6.000  0.00  0.00     0.023 A 
ATOM      2  C1  UNL d   1      -3.913   1.878   6.000  0.00  0.00     0.003 A 
ATOM      3  C2  UNL d   1      -2.937   0.895   5.823  0.00  0.00     0.048 A 
ATOM      4  C3  UNL d   1      -3.318  -0.434   5.645  0.00  0.00     0.023 A 
ATOM      5  C4  UNL d   1      -4.669  -0.788   5.643  0.00  0.00     0.048 A 
ATOM      6  C5  UNL d   1      -5.641   0.198   5.822  0.00  0.00     0.003 A 
ATOM      7  I   UNL d   1      -1.867  -1.899   5.381  0.00  0.00    -0.146 I 
ENDROOT
TORSDOF 0
ENDMDL
