MODEL 1
REMARK minimizedAffinity 8.66190052
REMARK minimizedRMSD -1
REMARK  0 active torsions:
REMARK  status: ('A' for Active; 'I' for Inactive)
ROOT
ATOM      1  C   UNL d   1      -1.220   2.293  -4.192  0.00  0.00     0.023 A 
ATOM      2  C1  UNL d   1      -0.036   3.017  -4.327  0.00  0.00     0.003 A 
ATOM      3  C2  UNL d   1       1.195   2.386  -4.134  0.00  0.00     0.048 A 
ATOM      4  C3  UNL d   1       1.234   1.031  -3.809  0.00  0.00     0.023 A 
ATOM      5  C4  UNL d   1       0.052   0.302  -3.674  0.00  0.00     0.048 A 
ATOM      6  C5  UNL d   1      -1.177   0.937  -3.867  0.00  0.00     0.003 A 
ATOM      7  I   UNL d   1       3.065   0.090  -3.523  0.00  0.00    -0.146 I 
ENDROOT
TORSDOF 0
ENDMDL
