MODEL 1
REMARK minimizedAffinity 19.0323544
REMARK minimizedRMSD -1
REMARK  0 active torsions:
REMARK  status: ('A' for Active; 'I' for Inactive)
ROOT
ATOM      1  C   UNL d   1       5.022   1.694  -1.144  0.00  0.00     0.023 A 
ATOM      2  C1  UNL d   1       6.000   2.655  -1.397  0.00  0.00     0.003 A 
ATOM      3  C2  UNL d   1       5.949   3.892  -0.750  0.00  0.00     0.048 A 
ATOM      4  C3  UNL d   1       4.918   4.160   0.149  0.00  0.00     0.023 A 
ATOM      5  C4  UNL d   1       3.938   3.200   0.407  0.00  0.00     0.048 A 
ATOM      6  C5  UNL d   1       3.992   1.966  -0.243  0.00  0.00     0.003 A 
ATOM      7  I   UNL d   1       4.841   5.999   1.114  0.00  0.00    -0.146 I 
ENDROOT
TORSDOF 0
ENDMDL
