MODEL 1
REMARK minimizedAffinity 1.89831865
REMARK minimizedRMSD -1
REMARK  1 active torsions:
REMARK  status: ('A' for Active; 'I' for Inactive)
REMARK    1  A    between atoms: C3_4  and  O_7 
ROOT
ATOM      1  C   UNL d   1      -3.326   5.646   0.832  0.00  0.00    -0.033 A 
ATOM      2  C1  UNL d   1      -3.933   5.197  -0.343  0.00  0.00     0.039 A 
ATOM      3  C2  UNL d   1      -3.799   3.864  -0.735  0.00  0.00    -0.080 A 
ATOM      4  C3  UNL d   1      -3.057   2.991   0.055  0.00  0.00     0.150 A 
ATOM      5  C4  UNL d   1      -2.452   3.429   1.228  0.00  0.00    -0.007 A 
ATOM      6  C5  UNL d   1      -2.586   4.761   1.618  0.00  0.00     0.039 A 
ENDROOT
BRANCH   4   7
ATOM      7  O   UNL d   1      -2.894   1.682  -0.290  0.00  0.00    -0.526 OA
ATOM      8  H5  UNL d   1      -3.343   1.529  -1.138  0.00  0.00     0.418 HD
ENDBRANCH   4   7
TORSDOF 1
ENDMDL
