MODEL 1
REMARK minimizedAffinity 13.5792265
REMARK minimizedRMSD -1
REMARK  1 active torsions:
REMARK  status: ('A' for Active; 'I' for Inactive)
REMARK    1  A    between atoms: C3_4  and  O_7 
ROOT
ATOM      1  C   UNL d   1      -4.328  -5.998  -5.975  0.00  0.00    -0.033 A 
ATOM      2  C1  UNL d   1      -5.349  -5.847  -5.034  0.00  0.00     0.039 A 
ATOM      3  C2  UNL d   1      -5.214  -4.922  -3.997  0.00  0.00    -0.080 A 
ATOM      4  C3  UNL d   1      -4.055  -4.155  -3.913  0.00  0.00     0.150 A 
ATOM      5  C4  UNL d   1      -3.036  -4.298  -4.848  0.00  0.00    -0.007 A 
ATOM      6  C5  UNL d   1      -3.172  -5.223  -5.882  0.00  0.00     0.039 A 
ENDROOT
BRANCH   4   7
ATOM      7  O   UNL d   1      -3.876  -3.243  -2.916  0.00  0.00    -0.526 OA
ATOM      8  H5  UNL d   1      -4.649  -3.274  -2.328  0.00  0.00     0.418 HD
ENDBRANCH   4   7
TORSDOF 1
ENDMDL
