MODEL 1
REMARK minimizedAffinity 8.42010403
REMARK minimizedRMSD -1
REMARK  1 active torsions:
REMARK  status: ('A' for Active; 'I' for Inactive)
REMARK    1  A    between atoms: C3_4  and  O_7 
ROOT
ATOM      1  C   UNL d   1       3.324  -3.373  -4.358  0.00  0.00    -0.033 A 
ATOM      2  C1  UNL d   1       4.123  -4.488  -4.097  0.00  0.00     0.039 A 
ATOM      3  C2  UNL d   1       5.027  -4.467  -3.033  0.00  0.00    -0.080 A 
ATOM      4  C3  UNL d   1       5.122  -3.328  -2.238  0.00  0.00     0.150 A 
ATOM      5  C4  UNL d   1       4.326  -2.215  -2.490  0.00  0.00    -0.007 A 
ATOM      6  C5  UNL d   1       3.425  -2.237  -3.554  0.00  0.00     0.039 A 
ENDROOT
BRANCH   4   7
ATOM      7  O   UNL d   1       5.993  -3.260  -1.192  0.00  0.00    -0.526 OA
ATOM      8  H5  UNL d   1       6.497  -4.090  -1.156  0.00  0.00     0.418 HD
ENDBRANCH   4   7
TORSDOF 1
ENDMDL
