MODEL 1
REMARK minimizedAffinity 5.9738555
REMARK minimizedRMSD -1
REMARK  1 active torsions:
REMARK  status: ('A' for Active; 'I' for Inactive)
REMARK    1  A    between atoms: C3_4  and  O_7 
ROOT
ATOM      1  C   UNL d   1      -4.363   6.000  -0.043  0.00  0.00    -0.033 A 
ATOM      2  C1  UNL d   1      -3.407   5.855   0.964  0.00  0.00     0.039 A 
ATOM      3  C2  UNL d   1      -2.625   4.700   1.027  0.00  0.00    -0.080 A 
ATOM      4  C3  UNL d   1      -2.808   3.699   0.077  0.00  0.00     0.150 A 
ATOM      5  C4  UNL d   1      -3.756   3.838  -0.932  0.00  0.00    -0.007 A 
ATOM      6  C5  UNL d   1      -4.536   4.992  -0.992  0.00  0.00     0.039 A 
ENDROOT
BRANCH   4   7
ATOM      7  O   UNL d   1      -2.072   2.552   0.100  0.00  0.00    -0.526 OA
ATOM      8  H5  UNL d   1      -1.478   2.582   0.868  0.00  0.00     0.418 HD
ENDBRANCH   4   7
TORSDOF 1
ENDMDL
