MODEL 1
REMARK minimizedAffinity 10.3366203
REMARK minimizedRMSD -1
REMARK  1 active torsions:
REMARK  status: ('A' for Active; 'I' for Inactive)
REMARK    1  A    between atoms: C3_4  and  O_7 
ROOT
ATOM      1  C   UNL d   1       4.819   2.054  -5.719  0.00  0.00    -0.033 A 
ATOM      2  C1  UNL d   1       3.649   2.740  -5.389  0.00  0.00     0.039 A 
ATOM      3  C2  UNL d   1       3.652   3.666  -4.343  0.00  0.00    -0.080 A 
ATOM      4  C3  UNL d   1       4.830   3.896  -3.638  0.00  0.00     0.150 A 
ATOM      5  C4  UNL d   1       6.000   3.219  -3.964  0.00  0.00    -0.007 A 
ATOM      6  C5  UNL d   1       5.995   2.294  -5.008  0.00  0.00     0.039 A 
ENDROOT
BRANCH   4   7
ATOM      7  O   UNL d   1       4.880   4.787  -2.607  0.00  0.00    -0.526 OA
ATOM      8  H5  UNL d   1       3.991   5.158  -2.477  0.00  0.00     0.418 HD
ENDBRANCH   4   7
TORSDOF 1
ENDMDL
