MODEL 1
REMARK minimizedAffinity 8.17746449
REMARK minimizedRMSD -1
REMARK  1 active torsions:
REMARK  status: ('A' for Active; 'I' for Inactive)
REMARK    1  A    between atoms: C3_4  and  O_7 
ROOT
ATOM      1  C   UNL d   1       5.990   1.417  -4.855  0.00  0.00    -0.033 A 
ATOM      2  C1  UNL d   1       5.292   1.025  -5.999  0.00  0.00     0.039 A 
ATOM      3  C2  UNL d   1       4.562  -0.166  -6.000  0.00  0.00    -0.080 A 
ATOM      4  C3  UNL d   1       4.538  -0.953  -4.852  0.00  0.00     0.150 A 
ATOM      5  C4  UNL d   1       5.228  -0.567  -3.708  0.00  0.00    -0.007 A 
ATOM      6  C5  UNL d   1       5.957   0.622  -3.709  0.00  0.00     0.039 A 
ENDROOT
BRANCH   4   7
ATOM      7  O   UNL d   1       3.844  -2.126  -4.807  0.00  0.00    -0.526 OA
ATOM      8  H5  UNL d   1       3.441  -2.279  -5.677  0.00  0.00     0.418 HD
ENDBRANCH   4   7
TORSDOF 1
ENDMDL
