MODEL 1
REMARK minimizedAffinity 6.50723076
REMARK minimizedRMSD -1
REMARK  1 active torsions:
REMARK  status: ('A' for Active; 'I' for Inactive)
REMARK    1  A    between atoms: C3_4  and  O_7 
ROOT
ATOM      1  C   UNL d   1       4.149  -4.819   5.250  0.00  0.00    -0.033 A 
ATOM      2  C1  UNL d   1       3.570  -3.739   4.582  0.00  0.00     0.039 A 
ATOM      3  C2  UNL d   1       4.177  -2.483   4.623  0.00  0.00    -0.080 A 
ATOM      4  C3  UNL d   1       5.362  -2.320   5.334  0.00  0.00     0.150 A 
ATOM      5  C4  UNL d   1       5.948  -3.393   5.999  0.00  0.00    -0.007 A 
ATOM      6  C5  UNL d   1       5.339  -4.646   5.958  0.00  0.00     0.039 A 
ENDROOT
BRANCH   4   7
ATOM      7  O   UNL d   1       5.989  -1.112   5.408  0.00  0.00    -0.526 OA
ATOM      8  H5  UNL d   1       5.456  -0.459   4.925  0.00  0.00     0.418 HD
ENDBRANCH   4   7
TORSDOF 1
ENDMDL
