MODEL 1
REMARK minimizedAffinity 7.99437857
REMARK minimizedRMSD -1
REMARK  1 active torsions:
REMARK  status: ('A' for Active; 'I' for Inactive)
REMARK    1  A    between atoms: C3_4  and  O_7 
ROOT
ATOM      1  C   UNL d   1       5.990   4.275  -4.280  0.00  0.00    -0.033 A 
ATOM      2  C1  UNL d   1       5.976   3.297  -3.284  0.00  0.00     0.039 A 
ATOM      3  C2  UNL d   1       5.976   3.670  -1.938  0.00  0.00    -0.080 A 
ATOM      4  C3  UNL d   1       5.988   5.021  -1.603  0.00  0.00     0.150 A 
ATOM      5  C4  UNL d   1       5.999   6.000  -2.591  0.00  0.00    -0.007 A 
ATOM      6  C5  UNL d   1       6.000   5.626  -3.934  0.00  0.00     0.039 A 
ENDROOT
BRANCH   4   7
ATOM      7  O   UNL d   1       5.993   5.433  -0.304  0.00  0.00    -0.526 OA
ATOM      8  H5  UNL d   1       6.014   4.647   0.268  0.00  0.00     0.418 HD
ENDBRANCH   4   7
TORSDOF 1
ENDMDL
