MODEL 1
REMARK minimizedAffinity 9.61820126
REMARK minimizedRMSD -1
REMARK  1 active torsions:
REMARK  status: ('A' for Active; 'I' for Inactive)
REMARK    1  A    between atoms: C3_4  and  O_7 
ROOT
ATOM      1  C   UNL d   1      -0.074   4.190   1.570  0.00  0.00    -0.033 A 
ATOM      2  C1  UNL d   1       0.736   3.289   0.877  0.00  0.00     0.039 A 
ATOM      3  C2  UNL d   1       1.880   3.741   0.216  0.00  0.00    -0.080 A 
ATOM      4  C3  UNL d   1       2.202   5.095   0.257  0.00  0.00     0.150 A 
ATOM      5  C4  UNL d   1       1.402   5.998   0.948  0.00  0.00    -0.007 A 
ATOM      6  C5  UNL d   1       0.259   5.544   1.607  0.00  0.00     0.039 A 
ENDROOT
BRANCH   4   7
ATOM      7  O   UNL d   1       3.306   5.584  -0.377  0.00  0.00    -0.526 OA
ATOM      8  H5  UNL d   1       3.747   4.850  -0.837  0.00  0.00     0.418 HD
ENDBRANCH   4   7
TORSDOF 1
ENDMDL
