MODEL 1
REMARK minimizedAffinity 10.3712492
REMARK minimizedRMSD -1
REMARK  1 active torsions:
REMARK  status: ('A' for Active; 'I' for Inactive)
REMARK    1  A    between atoms: C3_4  and  O_7 
ROOT
ATOM      1  C   UNL d   1       0.020  -2.433   0.349  0.00  0.00    -0.033 A 
ATOM      2  C1  UNL d   1       0.390  -2.325  -0.993  0.00  0.00     0.039 A 
ATOM      3  C2  UNL d   1      -0.588  -2.175  -1.979  0.00  0.00    -0.080 A 
ATOM      4  C3  UNL d   1      -1.929  -2.133  -1.609  0.00  0.00     0.150 A 
ATOM      5  C4  UNL d   1      -2.304  -2.236  -0.273  0.00  0.00    -0.007 A 
ATOM      6  C5  UNL d   1      -1.327  -2.387   0.709  0.00  0.00     0.039 A 
ENDROOT
BRANCH   4   7
ATOM      7  O   UNL d   1      -2.920  -1.993  -2.535  0.00  0.00    -0.526 OA
ATOM      8  H5  UNL d   1      -2.514  -1.963  -3.418  0.00  0.00     0.418 HD
ENDBRANCH   4   7
TORSDOF 1
ENDMDL
