MODEL 1
REMARK minimizedAffinity 15.1767769
REMARK minimizedRMSD -1
REMARK  1 active torsions:
REMARK  status: ('A' for Active; 'I' for Inactive)
REMARK    1  A    between atoms: C3_4  and  O_7 
ROOT
ATOM      1  C   UNL d   1       0.308  -2.433  -0.744  0.00  0.00    -0.033 A 
ATOM      2  C1  UNL d   1      -0.194  -2.859   0.487  0.00  0.00     0.039 A 
ATOM      3  C2  UNL d   1      -1.523  -2.599   0.829  0.00  0.00    -0.080 A 
ATOM      4  C3  UNL d   1      -2.338  -1.914  -0.068  0.00  0.00     0.150 A 
ATOM      5  C4  UNL d   1      -1.845  -1.489  -1.297  0.00  0.00    -0.007 A 
ATOM      6  C5  UNL d   1      -0.518  -1.749  -1.637  0.00  0.00     0.039 A 
ENDROOT
BRANCH   4   7
ATOM      7  O   UNL d   1      -3.639  -1.633   0.224  0.00  0.00    -0.526 OA
ATOM      8  H5  UNL d   1      -3.832  -1.961   1.118  0.00  0.00     0.418 HD
ENDBRANCH   4   7
TORSDOF 1
ENDMDL
