MODEL 1
REMARK minimizedAffinity 9.99677467
REMARK minimizedRMSD -1
REMARK  1 active torsions:
REMARK  status: ('A' for Active; 'I' for Inactive)
REMARK    1  A    between atoms: C3_4  and  O_7 
ROOT
ATOM      1  C   UNL d   1      -0.736  -1.744  -2.650  0.00  0.00    -0.033 A 
ATOM      2  C1  UNL d   1      -0.836  -1.842  -4.039  0.00  0.00     0.039 A 
ATOM      3  C2  UNL d   1       0.303  -2.097  -4.806  0.00  0.00    -0.080 A 
ATOM      4  C3  UNL d   1       1.533  -2.252  -4.172  0.00  0.00     0.150 A 
ATOM      5  C4  UNL d   1       1.638  -2.160  -2.789  0.00  0.00    -0.007 A 
ATOM      6  C5  UNL d   1       0.501  -1.904  -2.024  0.00  0.00     0.039 A 
ENDROOT
BRANCH   4   7
ATOM      7  O   UNL d   1       2.672  -2.498  -4.879  0.00  0.00    -0.526 OA
ATOM      8  H5  UNL d   1       2.451  -2.506  -5.826  0.00  0.00     0.418 HD
ENDBRANCH   4   7
TORSDOF 1
ENDMDL
