MODEL 1
REMARK minimizedAffinity 6.99312782
REMARK minimizedRMSD -1
REMARK  1 active torsions:
REMARK  status: ('A' for Active; 'I' for Inactive)
REMARK    1  A    between atoms: C3_4  and  O_7 
ROOT
ATOM      1  C   UNL d   1      -0.267  -1.400  -2.200  0.00  0.00    -0.033 A 
ATOM      2  C1  UNL d   1       0.560  -0.930  -3.222  0.00  0.00     0.039 A 
ATOM      3  C2  UNL d   1       1.944  -1.084  -3.129  0.00  0.00    -0.080 A 
ATOM      4  C3  UNL d   1       2.489  -1.708  -2.011  0.00  0.00     0.150 A 
ATOM      5  C4  UNL d   1       1.672  -2.182  -0.990  0.00  0.00    -0.007 A 
ATOM      6  C5  UNL d   1       0.289  -2.027  -1.084  0.00  0.00     0.039 A 
ENDROOT
BRANCH   4   7
ATOM      7  O   UNL d   1       3.835  -1.877  -1.874  0.00  0.00    -0.526 OA
ATOM      8  H5  UNL d   1       4.275  -1.475  -2.641  0.00  0.00     0.418 HD
ENDBRANCH   4   7
TORSDOF 1
ENDMDL
