MODEL 1
REMARK minimizedAffinity 12.8026571
REMARK minimizedRMSD -1
REMARK  1 active torsions:
REMARK  status: ('A' for Active; 'I' for Inactive)
REMARK    1  A    between atoms: C3_4  and  O_7 
ROOT
ATOM      1  C   UNL d   1       1.408  -1.260  -0.524  0.00  0.00    -0.033 A 
ATOM      2  C1  UNL d   1       2.060  -1.558  -1.722  0.00  0.00     0.039 A 
ATOM      3  C2  UNL d   1       1.321  -1.770  -2.887  0.00  0.00    -0.080 A 
ATOM      4  C3  UNL d   1      -0.068  -1.679  -2.841  0.00  0.00     0.150 A 
ATOM      5  C4  UNL d   1      -0.723  -1.379  -1.652  0.00  0.00    -0.007 A 
ATOM      6  C5  UNL d   1       0.017  -1.170  -0.489  0.00  0.00     0.039 A 
ENDROOT
BRANCH   4   7
ATOM      7  O   UNL d   1      -0.832  -1.882  -3.951  0.00  0.00    -0.526 OA
ATOM      8  H5  UNL d   1      -0.245  -2.109  -4.692  0.00  0.00     0.418 HD
ENDBRANCH   4   7
TORSDOF 1
ENDMDL
