MODEL 1
REMARK minimizedAffinity 16.7468624
REMARK minimizedRMSD -1
REMARK  1 active torsions:
REMARK  status: ('A' for Active; 'I' for Inactive)
REMARK    1  A    between atoms: C3_4  and  O_7 
ROOT
ATOM      1  C   UNL d   1       3.272   4.799  -3.074  0.00  0.00    -0.033 A 
ATOM      2  C1  UNL d   1       2.457   3.885  -3.745  0.00  0.00     0.039 A 
ATOM      3  C2  UNL d   1       2.997   2.696  -4.239  0.00  0.00    -0.080 A 
ATOM      4  C3  UNL d   1       4.352   2.433  -4.056  0.00  0.00     0.150 A 
ATOM      5  C4  UNL d   1       5.169   3.337  -3.385  0.00  0.00    -0.007 A 
ATOM      6  C5  UNL d   1       4.628   4.524  -2.893  0.00  0.00     0.039 A 
ENDROOT
BRANCH   4   7
ATOM      7  O   UNL d   1       4.925   1.289  -4.525  0.00  0.00    -0.526 OA
ATOM      8  H5  UNL d   1       4.246   0.773  -4.991  0.00  0.00     0.418 HD
ENDBRANCH   4   7
TORSDOF 1
ENDMDL
