MODEL 1
REMARK minimizedAffinity 6.64616728
REMARK minimizedRMSD -1
REMARK  1 active torsions:
REMARK  status: ('A' for Active; 'I' for Inactive)
REMARK    1  A    between atoms: C3_4  and  O_7 
ROOT
ATOM      1  C   UNL d   1       4.044  -5.390   5.219  0.00  0.00    -0.033 A 
ATOM      2  C1  UNL d   1       2.996  -4.951   4.408  0.00  0.00     0.039 A 
ATOM      3  C2  UNL d   1       2.653  -3.598   4.378  0.00  0.00    -0.080 A 
ATOM      4  C3  UNL d   1       3.366  -2.695   5.161  0.00  0.00     0.150 A 
ATOM      5  C4  UNL d   1       4.415  -3.124   5.968  0.00  0.00    -0.007 A 
ATOM      6  C5  UNL d   1       4.755  -4.476   5.998  0.00  0.00     0.039 A 
ENDROOT
BRANCH   4   7
ATOM      7  O   UNL d   1       3.066  -1.365   5.168  0.00  0.00    -0.526 OA
ATOM      8  H5  UNL d   1       2.302  -1.220   4.586  0.00  0.00     0.418 HD
ENDBRANCH   4   7
TORSDOF 1
ENDMDL
