MODEL 1
REMARK minimizedAffinity 8.41527176
REMARK minimizedRMSD -1
REMARK  1 active torsions:
REMARK  status: ('A' for Active; 'I' for Inactive)
REMARK    1  A    between atoms: C3_4  and  O_7 
ROOT
ATOM      1  C   UNL d   1       3.524  -3.221  -4.122  0.00  0.00    -0.033 A 
ATOM      2  C1  UNL d   1       3.100  -1.933  -3.789  0.00  0.00     0.039 A 
ATOM      3  C2  UNL d   1       3.713  -1.244  -2.741  0.00  0.00    -0.080 A 
ATOM      4  C3  UNL d   1       4.747  -1.853  -2.035  0.00  0.00     0.150 A 
ATOM      5  C4  UNL d   1       5.177  -3.134  -2.364  0.00  0.00    -0.007 A 
ATOM      6  C5  UNL d   1       4.563  -3.821  -3.410  0.00  0.00     0.039 A 
ENDROOT
BRANCH   4   7
ATOM      7  O   UNL d   1       5.372  -1.221  -1.001  0.00  0.00    -0.526 OA
ATOM      8  H5  UNL d   1       4.950  -0.356  -0.869  0.00  0.00     0.418 HD
ENDBRANCH   4   7
TORSDOF 1
ENDMDL
