MODEL 1
REMARK minimizedAffinity 13.2235327
REMARK minimizedRMSD -1
REMARK  1 active torsions:
REMARK  status: ('A' for Active; 'I' for Inactive)
REMARK    1  A    between atoms: C3_4  and  O_7 
ROOT
ATOM      1  C   UNL d   1       3.931   5.861  -3.364  0.00  0.00    -0.033 A 
ATOM      2  C1  UNL d   1       3.226   5.250  -2.325  0.00  0.00     0.039 A 
ATOM      3  C2  UNL d   1       3.906   4.769  -1.205  0.00  0.00    -0.080 A 
ATOM      4  C3  UNL d   1       5.290   4.905  -1.135  0.00  0.00     0.150 A 
ATOM      5  C4  UNL d   1       5.999   5.516  -2.165  0.00  0.00    -0.007 A 
ATOM      6  C5  UNL d   1       5.317   5.995  -3.283  0.00  0.00     0.039 A 
ENDROOT
BRANCH   4   7
ATOM      7  O   UNL d   1       5.998   4.447  -0.064  0.00  0.00    -0.526 OA
ATOM      8  H5  UNL d   1       5.380   4.023   0.555  0.00  0.00     0.418 HD
ENDBRANCH   4   7
TORSDOF 1
ENDMDL
