MODEL 1
REMARK minimizedAffinity 2.40699124
REMARK minimizedRMSD -1
REMARK  1 active torsions:
REMARK  status: ('A' for Active; 'I' for Inactive)
REMARK    1  A    between atoms: C3_4  and  O_7 
ROOT
ATOM      1  C   UNL d   1       5.727  -1.148  -4.132  0.00  0.00    -0.033 A 
ATOM      2  C1  UNL d   1       5.901  -1.795  -5.357  0.00  0.00     0.039 A 
ATOM      3  C2  UNL d   1       5.992  -3.187  -5.406  0.00  0.00    -0.080 A 
ATOM      4  C3  UNL d   1       5.905  -3.920  -4.225  0.00  0.00     0.150 A 
ATOM      5  C4  UNL d   1       5.728  -3.282  -3.002  0.00  0.00    -0.007 A 
ATOM      6  C5  UNL d   1       5.639  -1.891  -2.954  0.00  0.00     0.039 A 
ENDROOT
BRANCH   4   7
ATOM      7  O   UNL d   1       5.993  -5.280  -4.223  0.00  0.00    -0.526 OA
ATOM      8  H5  UNL d   1       6.143  -5.581  -5.135  0.00  0.00     0.418 HD
ENDBRANCH   4   7
TORSDOF 1
ENDMDL
