MODEL 1
REMARK minimizedAffinity 0.536653817
REMARK minimizedRMSD -1
REMARK  0 active torsions:
REMARK  status: ('A' for Active; 'I' for Inactive)
ROOT
ATOM      1  C   UNL d   1       1.658  -4.517   1.380  0.00  0.00     0.078 C 
ATOM      2  C1  UNL d   1       2.729  -3.741   0.672  0.00  0.00    -0.077 A 
ATOM      3  C2  UNL d   1       4.033  -4.240   0.570  0.00  0.00    -0.001 A 
ATOM      4  C3  UNL d   1       5.022  -3.503  -0.083  0.00  0.00     0.003 A 
ATOM      5  C4  UNL d   1       4.718  -2.261  -0.638  0.00  0.00    -0.005 A 
ATOM      6  C5  UNL d   1       3.423  -1.755  -0.539  0.00  0.00     0.003 A 
ATOM      7  C6  UNL d   1       2.433  -2.491   0.114  0.00  0.00    -0.001 A 
ENDROOT
TORSDOF 0
ENDMDL
