MODEL 1
REMARK minimizedAffinity 1.48581469
REMARK minimizedRMSD -1
REMARK  0 active torsions:
REMARK  status: ('A' for Active; 'I' for Inactive)
ROOT
ATOM      1  C   UNL d   1       1.111  -1.619  -0.229  0.00  0.00     0.078 C 
ATOM      2  C1  UNL d   1       0.016  -1.264   0.732  0.00  0.00    -0.077 A 
ATOM      3  C2  UNL d   1       0.054  -1.699   2.062  0.00  0.00    -0.001 A 
ATOM      4  C3  UNL d   1      -0.977  -1.370   2.943  0.00  0.00     0.003 A 
ATOM      5  C4  UNL d   1      -2.055  -0.604   2.503  0.00  0.00    -0.005 A 
ATOM      6  C5  UNL d   1      -2.103  -0.168   1.181  0.00  0.00     0.003 A 
ATOM      7  C6  UNL d   1      -1.072  -0.497   0.298  0.00  0.00    -0.001 A 
ENDROOT
TORSDOF 0
ENDMDL
