MODEL 1
REMARK minimizedAffinity 1.57297051
REMARK minimizedRMSD -1
REMARK  0 active torsions:
REMARK  status: ('A' for Active; 'I' for Inactive)
ROOT
ATOM      1  C   UNL d   1       1.571  -1.019  -0.351  0.00  0.00     0.078 C 
ATOM      2  C1  UNL d   1       2.280  -2.309  -0.066  0.00  0.00    -0.077 A 
ATOM      3  C2  UNL d   1       3.563  -2.554  -0.572  0.00  0.00    -0.001 A 
ATOM      4  C3  UNL d   1       4.207  -3.764  -0.307  0.00  0.00     0.003 A 
ATOM      5  C4  UNL d   1       3.576  -4.738   0.465  0.00  0.00    -0.005 A 
ATOM      6  C5  UNL d   1       2.300  -4.504   0.971  0.00  0.00     0.003 A 
ATOM      7  C6  UNL d   1       1.654  -3.295   0.706  0.00  0.00    -0.001 A 
ENDROOT
TORSDOF 0
ENDMDL
