MODEL 1
REMARK minimizedAffinity -4.83365011
REMARK minimizedRMSD -1
REMARK  0 active torsions:
REMARK  status: ('A' for Active; 'I' for Inactive)
ROOT
ATOM      1  C   UNL d   1       2.953  -2.785   0.532  0.00  0.00     0.078 C 
ATOM      2  C1  UNL d   1       1.713  -2.031   0.910  0.00  0.00    -0.077 A 
ATOM      3  C2  UNL d   1       0.952  -1.362  -0.057  0.00  0.00    -0.001 A 
ATOM      4  C3  UNL d   1      -0.194  -0.656   0.311  0.00  0.00     0.003 A 
ATOM      5  C4  UNL d   1      -0.590  -0.611   1.646  0.00  0.00    -0.005 A 
ATOM      6  C5  UNL d   1       0.161  -1.272   2.616  0.00  0.00     0.003 A 
ATOM      7  C6  UNL d   1       1.308  -1.978   2.250  0.00  0.00    -0.001 A 
ENDROOT
TORSDOF 0
ENDMDL
