MODEL 1
REMARK minimizedAffinity -0.157985449
REMARK minimizedRMSD -1
REMARK  0 active torsions:
REMARK  status: ('A' for Active; 'I' for Inactive)
ROOT
ATOM      1  C   UNL d   1       2.178  -3.666   0.956  0.00  0.00     0.078 C 
ATOM      2  C1  UNL d   1       1.107  -2.634   1.150  0.00  0.00    -0.077 A 
ATOM      3  C2  UNL d   1       0.850  -1.668   0.170  0.00  0.00    -0.001 A 
ATOM      4  C3  UNL d   1      -0.143  -0.708   0.368  0.00  0.00     0.003 A 
ATOM      5  C4  UNL d   1      -0.886  -0.703   1.547  0.00  0.00    -0.005 A 
ATOM      6  C5  UNL d   1      -0.636  -1.659   2.529  0.00  0.00     0.003 A 
ATOM      7  C6  UNL d   1       0.356  -2.620   2.332  0.00  0.00    -0.001 A 
ENDROOT
TORSDOF 0
ENDMDL
