MODEL 1
REMARK minimizedAffinity 1.96550667
REMARK minimizedRMSD -1
REMARK  0 active torsions:
REMARK  status: ('A' for Active; 'I' for Inactive)
ROOT
ATOM      1  C   UNL d   1       1.158  -1.373   0.172  0.00  0.00     0.078 C 
ATOM      2  C1  UNL d   1      -0.114  -0.814   0.737  0.00  0.00    -0.077 A 
ATOM      3  C2  UNL d   1      -0.299  -0.701   2.121  0.00  0.00    -0.001 A 
ATOM      4  C3  UNL d   1      -1.492  -0.188   2.633  0.00  0.00     0.003 A 
ATOM      5  C4  UNL d   1      -2.509   0.214   1.770  0.00  0.00    -0.005 A 
ATOM      6  C5  UNL d   1      -2.334   0.103   0.392  0.00  0.00     0.003 A 
ATOM      7  C6  UNL d   1      -1.142  -0.409  -0.122  0.00  0.00    -0.001 A 
ENDROOT
TORSDOF 0
ENDMDL
