MODEL 1
REMARK minimizedAffinity -0.250269055
REMARK minimizedRMSD -1
REMARK  0 active torsions:
REMARK  status: ('A' for Active; 'I' for Inactive)
ROOT
ATOM      1  C   UNL d   1       1.413  -0.960  -0.811  0.00  0.00     0.078 C 
ATOM      2  C1  UNL d   1       0.614  -0.926   0.457  0.00  0.00    -0.077 A 
ATOM      3  C2  UNL d   1      -0.413   0.009   0.639  0.00  0.00    -0.001 A 
ATOM      4  C3  UNL d   1      -1.142   0.035   1.829  0.00  0.00     0.003 A 
ATOM      5  C4  UNL d   1      -0.851  -0.870   2.847  0.00  0.00    -0.005 A 
ATOM      6  C5  UNL d   1       0.170  -1.803   2.677  0.00  0.00     0.003 A 
ATOM      7  C6  UNL d   1       0.900  -1.831   1.488  0.00  0.00    -0.001 A 
ENDROOT
TORSDOF 0
ENDMDL
