MODEL 1
REMARK minimizedAffinity -1.08782208
REMARK minimizedRMSD -1
REMARK  1 active torsions:
REMARK  status: ('A' for Active; 'I' for Inactive)
REMARK    1  A    between atoms: C1_2  and  C2_3 
ROOT
ATOM      1  C2  UNL d   1      -2.290   0.287   1.470  0.00  0.00    -0.081 A 
ATOM      2  C3  UNL d   1      -3.060   1.133   0.662  0.00  0.00     0.006 A 
ATOM      3  C4  UNL d   1      -2.446   2.096  -0.142  0.00  0.00     0.002 A 
ATOM      4  C5  UNL d   1      -1.053   2.224  -0.158  0.00  0.00    -0.080 A 
ATOM      5  C6  UNL d   1      -0.379   3.233  -1.040  0.00  0.00     0.076 C 
ATOM      6  C7  UNL d   1      -0.285   1.390   0.663  0.00  0.00     0.002 A 
ATOM      7  C8  UNL d   1      -0.898   0.428   1.468  0.00  0.00     0.006 A 
ENDROOT
BRANCH   1   8
ATOM      8  C1  UNL d   1      -2.946  -0.795   2.290  0.00  0.00     0.054 C 
ATOM      9  C   UNL d   1      -2.964  -0.435   3.768  0.00  0.00     0.018 C 
ENDBRANCH   1   8
TORSDOF 1
ENDMDL
