MODEL 1
REMARK minimizedAffinity 8.98232937
REMARK minimizedRMSD -1
REMARK  1 active torsions:
REMARK  status: ('A' for Active; 'I' for Inactive)
REMARK    1  A    between atoms: C1_2  and  C2_3 
ROOT
ATOM      1  C2  UNL d   1      -0.683   0.795   1.619  0.00  0.00    -0.081 A 
ATOM      2  C3  UNL d   1      -0.152   1.674   0.667  0.00  0.00     0.006 A 
ATOM      3  C4  UNL d   1      -0.778   1.840  -0.570  0.00  0.00     0.002 A 
ATOM      4  C5  UNL d   1      -1.949   1.137  -0.874  0.00  0.00    -0.080 A 
ATOM      5  C6  UNL d   1      -2.648   1.329  -2.187  0.00  0.00     0.076 C 
ATOM      6  C7  UNL d   1      -2.470   0.246   0.071  0.00  0.00     0.002 A 
ATOM      7  C8  UNL d   1      -1.844   0.079   1.308  0.00  0.00     0.006 A 
ENDROOT
BRANCH   1   8
ATOM      8  C1  UNL d   1      -0.046   0.662   2.979  0.00  0.00     0.054 C 
ATOM      9  C   UNL d   1      -0.592   1.699   3.949  0.00  0.00     0.018 C 
ENDBRANCH   1   8
TORSDOF 1
ENDMDL
