MODEL 1
REMARK minimizedAffinity 0.241957963
REMARK minimizedRMSD -1
REMARK  1 active torsions:
REMARK  status: ('A' for Active; 'I' for Inactive)
REMARK    1  A    between atoms: C1_2  and  C2_3 
ROOT
ATOM      1  C2  UNL d   1       1.256   0.646  -0.423  0.00  0.00    -0.081 A 
ATOM      2  C3  UNL d   1       0.712   1.406  -1.465  0.00  0.00     0.006 A 
ATOM      3  C4  UNL d   1      -0.641   1.755  -1.456  0.00  0.00     0.002 A 
ATOM      4  C5  UNL d   1      -1.469   1.358  -0.400  0.00  0.00    -0.080 A 
ATOM      5  C6  UNL d   1      -2.916   1.752  -0.362  0.00  0.00     0.076 C 
ATOM      6  C7  UNL d   1      -0.929   0.584   0.632  0.00  0.00     0.002 A 
ATOM      7  C8  UNL d   1       0.423   0.234   0.623  0.00  0.00     0.006 A 
ENDROOT
BRANCH   1   8
ATOM      8  C1  UNL d   1       2.728   0.323  -0.398  0.00  0.00     0.054 C 
ATOM      9  C   UNL d   1       3.399   0.696  -1.712  0.00  0.00     0.018 C 
ENDBRANCH   1   8
TORSDOF 1
ENDMDL
