MODEL 1
REMARK minimizedAffinity -1.07925105
REMARK minimizedRMSD -1
REMARK  1 active torsions:
REMARK  status: ('A' for Active; 'I' for Inactive)
REMARK    1  A    between atoms: C1_2  and  C2_3 
ROOT
ATOM      1  C2  UNL d   1      -3.118   1.173   0.583  0.00  0.00    -0.081 A 
ATOM      2  C3  UNL d   1      -2.898   2.156  -0.388  0.00  0.00     0.006 A 
ATOM      3  C4  UNL d   1      -1.597   2.504  -0.761  0.00  0.00     0.002 A 
ATOM      4  C5  UNL d   1      -0.497   1.870  -0.176  0.00  0.00    -0.080 A 
ATOM      5  C6  UNL d   1       0.904   2.212  -0.589  0.00  0.00     0.076 C 
ATOM      6  C7  UNL d   1      -0.717   0.899   0.808  0.00  0.00     0.002 A 
ATOM      7  C8  UNL d   1      -2.017   0.551   1.182  0.00  0.00     0.006 A 
ENDROOT
BRANCH   1   8
ATOM      8  C1  UNL d   1      -4.520   0.750   0.941  0.00  0.00     0.054 C 
ATOM      9  C   UNL d   1      -5.544   1.769   0.463  0.00  0.00     0.018 C 
ENDBRANCH   1   8
TORSDOF 1
ENDMDL
