MODEL 1
REMARK minimizedAffinity 3.41003132
REMARK minimizedRMSD -1
REMARK  1 active torsions:
REMARK  status: ('A' for Active; 'I' for Inactive)
REMARK    1  A    between atoms: C1_2  and  C2_3 
ROOT
ATOM      1  C2  UNL d   1      -0.213   1.015   0.752  0.00  0.00    -0.081 A 
ATOM      2  C3  UNL d   1      -0.563   2.314   0.364  0.00  0.00     0.006 A 
ATOM      3  C4  UNL d   1      -1.897   2.642   0.113  0.00  0.00     0.002 A 
ATOM      4  C5  UNL d   1      -2.904   1.681   0.254  0.00  0.00    -0.080 A 
ATOM      5  C6  UNL d   1      -4.343   2.028   0.018  0.00  0.00     0.076 C 
ATOM      6  C7  UNL d   1      -2.552   0.379   0.626  0.00  0.00     0.002 A 
ATOM      7  C8  UNL d   1      -1.218   0.049   0.876  0.00  0.00     0.006 A 
ENDROOT
BRANCH   1   8
ATOM      8  C1  UNL d   1       1.217   0.674   1.086  0.00  0.00     0.054 C 
ATOM      9  C   UNL d   1       2.082   0.629  -0.166  0.00  0.00     0.018 C 
ENDBRANCH   1   8
TORSDOF 1
ENDMDL
