MODEL 1
REMARK minimizedAffinity -1.90926385
REMARK minimizedRMSD -1
REMARK  1 active torsions:
REMARK  status: ('A' for Active; 'I' for Inactive)
REMARK    1  A    between atoms: C1_2  and  C2_3 
ROOT
ATOM      1  C2  UNL d   1       0.422   1.969   0.099  0.00  0.00    -0.081 A 
ATOM      2  C3  UNL d   1       0.377   1.530   1.428  0.00  0.00     0.006 A 
ATOM      3  C4  UNL d   1       1.554   1.197   2.104  0.00  0.00     0.002 A 
ATOM      4  C5  UNL d   1       2.794   1.305   1.465  0.00  0.00    -0.080 A 
ATOM      5  C6  UNL d   1       4.067   0.979   2.189  0.00  0.00     0.076 C 
ATOM      6  C7  UNL d   1       2.837   1.727   0.132  0.00  0.00     0.002 A 
ATOM      7  C8  UNL d   1       1.661   2.060  -0.544  0.00  0.00     0.006 A 
ENDROOT
BRANCH   1   8
ATOM      8  C1  UNL d   1      -0.838   2.391  -0.611  0.00  0.00     0.054 C 
ATOM      9  C   UNL d   1      -2.049   1.631  -0.088  0.00  0.00     0.018 C 
ENDBRANCH   1   8
TORSDOF 1
ENDMDL
