MODEL 1
REMARK minimizedAffinity 8.65600967
REMARK minimizedRMSD -1
REMARK  1 active torsions:
REMARK  status: ('A' for Active; 'I' for Inactive)
REMARK    1  A    between atoms: C1_2  and  C2_3 
ROOT
ATOM      1  C2  UNL d   1      -2.367   0.890   1.113  0.00  0.00    -0.081 A 
ATOM      2  C3  UNL d   1      -2.506   1.670  -0.041  0.00  0.00     0.006 A 
ATOM      3  C4  UNL d   1      -1.449   2.463  -0.492  0.00  0.00     0.002 A 
ATOM      4  C5  UNL d   1      -0.232   2.482   0.197  0.00  0.00    -0.080 A 
ATOM      5  C6  UNL d   1       0.922   3.305  -0.294  0.00  0.00     0.076 C 
ATOM      6  C7  UNL d   1      -0.097   1.716   1.360  0.00  0.00     0.002 A 
ATOM      7  C8  UNL d   1      -1.155   0.924   1.813  0.00  0.00     0.006 A 
ENDROOT
BRANCH   1   8
ATOM      8  C1  UNL d   1      -3.483  -0.016   1.566  0.00  0.00     0.054 C 
ATOM      9  C   UNL d   1      -3.168  -0.652   2.912  0.00  0.00     0.018 C 
ENDBRANCH   1   8
TORSDOF 1
ENDMDL
