MODEL 1
REMARK minimizedAffinity 4.86946487
REMARK minimizedRMSD -1
REMARK  1 active torsions:
REMARK  status: ('A' for Active; 'I' for Inactive)
REMARK    1  A    between atoms: C1_2  and  C2_3 
ROOT
ATOM      1  C2  UNL d   1       1.560   1.361  -0.213  0.00  0.00    -0.081 A 
ATOM      2  C3  UNL d   1       0.173   1.485  -0.359  0.00  0.00     0.006 A 
ATOM      3  C4  UNL d   1      -0.614   1.935   0.704  0.00  0.00     0.002 A 
ATOM      4  C5  UNL d   1      -0.027   2.275   1.927  0.00  0.00    -0.080 A 
ATOM      5  C6  UNL d   1      -0.857   2.788   3.066  0.00  0.00     0.076 C 
ATOM      6  C7  UNL d   1       1.356   2.135   2.079  0.00  0.00     0.002 A 
ATOM      7  C8  UNL d   1       2.144   1.685   1.017  0.00  0.00     0.006 A 
ENDROOT
BRANCH   1   8
ATOM      8  C1  UNL d   1       2.419   0.939  -1.377  0.00  0.00     0.054 C 
ATOM      9  C   UNL d   1       1.885   1.493  -2.689  0.00  0.00     0.018 C 
ENDBRANCH   1   8
TORSDOF 1
ENDMDL
