MODEL 1
REMARK minimizedAffinity 2.0413518
REMARK minimizedRMSD -1
REMARK  1 active torsions:
REMARK  status: ('A' for Active; 'I' for Inactive)
REMARK    1  A    between atoms: C1_2  and  C2_3 
ROOT
ATOM      1  C2  UNL d   1       1.419   1.292   0.050  0.00  0.00    -0.081 A 
ATOM      2  C3  UNL d   1       0.025   1.417   0.094  0.00  0.00     0.006 A 
ATOM      3  C4  UNL d   1      -0.598   2.020   1.190  0.00  0.00     0.002 A 
ATOM      4  C5  UNL d   1       0.163   2.515   2.255  0.00  0.00    -0.080 A 
ATOM      5  C6  UNL d   1      -0.490   3.191   3.423  0.00  0.00     0.076 C 
ATOM      6  C7  UNL d   1       1.555   2.374   2.219  0.00  0.00     0.002 A 
ATOM      7  C8  UNL d   1       2.177   1.771   1.123  0.00  0.00     0.006 A 
ENDROOT
BRANCH   1   8
ATOM      8  C1  UNL d   1       2.097   0.701  -1.160  0.00  0.00     0.054 C 
ATOM      9  C   UNL d   1       1.734   1.465  -2.426  0.00  0.00     0.018 C 
ENDBRANCH   1   8
TORSDOF 1
ENDMDL
