MODEL 1
REMARK minimizedAffinity 9.20713806
REMARK minimizedRMSD -1
REMARK  1 active torsions:
REMARK  status: ('A' for Active; 'I' for Inactive)
REMARK    1  A    between atoms: C1_2  and  C2_3 
ROOT
ATOM      1  C2  UNL d   1       1.546   1.457   0.047  0.00  0.00    -0.081 A 
ATOM      2  C3  UNL d   1       0.157   1.638   0.050  0.00  0.00     0.006 A 
ATOM      3  C4  UNL d   1      -0.475   2.249   1.135  0.00  0.00     0.002 A 
ATOM      4  C5  UNL d   1       0.271   2.697   2.231  0.00  0.00    -0.080 A 
ATOM      5  C6  UNL d   1      -0.391   3.382   3.389  0.00  0.00     0.076 C 
ATOM      6  C7  UNL d   1       1.656   2.501   2.236  0.00  0.00     0.002 A 
ATOM      7  C8  UNL d   1       2.289   1.889   1.151  0.00  0.00     0.006 A 
ENDROOT
BRANCH   1   8
ATOM      8  C1  UNL d   1       2.238   0.856  -1.150  0.00  0.00     0.054 C 
ATOM      9  C   UNL d   1       1.825   1.556  -2.437  0.00  0.00     0.018 C 
ENDBRANCH   1   8
TORSDOF 1
ENDMDL
