MODEL 1
REMARK minimizedAffinity -0.77285248
REMARK minimizedRMSD -1
REMARK  1 active torsions:
REMARK  status: ('A' for Active; 'I' for Inactive)
REMARK    1  A    between atoms: C1_2  and  C2_3 
ROOT
ATOM      1  C2  UNL d   1      -0.051   0.761   0.361  0.00  0.00    -0.081 A 
ATOM      2  C3  UNL d   1      -0.693   1.871   0.922  0.00  0.00     0.006 A 
ATOM      3  C4  UNL d   1       0.028   2.801   1.675  0.00  0.00     0.002 A 
ATOM      4  C5  UNL d   1       1.403   2.640   1.874  0.00  0.00    -0.080 A 
ATOM      5  C6  UNL d   1       2.194   3.646   2.655  0.00  0.00     0.076 C 
ATOM      6  C7  UNL d   1       2.042   1.521   1.328  0.00  0.00     0.002 A 
ATOM      7  C8  UNL d   1       1.322   0.591   0.575  0.00  0.00     0.006 A 
ENDROOT
BRANCH   1   8
ATOM      8  C1  UNL d   1      -0.813  -0.208  -0.507  0.00  0.00     0.054 C 
ATOM      9  C   UNL d   1      -1.786  -1.040   0.316  0.00  0.00     0.018 C 
ENDBRANCH   1   8
TORSDOF 1
ENDMDL
