MODEL 1
REMARK minimizedAffinity 11.2694473
REMARK minimizedRMSD -1
REMARK  0 active torsions:
REMARK  status: ('A' for Active; 'I' for Inactive)
ROOT
ATOM      1  N1  IND d   1      -4.260   1.493   1.158  0.00  0.00    -0.196 N 
ATOM      2  C2  IND d   1      -5.097   0.412   1.184  0.00  0.00     0.054 A 
ATOM      3  C3  IND d   1      -4.418  -0.699   1.547  0.00  0.00    -0.031 A 
ATOM      4  C4  IND d   1      -1.952  -0.955   2.240  0.00  0.00     0.051 A 
ATOM      5  C5  IND d   1      -0.781  -0.256   2.337  0.00  0.00    -0.031 A 
ATOM      6  C6  IND d   1      -0.710   1.091   2.042  0.00  0.00     0.015 A 
ATOM      7  C7  IND d   1      -1.814   1.793   1.648  0.00  0.00    -0.016 A 
ATOM      8  C8  IND d   1      -3.003   1.084   1.543  0.00  0.00    -0.047 A 
ATOM      9  C9  IND d   1      -3.072  -0.291   1.799  0.00  0.00    -0.096 A 
ATOM     10  HN1 IND d   1      -4.483   2.294   0.937  0.00  0.00     0.298 HD
ENDROOT
TORSDOF 0
ENDMDL
