MODEL 1
REMARK minimizedAffinity 8.83298874
REMARK minimizedRMSD -1
REMARK  0 active torsions:
REMARK  status: ('A' for Active; 'I' for Inactive)
ROOT
ATOM      1  N1  IND d   1       1.102   1.320   2.837  0.00  0.00    -0.196 N 
ATOM      2  C2  IND d   1       0.910   1.509   1.497  0.00  0.00     0.054 A 
ATOM      3  C3  IND d   1       1.802   2.404   1.016  0.00  0.00    -0.031 A 
ATOM      4  C4  IND d   1       3.728   3.607   2.228  0.00  0.00     0.051 A 
ATOM      5  C5  IND d   1       4.278   3.784   3.466  0.00  0.00    -0.031 A 
ATOM      6  C6  IND d   1       3.789   3.133   4.581  0.00  0.00     0.015 A 
ATOM      7  C7  IND d   1       2.735   2.269   4.495  0.00  0.00    -0.016 A 
ATOM      8  C8  IND d   1       2.169   2.092   3.241  0.00  0.00    -0.047 A 
ATOM      9  C9  IND d   1       2.634   2.782   2.114  0.00  0.00    -0.096 A 
ATOM     10  HN1 IND d   1       0.635   0.806   3.344  0.00  0.00     0.298 HD
ENDROOT
TORSDOF 0
ENDMDL
