MODEL 1
REMARK minimizedAffinity 11.6854649
REMARK minimizedRMSD -1
REMARK  0 active torsions:
REMARK  status: ('A' for Active; 'I' for Inactive)
ROOT
ATOM      1  N1  IND d   1       1.077  -4.795  -4.806  0.00  0.00    -0.196 N 
ATOM      2  C2  IND d   1       1.882  -5.899  -4.858  0.00  0.00     0.054 A 
ATOM      3  C3  IND d   1       2.616  -5.999  -3.728  0.00  0.00    -0.031 A 
ATOM      4  C4  IND d   1       2.583  -4.522  -1.620  0.00  0.00     0.051 A 
ATOM      5  C5  IND d   1       2.038  -3.374  -1.117  0.00  0.00    -0.031 A 
ATOM      6  C6  IND d   1       1.123  -2.627  -1.832  0.00  0.00     0.015 A 
ATOM      7  C7  IND d   1       0.710  -3.009  -3.077  0.00  0.00    -0.016 A 
ATOM      8  C8  IND d   1       1.267  -4.170  -3.593  0.00  0.00    -0.047 A 
ATOM      9  C9  IND d   1       2.228  -4.909  -2.890  0.00  0.00    -0.096 A 
ATOM     10  HN1 IND d   1       0.541  -4.535  -5.427  0.00  0.00     0.298 HD
ENDROOT
TORSDOF 0
ENDMDL
