MODEL 1
REMARK minimizedAffinity 11.8118429
REMARK minimizedRMSD -1
REMARK  0 active torsions:
REMARK  status: ('A' for Active; 'I' for Inactive)
ROOT
ATOM      1  N1  IND d   1       2.317   1.824   2.658  0.00  0.00    -0.196 N 
ATOM      2  C2  IND d   1       1.113   2.473   2.676  0.00  0.00     0.054 A 
ATOM      3  C3  IND d   1       1.217   3.637   3.354  0.00  0.00    -0.031 A 
ATOM      4  C4  IND d   1       3.288   4.725   4.430  0.00  0.00     0.051 A 
ATOM      5  C5  IND d   1       4.607   4.494   4.703  0.00  0.00    -0.031 A 
ATOM      6  C6  IND d   1       5.243   3.339   4.297  0.00  0.00     0.015 A 
ATOM      7  C7  IND d   1       4.584   2.372   3.591  0.00  0.00    -0.016 A 
ATOM      8  C8  IND d   1       3.243   2.601   3.318  0.00  0.00    -0.047 A 
ATOM      9  C9  IND d   1       2.581   3.752   3.764  0.00  0.00    -0.096 A 
ATOM     10  HN1 IND d   1       2.469   1.060   2.295  0.00  0.00     0.298 HD
ENDROOT
TORSDOF 0
ENDMDL
