MODEL 1
REMARK minimizedAffinity 7.26047277
REMARK minimizedRMSD -1
REMARK  0 active torsions:
REMARK  status: ('A' for Active; 'I' for Inactive)
ROOT
ATOM      1  N1  IND d   1      -0.204  -1.731   1.895  0.00  0.00    -0.196 N 
ATOM      2  C2  IND d   1      -0.007  -0.538   1.256  0.00  0.00     0.054 A 
ATOM      3  C3  IND d   1      -1.139   0.201   1.280  0.00  0.00    -0.031 A 
ATOM      4  C4  IND d   1      -3.400  -0.307   2.401  0.00  0.00     0.051 A 
ATOM      5  C5  IND d   1      -4.073  -1.289   3.072  0.00  0.00    -0.031 A 
ATOM      6  C6  IND d   1      -3.478  -2.491   3.395  0.00  0.00     0.015 A 
ATOM      7  C7  IND d   1      -2.178  -2.754   3.066  0.00  0.00    -0.016 A 
ATOM      8  C8  IND d   1      -1.494  -1.762   2.378  0.00  0.00    -0.047 A 
ATOM      9  C9  IND d   1      -2.106  -0.556   2.010  0.00  0.00    -0.096 A 
ATOM     10  HN1 IND d   1       0.379  -2.357   1.980  0.00  0.00     0.298 HD
ENDROOT
TORSDOF 0
ENDMDL
