MODEL 1
REMARK minimizedAffinity 2.44202161
REMARK minimizedRMSD -1
REMARK  0 active torsions:
REMARK  status: ('A' for Active; 'I' for Inactive)
ROOT
ATOM      1  N1  IND d   1      -0.294  -1.464   0.042  0.00  0.00    -0.196 N 
ATOM      2  C2  IND d   1      -0.921  -1.447   1.257  0.00  0.00     0.054 A 
ATOM      3  C3  IND d   1      -1.956  -2.317   1.264  0.00  0.00    -0.031 A 
ATOM      4  C4  IND d   1      -2.736  -3.944  -0.572  0.00  0.00     0.051 A 
ATOM      5  C5  IND d   1      -2.499  -4.297  -1.871  0.00  0.00    -0.031 A 
ATOM      6  C6  IND d   1      -1.492  -3.714  -2.612  0.00  0.00     0.015 A 
ATOM      7  C7  IND d   1      -0.674  -2.760  -2.077  0.00  0.00    -0.016 A 
ATOM      8  C8  IND d   1      -0.917  -2.394  -0.760  0.00  0.00    -0.047 A 
ATOM      9  C9  IND d   1      -1.964  -2.952  -0.016  0.00  0.00    -0.096 A 
ATOM     10  HN1 IND d   1       0.378  -0.975  -0.182  0.00  0.00     0.298 HD
ENDROOT
TORSDOF 0
ENDMDL
