MODEL 1
REMARK minimizedAffinity 0.265286237
REMARK minimizedRMSD -1
REMARK  0 active torsions:
REMARK  status: ('A' for Active; 'I' for Inactive)
ROOT
ATOM      1  N1  IND d   1      -3.700   0.601   2.157  0.00  0.00    -0.196 N 
ATOM      2  C2  IND d   1      -4.473  -0.385   2.703  0.00  0.00     0.054 A 
ATOM      3  C3  IND d   1      -3.747  -1.513   2.872  0.00  0.00    -0.031 A 
ATOM      4  C4  IND d   1      -1.248  -1.933   2.415  0.00  0.00     0.051 A 
ATOM      5  C5  IND d   1      -0.137  -1.344   1.881  0.00  0.00    -0.031 A 
ATOM      6  C6  IND d   1      -0.157  -0.049   1.404  0.00  0.00     0.015 A 
ATOM      7  C7  IND d   1      -1.290   0.712   1.454  0.00  0.00    -0.016 A 
ATOM      8  C8  IND d   1      -2.422   0.114   1.990  0.00  0.00    -0.047 A 
ATOM      9  C9  IND d   1      -2.420  -1.213   2.437  0.00  0.00    -0.096 A 
ATOM     10  HN1 IND d   1      -3.967   1.392   1.952  0.00  0.00     0.298 HD
ENDROOT
TORSDOF 0
ENDMDL
