MODEL 1
REMARK minimizedAffinity 4.25015783
REMARK minimizedRMSD -1
REMARK  0 active torsions:
REMARK  status: ('A' for Active; 'I' for Inactive)
ROOT
ATOM      1  N1  IND d   1      -2.212   1.650   1.625  0.00  0.00    -0.196 N 
ATOM      2  C2  IND d   1      -0.963   1.342   1.161  0.00  0.00     0.054 A 
ATOM      3  C3  IND d   1      -0.629   0.080   1.512  0.00  0.00    -0.031 A 
ATOM      4  C4  IND d   1      -2.019  -1.693   2.759  0.00  0.00     0.051 A 
ATOM      5  C5  IND d   1      -3.206  -1.866   3.413  0.00  0.00    -0.031 A 
ATOM      6  C6  IND d   1      -4.143  -0.857   3.504  0.00  0.00     0.015 A 
ATOM      7  C7  IND d   1      -3.931   0.365   2.932  0.00  0.00    -0.016 A 
ATOM      8  C8  IND d   1      -2.723   0.547   2.273  0.00  0.00    -0.047 A 
ATOM      9  C9  IND d   1      -1.751  -0.459   2.214  0.00  0.00    -0.096 A 
ATOM     10  HN1 IND d   1      -2.611   2.406   1.528  0.00  0.00     0.298 HD
ENDROOT
TORSDOF 0
ENDMDL
