MODEL 1
REMARK minimizedAffinity 3.04636002
REMARK minimizedRMSD -1
REMARK  0 active torsions:
REMARK  status: ('A' for Active; 'I' for Inactive)
ROOT
ATOM      1  N1  IND d   1      -2.654   4.425  -2.556  0.00  0.00    -0.196 N 
ATOM      2  C2  IND d   1      -1.562   3.781  -3.068  0.00  0.00     0.054 A 
ATOM      3  C3  IND d   1      -1.603   3.788  -4.420  0.00  0.00    -0.031 A 
ATOM      4  C4  IND d   1      -3.314   4.886  -5.999  0.00  0.00     0.051 A 
ATOM      5  C5  IND d   1      -4.505   5.556  -5.998  0.00  0.00    -0.031 A 
ATOM      6  C6  IND d   1      -5.151   5.893  -4.827  0.00  0.00     0.015 A 
ATOM      7  C7  IND d   1      -4.623   5.580  -3.606  0.00  0.00    -0.016 A 
ATOM      8  C8  IND d   1      -3.417   4.894  -3.603  0.00  0.00    -0.047 A 
ATOM      9  C9  IND d   1      -2.778   4.512  -4.789  0.00  0.00    -0.096 A 
ATOM     10  HN1 IND d   1      -2.833   4.522  -1.721  0.00  0.00     0.298 HD
ENDROOT
TORSDOF 0
ENDMDL
