MODEL 1
REMARK minimizedAffinity 5.31472063
REMARK minimizedRMSD -1
REMARK  0 active torsions:
REMARK  status: ('A' for Active; 'I' for Inactive)
ROOT
ATOM      1  N1  IND d   1       0.637  -2.419  -3.069  0.00  0.00    -0.196 N 
ATOM      2  C2  IND d   1       0.891  -3.580  -3.744  0.00  0.00     0.054 A 
ATOM      3  C3  IND d   1       1.955  -4.215  -3.204  0.00  0.00    -0.031 A 
ATOM      4  C4  IND d   1       3.367  -3.580  -1.147  0.00  0.00     0.051 A 
ATOM      5  C5  IND d   1       3.540  -2.588  -0.223  0.00  0.00    -0.031 A 
ATOM      6  C6  IND d   1       2.735  -1.467  -0.199  0.00  0.00     0.015 A 
ATOM      7  C7  IND d   1       1.716  -1.301  -1.094  0.00  0.00    -0.016 A 
ATOM      8  C8  IND d   1       1.543  -2.304  -2.038  0.00  0.00    -0.047 A 
ATOM      9  C9  IND d   1       2.383  -3.423  -2.094  0.00  0.00    -0.096 A 
ATOM     10  HN1 IND d   1       0.015  -1.855  -3.257  0.00  0.00     0.298 HD
ENDROOT
TORSDOF 0
ENDMDL
