MODEL 1
REMARK minimizedAffinity 13.5901747
REMARK minimizedRMSD -1
REMARK  0 active torsions:
REMARK  status: ('A' for Active; 'I' for Inactive)
ROOT
ATOM      1  N1  IND d   1      -2.708   2.086  -0.186  0.00  0.00    -0.196 N 
ATOM      2  C2  IND d   1      -3.592   1.399   0.600  0.00  0.00     0.054 A 
ATOM      3  C3  IND d   1      -2.929   0.657   1.515  0.00  0.00    -0.031 A 
ATOM      4  C4  IND d   1      -0.401   0.496   1.970  0.00  0.00     0.051 A 
ATOM      5  C5  IND d   1       0.809   0.911   1.488  0.00  0.00    -0.031 A 
ATOM      6  C6  IND d   1       0.910   1.759   0.404  0.00  0.00     0.015 A 
ATOM      7  C7  IND d   1      -0.200   2.234  -0.235  0.00  0.00    -0.016 A 
ATOM      8  C8  IND d   1      -1.430   1.808   0.247  0.00  0.00    -0.047 A 
ATOM      9  C9  IND d   1      -1.538   0.915   1.320  0.00  0.00    -0.096 A 
ATOM     10  HN1 IND d   1      -2.916   2.604  -0.840  0.00  0.00     0.298 HD
ENDROOT
TORSDOF 0
ENDMDL
