MODEL 1
REMARK minimizedAffinity 16.8451366
REMARK minimizedRMSD -1
REMARK  0 active torsions:
REMARK  status: ('A' for Active; 'I' for Inactive)
ROOT
ATOM      1  N1  IND d   1       5.999   4.867   5.966  0.00  0.00    -0.196 N 
ATOM      2  C2  IND d   1       5.232   5.997   5.996  0.00  0.00     0.054 A 
ATOM      3  C3  IND d   1       4.058   5.786   5.360  0.00  0.00    -0.031 A 
ATOM      4  C4  IND d   1       3.144   3.633   4.285  0.00  0.00     0.051 A 
ATOM      5  C5  IND d   1       3.498   2.349   3.977  0.00  0.00    -0.031 A 
ATOM      6  C6  IND d   1       4.727   1.827   4.326  0.00  0.00     0.015 A 
ATOM      7  C7  IND d   1       5.648   2.570   5.009  0.00  0.00    -0.016 A 
ATOM      8  C8  IND d   1       5.295   3.876   5.317  0.00  0.00    -0.047 A 
ATOM      9  C9  IND d   1       4.066   4.424   4.928  0.00  0.00    -0.096 A 
ATOM     10  HN1 IND d   1       6.789   4.787   6.297  0.00  0.00     0.298 HD
ENDROOT
TORSDOF 0
ENDMDL
