MODEL 1
REMARK minimizedAffinity 12.0801849
REMARK minimizedRMSD -1
REMARK  0 active torsions:
REMARK  status: ('A' for Active; 'I' for Inactive)
ROOT
ATOM      1  N1  IND d   1       5.938   2.356  -5.965  0.00  0.00    -0.196 N 
ATOM      2  C2  IND d   1       4.965   1.397  -5.926  0.00  0.00     0.054 A 
ATOM      3  C3  IND d   1       3.741   1.970  -5.892  0.00  0.00    -0.031 A 
ATOM      4  C4  IND d   1       3.097   4.461  -5.994  0.00  0.00     0.051 A 
ATOM      5  C5  IND d   1       3.641   5.714  -6.000  0.00  0.00    -0.031 A 
ATOM      6  C6  IND d   1       5.006   5.917  -5.997  0.00  0.00     0.015 A 
ATOM      7  C7  IND d   1       5.882   4.868  -6.000  0.00  0.00    -0.016 A 
ATOM      8  C8  IND d   1       5.333   3.594  -5.987  0.00  0.00    -0.047 A 
ATOM      9  C9  IND d   1       3.949   3.382  -5.947  0.00  0.00    -0.096 A 
ATOM     10  HN1 IND d   1       6.786   2.211  -5.975  0.00  0.00     0.298 HD
ENDROOT
TORSDOF 0
ENDMDL
