MODEL 1
REMARK minimizedAffinity 4.65308809
REMARK minimizedRMSD -1
REMARK  0 active torsions:
REMARK  status: ('A' for Active; 'I' for Inactive)
ROOT
ATOM      1  N1  IND d   1      -4.234   1.118   1.588  0.00  0.00    -0.196 N 
ATOM      2  C2  IND d   1      -3.014   1.202   0.975  0.00  0.00     0.054 A 
ATOM      3  C3  IND d   1      -2.244   0.145   1.314  0.00  0.00    -0.031 A 
ATOM      4  C4  IND d   1      -2.816  -1.893   2.779  0.00  0.00     0.051 A 
ATOM      5  C5  IND d   1      -3.796  -2.398   3.587  0.00  0.00    -0.031 A 
ATOM      6  C6  IND d   1      -4.998  -1.745   3.771  0.00  0.00     0.015 A 
ATOM      7  C7  IND d   1      -5.269  -0.563   3.142  0.00  0.00    -0.016 A 
ATOM      8  C8  IND d   1      -4.273  -0.043   2.327  0.00  0.00    -0.047 A 
ATOM      9  C9  IND d   1      -3.036  -0.680   2.170  0.00  0.00    -0.096 A 
ATOM     10  HN1 IND d   1      -4.869   1.694   1.523  0.00  0.00     0.298 HD
ENDROOT
TORSDOF 0
ENDMDL
