MODEL 1
REMARK minimizedAffinity 1.75342536
REMARK minimizedRMSD -1
REMARK  0 active torsions:
REMARK  status: ('A' for Active; 'I' for Inactive)
ROOT
ATOM      1  N1  IND d   1       3.027   2.332  -5.208  0.00  0.00    -0.196 N 
ATOM      2  C2  IND d   1       1.955   2.840  -4.527  0.00  0.00     0.054 A 
ATOM      3  C3  IND d   1       2.161   4.144  -4.233  0.00  0.00    -0.031 A 
ATOM      4  C4  IND d   1       4.136   5.671  -4.860  0.00  0.00     0.051 A 
ATOM      5  C5  IND d   1       5.369   5.650  -5.448  0.00  0.00    -0.031 A 
ATOM      6  C6  IND d   1       5.895   4.499  -5.999  0.00  0.00     0.015 A 
ATOM      7  C7  IND d   1       5.198   3.324  -5.993  0.00  0.00    -0.016 A 
ATOM      8  C8  IND d   1       3.948   3.340  -5.391  0.00  0.00    -0.047 A 
ATOM      9  C9  IND d   1       3.427   4.495  -4.792  0.00  0.00    -0.096 A 
ATOM     10  HN1 IND d   1       3.111   1.520  -5.476  0.00  0.00     0.298 HD
ENDROOT
TORSDOF 0
ENDMDL
