MODEL 1
REMARK minimizedAffinity 8.55185509
REMARK minimizedRMSD -1
REMARK  0 active torsions:
REMARK  status: ('A' for Active; 'I' for Inactive)
ROOT
ATOM      1  N1  IND d   1      -3.543  -1.246   3.846  0.00  0.00    -0.196 N 
ATOM      2  C2  IND d   1      -4.834  -1.189   4.292  0.00  0.00     0.054 A 
ATOM      3  C3  IND d   1      -5.547  -0.304   3.559  0.00  0.00    -0.031 A 
ATOM      4  C4  IND d   1      -4.823   1.086   1.517  0.00  0.00     0.051 A 
ATOM      5  C5  IND d   1      -3.728   1.400   0.761  0.00  0.00    -0.031 A 
ATOM      6  C6  IND d   1      -2.492   0.834   0.997  0.00  0.00     0.015 A 
ATOM      7  C7  IND d   1      -2.306  -0.079   1.996  0.00  0.00    -0.016 A 
ATOM      8  C8  IND d   1      -3.413  -0.395   2.771  0.00  0.00    -0.047 A 
ATOM      9  C9  IND d   1      -4.660   0.209   2.563  0.00  0.00    -0.096 A 
ATOM     10  HN1 IND d   1      -2.918  -1.731   4.181  0.00  0.00     0.298 HD
ENDROOT
TORSDOF 0
ENDMDL
