MODEL 1
REMARK minimizedAffinity 8.80925655
REMARK minimizedRMSD -1
REMARK  0 active torsions:
REMARK  status: ('A' for Active; 'I' for Inactive)
ROOT
ATOM      1  N1  IND d   1      -4.032   0.314   3.121  0.00  0.00    -0.196 N 
ATOM      2  C2  IND d   1      -5.046  -0.412   3.681  0.00  0.00     0.054 A 
ATOM      3  C3  IND d   1      -4.699  -1.716   3.769  0.00  0.00    -0.031 A 
ATOM      4  C4  IND d   1      -2.479  -2.862   3.150  0.00  0.00     0.051 A 
ATOM      5  C5  IND d   1      -1.266  -2.619   2.569  0.00  0.00    -0.031 A 
ATOM      6  C6  IND d   1      -0.905  -1.359   2.136  0.00  0.00     0.015 A 
ATOM      7  C7  IND d   1      -1.742  -0.289   2.279  0.00  0.00    -0.016 A 
ATOM      8  C8  IND d   1      -2.977  -0.534   2.862  0.00  0.00    -0.047 A 
ATOM      9  C9  IND d   1      -3.366  -1.819   3.265  0.00  0.00    -0.096 A 
ATOM     10  HN1 IND d   1      -4.049   1.158   2.958  0.00  0.00     0.298 HD
ENDROOT
TORSDOF 0
ENDMDL
