MODEL 1
REMARK minimizedAffinity 4.69426775
REMARK minimizedRMSD -1
REMARK  0 active torsions:
REMARK  status: ('A' for Active; 'I' for Inactive)
ROOT
ATOM      1  N1  IND d   1      -2.812   2.772   0.298  0.00  0.00    -0.196 N 
ATOM      2  C2  IND d   1      -3.609   1.810   0.852  0.00  0.00     0.054 A 
ATOM      3  C3  IND d   1      -2.982   1.221   1.895  0.00  0.00    -0.031 A 
ATOM      4  C4  IND d   1      -0.686   1.750   2.931  0.00  0.00     0.051 A 
ATOM      5  C5  IND d   1       0.426   2.524   2.749  0.00  0.00    -0.031 A 
ATOM      6  C6  IND d   1       0.516   3.440   1.721  0.00  0.00     0.015 A 
ATOM      7  C7  IND d   1      -0.512   3.626   0.840  0.00  0.00    -0.016 A 
ATOM      8  C8  IND d   1      -1.639   2.837   1.018  0.00  0.00    -0.047 A 
ATOM      9  C9  IND d   1      -1.720   1.876   2.034  0.00  0.00    -0.096 A 
ATOM     10  HN1 IND d   1      -3.009   3.256  -0.385  0.00  0.00     0.298 HD
ENDROOT
TORSDOF 0
ENDMDL
