MODEL 1
REMARK minimizedAffinity -3.11798811
REMARK minimizedRMSD -1
REMARK  0 active torsions:
REMARK  status: ('A' for Active; 'I' for Inactive)
ROOT
ATOM      1  C2' OXE d   1      -3.034   1.494  -2.387  0.00  0.00     0.078 C 
ATOM      2  C1' OXE d   1      -0.633   0.056  -2.609  0.00  0.00     0.078 C 
ATOM      3  C1  OXE d   1      -0.549   1.561  -2.540  0.00  0.00    -0.078 A 
ATOM      4  C2  OXE d   1      -1.731   2.258  -2.478  0.00  0.00    -0.078 A 
ATOM      5  C3  OXE d   1      -1.708   3.645  -2.358  0.00  0.00     0.003 A 
ATOM      6  C4  OXE d   1      -0.499   4.345  -2.454  0.00  0.00    -0.002 A 
ATOM      7  C5  OXE d   1       0.714   3.655  -2.557  0.00  0.00    -0.002 A 
ATOM      8  C6  OXE d   1       0.710   2.265  -2.559  0.00  0.00     0.003 A 
ENDROOT
TORSDOF 0
ENDMDL
