MODEL 1
REMARK minimizedAffinity -0.823455989
REMARK minimizedRMSD -1
REMARK  0 active torsions:
REMARK  status: ('A' for Active; 'I' for Inactive)
ROOT
ATOM      1  C2' OXE d   1       1.834  -1.036   3.155  0.00  0.00     0.078 C 
ATOM      2  C1' OXE d   1      -0.581  -2.468   3.194  0.00  0.00     0.078 C 
ATOM      3  C1  OXE d   1      -0.381  -1.455   2.095  0.00  0.00    -0.078 A 
ATOM      4  C2  OXE d   1       0.783  -0.726   2.111  0.00  0.00    -0.078 A 
ATOM      5  C3  OXE d   1       1.041   0.184   1.088  0.00  0.00     0.003 A 
ATOM      6  C4  OXE d   1       0.060   0.472   0.132  0.00  0.00    -0.002 A 
ATOM      7  C5  OXE d   1      -1.149  -0.231   0.122  0.00  0.00    -0.002 A 
ATOM      8  C6  OXE d   1      -1.368  -1.225   1.068  0.00  0.00     0.003 A 
ENDROOT
TORSDOF 0
ENDMDL
