MODEL 1
REMARK minimizedAffinity -2.54339886
REMARK minimizedRMSD -1
REMARK  0 active torsions:
REMARK  status: ('A' for Active; 'I' for Inactive)
ROOT
ATOM      1  C2' OXE d   1      -2.271   0.562   1.289  0.00  0.00     0.078 C 
ATOM      2  C1' OXE d   1      -0.437   0.655  -0.834  0.00  0.00     0.078 C 
ATOM      3  C1  OXE d   1       0.040   0.097   0.484  0.00  0.00    -0.078 A 
ATOM      4  C2  OXE d   1      -0.851   0.099   1.530  0.00  0.00    -0.078 A 
ATOM      5  C3  OXE d   1      -0.479  -0.455   2.752  0.00  0.00     0.003 A 
ATOM      6  C4  OXE d   1       0.840  -0.872   2.970  0.00  0.00    -0.002 A 
ATOM      7  C5  OXE d   1       1.774  -0.845   1.928  0.00  0.00    -0.002 A 
ATOM      8  C6  OXE d   1       1.379  -0.404   0.670  0.00  0.00     0.003 A 
ENDROOT
TORSDOF 0
ENDMDL
