MODEL 1
REMARK minimizedAffinity -5.58080959
REMARK minimizedRMSD -1
REMARK  0 active torsions:
REMARK  status: ('A' for Active; 'I' for Inactive)
ROOT
ATOM      1  C2' OXE d   1       1.357  -0.588   2.794  0.00  0.00     0.078 C 
ATOM      2  C1' OXE d   1       2.720  -1.061   0.386  0.00  0.00     0.078 C 
ATOM      3  C1  OXE d   1       1.295  -0.572   0.303  0.00  0.00    -0.078 A 
ATOM      4  C2  OXE d   1       0.621  -0.388   1.486  0.00  0.00    -0.078 A 
ATOM      5  C3  OXE d   1      -0.677   0.114   1.469  0.00  0.00     0.003 A 
ATOM      6  C4  OXE d   1      -1.354   0.287   0.255  0.00  0.00    -0.002 A 
ATOM      7  C5  OXE d   1      -0.698   0.067  -0.961  0.00  0.00    -0.002 A 
ATOM      8  C6  OXE d   1       0.637  -0.321  -0.955  0.00  0.00     0.003 A 
ENDROOT
TORSDOF 0
ENDMDL
