MODEL 1
REMARK minimizedAffinity -3.78160715
REMARK minimizedRMSD -1
REMARK  0 active torsions:
REMARK  status: ('A' for Active; 'I' for Inactive)
ROOT
ATOM      1  C2' OXE d   1       0.014  -0.711  -1.629  0.00  0.00     0.078 C 
ATOM      2  C1' OXE d   1       2.227  -1.406  -0.048  0.00  0.00     0.078 C 
ATOM      3  C1  OXE d   1       1.007  -0.862   0.651  0.00  0.00    -0.078 A 
ATOM      4  C2  OXE d   1      -0.055  -0.481  -0.135  0.00  0.00    -0.078 A 
ATOM      5  C3  OXE d   1      -1.225  -0.023   0.463  0.00  0.00     0.003 A 
ATOM      6  C4  OXE d   1      -1.277   0.196   1.845  0.00  0.00    -0.002 A 
ATOM      7  C5  OXE d   1      -0.193  -0.149   2.659  0.00  0.00    -0.002 A 
ATOM      8  C6  OXE d   1       0.938  -0.717   2.084  0.00  0.00     0.003 A 
ENDROOT
TORSDOF 0
ENDMDL
