MODEL 1
REMARK minimizedAffinity -1.09874356
REMARK minimizedRMSD -1
REMARK  0 active torsions:
REMARK  status: ('A' for Active; 'I' for Inactive)
ROOT
ATOM      1  C2' OXE d   1      -2.351  -0.317   0.767  0.00  0.00     0.078 C 
ATOM      2  C1' OXE d   1      -0.475   0.431  -1.184  0.00  0.00     0.078 C 
ATOM      3  C1  OXE d   1       0.047  -0.110   0.124  0.00  0.00    -0.078 A 
ATOM      4  C2  OXE d   1      -0.876  -0.430   1.090  0.00  0.00    -0.078 A 
ATOM      5  C3  OXE d   1      -0.451  -0.984   2.294  0.00  0.00     0.003 A 
ATOM      6  C4  OXE d   1       0.915  -1.076   2.588  0.00  0.00    -0.002 A 
ATOM      7  C5  OXE d   1       1.873  -0.719   1.633  0.00  0.00    -0.002 A 
ATOM      8  C6  OXE d   1       1.456  -0.275   0.383  0.00  0.00     0.003 A 
ENDROOT
TORSDOF 0
ENDMDL
