MODEL 1
REMARK minimizedAffinity -2.69656539
REMARK minimizedRMSD -1
REMARK  0 active torsions:
REMARK  status: ('A' for Active; 'I' for Inactive)
ROOT
ATOM      1  C2' OXE d   1       0.880  -1.100  -1.033  0.00  0.00     0.078 C 
ATOM      2  C1' OXE d   1       3.312  -2.288  -0.288  0.00  0.00     0.078 C 
ATOM      3  C1  OXE d   1       2.454  -1.698   0.803  0.00  0.00    -0.078 A 
ATOM      4  C2  OXE d   1       1.287  -1.077   0.424  0.00  0.00    -0.078 A 
ATOM      5  C3  OXE d   1       0.432  -0.564   1.396  0.00  0.00     0.003 A 
ATOM      6  C4  OXE d   1       0.822  -0.538   2.740  0.00  0.00    -0.002 A 
ATOM      7  C5  OXE d   1       2.024  -1.129   3.143  0.00  0.00    -0.002 A 
ATOM      8  C6  OXE d   1       2.830  -1.750   2.194  0.00  0.00     0.003 A 
ENDROOT
TORSDOF 0
ENDMDL
