MODEL 1
REMARK minimizedAffinity -3.19110847
REMARK minimizedRMSD -1
REMARK  0 active torsions:
REMARK  status: ('A' for Active; 'I' for Inactive)
ROOT
ATOM      1  C2' OXE d   1      -0.629   0.766  -1.246  0.00  0.00     0.078 C 
ATOM      2  C1' OXE d   1       1.720  -0.729  -0.885  0.00  0.00     0.078 C 
ATOM      3  C1  OXE d   1       0.889  -0.417   0.335  0.00  0.00    -0.078 A 
ATOM      4  C2  OXE d   1      -0.234   0.354   0.156  0.00  0.00    -0.078 A 
ATOM      5  C3  OXE d   1      -1.065   0.625   1.239  0.00  0.00     0.003 A 
ATOM      6  C4  OXE d   1      -0.687   0.249   2.533  0.00  0.00    -0.002 A 
ATOM      7  C5  OXE d   1       0.473  -0.504   2.744  0.00  0.00    -0.002 A 
ATOM      8  C6  OXE d   1       1.248  -0.881   1.653  0.00  0.00     0.003 A 
ENDROOT
TORSDOF 0
ENDMDL
