MODEL 1
REMARK minimizedAffinity -1.18524957
REMARK minimizedRMSD -1
REMARK  0 active torsions:
REMARK  status: ('A' for Active; 'I' for Inactive)
ROOT
ATOM      1  C   UNL d   1      -2.555  -1.062  -0.821  0.00  0.00    -0.002 A 
ATOM      2  C1  UNL d   1      -2.358  -1.011   0.552  0.00  0.00     0.010 A 
ATOM      3  C2  UNL d   1      -1.166  -0.512   1.080  0.00  0.00     0.041 A 
ATOM      4  C3  UNL d   1      -0.166  -0.058   0.198  0.00  0.00    -0.075 A 
ATOM      5  S   UNL d   1       1.373   0.595   0.618  0.00  0.00     0.015 SA
ATOM      6  C4  UNL d   1       1.805   0.822  -1.015  0.00  0.00     0.022 A 
ATOM      7  C5  UNL d   1       0.811   0.415  -1.873  0.00  0.00     0.026 A 
ATOM      8  C6  UNL d   1      -0.342  -0.099  -1.188  0.00  0.00    -0.082 A 
ATOM      9  C7  UNL d   1      -1.561  -0.612  -1.693  0.00  0.00     0.045 A 
ENDROOT
TORSDOF 0
ENDMDL
