MODEL 1
REMARK minimizedAffinity -1.3743571
REMARK minimizedRMSD -1
REMARK  0 active torsions:
REMARK  status: ('A' for Active; 'I' for Inactive)
ROOT
ATOM      1  C   UNL d   1       3.419   2.588   1.535  0.00  0.00    -0.002 A 
ATOM      2  C1  UNL d   1       3.696   2.748   0.184  0.00  0.00     0.010 A 
ATOM      3  C2  UNL d   1       2.932   2.087  -0.780  0.00  0.00     0.041 A 
ATOM      4  C3  UNL d   1       1.874   1.257  -0.360  0.00  0.00    -0.075 A 
ATOM      5  S   UNL d   1       0.804   0.349  -1.362  0.00  0.00     0.015 SA
ATOM      6  C4  UNL d   1      -0.045  -0.271  -0.021  0.00  0.00     0.022 A 
ATOM      7  C5  UNL d   1       0.462   0.192   1.170  0.00  0.00     0.026 A 
ATOM      8  C6  UNL d   1       1.576   1.081   0.994  0.00  0.00    -0.082 A 
ATOM      9  C7  UNL d   1       2.369   1.764   1.947  0.00  0.00     0.045 A 
ENDROOT
TORSDOF 0
ENDMDL
