MODEL 1
REMARK minimizedAffinity -2.77487373
REMARK minimizedRMSD -1
REMARK  0 active torsions:
REMARK  status: ('A' for Active; 'I' for Inactive)
ROOT
ATOM      1  C   UNL d   1      -2.865  -0.572  -0.570  0.00  0.00    -0.002 A 
ATOM      2  C1  UNL d   1      -2.720  -0.573   0.810  0.00  0.00     0.010 A 
ATOM      3  C2  UNL d   1      -1.481  -0.305   1.395  0.00  0.00     0.041 A 
ATOM      4  C3  UNL d   1      -0.379  -0.032   0.561  0.00  0.00    -0.075 A 
ATOM      5  S   UNL d   1       1.234   0.325   1.054  0.00  0.00     0.015 SA
ATOM      6  C4  UNL d   1       1.770   0.488  -0.556  0.00  0.00     0.022 A 
ATOM      7  C5  UNL d   1       0.756   0.278  -1.461  0.00  0.00     0.026 A 
ATOM      8  C6  UNL d   1      -0.500  -0.024  -0.832  0.00  0.00    -0.082 A 
ATOM      9  C7  UNL d   1      -1.769  -0.301  -1.394  0.00  0.00     0.045 A 
ENDROOT
TORSDOF 0
ENDMDL
