MODEL 1
REMARK minimizedAffinity -0.087331526
REMARK minimizedRMSD -1
REMARK  0 active torsions:
REMARK  status: ('A' for Active; 'I' for Inactive)
ROOT
ATOM      1  C   UNL d   1       0.983   0.267   0.673  0.00  0.00    -0.002 A 
ATOM      2  C1  UNL d   1       1.163   0.214  -0.702  0.00  0.00     0.010 A 
ATOM      3  C2  UNL d   1       0.124  -0.199  -1.538  0.00  0.00     0.041 A 
ATOM      4  C3  UNL d   1      -1.111  -0.560  -0.965  0.00  0.00    -0.075 A 
ATOM      5  S   UNL d   1      -2.525  -1.095  -1.793  0.00  0.00     0.015 SA
ATOM      6  C4  UNL d   1      -3.401  -1.265  -0.341  0.00  0.00     0.022 A 
ATOM      7  C5  UNL d   1      -2.649  -0.926   0.758  0.00  0.00     0.026 A 
ATOM      8  C6  UNL d   1      -1.316  -0.514   0.417  0.00  0.00    -0.082 A 
ATOM      9  C7  UNL d   1      -0.243  -0.091   1.239  0.00  0.00     0.045 A 
ENDROOT
TORSDOF 0
ENDMDL
