MODEL 1
REMARK minimizedAffinity -1.18093586
REMARK minimizedRMSD -1
REMARK  0 active torsions:
REMARK  status: ('A' for Active; 'I' for Inactive)
ROOT
ATOM      1  C   UNL d   1      -3.355  -1.099  -0.502  0.00  0.00    -0.002 A 
ATOM      2  C1  UNL d   1      -3.030  -1.303   0.831  0.00  0.00     0.010 A 
ATOM      3  C2  UNL d   1      -1.740  -1.038   1.297  0.00  0.00     0.041 A 
ATOM      4  C3  UNL d   1      -0.774  -0.557   0.391  0.00  0.00    -0.075 A 
ATOM      5  S   UNL d   1       0.868  -0.163   0.736  0.00  0.00     0.015 SA
ATOM      6  C4  UNL d   1       1.177   0.287  -0.879  0.00  0.00     0.022 A 
ATOM      7  C5  UNL d   1       0.066   0.146  -1.675  0.00  0.00     0.026 A 
ATOM      8  C6  UNL d   1      -1.078  -0.343  -0.956  0.00  0.00    -0.082 A 
ATOM      9  C7  UNL d   1      -2.393  -0.622  -1.398  0.00  0.00     0.045 A 
ENDROOT
TORSDOF 0
ENDMDL
