MODEL 1
REMARK minimizedAffinity -0.940207422
REMARK minimizedRMSD -1
REMARK  0 active torsions:
REMARK  status: ('A' for Active; 'I' for Inactive)
ROOT
ATOM      1  C   UNL d   1      -2.622  -0.065  -0.878  0.00  0.00    -0.002 A 
ATOM      2  C1  UNL d   1      -1.869   0.643  -1.804  0.00  0.00     0.010 A 
ATOM      3  C2  UNL d   1      -0.494   0.809  -1.623  0.00  0.00     0.041 A 
ATOM      4  C3  UNL d   1       0.117   0.245  -0.486  0.00  0.00    -0.075 A 
ATOM      5  S   UNL d   1       1.785   0.320  -0.057  0.00  0.00     0.015 SA
ATOM      6  C4  UNL d   1       1.537  -0.587   1.364  0.00  0.00     0.022 A 
ATOM      7  C5  UNL d   1       0.220  -0.946   1.524  0.00  0.00     0.026 A 
ATOM      8  C6  UNL d   1      -0.621  -0.473   0.460  0.00  0.00    -0.082 A 
ATOM      9  C7  UNL d   1      -2.012  -0.623   0.248  0.00  0.00     0.045 A 
ENDROOT
TORSDOF 0
ENDMDL
