MODEL 1
REMARK minimizedAffinity -2.6950376
REMARK minimizedRMSD -1
REMARK  0 active torsions:
REMARK  status: ('A' for Active; 'I' for Inactive)
ROOT
ATOM      1  C   UNL d   1      -2.847  -0.552  -0.561  0.00  0.00    -0.002 A 
ATOM      2  C1  UNL d   1      -2.702  -0.723   0.809  0.00  0.00     0.010 A 
ATOM      3  C2  UNL d   1      -1.444  -0.633   1.407  0.00  0.00     0.041 A 
ATOM      4  C3  UNL d   1      -0.323  -0.363   0.598  0.00  0.00    -0.075 A 
ATOM      5  S   UNL d   1       1.316  -0.207   1.111  0.00  0.00     0.015 SA
ATOM      6  C4  UNL d   1       1.863   0.091  -0.475  0.00  0.00     0.022 A 
ATOM      7  C5  UNL d   1       0.834   0.075  -1.387  0.00  0.00     0.026 A 
ATOM      8  C6  UNL d   1      -0.443  -0.186  -0.783  0.00  0.00    -0.082 A 
ATOM      9  C7  UNL d   1      -1.732  -0.285  -1.360  0.00  0.00     0.045 A 
ENDROOT
TORSDOF 0
ENDMDL
