MODEL 1
REMARK minimizedAffinity 4.97156906
REMARK minimizedRMSD -1
REMARK  0 active torsions:
REMARK  status: ('A' for Active; 'I' for Inactive)
ROOT
ATOM      1  C   UNL d   1      -3.910   5.933   1.062  0.00  0.00    -0.002 A 
ATOM      2  C1  UNL d   1      -5.297   5.970   1.072  0.00  0.00     0.010 A 
ATOM      3  C2  UNL d   1      -5.999   5.955   2.279  0.00  0.00     0.041 A 
ATOM      4  C3  UNL d   1      -5.277   5.902   3.487  0.00  0.00    -0.075 A 
ATOM      5  S   UNL d   1      -5.924   5.876   5.085  0.00  0.00     0.015 SA
ATOM      6  C4  UNL d   1      -4.375   5.815   5.792  0.00  0.00     0.022 A 
ATOM      7  C5  UNL d   1      -3.376   5.814   4.846  0.00  0.00     0.026 A 
ATOM      8  C6  UNL d   1      -3.880   5.865   3.503  0.00  0.00    -0.082 A 
ATOM      9  C7  UNL d   1      -3.197   5.881   2.263  0.00  0.00     0.045 A 
ENDROOT
TORSDOF 0
ENDMDL
