MODEL 1
REMARK minimizedAffinity -1.2640425
REMARK minimizedRMSD -1
REMARK  0 active torsions:
REMARK  status: ('A' for Active; 'I' for Inactive)
ROOT
ATOM      1  C   UNL d   1       1.875  -0.750   1.126  0.00  0.00    -0.002 A 
ATOM      2  C1  UNL d   1       0.800  -1.405   1.710  0.00  0.00     0.010 A 
ATOM      3  C2  UNL d   1      -0.470  -1.340   1.134  0.00  0.00     0.041 A 
ATOM      4  C3  UNL d   1      -0.643  -0.599  -0.052  0.00  0.00    -0.075 A 
ATOM      5  S   UNL d   1      -2.107  -0.380  -0.936  0.00  0.00     0.015 SA
ATOM      6  C4  UNL d   1      -1.340   0.588  -2.110  0.00  0.00     0.022 A 
ATOM      7  C5  UNL d   1       0.000   0.750  -1.850  0.00  0.00     0.026 A 
ATOM      8  C6  UNL d   1       0.424   0.068  -0.660  0.00  0.00    -0.082 A 
ATOM      9  C7  UNL d   1       1.699  -0.017  -0.051  0.00  0.00     0.045 A 
ENDROOT
TORSDOF 0
ENDMDL
