MODEL 1
REMARK minimizedAffinity -4.06530094
REMARK minimizedRMSD -1
REMARK  0 active torsions:
REMARK  status: ('A' for Active; 'I' for Inactive)
ROOT
ATOM      1  C   UNL d   1       3.707   3.680  -1.578  0.00  0.00    -0.002 A 
ATOM      2  C1  UNL d   1       3.703   4.403  -0.393  0.00  0.00     0.010 A 
ATOM      3  C2  UNL d   1       3.091   3.888   0.751  0.00  0.00     0.041 A 
ATOM      4  C3  UNL d   1       2.478   2.622   0.685  0.00  0.00    -0.075 A 
ATOM      5  S   UNL d   1       1.667   1.791   1.960  0.00  0.00     0.015 SA
ATOM      6  C4  UNL d   1       1.307   0.457   0.963  0.00  0.00     0.022 A 
ATOM      7  C5  UNL d   1       1.786   0.624  -0.315  0.00  0.00     0.026 A 
ATOM      8  C6  UNL d   1       2.469   1.874  -0.496  0.00  0.00    -0.082 A 
ATOM      9  C7  UNL d   1       3.097   2.424  -1.639  0.00  0.00     0.045 A 
ENDROOT
TORSDOF 0
ENDMDL
