MODEL 1
REMARK minimizedAffinity -0.676767945
REMARK minimizedRMSD -1
REMARK  0 active torsions:
REMARK  status: ('A' for Active; 'I' for Inactive)
ROOT
ATOM      1  C   UNL d   1      -3.167  -0.891  -0.445  0.00  0.00    -0.002 A 
ATOM      2  C1  UNL d   1      -2.460  -1.347   0.659  0.00  0.00     0.010 A 
ATOM      3  C2  UNL d   1      -1.118  -1.003   0.834  0.00  0.00     0.041 A 
ATOM      4  C3  UNL d   1      -0.493  -0.184  -0.127  0.00  0.00    -0.075 A 
ATOM      5  S   UNL d   1       1.140   0.367  -0.120  0.00  0.00     0.015 SA
ATOM      6  C4  UNL d   1       0.938   1.220  -1.582  0.00  0.00     0.022 A 
ATOM      7  C5  UNL d   1      -0.339   1.098  -2.077  0.00  0.00     0.026 A 
ATOM      8  C6  UNL d   1      -1.185   0.288  -1.247  0.00  0.00    -0.082 A 
ATOM      9  C7  UNL d   1      -2.544  -0.079  -1.396  0.00  0.00     0.045 A 
ENDROOT
TORSDOF 0
ENDMDL
