MODEL 1
REMARK minimizedAffinity -5.02118301
REMARK minimizedRMSD -1
REMARK  0 active torsions:
REMARK  status: ('A' for Active; 'I' for Inactive)
ROOT
ATOM      1  C   UNL d   1      -3.196  -1.306  -0.365  0.00  0.00    -0.002 A 
ATOM      2  C1  UNL d   1      -2.597  -1.713   0.819  0.00  0.00     0.010 A 
ATOM      3  C2  UNL d   1      -1.340  -1.226   1.183  0.00  0.00     0.041 A 
ATOM      4  C3  UNL d   1      -0.689  -0.313   0.331  0.00  0.00    -0.075 A 
ATOM      5  S   UNL d   1       0.854   0.416   0.572  0.00  0.00     0.015 SA
ATOM      6  C4  UNL d   1       0.755   1.286  -0.890  0.00  0.00     0.022 A 
ATOM      7  C5  UNL d   1      -0.420   1.038  -1.559  0.00  0.00     0.026 A 
ATOM      8  C6  UNL d   1      -1.272   0.113  -0.866  0.00  0.00    -0.082 A 
ATOM      9  C7  UNL d   1      -2.547  -0.400  -1.209  0.00  0.00     0.045 A 
ENDROOT
TORSDOF 0
ENDMDL
