MODEL 1
REMARK minimizedAffinity -2.54225039
REMARK minimizedRMSD -1
REMARK  0 active torsions:
REMARK  status: ('A' for Active; 'I' for Inactive)
ROOT
ATOM      1  C   UNL d   1       1.098   0.307   0.650  0.00  0.00    -0.002 A 
ATOM      2  C1  UNL d   1       1.347  -0.044  -0.670  0.00  0.00     0.010 A 
ATOM      3  C2  UNL d   1       0.298  -0.393  -1.522  0.00  0.00     0.041 A 
ATOM      4  C3  UNL d   1      -1.019  -0.382  -1.021  0.00  0.00    -0.075 A 
ATOM      5  S   UNL d   1      -2.461  -0.772  -1.882  0.00  0.00     0.015 SA
ATOM      6  C4  UNL d   1      -3.442  -0.482  -0.519  0.00  0.00     0.022 A 
ATOM      7  C5  UNL d   1      -2.704  -0.096   0.575  0.00  0.00     0.026 A 
ATOM      8  C6  UNL d   1      -1.295  -0.032   0.303  0.00  0.00    -0.082 A 
ATOM      9  C7  UNL d   1      -0.210   0.316   1.143  0.00  0.00     0.045 A 
ENDROOT
TORSDOF 0
ENDMDL
