MODEL 1
REMARK minimizedAffinity -4.25270891
REMARK minimizedRMSD -1
REMARK  3 active torsions:
REMARK  status: ('A' for Active; 'I' for Inactive)
REMARK    1  A    between atoms: C3'_2  and  C2'_3 
REMARK    2  A    between atoms: C2'_3  and  C1'_4 
REMARK    3  A    between atoms: C1'_4  and  C1_5 
ROOT
ATOM      1  C1  N4B d   1       0.550   0.564  -0.497  0.00  0.00    -0.075 A 
ATOM      2  C2  N4B d   1       1.555   1.530  -0.270  0.00  0.00     0.002 A 
ATOM      3  C3  N4B d   1       2.836   1.131   0.023  0.00  0.00     0.002 A 
ATOM      4  C4  N4B d   1       3.131  -0.221   0.113  0.00  0.00    -0.004 A 
ATOM      5  C5  N4B d   1       2.160  -1.148  -0.133  0.00  0.00     0.002 A 
ATOM      6  C6  N4B d   1       0.869  -0.762  -0.432  0.00  0.00     0.002 A 
ENDROOT
BRANCH   1   7
ATOM      7  C1' N4B d   1      -0.884   0.951  -0.736  0.00  0.00     0.057 C 
BRANCH   7   8
ATOM      8  C2' N4B d   1      -1.746   0.405   0.399  0.00  0.00     0.009 C 
BRANCH   8   9
ATOM      9  C3' N4B d   1      -3.044   1.179   0.549  0.00  0.00     0.004 C 
ATOM     10  C4' N4B d   1      -3.571   1.162   1.953  0.00  0.00     0.003 C 
ENDBRANCH   8   9
ENDBRANCH   7   8
ENDBRANCH   1   7
TORSDOF 3
ENDMDL
