MODEL 1
REMARK minimizedAffinity -3.67001152
REMARK minimizedRMSD -1
REMARK  3 active torsions:
REMARK  status: ('A' for Active; 'I' for Inactive)
REMARK    1  A    between atoms: C3'_2  and  C2'_3 
REMARK    2  A    between atoms: C2'_3  and  C1'_4 
REMARK    3  A    between atoms: C1'_4  and  C1_5 
ROOT
ATOM      1  C1  N4B d   1      -0.577  -0.453  -0.739  0.00  0.00    -0.075 A 
ATOM      2  C2  N4B d   1      -0.164  -1.802  -0.803  0.00  0.00     0.002 A 
ATOM      3  C3  N4B d   1       1.174  -2.111  -0.804  0.00  0.00     0.002 A 
ATOM      4  C4  N4B d   1       2.114  -1.091  -0.760  0.00  0.00    -0.004 A 
ATOM      5  C5  N4B d   1       1.706   0.208  -0.672  0.00  0.00     0.002 A 
ATOM      6  C6  N4B d   1       0.365   0.533  -0.667  0.00  0.00     0.002 A 
ENDROOT
BRANCH   1   7
ATOM      7  C1' N4B d   1      -2.027  -0.062  -0.822  0.00  0.00     0.057 C 
BRANCH   7   8
ATOM      8  C2' N4B d   1      -2.454   0.563   0.503  0.00  0.00     0.009 C 
BRANCH   8   9
ATOM      9  C3' N4B d   1      -3.915   0.289   0.816  0.00  0.00     0.004 C 
ATOM     10  C4' N4B d   1      -4.337   0.838   2.146  0.00  0.00     0.003 C 
ENDBRANCH   8   9
ENDBRANCH   7   8
ENDBRANCH   1   7
TORSDOF 3
ENDMDL
