MODEL 1
REMARK minimizedAffinity -5.60399008
REMARK minimizedRMSD -1
REMARK  3 active torsions:
REMARK  status: ('A' for Active; 'I' for Inactive)
REMARK    1  A    between atoms: C3'_2  and  C2'_3 
REMARK    2  A    between atoms: C2'_3  and  C1'_4 
REMARK    3  A    between atoms: C1'_4  and  C1_5 
ROOT
ATOM      1  C1  N4B d   1       0.825   0.200   0.090  0.00  0.00    -0.075 A 
ATOM      2  C2  N4B d   1       1.625   1.364   0.136  0.00  0.00     0.002 A 
ATOM      3  C3  N4B d   1       2.991   1.261   0.049  0.00  0.00     0.002 A 
ATOM      4  C4  N4B d   1       3.580   0.011  -0.064  0.00  0.00    -0.004 A 
ATOM      5  C5  N4B d   1       2.799  -1.106  -0.134  0.00  0.00     0.002 A 
ATOM      6  C6  N4B d   1       1.424  -1.018  -0.052  0.00  0.00     0.002 A 
ENDROOT
BRANCH   1   7
ATOM      7  C1' N4B d   1      -0.668   0.255   0.267  0.00  0.00     0.057 C 
BRANCH   7   8
ATOM      8  C2' N4B d   1      -1.266   1.160  -0.806  0.00  0.00     0.009 C 
BRANCH   8   9
ATOM      9  C3' N4B d   1      -2.784   1.102  -0.815  0.00  0.00     0.004 C 
ATOM     10  C4' N4B d   1      -3.384   1.370   0.533  0.00  0.00     0.003 C 
ENDBRANCH   8   9
ENDBRANCH   7   8
ENDBRANCH   1   7
TORSDOF 3
ENDMDL
