MODEL 1
REMARK minimizedAffinity -3.03560996
REMARK minimizedRMSD -1
REMARK  3 active torsions:
REMARK  status: ('A' for Active; 'I' for Inactive)
REMARK    1  A    between atoms: C3'_2  and  C2'_3 
REMARK    2  A    between atoms: C2'_3  and  C1'_4 
REMARK    3  A    between atoms: C1'_4  and  C1_5 
ROOT
ATOM      1  C1  N4B d   1      -0.224   0.662  -0.441  0.00  0.00    -0.075 A 
ATOM      2  C2  N4B d   1       1.090   0.952  -0.011  0.00  0.00     0.002 A 
ATOM      3  C3  N4B d   1       2.025  -0.051   0.064  0.00  0.00     0.002 A 
ATOM      4  C4  N4B d   1       1.666  -1.350  -0.266  0.00  0.00    -0.004 A 
ATOM      5  C5  N4B d   1       0.402  -1.616  -0.704  0.00  0.00     0.002 A 
ATOM      6  C6  N4B d   1      -0.547  -0.617  -0.788  0.00  0.00     0.002 A 
ENDROOT
BRANCH   1   7
ATOM      7  C1' N4B d   1      -1.303   1.710  -0.457  0.00  0.00     0.057 C 
BRANCH   7   8
ATOM      8  C2' N4B d   1      -2.666   1.024  -0.466  0.00  0.00     0.009 C 
BRANCH   8   9
ATOM      9  C3' N4B d   1      -3.478   1.358   0.773  0.00  0.00     0.004 C 
ATOM     10  C4' N4B d   1      -2.752   2.270   1.716  0.00  0.00     0.003 C 
ENDBRANCH   8   9
ENDBRANCH   7   8
ENDBRANCH   1   7
TORSDOF 3
ENDMDL
