MODEL 1
REMARK minimizedAffinity -2.1032939
REMARK minimizedRMSD -1
REMARK  1 active torsions:
REMARK  status: ('A' for Active; 'I' for Inactive)
REMARK    1  A    between atoms: C1_2  and  C2_3 
ROOT
ATOM      1  C2  UNL d   1       1.211   2.371  -0.532  0.00  0.00    -0.077 A 
ATOM      2  C3  UNL d   1       0.577   1.448   0.311  0.00  0.00     0.002 A 
ATOM      3  C4  UNL d   1       0.751   0.076   0.114  0.00  0.00     0.002 A 
ATOM      4  C5  UNL d   1       1.561  -0.383  -0.922  0.00  0.00    -0.004 A 
ATOM      5  C6  UNL d   1       2.194   0.527  -1.767  0.00  0.00     0.002 A 
ATOM      6  C7  UNL d   1       2.021   1.898  -1.572  0.00  0.00     0.002 A 
ENDROOT
BRANCH   1   7
ATOM      7  C1  UNL d   1       1.065   3.851  -0.290  0.00  0.00     0.055 C 
ATOM      8  C   UNL d   1       1.264   4.195   1.179  0.00  0.00     0.019 C 
ENDBRANCH   1   7
TORSDOF 1
ENDMDL
