MODEL 1
REMARK minimizedAffinity 1.06919765
REMARK minimizedRMSD -1
REMARK  1 active torsions:
REMARK  status: ('A' for Active; 'I' for Inactive)
REMARK    1  A    between atoms: C1_2  and  C2_3 
ROOT
ATOM      1  C2  UNL d   1       1.178   2.353  -1.002  0.00  0.00    -0.077 A 
ATOM      2  C3  UNL d   1       0.631   1.519  -0.017  0.00  0.00     0.002 A 
ATOM      3  C4  UNL d   1       1.013   0.179   0.067  0.00  0.00     0.002 A 
ATOM      4  C5  UNL d   1       1.946  -0.338  -0.829  0.00  0.00    -0.004 A 
ATOM      5  C6  UNL d   1       2.495   0.481  -1.814  0.00  0.00     0.002 A 
ATOM      6  C7  UNL d   1       2.113   1.821  -1.900  0.00  0.00     0.002 A 
ENDROOT
BRANCH   1   7
ATOM      7  C1  UNL d   1       0.805   3.811  -1.063  0.00  0.00     0.055 C 
ATOM      8  C   UNL d   1       1.320   4.565   0.154  0.00  0.00     0.019 C 
ENDBRANCH   1   7
TORSDOF 1
ENDMDL
