MODEL 1
REMARK minimizedAffinity -5.79805613
REMARK minimizedRMSD -1
REMARK  1 active torsions:
REMARK  status: ('A' for Active; 'I' for Inactive)
REMARK    1  A    between atoms: C1_2  and  C2_3 
ROOT
ATOM      1  C2  UNL d   1       1.187   0.798  -0.999  0.00  0.00    -0.077 A 
ATOM      2  C3  UNL d   1       1.463   1.971  -1.715  0.00  0.00     0.002 A 
ATOM      3  C4  UNL d   1       1.236   3.221  -1.135  0.00  0.00     0.002 A 
ATOM      4  C5  UNL d   1       0.737   3.309   0.162  0.00  0.00    -0.004 A 
ATOM      5  C6  UNL d   1       0.457   2.148   0.881  0.00  0.00     0.002 A 
ATOM      6  C7  UNL d   1       0.682   0.898   0.304  0.00  0.00     0.002 A 
ENDROOT
BRANCH   1   7
ATOM      7  C1  UNL d   1       1.477  -0.551  -1.604  0.00  0.00     0.055 C 
ATOM      8  C   UNL d   1       2.173  -1.467  -0.607  0.00  0.00     0.019 C 
ENDBRANCH   1   7
TORSDOF 1
ENDMDL
