MODEL 1
REMARK minimizedAffinity -2.54034686
REMARK minimizedRMSD -1
REMARK  1 active torsions:
REMARK  status: ('A' for Active; 'I' for Inactive)
REMARK    1  A    between atoms: C1_2  and  C2_3 
ROOT
ATOM      1  C2  UNL d   1       1.198   2.627  -1.156  0.00  0.00    -0.077 A 
ATOM      2  C3  UNL d   1       0.958   2.378   0.203  0.00  0.00     0.002 A 
ATOM      3  C4  UNL d   1       0.854   1.068   0.673  0.00  0.00     0.002 A 
ATOM      4  C5  UNL d   1       0.992  -0.003  -0.207  0.00  0.00    -0.004 A 
ATOM      5  C6  UNL d   1       1.230   0.234  -1.560  0.00  0.00     0.002 A 
ATOM      6  C7  UNL d   1       1.333   1.543  -2.033  0.00  0.00     0.002 A 
ENDROOT
BRANCH   1   7
ATOM      7  C1  UNL d   1       1.360   4.038  -1.657  0.00  0.00     0.055 C 
ATOM      8  C   UNL d   1       1.829   4.969  -0.548  0.00  0.00     0.019 C 
ENDBRANCH   1   7
TORSDOF 1
ENDMDL
