MODEL 1
REMARK minimizedAffinity -0.6954512
REMARK minimizedRMSD -1
REMARK  1 active torsions:
REMARK  status: ('A' for Active; 'I' for Inactive)
REMARK    1  A    between atoms: C1_2  and  C2_3 
ROOT
ATOM      1  C2  UNL d   1       1.652   2.604  -1.345  0.00  0.00    -0.077 A 
ATOM      2  C3  UNL d   1       1.324   1.423  -2.025  0.00  0.00     0.002 A 
ATOM      3  C4  UNL d   1       0.979   0.271  -1.315  0.00  0.00     0.002 A 
ATOM      4  C5  UNL d   1       0.954   0.291   0.078  0.00  0.00    -0.004 A 
ATOM      5  C6  UNL d   1       1.280   1.460   0.764  0.00  0.00     0.002 A 
ATOM      6  C7  UNL d   1       1.626   2.612   0.055  0.00  0.00     0.002 A 
ENDROOT
BRANCH   1   7
ATOM      7  C1  UNL d   1       1.976   3.860  -2.110  0.00  0.00     0.055 C 
ATOM      8  C   UNL d   1       1.944   5.083  -1.205  0.00  0.00     0.019 C 
ENDBRANCH   1   7
TORSDOF 1
ENDMDL
