MODEL 1
REMARK minimizedAffinity -2.38518453
REMARK minimizedRMSD -1
REMARK  1 active torsions:
REMARK  status: ('A' for Active; 'I' for Inactive)
REMARK    1  A    between atoms: C1_2  and  C2_3 
ROOT
ATOM      1  C2  UNL d   1       1.256   1.070  -0.456  0.00  0.00    -0.077 A 
ATOM      2  C3  UNL d   1       1.287   1.144  -1.855  0.00  0.00     0.002 A 
ATOM      3  C4  UNL d   1       1.311   2.384  -2.496  0.00  0.00     0.002 A 
ATOM      4  C5  UNL d   1       1.309   3.558  -1.746  0.00  0.00    -0.004 A 
ATOM      5  C6  UNL d   1       1.276   3.495  -0.353  0.00  0.00     0.002 A 
ATOM      6  C7  UNL d   1       1.251   2.256   0.289  0.00  0.00     0.002 A 
ENDROOT
BRANCH   1   7
ATOM      7  C1  UNL d   1       1.280  -0.267   0.238  0.00  0.00     0.055 C 
ATOM      8  C   UNL d   1       2.679  -0.611   0.729  0.00  0.00     0.019 C 
ENDBRANCH   1   7
TORSDOF 1
ENDMDL
