MODEL 1
REMARK minimizedAffinity 2.05679965
REMARK minimizedRMSD -1
REMARK  1 active torsions:
REMARK  status: ('A' for Active; 'I' for Inactive)
REMARK    1  A    between atoms: C1_2  and  C2_3 
ROOT
ATOM      1  C2  UNL d   1       1.787   2.683  -0.392  0.00  0.00    -0.077 A 
ATOM      2  C3  UNL d   1       1.833   3.949  -0.993  0.00  0.00     0.002 A 
ATOM      3  C4  UNL d   1       1.716   5.104  -0.218  0.00  0.00     0.002 A 
ATOM      4  C5  UNL d   1       1.558   5.005   1.163  0.00  0.00    -0.004 A 
ATOM      5  C6  UNL d   1       1.510   3.751   1.771  0.00  0.00     0.002 A 
ATOM      6  C7  UNL d   1       1.625   2.595   0.997  0.00  0.00     0.002 A 
ENDROOT
BRANCH   1   7
ATOM      7  C1  UNL d   1       1.962   1.437  -1.220  0.00  0.00     0.055 C 
ATOM      8  C   UNL d   1       0.949   1.381  -2.355  0.00  0.00     0.019 C 
ENDBRANCH   1   7
TORSDOF 1
ENDMDL
