MODEL 1
REMARK minimizedAffinity 4.09352636
REMARK minimizedRMSD -1
REMARK  1 active torsions:
REMARK  status: ('A' for Active; 'I' for Inactive)
REMARK    1  A    between atoms: C1_2  and  C2_3 
ROOT
ATOM      1  C2  UNL d   1       1.630   3.610  -1.880  0.00  0.00    -0.077 A 
ATOM      2  C3  UNL d   1       0.235   3.490  -1.943  0.00  0.00     0.002 A 
ATOM      3  C4  UNL d   1      -0.363   2.229  -1.999  0.00  0.00     0.002 A 
ATOM      4  C5  UNL d   1       0.425   1.081  -1.989  0.00  0.00    -0.004 A 
ATOM      5  C6  UNL d   1       1.814   1.190  -1.929  0.00  0.00     0.002 A 
ATOM      6  C7  UNL d   1       2.414   2.449  -1.874  0.00  0.00     0.002 A 
ENDROOT
BRANCH   1   7
ATOM      7  C1  UNL d   1       2.275   4.967  -1.770  0.00  0.00     0.055 C 
ATOM      8  C   UNL d   1       1.887   5.661  -0.472  0.00  0.00     0.019 C 
ENDBRANCH   1   7
TORSDOF 1
ENDMDL
