MODEL 1
REMARK minimizedAffinity 1.43945062
REMARK minimizedRMSD -1
REMARK  1 active torsions:
REMARK  status: ('A' for Active; 'I' for Inactive)
REMARK    1  A    between atoms: C1_2  and  C2_3 
ROOT
ATOM      1  C2  UNL d   1       0.902  -0.851  -1.048  0.00  0.00    -0.077 A 
ATOM      2  C3  UNL d   1       1.601  -0.759   0.163  0.00  0.00     0.002 A 
ATOM      3  C4  UNL d   1       1.812   0.484   0.764  0.00  0.00     0.002 A 
ATOM      4  C5  UNL d   1       1.323   1.642   0.164  0.00  0.00    -0.004 A 
ATOM      5  C6  UNL d   1       0.628   1.560  -1.042  0.00  0.00     0.002 A 
ATOM      6  C7  UNL d   1       0.417   0.320  -1.645  0.00  0.00     0.002 A 
ENDROOT
BRANCH   1   7
ATOM      7  C1  UNL d   1       0.631  -2.195  -1.672  0.00  0.00     0.055 C 
ATOM      8  C   UNL d   1       0.420  -3.266  -0.612  0.00  0.00     0.019 C 
ENDBRANCH   1   7
TORSDOF 1
ENDMDL
