MODEL 1
REMARK minimizedAffinity -2.16867685
REMARK minimizedRMSD -1
REMARK  1 active torsions:
REMARK  status: ('A' for Active; 'I' for Inactive)
REMARK    1  A    between atoms: C1_2  and  C2_3 
ROOT
ATOM      1  C2  UNL d   1       1.618   2.453  -0.783  0.00  0.00    -0.077 A 
ATOM      2  C3  UNL d   1       1.833   3.553  -1.625  0.00  0.00     0.002 A 
ATOM      3  C4  UNL d   1       1.894   4.844  -1.099  0.00  0.00     0.002 A 
ATOM      4  C5  UNL d   1       1.747   5.048   0.271  0.00  0.00    -0.004 A 
ATOM      5  C6  UNL d   1       1.531   3.961   1.118  0.00  0.00     0.002 A 
ATOM      6  C7  UNL d   1       1.468   2.669   0.593  0.00  0.00     0.002 A 
ENDROOT
BRANCH   1   7
ATOM      7  C1  UNL d   1       1.600   1.054  -1.342  0.00  0.00     0.055 C 
ATOM      8  C   UNL d   1       2.341   0.085  -0.433  0.00  0.00     0.019 C 
ENDBRANCH   1   7
TORSDOF 1
ENDMDL
