MODEL 1
REMARK minimizedAffinity -3.64795589
REMARK minimizedRMSD -1
REMARK  1 active torsions:
REMARK  status: ('A' for Active; 'I' for Inactive)
REMARK    1  A    between atoms: C1_2  and  C2_3 
ROOT
ATOM      1  C2  UNL d   1       1.214   1.812  -0.740  0.00  0.00    -0.077 A 
ATOM      2  C3  UNL d   1       1.533   2.698  -1.779  0.00  0.00     0.002 A 
ATOM      3  C4  UNL d   1       1.644   4.067  -1.530  0.00  0.00     0.002 A 
ATOM      4  C5  UNL d   1       1.443   4.562  -0.243  0.00  0.00    -0.004 A 
ATOM      5  C6  UNL d   1       1.123   3.689   0.796  0.00  0.00     0.002 A 
ATOM      6  C7  UNL d   1       1.010   2.320   0.549  0.00  0.00     0.002 A 
ENDROOT
BRANCH   1   7
ATOM      7  C1  UNL d   1       1.141   0.329  -0.997  0.00  0.00     0.055 C 
ATOM      8  C   UNL d   1       2.016  -0.445  -0.021  0.00  0.00     0.019 C 
ENDBRANCH   1   7
TORSDOF 1
ENDMDL
