MODEL 1
REMARK minimizedAffinity -4.39360714
REMARK minimizedRMSD -1
REMARK  0 active torsions:
REMARK  status: ('A' for Active; 'I' for Inactive)
ROOT
ATOM      1  C1  DEN d   1      -0.546   0.240  -0.528  0.00  0.00     0.130 A 
ATOM      2  C2  DEN d   1       0.889   0.504  -0.457  0.00  0.00    -0.031 A 
ATOM      3  C3  DEN d   1       1.295   0.447   0.961  0.00  0.00     0.027 A 
ATOM      4  C4  DEN d   1      -0.150  -0.028   3.044  0.00  0.00     0.027 A 
ATOM      5  C5  DEN d   1      -1.426  -0.299   3.488  0.00  0.00    -0.003 A 
ATOM      6  C6  DEN d   1      -2.495  -0.375   2.634  0.00  0.00     0.001 A 
ATOM      7  C7  DEN d   1      -2.300  -0.223   1.287  0.00  0.00     0.017 A 
ATOM      8  C8  DEN d   1      -1.018   0.058   0.833  0.00  0.00    -0.094 A 
ATOM      9  C9  DEN d   1       0.052   0.119   1.711  0.00  0.00    -0.072 A 
ENDROOT
TORSDOF 0
ENDMDL
