MODEL 1
REMARK minimizedAffinity -5.11556578
REMARK minimizedRMSD -1
REMARK  0 active torsions:
REMARK  status: ('A' for Active; 'I' for Inactive)
ROOT
ATOM      1  C1  DEN d   1       1.625  -1.164  -0.073  0.00  0.00     0.130 A 
ATOM      2  C2  DEN d   1       1.385  -0.921  -1.493  0.00  0.00    -0.031 A 
ATOM      3  C3  DEN d   1       0.103  -0.200  -1.623  0.00  0.00     0.027 A 
ATOM      4  C4  DEN d   1      -1.524   0.564   0.227  0.00  0.00     0.027 A 
ATOM      5  C5  DEN d   1      -1.754   0.574   1.585  0.00  0.00    -0.003 A 
ATOM      6  C6  DEN d   1      -0.899  -0.019   2.475  0.00  0.00     0.001 A 
ATOM      7  C7  DEN d   1       0.251  -0.609   2.021  0.00  0.00     0.017 A 
ATOM      8  C8  DEN d   1       0.487  -0.630   0.653  0.00  0.00    -0.094 A 
ATOM      9  C9  DEN d   1      -0.384  -0.014  -0.230  0.00  0.00    -0.072 A 
ENDROOT
TORSDOF 0
ENDMDL
