MODEL 1
REMARK minimizedAffinity -2.47626543
REMARK minimizedRMSD -1
REMARK  0 active torsions:
REMARK  status: ('A' for Active; 'I' for Inactive)
ROOT
ATOM      1  C1  DEN d   1       0.533  -0.031  -0.784  0.00  0.00     0.130 A 
ATOM      2  C2  DEN d   1       0.252  -1.339  -1.371  0.00  0.00    -0.031 A 
ATOM      3  C3  DEN d   1      -0.314  -2.201  -0.314  0.00  0.00     0.027 A 
ATOM      4  C4  DEN d   1      -0.785  -1.640   2.159  0.00  0.00     0.027 A 
ATOM      5  C5  DEN d   1      -0.702  -0.660   3.123  0.00  0.00    -0.003 A 
ATOM      6  C6  DEN d   1      -0.173   0.577   2.864  0.00  0.00     0.001 A 
ATOM      7  C7  DEN d   1       0.250   0.882   1.597  0.00  0.00     0.017 A 
ATOM      8  C8  DEN d   1       0.176  -0.104   0.621  0.00  0.00    -0.094 A 
ATOM      9  C9  DEN d   1      -0.373  -1.344   0.901  0.00  0.00    -0.072 A 
ENDROOT
TORSDOF 0
ENDMDL
