MODEL 1
REMARK minimizedAffinity -2.65122771
REMARK minimizedRMSD -1
REMARK  0 active torsions:
REMARK  status: ('A' for Active; 'I' for Inactive)
ROOT
ATOM      1  C1  DEN d   1      -0.035  -1.278   0.601  0.00  0.00     0.130 A 
ATOM      2  C2  DEN d   1       0.785  -0.569  -0.377  0.00  0.00    -0.031 A 
ATOM      3  C3  DEN d   1      -0.098   0.331  -1.147  0.00  0.00     0.027 A 
ATOM      4  C4  DEN d   1      -2.641   0.696  -0.915  0.00  0.00     0.027 A 
ATOM      5  C5  DEN d   1      -3.773   0.310  -0.231  0.00  0.00    -0.003 A 
ATOM      6  C6  DEN d   1      -3.744  -0.649   0.746  0.00  0.00     0.001 A 
ATOM      7  C7  DEN d   1      -2.551  -1.223   1.099  0.00  0.00     0.017 A 
ATOM      8  C8  DEN d   1      -1.407  -0.844   0.409  0.00  0.00    -0.094 A 
ATOM      9  C9  DEN d   1      -1.455   0.136  -0.568  0.00  0.00    -0.072 A 
ENDROOT
TORSDOF 0
ENDMDL
