MODEL 1
REMARK minimizedAffinity -0.699525476
REMARK minimizedRMSD -1
REMARK  0 active torsions:
REMARK  status: ('A' for Active; 'I' for Inactive)
ROOT
ATOM      1  C1  DEN d   1      -1.579  -0.659   2.583  0.00  0.00     0.130 A 
ATOM      2  C2  DEN d   1      -0.934   0.076   3.667  0.00  0.00    -0.031 A 
ATOM      3  C3  DEN d   1       0.208   0.820   3.098  0.00  0.00     0.027 A 
ATOM      4  C4  DEN d   1       1.032   0.908   0.656  0.00  0.00     0.027 A 
ATOM      5  C5  DEN d   1       0.812   0.440  -0.620  0.00  0.00    -0.003 A 
ATOM      6  C6  DEN d   1      -0.191  -0.447  -0.910  0.00  0.00     0.001 A 
ATOM      7  C7  DEN d   1      -1.041  -0.858   0.082  0.00  0.00     0.017 A 
ATOM      8  C8  DEN d   1      -0.821  -0.396   1.373  0.00  0.00    -0.094 A 
ATOM      9  C9  DEN d   1       0.191   0.509   1.644  0.00  0.00    -0.072 A 
ENDROOT
TORSDOF 0
ENDMDL
