MODEL 1
REMARK minimizedAffinity -5.02502871
REMARK minimizedRMSD -1
REMARK  0 active torsions:
REMARK  status: ('A' for Active; 'I' for Inactive)
ROOT
ATOM      1  C1  DEN d   1      -0.837   0.148  -1.283  0.00  0.00     0.130 A 
ATOM      2  C2  DEN d   1       0.302   0.047  -2.192  0.00  0.00    -0.031 A 
ATOM      3  C3  DEN d   1       1.488  -0.329  -1.397  0.00  0.00     0.027 A 
ATOM      4  C4  DEN d   1       1.671  -0.766   1.138  0.00  0.00     0.027 A 
ATOM      5  C5  DEN d   1       0.974  -0.791   2.326  0.00  0.00    -0.003 A 
ATOM      6  C6  DEN d   1      -0.356  -0.475   2.399  0.00  0.00     0.001 A 
ATOM      7  C7  DEN d   1      -1.043  -0.163   1.256  0.00  0.00     0.017 A 
ATOM      8  C8  DEN d   1      -0.346  -0.128   0.055  0.00  0.00    -0.094 A 
ATOM      9  C9  DEN d   1       0.996  -0.463   0.001  0.00  0.00    -0.072 A 
ENDROOT
TORSDOF 0
ENDMDL
