MODEL 1
REMARK minimizedAffinity -5.15137959
REMARK minimizedRMSD -1
REMARK  0 active torsions:
REMARK  status: ('A' for Active; 'I' for Inactive)
ROOT
ATOM      1  C1  DEN d   1      -0.913   0.777  -0.757  0.00  0.00     0.130 A 
ATOM      2  C2  DEN d   1       0.108   0.253  -1.660  0.00  0.00    -0.031 A 
ATOM      3  C3  DEN d   1       0.898  -0.753  -0.921  0.00  0.00     0.027 A 
ATOM      4  C4  DEN d   1       0.636  -1.549   1.518  0.00  0.00     0.027 A 
ATOM      5  C5  DEN d   1      -0.084  -1.386   2.681  0.00  0.00    -0.003 A 
ATOM      6  C6  DEN d   1      -1.100  -0.473   2.789  0.00  0.00     0.001 A 
ATOM      7  C7  DEN d   1      -1.455   0.279   1.701  0.00  0.00     0.017 A 
ATOM      8  C8  DEN d   1      -0.729   0.125   0.527  0.00  0.00    -0.094 A 
ATOM      9  C9  DEN d   1       0.287  -0.811   0.434  0.00  0.00    -0.072 A 
ENDROOT
TORSDOF 0
ENDMDL
