MODEL 1
REMARK minimizedAffinity -3.35826612
REMARK minimizedRMSD -1
REMARK  0 active torsions:
REMARK  status: ('A' for Active; 'I' for Inactive)
ROOT
ATOM      1  C1  DEN d   1       1.690   0.072   0.477  0.00  0.00     0.130 A 
ATOM      2  C2  DEN d   1       0.301   0.448   0.726  0.00  0.00    -0.031 A 
ATOM      3  C3  DEN d   1      -0.514  -0.039  -0.405  0.00  0.00     0.027 A 
ATOM      4  C4  DEN d   1       0.236  -1.336  -2.505  0.00  0.00     0.027 A 
ATOM      5  C5  DEN d   1       1.319  -1.874  -3.164  0.00  0.00    -0.003 A 
ATOM      6  C6  DEN d   1       2.595  -1.773  -2.677  0.00  0.00     0.001 A 
ATOM      7  C7  DEN d   1       2.815  -1.158  -1.473  0.00  0.00     0.017 A 
ATOM      8  C8  DEN d   1       1.730  -0.606  -0.806  0.00  0.00    -0.094 A 
ATOM      9  C9  DEN d   1       0.446  -0.729  -1.309  0.00  0.00    -0.072 A 
ENDROOT
TORSDOF 0
ENDMDL
