MODEL 1
REMARK minimizedAffinity -3.3146646
REMARK minimizedRMSD -1
REMARK  0 active torsions:
REMARK  status: ('A' for Active; 'I' for Inactive)
ROOT
ATOM      1  C1  DEN d   1      -1.980  -0.797   1.096  0.00  0.00     0.130 A 
ATOM      2  C2  DEN d   1      -1.680  -0.928   2.519  0.00  0.00    -0.031 A 
ATOM      3  C3  DEN d   1      -0.385  -0.267   2.776  0.00  0.00     0.027 A 
ATOM      4  C4  DEN d   1       1.174   0.946   1.117  0.00  0.00     0.027 A 
ATOM      5  C5  DEN d   1       1.350   1.305  -0.201  0.00  0.00    -0.003 A 
ATOM      6  C6  DEN d   1       0.452   0.962  -1.177  0.00  0.00     0.001 A 
ATOM      7  C7  DEN d   1      -0.686   0.277  -0.842  0.00  0.00     0.017 A 
ATOM      8  C8  DEN d   1      -0.866  -0.095   0.484  0.00  0.00    -0.094 A 
ATOM      9  C9  DEN d   1       0.047   0.272   1.458  0.00  0.00    -0.072 A 
ENDROOT
TORSDOF 0
ENDMDL
