MODEL 1
REMARK minimizedAffinity -4.50491238
REMARK minimizedRMSD -1
REMARK  0 active torsions:
REMARK  status: ('A' for Active; 'I' for Inactive)
ROOT
ATOM      1  C1  DEN d   1       0.944   0.152  -1.324  0.00  0.00     0.130 A 
ATOM      2  C2  DEN d   1      -0.224  -0.472  -1.941  0.00  0.00    -0.031 A 
ATOM      3  C3  DEN d   1      -1.188  -0.794  -0.870  0.00  0.00     0.027 A 
ATOM      4  C4  DEN d   1      -0.990  -0.385   1.669  0.00  0.00     0.027 A 
ATOM      5  C5  DEN d   1      -0.177   0.107   2.667  0.00  0.00    -0.003 A 
ATOM      6  C6  DEN d   1       1.069   0.613   2.410  0.00  0.00     0.001 A 
ATOM      7  C7  DEN d   1       1.522   0.680   1.119  0.00  0.00     0.017 A 
ATOM      8  C8  DEN d   1       0.712   0.180   0.108  0.00  0.00    -0.094 A 
ATOM      9  C9  DEN d   1      -0.550  -0.317   0.387  0.00  0.00    -0.072 A 
ENDROOT
TORSDOF 0
ENDMDL
