MODEL 1
REMARK minimizedAffinity 1.64934301
REMARK minimizedRMSD -1
REMARK  0 active torsions:
REMARK  status: ('A' for Active; 'I' for Inactive)
ROOT
ATOM      1  C1  DEN d   1       1.413   0.573   2.430  0.00  0.00     0.130 A 
ATOM      2  C2  DEN d   1       0.258   0.422   3.311  0.00  0.00    -0.031 A 
ATOM      3  C3  DEN d   1      -0.946   0.289   2.466  0.00  0.00     0.027 A 
ATOM      4  C4  DEN d   1      -1.132   0.295  -0.106  0.00  0.00     0.027 A 
ATOM      5  C5  DEN d   1      -0.424   0.407  -1.283  0.00  0.00    -0.003 A 
ATOM      6  C6  DEN d   1       0.930   0.614  -1.304  0.00  0.00     0.001 A 
ATOM      7  C7  DEN d   1       1.626   0.671  -0.125  0.00  0.00     0.017 A 
ATOM      8  C8  DEN d   1       0.918   0.567   1.065  0.00  0.00    -0.094 A 
ATOM      9  C9  DEN d   1      -0.449   0.345   1.065  0.00  0.00    -0.072 A 
ENDROOT
TORSDOF 0
ENDMDL
