MODEL 1
REMARK minimizedAffinity -2.26586819
REMARK minimizedRMSD -1
REMARK  0 active torsions:
REMARK  status: ('A' for Active; 'I' for Inactive)
ROOT
ATOM      1  C1  DEN d   1       1.078   0.830  -0.691  0.00  0.00     0.130 A 
ATOM      2  C2  DEN d   1       0.123   0.126  -1.542  0.00  0.00    -0.031 A 
ATOM      3  C3  DEN d   1      -0.839  -0.575  -0.667  0.00  0.00     0.027 A 
ATOM      4  C4  DEN d   1      -0.945  -0.632   1.909  0.00  0.00     0.027 A 
ATOM      5  C5  DEN d   1      -0.340  -0.197   3.067  0.00  0.00    -0.003 A 
ATOM      6  C6  DEN d   1       0.790   0.577   3.055  0.00  0.00     0.001 A 
ATOM      7  C7  DEN d   1       1.325   0.977   1.859  0.00  0.00     0.017 A 
ATOM      8  C8  DEN d   1       0.725   0.536   0.687  0.00  0.00    -0.094 A 
ATOM      9  C9  DEN d   1      -0.423  -0.236   0.721  0.00  0.00    -0.072 A 
ENDROOT
TORSDOF 0
ENDMDL
