MODEL 1
REMARK minimizedAffinity -4.41036129
REMARK minimizedRMSD -1
REMARK  0 active torsions:
REMARK  status: ('A' for Active; 'I' for Inactive)
ROOT
ATOM      1  C1  DEN d   1       1.613  -0.549  -0.598  0.00  0.00     0.130 A 
ATOM      2  C2  DEN d   1       0.838   0.223  -1.566  0.00  0.00    -0.031 A 
ATOM      3  C3  DEN d   1      -0.403   0.672  -0.903  0.00  0.00     0.027 A 
ATOM      4  C4  DEN d   1      -1.193   0.252   1.516  0.00  0.00     0.027 A 
ATOM      5  C5  DEN d   1      -0.878  -0.359   2.710  0.00  0.00    -0.003 A 
ATOM      6  C6  DEN d   1       0.263  -1.099   2.873  0.00  0.00     0.001 A 
ATOM      7  C7  DEN d   1       1.154  -1.209   1.838  0.00  0.00     0.017 A 
ATOM      8  C8  DEN d   1       0.840  -0.601   0.629  0.00  0.00    -0.094 A 
ATOM      9  C9  DEN d   1      -0.313   0.153   0.488  0.00  0.00    -0.072 A 
ENDROOT
TORSDOF 0
ENDMDL
