MODEL 1
REMARK minimizedAffinity -4.61798286
REMARK minimizedRMSD -1
REMARK  0 active torsions:
REMARK  status: ('A' for Active; 'I' for Inactive)
ROOT
ATOM      1  C1  DEN d   1      -2.055   0.254   0.294  0.00  0.00     0.130 A 
ATOM      2  C2  DEN d   1      -2.904   0.454   1.465  0.00  0.00    -0.031 A 
ATOM      3  C3  DEN d   1      -2.037   0.463   2.661  0.00  0.00     0.027 A 
ATOM      4  C4  DEN d   1       0.524   0.194   2.810  0.00  0.00     0.027 A 
ATOM      5  C5  DEN d   1       1.675  -0.012   2.082  0.00  0.00    -0.003 A 
ATOM      6  C6  DEN d   1       1.660  -0.175   0.722  0.00  0.00     0.001 A 
ATOM      7  C7  DEN d   1       0.475  -0.091   0.042  0.00  0.00     0.017 A 
ATOM      8  C8  DEN d   1      -0.691   0.108   0.769  0.00  0.00    -0.094 A 
ATOM      9  C9  DEN d   1      -0.654   0.283   2.142  0.00  0.00    -0.072 A 
ENDROOT
TORSDOF 0
ENDMDL
