MODEL 1
REMARK minimizedAffinity -5.60520935
REMARK minimizedRMSD -1
REMARK  0 active torsions:
REMARK  status: ('A' for Active; 'I' for Inactive)
ROOT
ATOM      1  C1  DEN d   1       0.880  -0.037   2.176  0.00  0.00     0.130 A 
ATOM      2  C2  DEN d   1       0.038  -0.696   3.170  0.00  0.00    -0.031 A 
ATOM      3  C3  DEN d   1      -1.326  -0.804   2.614  0.00  0.00     0.027 A 
ATOM      4  C4  DEN d   1      -2.209  -0.022   0.319  0.00  0.00     0.027 A 
ATOM      5  C5  DEN d   1      -1.869   0.601  -0.861  0.00  0.00    -0.003 A 
ATOM      6  C6  DEN d   1      -0.608   1.081  -1.097  0.00  0.00     0.001 A 
ATOM      7  C7  DEN d   1       0.372   0.906  -0.156  0.00  0.00     0.017 A 
ATOM      8  C8  DEN d   1       0.035   0.285   1.040  0.00  0.00    -0.094 A 
ATOM      9  C9  DEN d   1      -1.242  -0.204   1.254  0.00  0.00    -0.072 A 
ENDROOT
TORSDOF 0
ENDMDL
