MODEL 1
REMARK minimizedAffinity 5.60861397
REMARK minimizedRMSD -1
REMARK  0 active torsions:
REMARK  status: ('A' for Active; 'I' for Inactive)
ROOT
ATOM      1  C2' OXE d   1      -1.676  -2.547  -3.735  0.00  0.00     0.078 C 
ATOM      2  C1' OXE d   1      -4.090  -3.516  -2.679  0.00  0.00     0.078 C 
ATOM      3  C1  OXE d   1      -3.008  -3.114  -1.708  0.00  0.00    -0.078 A 
ATOM      4  C2  OXE d   1      -1.813  -2.685  -2.234  0.00  0.00    -0.078 A 
ATOM      5  C3  OXE d   1      -0.801  -2.251  -1.383  0.00  0.00     0.003 A 
ATOM      6  C4  OXE d   1      -0.933  -2.391   0.004  0.00  0.00    -0.002 A 
ATOM      7  C5  OXE d   1      -2.126  -2.863   0.560  0.00  0.00    -0.002 A 
ATOM      8  C6  OXE d   1      -3.187  -3.188  -0.279  0.00  0.00     0.003 A 
ENDROOT
TORSDOF 0
ENDMDL
