MODEL 1
REMARK minimizedAffinity -0.110537253
REMARK minimizedRMSD -1
REMARK  0 active torsions:
REMARK  status: ('A' for Active; 'I' for Inactive)
ROOT
ATOM      1  C2' OXE d   1       2.438  -0.384   1.828  0.00  0.00     0.078 C 
ATOM      2  C1' OXE d   1       1.952   2.300   1.165  0.00  0.00     0.078 C 
ATOM      3  C1  OXE d   1       3.384   1.828   1.182  0.00  0.00    -0.078 A 
ATOM      4  C2  OXE d   1       3.616   0.526   1.554  0.00  0.00    -0.078 A 
ATOM      5  C3  OXE d   1       4.915   0.024   1.534  0.00  0.00     0.003 A 
ATOM      6  C4  OXE d   1       5.999   0.875   1.288  0.00  0.00    -0.002 A 
ATOM      7  C5  OXE d   1       5.788   2.215   0.947  0.00  0.00    -0.002 A 
ATOM      8  C6  OXE d   1       4.487   2.696   0.848  0.00  0.00     0.003 A 
ENDROOT
TORSDOF 0
ENDMDL
