MODEL 1
REMARK minimizedAffinity 4.70979404
REMARK minimizedRMSD -1
REMARK  0 active torsions:
REMARK  status: ('A' for Active; 'I' for Inactive)
ROOT
ATOM      1  C2' OXE d   1      -1.625  -3.043  -4.113  0.00  0.00     0.078 C 
ATOM      2  C1' OXE d   1      -4.002  -3.354  -2.653  0.00  0.00     0.078 C 
ATOM      3  C1  OXE d   1      -2.716  -3.203  -1.880  0.00  0.00    -0.078 A 
ATOM      4  C2  OXE d   1      -1.552  -3.098  -2.603  0.00  0.00    -0.078 A 
ATOM      5  C3  OXE d   1      -0.344  -2.902  -1.939  0.00  0.00     0.003 A 
ATOM      6  C4  OXE d   1      -0.284  -2.964  -0.542  0.00  0.00    -0.002 A 
ATOM      7  C5  OXE d   1      -1.453  -3.110   0.213  0.00  0.00    -0.002 A 
ATOM      8  C6  OXE d   1      -2.679  -3.188  -0.438  0.00  0.00     0.003 A 
ENDROOT
TORSDOF 0
ENDMDL
