MODEL 1
REMARK minimizedAffinity 10.0528135
REMARK minimizedRMSD -1
REMARK  0 active torsions:
REMARK  status: ('A' for Active; 'I' for Inactive)
ROOT
ATOM      1  C2' OXE d   1       4.191   4.015   1.126  0.00  0.00     0.078 C 
ATOM      2  C1' OXE d   1       5.999   1.984   1.824  0.00  0.00     0.078 C 
ATOM      3  C1  OXE d   1       4.638   1.572   1.321  0.00  0.00    -0.078 A 
ATOM      4  C2  OXE d   1       3.743   2.573   1.026  0.00  0.00    -0.078 A 
ATOM      5  C3  OXE d   1       2.493   2.249   0.507  0.00  0.00     0.003 A 
ATOM      6  C4  OXE d   1       2.083   0.913   0.427  0.00  0.00    -0.002 A 
ATOM      7  C5  OXE d   1       2.964  -0.121   0.761  0.00  0.00    -0.002 A 
ATOM      8  C6  OXE d   1       4.257   0.190   1.168  0.00  0.00     0.003 A 
ENDROOT
TORSDOF 0
ENDMDL
