MODEL 1
REMARK minimizedAffinity 5.00604248
REMARK minimizedRMSD -1
REMARK  0 active torsions:
REMARK  status: ('A' for Active; 'I' for Inactive)
ROOT
ATOM      1  C2' OXE d   1       0.058  -3.066  -0.419  0.00  0.00     0.078 C 
ATOM      2  C1' OXE d   1      -2.630  -2.473   0.131  0.00  0.00     0.078 C 
ATOM      3  C1  OXE d   1      -2.263  -2.821  -1.290  0.00  0.00    -0.078 A 
ATOM      4  C2  OXE d   1      -0.938  -3.065  -1.559  0.00  0.00    -0.078 A 
ATOM      5  C3  OXE d   1      -0.553  -3.444  -2.842  0.00  0.00     0.003 A 
ATOM      6  C4  OXE d   1      -1.479  -3.431  -3.892  0.00  0.00    -0.002 A 
ATOM      7  C5  OXE d   1      -2.827  -3.147  -3.647  0.00  0.00    -0.002 A 
ATOM      8  C6  OXE d   1      -3.242  -2.883  -2.347  0.00  0.00     0.003 A 
ENDROOT
TORSDOF 0
ENDMDL
