MODEL 1
REMARK minimizedAffinity 1.73315275
REMARK minimizedRMSD -1
REMARK  0 active torsions:
REMARK  status: ('A' for Active; 'I' for Inactive)
ROOT
ATOM      1  C2' OXE d   1       1.837   2.125  -1.718  0.00  0.00     0.078 C 
ATOM      2  C1' OXE d   1       4.107   0.584  -2.312  0.00  0.00     0.078 C 
ATOM      3  C1  OXE d   1       3.544   0.497  -0.916  0.00  0.00    -0.078 A 
ATOM      4  C2  OXE d   1       2.461   1.290  -0.620  0.00  0.00    -0.078 A 
ATOM      5  C3  OXE d   1       1.869   1.208   0.636  0.00  0.00     0.003 A 
ATOM      6  C4  OXE d   1       2.458   0.441   1.649  0.00  0.00    -0.002 A 
ATOM      7  C5  OXE d   1       3.585  -0.344   1.381  0.00  0.00    -0.002 A 
ATOM      8  C6  OXE d   1       4.113  -0.360   0.095  0.00  0.00     0.003 A 
ENDROOT
TORSDOF 0
ENDMDL
