MODEL 1
REMARK minimizedAffinity -1.95616949
REMARK minimizedRMSD -1
REMARK  0 active torsions:
REMARK  status: ('A' for Active; 'I' for Inactive)
ROOT
ATOM      1  C2' OXE d   1       5.997  -0.389   1.537  0.00  0.00     0.078 C 
ATOM      2  C1' OXE d   1       5.998   2.248   0.575  0.00  0.00     0.078 C 
ATOM      3  C1  OXE d   1       4.664   1.589   0.819  0.00  0.00    -0.078 A 
ATOM      4  C2  OXE d   1       4.672   0.283   1.246  0.00  0.00    -0.078 A 
ATOM      5  C3  OXE d   1       3.470  -0.354   1.538  0.00  0.00     0.003 A 
ATOM      6  C4  OXE d   1       2.249   0.271   1.256  0.00  0.00    -0.002 A 
ATOM      7  C5  OXE d   1       2.218   1.587   0.784  0.00  0.00    -0.002 A 
ATOM      8  C6  OXE d   1       3.413   2.274   0.601  0.00  0.00     0.003 A 
ENDROOT
TORSDOF 0
ENDMDL
