MODEL 1
REMARK minimizedAffinity 10.2832499
REMARK minimizedRMSD -1
REMARK  0 active torsions:
REMARK  status: ('A' for Active; 'I' for Inactive)
ROOT
ATOM      1  C2' OXE d   1      -1.203  -4.446  -3.263  0.00  0.00     0.078 C 
ATOM      2  C1' OXE d   1      -3.405  -2.874  -2.513  0.00  0.00     0.078 C 
ATOM      3  C1  OXE d   1      -2.192  -2.859  -1.617  0.00  0.00    -0.078 A 
ATOM      4  C2  OXE d   1      -1.137  -3.668  -1.966  0.00  0.00    -0.078 A 
ATOM      5  C3  OXE d   1       0.027  -3.650  -1.204  0.00  0.00     0.003 A 
ATOM      6  C4  OXE d   1       0.076  -2.935  -0.001  0.00  0.00    -0.002 A 
ATOM      7  C5  OXE d   1      -1.002  -2.136   0.394  0.00  0.00    -0.002 A 
ATOM      8  C6  OXE d   1      -2.125  -2.054  -0.422  0.00  0.00     0.003 A 
ENDROOT
TORSDOF 0
ENDMDL
