MODEL 1
REMARK minimizedAffinity 3.49196148
REMARK minimizedRMSD -1
REMARK  0 active torsions:
REMARK  status: ('A' for Active; 'I' for Inactive)
ROOT
ATOM      1  C2' OXE d   1      -2.326  -2.104  -2.735  0.00  0.00     0.078 C 
ATOM      2  C1' OXE d   1      -4.540  -3.684  -2.043  0.00  0.00     0.078 C 
ATOM      3  C1  OXE d   1      -3.412  -3.579  -1.047  0.00  0.00    -0.078 A 
ATOM      4  C2  OXE d   1      -2.312  -2.842  -1.413  0.00  0.00    -0.078 A 
ATOM      5  C3  OXE d   1      -1.267  -2.668  -0.510  0.00  0.00     0.003 A 
ATOM      6  C4  OXE d   1      -1.258  -3.362   0.706  0.00  0.00    -0.002 A 
ATOM      7  C5  OXE d   1      -2.351  -4.150   1.082  0.00  0.00    -0.002 A 
ATOM      8  C6  OXE d   1      -3.452  -4.235   0.237  0.00  0.00     0.003 A 
ENDROOT
TORSDOF 0
ENDMDL
