MODEL 1
REMARK minimizedAffinity -1.64749026
REMARK minimizedRMSD -1
REMARK  0 active torsions:
REMARK  status: ('A' for Active; 'I' for Inactive)
ROOT
ATOM      1  C2' OXE d   1       3.983   6.000   1.898  0.00  0.00     0.078 C 
ATOM      2  C1' OXE d   1       5.999   5.404   3.757  0.00  0.00     0.078 C 
ATOM      3  C1  OXE d   1       5.480   4.279   2.899  0.00  0.00    -0.078 A 
ATOM      4  C2  OXE d   1       4.460   4.569   2.024  0.00  0.00    -0.078 A 
ATOM      5  C3  OXE d   1       3.982   3.580   1.170  0.00  0.00     0.003 A 
ATOM      6  C4  OXE d   1       4.422   2.257   1.300  0.00  0.00    -0.002 A 
ATOM      7  C5  OXE d   1       5.432   1.931   2.212  0.00  0.00    -0.002 A 
ATOM      8  C6  OXE d   1       6.000   2.936   2.987  0.00  0.00     0.003 A 
ENDROOT
TORSDOF 0
ENDMDL
