MODEL 1
REMARK minimizedAffinity 9.17325592
REMARK minimizedRMSD -1
REMARK  0 active torsions:
REMARK  status: ('A' for Active; 'I' for Inactive)
ROOT
ATOM      1  C2' OXE d   1       3.668  -0.523  -0.157  0.00  0.00     0.078 C 
ATOM      2  C1' OXE d   1       1.545   1.264  -0.584  0.00  0.00     0.078 C 
ATOM      3  C1  OXE d   1       1.855   0.867   0.838  0.00  0.00    -0.078 A 
ATOM      4  C2  OXE d   1       2.866  -0.044   1.034  0.00  0.00    -0.078 A 
ATOM      5  C3  OXE d   1       3.229  -0.403   2.329  0.00  0.00     0.003 A 
ATOM      6  C4  OXE d   1       2.475   0.037   3.424  0.00  0.00    -0.002 A 
ATOM      7  C5  OXE d   1       1.417   0.934   3.243  0.00  0.00    -0.002 A 
ATOM      8  C6  OXE d   1       1.122   1.391   1.963  0.00  0.00     0.003 A 
ENDROOT
TORSDOF 0
ENDMDL
