MODEL 1
REMARK minimizedAffinity -1.1896137
REMARK minimizedRMSD -1
REMARK  0 active torsions:
REMARK  status: ('A' for Active; 'I' for Inactive)
ROOT
ATOM      1  C2' OXE d   1      -3.799  -3.026  -2.599  0.00  0.00     0.078 C 
ATOM      2  C1' OXE d   1      -1.511  -2.761  -4.204  0.00  0.00     0.078 C 
ATOM      3  C1  OXE d   1      -1.311  -3.006  -2.730  0.00  0.00    -0.078 A 
ATOM      4  C2  OXE d   1      -2.435  -3.088  -1.944  0.00  0.00    -0.078 A 
ATOM      5  C3  OXE d   1      -2.309  -3.368  -0.586  0.00  0.00     0.003 A 
ATOM      6  C4  OXE d   1      -1.044  -3.413   0.013  0.00  0.00    -0.002 A 
ATOM      7  C5  OXE d   1       0.114  -3.293  -0.763  0.00  0.00    -0.002 A 
ATOM      8  C6  OXE d   1      -0.002  -3.131  -2.139  0.00  0.00     0.003 A 
ENDROOT
TORSDOF 0
ENDMDL
