MODEL 1
REMARK minimizedAffinity 10.7012625
REMARK minimizedRMSD -1
REMARK  0 active torsions:
REMARK  status: ('A' for Active; 'I' for Inactive)
ROOT
ATOM      1  C2' OXE d   1       5.673  -0.350  -0.965  0.00  0.00     0.078 C 
ATOM      2  C1' OXE d   1       4.193   1.232  -2.749  0.00  0.00     0.078 C 
ATOM      3  C1  OXE d   1       3.669   1.080  -1.343  0.00  0.00    -0.078 A 
ATOM      4  C2  OXE d   1       4.375   0.266  -0.490  0.00  0.00    -0.078 A 
ATOM      5  C3  OXE d   1       3.965   0.134   0.834  0.00  0.00     0.003 A 
ATOM      6  C4  OXE d   1       2.758   0.699   1.262  0.00  0.00    -0.002 A 
ATOM      7  C5  OXE d   1       2.003   1.499   0.398  0.00  0.00    -0.002 A 
ATOM      8  C6  OXE d   1       2.465   1.734  -0.892  0.00  0.00     0.003 A 
ENDROOT
TORSDOF 0
ENDMDL
