MODEL 1
REMARK minimizedAffinity 1.30544913
REMARK minimizedRMSD -1
REMARK  0 active torsions:
REMARK  status: ('A' for Active; 'I' for Inactive)
ROOT
ATOM      1  C2' OXE d   1      -2.966  -2.340  -0.306  0.00  0.00     0.078 C 
ATOM      2  C1' OXE d   1      -0.781  -3.646   0.877  0.00  0.00     0.078 C 
ATOM      3  C1  OXE d   1      -0.778  -3.489  -0.623  0.00  0.00    -0.078 A 
ATOM      4  C2  OXE d   1      -1.874  -2.890  -1.198  0.00  0.00    -0.078 A 
ATOM      5  C3  OXE d   1      -1.898  -2.671  -2.572  0.00  0.00     0.003 A 
ATOM      6  C4  OXE d   1      -0.888  -3.192  -3.391  0.00  0.00    -0.002 A 
ATOM      7  C5  OXE d   1       0.217  -3.840  -2.830  0.00  0.00    -0.002 A 
ATOM      8  C6  OXE d   1       0.308  -3.959  -1.447  0.00  0.00     0.003 A 
ENDROOT
TORSDOF 0
ENDMDL
