MODEL 1
REMARK minimizedAffinity -0.31775853
REMARK minimizedRMSD -1
REMARK  0 active torsions:
REMARK  status: ('A' for Active; 'I' for Inactive)
ROOT
ATOM      1  C2' OXE d   1      -3.620  -3.094  -1.629  0.00  0.00     0.078 C 
ATOM      2  C1' OXE d   1      -2.022  -2.597   0.624  0.00  0.00     0.078 C 
ATOM      3  C1  OXE d   1      -1.328  -2.976  -0.660  0.00  0.00    -0.078 A 
ATOM      4  C2  OXE d   1      -2.120  -3.263  -1.746  0.00  0.00    -0.078 A 
ATOM      5  C3  OXE d   1      -1.530  -3.564  -2.970  0.00  0.00     0.003 A 
ATOM      6  C4  OXE d   1      -0.143  -3.727  -3.066  0.00  0.00    -0.002 A 
ATOM      7  C5  OXE d   1       0.680  -3.479  -1.963  0.00  0.00    -0.002 A 
ATOM      8  C6  OXE d   1       0.107  -3.062  -0.766  0.00  0.00     0.003 A 
ENDROOT
TORSDOF 0
ENDMDL
