MODEL 1
REMARK minimizedAffinity 2.55583405
REMARK minimizedRMSD -1
REMARK  0 active torsions:
REMARK  status: ('A' for Active; 'I' for Inactive)
ROOT
ATOM      1  C2' OXE d   1      -3.670  -4.324  -5.213  0.00  0.00     0.078 C 
ATOM      2  C1' OXE d   1      -4.834  -4.718  -2.690  0.00  0.00     0.078 C 
ATOM      3  C1  OXE d   1      -3.585  -3.877  -2.764  0.00  0.00    -0.078 A 
ATOM      4  C2  OXE d   1      -2.995  -3.728  -3.997  0.00  0.00    -0.078 A 
ATOM      5  C3  OXE d   1      -1.871  -2.918  -4.130  0.00  0.00     0.003 A 
ATOM      6  C4  OXE d   1      -1.248  -2.378  -2.998  0.00  0.00    -0.002 A 
ATOM      7  C5  OXE d   1      -1.810  -2.550  -1.729  0.00  0.00    -0.002 A 
ATOM      8  C6  OXE d   1      -2.999  -3.260  -1.600  0.00  0.00     0.003 A 
ENDROOT
TORSDOF 0
ENDMDL
