MODEL 1
REMARK minimizedAffinity 6.15952492
REMARK minimizedRMSD -1
REMARK  0 active torsions:
REMARK  status: ('A' for Active; 'I' for Inactive)
ROOT
ATOM      1  C2' OXE d   1       4.692  -0.365   1.167  0.00  0.00     0.078 C 
ATOM      2  C1' OXE d   1       3.168   1.573  -0.175  0.00  0.00     0.078 C 
ATOM      3  C1  OXE d   1       2.734   1.174   1.214  0.00  0.00    -0.078 A 
ATOM      4  C2  OXE d   1       3.458   0.192   1.844  0.00  0.00    -0.078 A 
ATOM      5  C3  OXE d   1       3.134  -0.175   3.147  0.00  0.00     0.003 A 
ATOM      6  C4  OXE d   1       1.985   0.337   3.763  0.00  0.00    -0.002 A 
ATOM      7  C5  OXE d   1       1.211   1.310   3.122  0.00  0.00    -0.002 A 
ATOM      8  C6  OXE d   1       1.595   1.769   1.867  0.00  0.00     0.003 A 
ENDROOT
TORSDOF 0
ENDMDL
