MODEL 1
REMARK minimizedAffinity 8.07576561
REMARK minimizedRMSD -1
REMARK  0 active torsions:
REMARK  status: ('A' for Active; 'I' for Inactive)
ROOT
ATOM      1  C2' OXE d   1      -0.621  -4.535  -3.168  0.00  0.00     0.078 C 
ATOM      2  C1' OXE d   1      -3.111  -3.238  -3.212  0.00  0.00     0.078 C 
ATOM      3  C1  OXE d   1      -2.284  -3.132  -1.955  0.00  0.00    -0.078 A 
ATOM      4  C2  OXE d   1      -1.088  -3.808  -1.925  0.00  0.00    -0.078 A 
ATOM      5  C3  OXE d   1      -0.262  -3.698  -0.811  0.00  0.00     0.003 A 
ATOM      6  C4  OXE d   1      -0.706  -3.033   0.338  0.00  0.00    -0.002 A 
ATOM      7  C5  OXE d   1      -1.938  -2.370   0.343  0.00  0.00    -0.002 A 
ATOM      8  C6  OXE d   1      -2.719  -2.374  -0.807  0.00  0.00     0.003 A 
ENDROOT
TORSDOF 0
ENDMDL
