MODEL 1
REMARK minimizedAffinity 14.6124849
REMARK minimizedRMSD -1
REMARK  0 active torsions:
REMARK  status: ('A' for Active; 'I' for Inactive)
ROOT
ATOM      1  C   UNL d   1      -0.353   3.537  -2.069  0.00  0.00     0.023 A 
ATOM      2  C1  UNL d   1      -0.846   2.488  -1.292  0.00  0.00     0.003 A 
ATOM      3  C2  UNL d   1      -0.263   2.200  -0.056  0.00  0.00     0.048 A 
ATOM      4  C3  UNL d   1       0.812   2.964   0.397  0.00  0.00     0.023 A 
ATOM      5  C4  UNL d   1       1.307   4.015  -0.377  0.00  0.00     0.048 A 
ATOM      6  C5  UNL d   1       0.722   4.299  -1.612  0.00  0.00     0.003 A 
ATOM      7  I   UNL d   1       1.681   2.537   2.236  0.00  0.00    -0.146 I 
ENDROOT
TORSDOF 0
ENDMDL
