MODEL 1
REMARK minimizedAffinity -0.385913372
REMARK minimizedRMSD -1
REMARK  0 active torsions:
REMARK  status: ('A' for Active; 'I' for Inactive)
ROOT
ATOM      1  C   UNL d   1       0.082   1.347   2.924  0.00  0.00     0.023 A 
ATOM      2  C1  UNL d   1       0.879   2.491   2.978  0.00  0.00     0.003 A 
ATOM      3  C2  UNL d   1       0.965   3.337   1.870  0.00  0.00     0.048 A 
ATOM      4  C3  UNL d   1       0.250   3.033   0.712  0.00  0.00     0.023 A 
ATOM      5  C4  UNL d   1      -0.549   1.890   0.653  0.00  0.00     0.048 A 
ATOM      6  C5  UNL d   1      -0.631   1.047   1.763  0.00  0.00     0.003 A 
ATOM      7  I   UNL d   1       0.375   4.291  -0.939  0.00  0.00    -0.146 I 
ENDROOT
TORSDOF 0
ENDMDL
