MODEL 1
REMARK minimizedAffinity 14.4453707
REMARK minimizedRMSD -1
REMARK  0 active torsions:
REMARK  status: ('A' for Active; 'I' for Inactive)
ROOT
ATOM      1  C   UNL d   1      -4.915  -5.176  -5.372  0.00  0.00     0.023 A 
ATOM      2  C1  UNL d   1      -4.491  -4.181  -4.492  0.00  0.00     0.003 A 
ATOM      3  C2  UNL d   1      -3.130  -4.006  -4.236  0.00  0.00     0.048 A 
ATOM      4  C3  UNL d   1      -2.197  -4.830  -4.865  0.00  0.00     0.023 A 
ATOM      5  C4  UNL d   1      -2.616  -5.827  -5.748  0.00  0.00     0.048 A 
ATOM      6  C5  UNL d   1      -3.979  -5.999  -5.999  0.00  0.00     0.003 A 
ATOM      7  I   UNL d   1      -0.170  -4.572  -4.487  0.00  0.00    -0.146 I 
ENDROOT
TORSDOF 0
ENDMDL
