MODEL 1
REMARK minimizedAffinity 7.54136086
REMARK minimizedRMSD -1
REMARK  0 active torsions:
REMARK  status: ('A' for Active; 'I' for Inactive)
ROOT
ATOM      1  C   UNL d   1      -3.792  -5.405  -5.998  0.00  0.00     0.023 A 
ATOM      2  C1  UNL d   1      -4.004  -4.218  -5.298  0.00  0.00     0.003 A 
ATOM      3  C2  UNL d   1      -2.954  -3.622  -4.597  0.00  0.00     0.048 A 
ATOM      4  C3  UNL d   1      -1.693  -4.219  -4.601  0.00  0.00     0.023 A 
ATOM      5  C4  UNL d   1      -1.476  -5.407  -5.301  0.00  0.00     0.048 A 
ATOM      6  C5  UNL d   1      -2.530  -5.999  -5.999  0.00  0.00     0.003 A 
ATOM      7  I   UNL d   1      -0.128  -3.334  -3.558  0.00  0.00    -0.146 I 
ENDROOT
TORSDOF 0
ENDMDL
