MODEL 1
REMARK minimizedAffinity 16.5890083
REMARK minimizedRMSD -1
REMARK  0 active torsions:
REMARK  status: ('A' for Active; 'I' for Inactive)
ROOT
ATOM      1  C   UNL d   1      -2.602   3.090   2.502  0.00  0.00     0.023 A 
ATOM      2  C1  UNL d   1      -2.726   4.188   1.651  0.00  0.00     0.003 A 
ATOM      3  C2  UNL d   1      -1.887   4.311   0.541  0.00  0.00     0.048 A 
ATOM      4  C3  UNL d   1      -0.927   3.331   0.288  0.00  0.00     0.023 A 
ATOM      5  C4  UNL d   1      -0.800   2.230   1.137  0.00  0.00     0.048 A 
ATOM      6  C5  UNL d   1      -1.641   2.112   2.246  0.00  0.00     0.003 A 
ATOM      7  I   UNL d   1       0.323   3.512  -1.362  0.00  0.00    -0.146 I 
ENDROOT
TORSDOF 0
ENDMDL
