MODEL 1
REMARK minimizedAffinity 17.8478432
REMARK minimizedRMSD -1
REMARK  0 active torsions:
REMARK  status: ('A' for Active; 'I' for Inactive)
ROOT
ATOM      1  C   UNL d   1      -2.694   3.882  -3.864  0.00  0.00     0.023 A 
ATOM      2  C1  UNL d   1      -2.931   3.528  -2.536  0.00  0.00     0.003 A 
ATOM      3  C2  UNL d   1      -3.879   2.548  -2.232  0.00  0.00     0.048 A 
ATOM      4  C3  UNL d   1      -4.585   1.926  -3.261  0.00  0.00     0.023 A 
ATOM      5  C4  UNL d   1      -4.351   2.277  -4.591  0.00  0.00     0.048 A 
ATOM      6  C5  UNL d   1      -3.403   3.258  -4.891  0.00  0.00     0.003 A 
ATOM      7  I   UNL d   1      -5.996   0.468  -2.810  0.00  0.00    -0.146 I 
ENDROOT
TORSDOF 0
ENDMDL
