MODEL 1
REMARK minimizedAffinity 16.2301922
REMARK minimizedRMSD -1
REMARK  0 active torsions:
REMARK  status: ('A' for Active; 'I' for Inactive)
ROOT
ATOM      1  C   UNL d   1      -2.609   4.321   3.038  0.00  0.00     0.023 A 
ATOM      2  C1  UNL d   1      -2.172   5.277   2.120  0.00  0.00     0.003 A 
ATOM      3  C2  UNL d   1      -1.172   4.958   1.200  0.00  0.00     0.048 A 
ATOM      4  C3  UNL d   1      -0.612   3.680   1.203  0.00  0.00     0.023 A 
ATOM      5  C4  UNL d   1      -1.046   2.721   2.118  0.00  0.00     0.048 A 
ATOM      6  C5  UNL d   1      -2.046   3.045   3.037  0.00  0.00     0.003 A 
ATOM      7  I   UNL d   1       0.878   3.203  -0.166  0.00  0.00    -0.146 I 
ENDROOT
TORSDOF 0
ENDMDL
