MODEL 1
REMARK minimizedAffinity 12.0151587
REMARK minimizedRMSD -1
REMARK  1 active torsions:
REMARK  status: ('A' for Active; 'I' for Inactive)
REMARK    1  A    between atoms: C1_2  and  C2_3 
ROOT
ATOM      1  C2  UNL d   1      -3.649   1.903   3.755  0.00  0.00    -0.081 A 
ATOM      2  C3  UNL d   1      -2.406   2.449   4.098  0.00  0.00     0.006 A 
ATOM      3  C4  UNL d   1      -1.243   2.026   3.449  0.00  0.00     0.002 A 
ATOM      4  C5  UNL d   1      -1.305   1.057   2.442  0.00  0.00    -0.080 A 
ATOM      5  C6  UNL d   1      -0.069   0.616   1.717  0.00  0.00     0.076 C 
ATOM      6  C7  UNL d   1      -2.545   0.499   2.111  0.00  0.00     0.002 A 
ATOM      7  C8  UNL d   1      -3.707   0.920   2.760  0.00  0.00     0.006 A 
ENDROOT
BRANCH   1   8
ATOM      8  C1  UNL d   1      -4.912   2.403   4.408  0.00  0.00     0.054 C 
ATOM      9  C   UNL d   1      -4.613   3.108   5.723  0.00  0.00     0.018 C 
ENDBRANCH   1   8
TORSDOF 1
ENDMDL
