MODEL 1
REMARK minimizedAffinity 8.74600887
REMARK minimizedRMSD -1
REMARK  1 active torsions:
REMARK  status: ('A' for Active; 'I' for Inactive)
REMARK    1  A    between atoms: C1_2  and  C2_3 
ROOT
ATOM      1  C2  UNL d   1      -0.808   1.128   1.701  0.00  0.00    -0.081 A 
ATOM      2  C3  UNL d   1      -0.041   1.627   2.760  0.00  0.00     0.006 A 
ATOM      3  C4  UNL d   1       1.351   1.688   2.660  0.00  0.00     0.002 A 
ATOM      4  C5  UNL d   1       1.998   1.259   1.496  0.00  0.00    -0.080 A 
ATOM      5  C6  UNL d   1       3.489   1.348   1.363  0.00  0.00     0.076 C 
ATOM      6  C7  UNL d   1       1.233   0.744   0.444  0.00  0.00     0.002 A 
ATOM      7  C8  UNL d   1      -0.159   0.683   0.544  0.00  0.00     0.006 A 
ENDROOT
BRANCH   1   8
ATOM      8  C1  UNL d   1      -2.314   1.121   1.781  0.00  0.00     0.054 C 
ATOM      9  C   UNL d   1      -2.792   1.301   3.215  0.00  0.00     0.018 C 
ENDBRANCH   1   8
TORSDOF 1
ENDMDL
