MODEL 1
REMARK minimizedAffinity 10.1837597
REMARK minimizedRMSD -1
REMARK  1 active torsions:
REMARK  status: ('A' for Active; 'I' for Inactive)
REMARK    1  A    between atoms: C1_2  and  C2_3 
ROOT
ATOM      1  C2  UNL d   1      -2.404   0.592   1.894  0.00  0.00    -0.081 A 
ATOM      2  C3  UNL d   1      -1.454   0.117   0.981  0.00  0.00     0.006 A 
ATOM      3  C4  UNL d   1      -0.124   0.538   1.059  0.00  0.00     0.002 A 
ATOM      4  C5  UNL d   1       0.279   1.434   2.055  0.00  0.00    -0.080 A 
ATOM      5  C6  UNL d   1       1.710   1.870   2.168  0.00  0.00     0.076 C 
ATOM      6  C7  UNL d   1      -0.673   1.922   2.956  0.00  0.00     0.002 A 
ATOM      7  C8  UNL d   1      -2.002   1.502   2.878  0.00  0.00     0.006 A 
ENDROOT
BRANCH   1   8
ATOM      8  C1  UNL d   1      -3.824   0.090   1.853  0.00  0.00     0.054 C 
ATOM      9  C   UNL d   1      -3.888  -1.411   2.097  0.00  0.00     0.018 C 
ENDBRANCH   1   8
TORSDOF 1
ENDMDL
