MODEL 1
REMARK minimizedAffinity 18.4515457
REMARK minimizedRMSD -1
REMARK  1 active torsions:
REMARK  status: ('A' for Active; 'I' for Inactive)
REMARK    1  A    between atoms: C1_2  and  C2_3 
ROOT
ATOM      1  C2  UNL d   1      -2.337   1.387   2.710  0.00  0.00    -0.081 A 
ATOM      2  C3  UNL d   1      -1.551   0.366   2.162  0.00  0.00     0.006 A 
ATOM      3  C4  UNL d   1      -0.175   0.542   1.999  0.00  0.00     0.002 A 
ATOM      4  C5  UNL d   1       0.439   1.738   2.388  0.00  0.00    -0.080 A 
ATOM      5  C6  UNL d   1       1.920   1.928   2.247  0.00  0.00     0.076 C 
ATOM      6  C7  UNL d   1      -0.349   2.765   2.919  0.00  0.00     0.002 A 
ATOM      7  C8  UNL d   1      -1.725   2.590   3.082  0.00  0.00     0.006 A 
ENDROOT
BRANCH   1   8
ATOM      8  C1  UNL d   1      -3.811   1.177   2.947  0.00  0.00     0.054 C 
ATOM      9  C   UNL d   1      -4.397   2.286   3.808  0.00  0.00     0.018 C 
ENDBRANCH   1   8
TORSDOF 1
ENDMDL
