MODEL 1
REMARK minimizedAffinity 9.04337883
REMARK minimizedRMSD -1
REMARK  1 active torsions:
REMARK  status: ('A' for Active; 'I' for Inactive)
REMARK    1  A    between atoms: C1_2  and  C2_3 
ROOT
ATOM      1  C2  UNL d   1      -3.492   4.661  -5.486  0.00  0.00    -0.081 A 
ATOM      2  C3  UNL d   1      -3.209   3.389  -5.999  0.00  0.00     0.006 A 
ATOM      3  C4  UNL d   1      -2.111   2.665  -5.530  0.00  0.00     0.002 A 
ATOM      4  C5  UNL d   1      -1.282   3.195  -4.536  0.00  0.00    -0.080 A 
ATOM      5  C6  UNL d   1      -0.118   2.415  -4.002  0.00  0.00     0.076 C 
ATOM      6  C7  UNL d   1      -1.554   4.473  -4.036  0.00  0.00     0.002 A 
ATOM      7  C8  UNL d   1      -2.652   5.199  -4.505  0.00  0.00     0.006 A 
ENDROOT
BRANCH   1   8
ATOM      8  C1  UNL d   1      -4.712   5.418  -5.943  0.00  0.00     0.054 C 
ATOM      9  C   UNL d   1      -5.945   4.526  -5.954  0.00  0.00     0.018 C 
ENDBRANCH   1   8
TORSDOF 1
ENDMDL
