MODEL 1
REMARK minimizedAffinity 16.003561
REMARK minimizedRMSD -1
REMARK  1 active torsions:
REMARK  status: ('A' for Active; 'I' for Inactive)
REMARK    1  A    between atoms: C1_2  and  C2_3 
ROOT
ATOM      1  C2  UNL d   1       2.444  -0.918  -0.462  0.00  0.00    -0.081 A 
ATOM      2  C3  UNL d   1       1.948  -0.600  -1.732  0.00  0.00     0.006 A 
ATOM      3  C4  UNL d   1       2.073   0.697  -2.236  0.00  0.00     0.002 A 
ATOM      4  C5  UNL d   1       2.703   1.693  -1.484  0.00  0.00    -0.080 A 
ATOM      5  C6  UNL d   1       2.871   3.082  -2.027  0.00  0.00     0.076 C 
ATOM      6  C7  UNL d   1       3.184   1.380  -0.208  0.00  0.00     0.002 A 
ATOM      7  C8  UNL d   1       3.058   0.084   0.297  0.00  0.00     0.006 A 
ENDROOT
BRANCH   1   8
ATOM      8  C1  UNL d   1       2.368  -2.331   0.059  0.00  0.00     0.054 C 
ATOM      9  C   UNL d   1       3.753  -2.882   0.368  0.00  0.00     0.018 C 
ENDBRANCH   1   8
TORSDOF 1
ENDMDL
