MODEL 1
REMARK minimizedAffinity 10.1166821
REMARK minimizedRMSD -1
REMARK  1 active torsions:
REMARK  status: ('A' for Active; 'I' for Inactive)
REMARK    1  A    between atoms: C1_2  and  C2_3 
ROOT
ATOM      1  C2  UNL d   1       2.610   0.529   0.216  0.00  0.00    -0.081 A 
ATOM      2  C3  UNL d   1       2.141  -0.533  -0.565  0.00  0.00     0.006 A 
ATOM      3  C4  UNL d   1       2.827  -1.749  -0.593  0.00  0.00     0.002 A 
ATOM      4  C5  UNL d   1       3.989  -1.926   0.166  0.00  0.00    -0.080 A 
ATOM      5  C6  UNL d   1       4.718  -3.236   0.169  0.00  0.00     0.076 C 
ATOM      6  C7  UNL d   1       4.468  -0.859   0.934  0.00  0.00     0.002 A 
ATOM      7  C8  UNL d   1       3.782   0.358   0.961  0.00  0.00     0.006 A 
ENDROOT
BRANCH   1   8
ATOM      8  C1  UNL d   1       1.836   1.821   0.298  0.00  0.00     0.054 C 
ATOM      9  C   UNL d   1       1.429   2.131   1.732  0.00  0.00     0.018 C 
ENDBRANCH   1   8
TORSDOF 1
ENDMDL
