MODEL 1
REMARK minimizedAffinity 18.4090252
REMARK minimizedRMSD -1
REMARK  1 active torsions:
REMARK  status: ('A' for Active; 'I' for Inactive)
REMARK    1  A    between atoms: C1_2  and  C2_3 
ROOT
ATOM      1  C2  UNL d   1       1.285   1.207   2.288  0.00  0.00    -0.081 A 
ATOM      2  C3  UNL d   1       0.030   1.827   2.312  0.00  0.00     0.006 A 
ATOM      3  C4  UNL d   1      -0.504   2.300   3.513  0.00  0.00     0.002 A 
ATOM      4  C5  UNL d   1       0.211   2.168   4.708  0.00  0.00    -0.080 A 
ATOM      5  C6  UNL d   1      -0.337   2.699   6.000  0.00  0.00     0.076 C 
ATOM      6  C7  UNL d   1       1.458   1.534   4.688  0.00  0.00     0.002 A 
ATOM      7  C8  UNL d   1       1.992   1.060   3.487  0.00  0.00     0.006 A 
ENDROOT
BRANCH   1   8
ATOM      8  C1  UNL d   1       1.892   0.754   0.985  0.00  0.00     0.054 C 
ATOM      9  C   UNL d   1       3.390   1.020   0.950  0.00  0.00     0.018 C 
ENDBRANCH   1   8
TORSDOF 1
ENDMDL
