MODEL 1
REMARK minimizedAffinity 17.1926746
REMARK minimizedRMSD -1
REMARK  1 active torsions:
REMARK  status: ('A' for Active; 'I' for Inactive)
REMARK    1  A    between atoms: C1_2  and  C2_3 
ROOT
ATOM      1  C2  UNL d   1       4.788  -3.213  -1.791  0.00  0.00    -0.081 A 
ATOM      2  C3  UNL d   1       3.907  -2.652  -2.724  0.00  0.00     0.006 A 
ATOM      3  C4  UNL d   1       2.818  -1.887  -2.299  0.00  0.00     0.002 A 
ATOM      4  C5  UNL d   1       2.597  -1.662  -0.936  0.00  0.00    -0.080 A 
ATOM      5  C6  UNL d   1       1.450  -0.817  -0.468  0.00  0.00     0.076 C 
ATOM      6  C7  UNL d   1       3.467  -2.237  -0.003  0.00  0.00     0.002 A 
ATOM      7  C8  UNL d   1       4.555  -3.003  -0.427  0.00  0.00     0.006 A 
ENDROOT
BRANCH   1   8
ATOM      8  C1  UNL d   1       5.999  -3.985  -2.248  0.00  0.00     0.054 C 
ATOM      9  C   UNL d   1       6.000  -4.169  -3.758  0.00  0.00     0.018 C 
ENDBRANCH   1   8
TORSDOF 1
ENDMDL
