MODEL 1
REMARK minimizedAffinity 15.3619385
REMARK minimizedRMSD -1
REMARK  1 active torsions:
REMARK  status: ('A' for Active; 'I' for Inactive)
REMARK    1  A    between atoms: C1_2  and  C2_3 
ROOT
ATOM      1  C2  UNL d   1       2.510  -0.104   0.696  0.00  0.00    -0.081 A 
ATOM      2  C3  UNL d   1       1.817  -1.239   0.257  0.00  0.00     0.006 A 
ATOM      3  C4  UNL d   1       2.447  -2.486   0.229  0.00  0.00     0.002 A 
ATOM      4  C5  UNL d   1       3.776  -2.620   0.646  0.00  0.00    -0.080 A 
ATOM      5  C6  UNL d   1       4.454  -3.958   0.648  0.00  0.00     0.076 C 
ATOM      6  C7  UNL d   1       4.473  -1.483   1.068  0.00  0.00     0.002 A 
ATOM      7  C8  UNL d   1       3.845  -0.236   1.096  0.00  0.00     0.006 A 
ENDROOT
BRANCH   1   8
ATOM      8  C1  UNL d   1       1.814   1.230   0.789  0.00  0.00     0.054 C 
ATOM      9  C   UNL d   1       0.778   1.237   1.904  0.00  0.00     0.018 C 
ENDBRANCH   1   8
TORSDOF 1
ENDMDL
