MODEL 1
REMARK minimizedAffinity 13.5134296
REMARK minimizedRMSD -1
REMARK  1 active torsions:
REMARK  status: ('A' for Active; 'I' for Inactive)
REMARK    1  A    between atoms: C1_2  and  C2_3 
ROOT
ATOM      1  C2  UNL d   1       1.246  -2.561  -2.090  0.00  0.00    -0.081 A 
ATOM      2  C3  UNL d   1       1.903  -2.803  -0.878  0.00  0.00     0.006 A 
ATOM      3  C4  UNL d   1       2.207  -1.748  -0.014  0.00  0.00     0.002 A 
ATOM      4  C5  UNL d   1       1.852  -0.436  -0.344  0.00  0.00    -0.080 A 
ATOM      5  C6  UNL d   1       2.145   0.702   0.588  0.00  0.00     0.076 C 
ATOM      6  C7  UNL d   1       1.211  -0.192  -1.564  0.00  0.00     0.002 A 
ATOM      7  C8  UNL d   1       0.907  -1.246  -2.428  0.00  0.00     0.006 A 
ENDROOT
BRANCH   1   8
ATOM      8  C1  UNL d   1       0.859  -3.704  -2.994  0.00  0.00     0.054 C 
ATOM      9  C   UNL d   1      -0.644  -3.940  -2.976  0.00  0.00     0.018 C 
ENDBRANCH   1   8
TORSDOF 1
ENDMDL
