MODEL 1
REMARK minimizedAffinity 7.78380966
REMARK minimizedRMSD -1
REMARK  1 active torsions:
REMARK  status: ('A' for Active; 'I' for Inactive)
REMARK    1  A    between atoms: C1_2  and  C2_3 
ROOT
ATOM      1  C2  UNL d   1      -3.165  -3.283  -3.974  0.00  0.00    -0.081 A 
ATOM      2  C3  UNL d   1      -2.686  -4.284  -3.121  0.00  0.00     0.006 A 
ATOM      3  C4  UNL d   1      -1.415  -4.180  -2.551  0.00  0.00     0.002 A 
ATOM      4  C5  UNL d   1      -0.605  -3.071  -2.818  0.00  0.00    -0.080 A 
ATOM      5  C6  UNL d   1       0.749  -2.933  -2.188  0.00  0.00     0.076 C 
ATOM      6  C7  UNL d   1      -1.077  -2.079  -3.684  0.00  0.00     0.002 A 
ATOM      7  C8  UNL d   1      -2.347  -2.182  -4.255  0.00  0.00     0.006 A 
ENDROOT
BRANCH   1   8
ATOM      8  C1  UNL d   1      -4.560  -3.360  -4.539  0.00  0.00     0.054 C 
ATOM      9  C   UNL d   1      -4.591  -2.926  -5.998  0.00  0.00     0.018 C 
ENDBRANCH   1   8
TORSDOF 1
ENDMDL
