MODEL 1
REMARK minimizedAffinity 12.5841694
REMARK minimizedRMSD -1
REMARK  1 active torsions:
REMARK  status: ('A' for Active; 'I' for Inactive)
REMARK    1  A    between atoms: C1_2  and  C2_3 
ROOT
ATOM      1  C2  UNL d   1      -2.623   1.180   2.976  0.00  0.00    -0.081 A 
ATOM      2  C3  UNL d   1      -2.137   2.345   2.371  0.00  0.00     0.006 A 
ATOM      3  C4  UNL d   1      -0.784   2.460   2.040  0.00  0.00     0.002 A 
ATOM      4  C5  UNL d   1       0.102   1.409   2.301  0.00  0.00    -0.080 A 
ATOM      5  C6  UNL d   1       1.550   1.508   1.923  0.00  0.00     0.076 C 
ATOM      6  C7  UNL d   1      -0.381   0.252   2.922  0.00  0.00     0.002 A 
ATOM      7  C8  UNL d   1      -1.732   0.137   3.254  0.00  0.00     0.006 A 
ENDROOT
BRANCH   1   8
ATOM      8  C1  UNL d   1      -4.093   1.028   3.275  0.00  0.00     0.054 C 
ATOM      9  C   UNL d   1      -4.642   2.256   3.987  0.00  0.00     0.018 C 
ENDBRANCH   1   8
TORSDOF 1
ENDMDL
