MODEL 1
REMARK minimizedAffinity 14.8797045
REMARK minimizedRMSD -1
REMARK  1 active torsions:
REMARK  status: ('A' for Active; 'I' for Inactive)
REMARK    1  A    between atoms: C1_2  and  C2_3 
ROOT
ATOM      1  C2  UNL d   1       3.464  -1.199  -0.359  0.00  0.00    -0.081 A 
ATOM      2  C3  UNL d   1       2.522  -0.962  -1.368  0.00  0.00     0.006 A 
ATOM      3  C4  UNL d   1       2.373   0.316  -1.912  0.00  0.00     0.002 A 
ATOM      4  C5  UNL d   1       3.168   1.376  -1.463  0.00  0.00    -0.080 A 
ATOM      5  C6  UNL d   1       3.039   2.746  -2.059  0.00  0.00     0.076 C 
ATOM      6  C7  UNL d   1       4.096   1.143  -0.442  0.00  0.00     0.002 A 
ATOM      7  C8  UNL d   1       4.245  -0.134   0.102  0.00  0.00     0.006 A 
ENDROOT
BRANCH   1   8
ATOM      8  C1  UNL d   1       3.672  -2.589   0.184  0.00  0.00     0.054 C 
ATOM      9  C   UNL d   1       5.152  -2.914   0.320  0.00  0.00     0.018 C 
ENDBRANCH   1   8
TORSDOF 1
ENDMDL
