MODEL 1
REMARK minimizedAffinity 14.269125
REMARK minimizedRMSD -1
REMARK  1 active torsions:
REMARK  status: ('A' for Active; 'I' for Inactive)
REMARK    1  A    between atoms: C1_2  and  C2_3 
ROOT
ATOM      1  C2  UNL d   1       1.878   1.280   1.458  0.00  0.00    -0.081 A 
ATOM      2  C3  UNL d   1       2.775   1.594   2.487  0.00  0.00     0.006 A 
ATOM      3  C4  UNL d   1       2.324   1.735   3.801  0.00  0.00     0.002 A 
ATOM      4  C5  UNL d   1       0.971   1.557   4.111  0.00  0.00    -0.080 A 
ATOM      5  C6  UNL d   1       0.479   1.676   5.523  0.00  0.00     0.076 C 
ATOM      6  C7  UNL d   1       0.072   1.261   3.081  0.00  0.00     0.002 A 
ATOM      7  C8  UNL d   1       0.522   1.120   1.766  0.00  0.00     0.006 A 
ENDROOT
BRANCH   1   8
ATOM      8  C1  UNL d   1       2.371   1.064   0.050  0.00  0.00     0.054 C 
ATOM      9  C   UNL d   1       2.368  -0.414  -0.316  0.00  0.00     0.018 C 
ENDBRANCH   1   8
TORSDOF 1
ENDMDL
