MODEL 1
REMARK minimizedAffinity 2.2145977
REMARK minimizedRMSD -1
REMARK  0 active torsions:
REMARK  status: ('A' for Active; 'I' for Inactive)
ROOT
ATOM      1  O1  BZF d   1      -2.983   1.912   0.993  0.00  0.00    -0.204 OA
ATOM      2  C2  BZF d   1      -3.853   2.982   0.902  0.00  0.00     0.174 A 
ATOM      3  C3  BZF d   1      -4.283   3.143  -0.366  0.00  0.00    -0.012 A 
ATOM      4  C3A BZF d   1      -3.714   2.052  -1.097  0.00  0.00    -0.107 A 
ATOM      5  C4  BZF d   1      -3.788   1.657  -2.402  0.00  0.00     0.055 A 
ATOM      6  C5  BZF d   1      -3.055   0.589  -2.812  0.00  0.00    -0.016 A 
ATOM      7  C6  BZF d   1      -2.234  -0.103  -1.945  0.00  0.00     0.022 A 
ATOM      8  C7  BZF d   1      -2.132   0.248  -0.640  0.00  0.00     0.029 A 
ATOM      9  C7A BZF d   1      -2.897   1.307  -0.216  0.00  0.00     0.058 A 
ENDROOT
TORSDOF 0
ENDMDL
