MODEL 1
REMARK minimizedAffinity 6.0150218
REMARK minimizedRMSD -1
REMARK  0 active torsions:
REMARK  status: ('A' for Active; 'I' for Inactive)
ROOT
ATOM      1  O1  BZF d   1       5.823  -5.953  -3.881  0.00  0.00    -0.204 OA
ATOM      2  C2  BZF d   1       5.330  -5.954  -5.172  0.00  0.00     0.174 A 
ATOM      3  C3  BZF d   1       3.982  -5.989  -5.169  0.00  0.00    -0.012 A 
ATOM      4  C3A BZF d   1       3.606  -5.918  -3.790  0.00  0.00    -0.107 A 
ATOM      5  C4  BZF d   1       2.403  -5.897  -3.145  0.00  0.00     0.055 A 
ATOM      6  C5  BZF d   1       2.382  -5.899  -1.787  0.00  0.00    -0.016 A 
ATOM      7  C6  BZF d   1       3.543  -5.926  -1.042  0.00  0.00     0.022 A 
ATOM      8  C7  BZF d   1       4.761  -5.942  -1.638  0.00  0.00     0.029 A 
ATOM      9  C7A BZF d   1       4.786  -5.908  -3.010  0.00  0.00     0.058 A 
ENDROOT
TORSDOF 0
ENDMDL
