MODEL 1
REMARK minimizedAffinity 8.6316967
REMARK minimizedRMSD -1
REMARK  0 active torsions:
REMARK  status: ('A' for Active; 'I' for Inactive)
ROOT
ATOM      1  O1  BZF d   1       1.517  -6.000   5.091  0.00  0.00    -0.204 OA
ATOM      2  C2  BZF d   1       0.488  -5.848   6.000  0.00  0.00     0.174 A 
ATOM      3  C3  BZF d   1       0.033  -4.578   6.000  0.00  0.00    -0.012 A 
ATOM      4  C3A BZF d   1       0.766  -3.916   4.965  0.00  0.00    -0.107 A 
ATOM      5  C4  BZF d   1       0.752  -2.643   4.471  0.00  0.00     0.055 A 
ATOM      6  C5  BZF d   1       1.645  -2.298   3.506  0.00  0.00    -0.016 A 
ATOM      7  C6  BZF d   1       2.568  -3.199   3.016  0.00  0.00     0.022 A 
ATOM      8  C7  BZF d   1       2.617  -4.474   3.471  0.00  0.00     0.029 A 
ATOM      9  C7A BZF d   1       1.694  -4.835   4.423  0.00  0.00     0.058 A 
ENDROOT
TORSDOF 0
ENDMDL
