MODEL 1
REMARK minimizedAffinity 3.003124
REMARK minimizedRMSD -1
REMARK  0 active torsions:
REMARK  status: ('A' for Active; 'I' for Inactive)
ROOT
ATOM      1  O1  BZF d   1       4.848  -5.891  -2.383  0.00  0.00    -0.204 OA
ATOM      2  C2  BZF d   1       3.744  -5.914  -1.553  0.00  0.00     0.174 A 
ATOM      3  C3  BZF d   1       2.603  -5.891  -2.273  0.00  0.00    -0.012 A 
ATOM      4  C3A BZF d   1       3.021  -5.945  -3.641  0.00  0.00    -0.107 A 
ATOM      5  C4  BZF d   1       2.346  -5.968  -4.828  0.00  0.00     0.055 A 
ATOM      6  C5  BZF d   1       3.052  -5.948  -5.989  0.00  0.00    -0.016 A 
ATOM      7  C6  BZF d   1       4.430  -5.899  -6.000  0.00  0.00     0.022 A 
ATOM      8  C7  BZF d   1       5.143  -5.880  -4.848  0.00  0.00     0.029 A 
ATOM      9  C7A BZF d   1       4.434  -5.934  -3.673  0.00  0.00     0.058 A 
ENDROOT
TORSDOF 0
ENDMDL
