MODEL 1
REMARK minimizedAffinity 0.420125455
REMARK minimizedRMSD -1
REMARK  0 active torsions:
REMARK  status: ('A' for Active; 'I' for Inactive)
ROOT
ATOM      1  O1  BZF d   1       5.831  -5.936  -1.884  0.00  0.00    -0.204 OA
ATOM      2  C2  BZF d   1       5.030  -5.910  -0.759  0.00  0.00     0.174 A 
ATOM      3  C3  BZF d   1       3.726  -5.865  -1.101  0.00  0.00    -0.012 A 
ATOM      4  C3A BZF d   1       3.708  -5.955  -2.529  0.00  0.00    -0.107 A 
ATOM      5  C4  BZF d   1       2.705  -5.977  -3.456  0.00  0.00     0.055 A 
ATOM      6  C5  BZF d   1       3.027  -5.998  -4.776  0.00  0.00    -0.016 A 
ATOM      7  C6  BZF d   1       4.338  -5.993  -5.204  0.00  0.00     0.022 A 
ATOM      8  C7  BZF d   1       5.367  -5.976  -4.322  0.00  0.00     0.029 A 
ATOM      9  C7A BZF d   1       5.046  -5.988  -2.987  0.00  0.00     0.058 A 
ENDROOT
TORSDOF 0
ENDMDL
