MODEL 1
REMARK minimizedAffinity 4.66649771
REMARK minimizedRMSD -1
REMARK  0 active torsions:
REMARK  status: ('A' for Active; 'I' for Inactive)
ROOT
ATOM      1  O1  BZF d   1      -0.420  -5.128   4.518  0.00  0.00    -0.204 OA
ATOM      2  C2  BZF d   1      -0.248  -5.989   5.585  0.00  0.00     0.174 A 
ATOM      3  C3  BZF d   1       1.036  -5.990   5.996  0.00  0.00    -0.012 A 
ATOM      4  C3A BZF d   1       1.690  -5.003   5.193  0.00  0.00    -0.107 A 
ATOM      5  C4  BZF d   1       2.971  -4.532   5.141  0.00  0.00     0.055 A 
ATOM      6  C5  BZF d   1       3.300  -3.617   4.191  0.00  0.00    -0.016 A 
ATOM      7  C6  BZF d   1       2.377  -3.156   3.275  0.00  0.00     0.022 A 
ATOM      8  C7  BZF d   1       1.093  -3.591   3.291  0.00  0.00     0.029 A 
ATOM      9  C7A BZF d   1       0.749  -4.490   4.270  0.00  0.00     0.058 A 
ENDROOT
TORSDOF 0
ENDMDL
