MODEL 1
REMARK minimizedAffinity 6.96514034
REMARK minimizedRMSD -1
REMARK  0 active torsions:
REMARK  status: ('A' for Active; 'I' for Inactive)
ROOT
ATOM      1  O1  BZF d   1      -0.611  -0.728   0.088  0.00  0.00    -0.204 OA
ATOM      2  C2  BZF d   1      -1.439  -1.725  -0.392  0.00  0.00     0.174 A 
ATOM      3  C3  BZF d   1      -1.096  -2.922   0.125  0.00  0.00    -0.012 A 
ATOM      4  C3A BZF d   1      -0.043  -2.644   1.053  0.00  0.00    -0.107 A 
ATOM      5  C4  BZF d   1       0.700  -3.424   1.891  0.00  0.00     0.055 A 
ATOM      6  C5  BZF d   1       1.700  -2.853   2.612  0.00  0.00    -0.016 A 
ATOM      7  C6  BZF d   1       1.988  -1.507   2.515  0.00  0.00     0.022 A 
ATOM      8  C7  BZF d   1       1.275  -0.692   1.701  0.00  0.00     0.029 A 
ATOM      9  C7A BZF d   1       0.242  -1.260   0.996  0.00  0.00     0.058 A 
ENDROOT
TORSDOF 0
ENDMDL
