MODEL 1
REMARK minimizedAffinity -2.44280767
REMARK minimizedRMSD -1
REMARK  0 active torsions:
REMARK  status: ('A' for Active; 'I' for Inactive)
ROOT
ATOM      1  O1  BZF d   1       1.486  -5.947  -4.562  0.00  0.00    -0.204 OA
ATOM      2  C2  BZF d   1       1.868  -5.948  -5.889  0.00  0.00     0.174 A 
ATOM      3  C3  BZF d   1       3.212  -5.912  -6.000  0.00  0.00    -0.012 A 
ATOM      4  C3A BZF d   1       3.702  -5.979  -4.657  0.00  0.00    -0.107 A 
ATOM      5  C4  BZF d   1       4.955  -5.997  -4.115  0.00  0.00     0.055 A 
ATOM      6  C5  BZF d   1       5.090  -5.993  -2.763  0.00  0.00    -0.016 A 
ATOM      7  C6  BZF d   1       3.995  -5.966  -1.924  0.00  0.00     0.022 A 
ATOM      8  C7  BZF d   1       2.732  -5.952  -2.415  0.00  0.00     0.029 A 
ATOM      9  C7A BZF d   1       2.592  -5.990  -3.781  0.00  0.00     0.058 A 
ENDROOT
TORSDOF 0
ENDMDL
