MODEL 1
REMARK minimizedAffinity 9.73382187
REMARK minimizedRMSD -1
REMARK  0 active torsions:
REMARK  status: ('A' for Active; 'I' for Inactive)
ROOT
ATOM      1  O1  BZF d   1      -2.213  -0.251  -2.896  0.00  0.00    -0.204 OA
ATOM      2  C2  BZF d   1      -3.189   0.359  -3.659  0.00  0.00     0.174 A 
ATOM      3  C3  BZF d   1      -3.677   1.448  -3.030  0.00  0.00    -0.012 A 
ATOM      4  C3A BZF d   1      -2.897   1.575  -1.838  0.00  0.00    -0.107 A 
ATOM      5  C4  BZF d   1      -2.894   2.473  -0.808  0.00  0.00     0.055 A 
ATOM      6  C5  BZF d   1      -2.054   2.272   0.241  0.00  0.00    -0.016 A 
ATOM      7  C6  BZF d   1      -1.208   1.184   0.296  0.00  0.00     0.022 A 
ATOM      8  C7  BZF d   1      -1.171   0.270  -0.704  0.00  0.00     0.029 A 
ATOM      9  C7A BZF d   1      -1.995   0.487  -1.781  0.00  0.00     0.058 A 
ENDROOT
TORSDOF 0
ENDMDL
