MODEL 1
REMARK minimizedAffinity 9.27475452
REMARK minimizedRMSD -1
REMARK  0 active torsions:
REMARK  status: ('A' for Active; 'I' for Inactive)
ROOT
ATOM      1  O1  BZF d   1       0.879  -0.912   3.968  0.00  0.00    -0.204 OA
ATOM      2  C2  BZF d   1       1.523  -0.265   2.931  0.00  0.00     0.174 A 
ATOM      3  C3  BZF d   1       2.366  -1.102   2.294  0.00  0.00    -0.012 A 
ATOM      4  C3A BZF d   1       2.173  -2.376   2.916  0.00  0.00    -0.107 A 
ATOM      5  C4  BZF d   1       2.715  -3.613   2.712  0.00  0.00     0.055 A 
ATOM      6  C5  BZF d   1       2.366  -4.632   3.540  0.00  0.00    -0.016 A 
ATOM      7  C6  BZF d   1       1.483  -4.449   4.584  0.00  0.00     0.022 A 
ATOM      8  C7  BZF d   1       0.916  -3.242   4.823  0.00  0.00     0.029 A 
ATOM      9  C7A BZF d   1       1.241  -2.218   3.968  0.00  0.00     0.058 A 
ENDROOT
TORSDOF 0
ENDMDL
