MODEL 1
REMARK minimizedAffinity 7.20153999
REMARK minimizedRMSD -1
REMARK  0 active torsions:
REMARK  status: ('A' for Active; 'I' for Inactive)
ROOT
ATOM      1  O1  BZF d   1       4.868  -3.609   5.218  0.00  0.00    -0.204 OA
ATOM      2  C2  BZF d   1       5.753  -2.648   4.768  0.00  0.00     0.174 A 
ATOM      3  C3  BZF d   1       5.199  -1.910   3.785  0.00  0.00    -0.012 A 
ATOM      4  C3A BZF d   1       3.853  -2.382   3.673  0.00  0.00    -0.107 A 
ATOM      5  C4  BZF d   1       2.797  -2.030   2.881  0.00  0.00     0.055 A 
ATOM      6  C5  BZF d   1       1.640  -2.737   2.970  0.00  0.00    -0.016 A 
ATOM      7  C6  BZF d   1       1.506  -3.804   3.834  0.00  0.00     0.022 A 
ATOM      8  C7  BZF d   1       2.524  -4.187   4.643  0.00  0.00     0.029 A 
ATOM      9  C7A BZF d   1       3.683  -3.454   4.579  0.00  0.00     0.058 A 
ENDROOT
TORSDOF 0
ENDMDL
