MODEL 1
REMARK minimizedAffinity 7.55868578
REMARK minimizedRMSD -1
REMARK  0 active torsions:
REMARK  status: ('A' for Active; 'I' for Inactive)
ROOT
ATOM      1  O1  BZF d   1      -3.720   1.821  -2.777  0.00  0.00    -0.204 OA
ATOM      2  C2  BZF d   1      -4.949   1.855  -3.407  0.00  0.00     0.174 A 
ATOM      3  C3  BZF d   1      -5.949   1.895  -2.504  0.00  0.00    -0.012 A 
ATOM      4  C3A BZF d   1      -5.302   1.979  -1.230  0.00  0.00    -0.107 A 
ATOM      5  C4  BZF d   1      -5.762   2.064   0.053  0.00  0.00     0.055 A 
ATOM      6  C5  BZF d   1      -4.869   2.057   1.077  0.00  0.00    -0.016 A 
ATOM      7  C6  BZF d   1      -3.511   1.962   0.855  0.00  0.00     0.022 A 
ATOM      8  C7  BZF d   1      -3.006   1.881  -0.401  0.00  0.00     0.029 A 
ATOM      9  C7A BZF d   1      -3.905   1.921  -1.439  0.00  0.00     0.058 A 
ENDROOT
TORSDOF 0
ENDMDL
