MODEL 1
REMARK minimizedAffinity 1.14536679
REMARK minimizedRMSD -1
REMARK  0 active torsions:
REMARK  status: ('A' for Active; 'I' for Inactive)
ROOT
ATOM      1  O1  BZF d   1      -5.002  -1.284  -6.000  0.00  0.00    -0.204 OA
ATOM      2  C2  BZF d   1      -4.191  -2.070  -5.204  0.00  0.00     0.174 A 
ATOM      3  C3  BZF d   1      -3.684  -1.352  -4.181  0.00  0.00    -0.012 A 
ATOM      4  C3A BZF d   1      -4.284  -0.058  -4.296  0.00  0.00    -0.107 A 
ATOM      5  C4  BZF d   1      -4.189   1.090  -3.562  0.00  0.00     0.055 A 
ATOM      6  C5  BZF d   1      -4.849   2.201  -3.984  0.00  0.00    -0.016 A 
ATOM      7  C6  BZF d   1      -5.607   2.201  -5.137  0.00  0.00     0.022 A 
ATOM      8  C7  BZF d   1      -5.735   1.085  -5.895  0.00  0.00     0.029 A 
ATOM      9  C7A BZF d   1      -5.096  -0.048  -5.453  0.00  0.00     0.058 A 
ENDROOT
TORSDOF 0
ENDMDL
