MODEL 1
REMARK minimizedAffinity 8.81243324
REMARK minimizedRMSD -1
REMARK  1 active torsions:
REMARK  status: ('A' for Active; 'I' for Inactive)
REMARK    1  A    between atoms: C1_2  and  C2_3 
ROOT
ATOM      1  C2  UNL d   1      -2.222   0.457   0.594  0.00  0.00    -0.076 A 
ATOM      2  C3  UNL d   1      -2.522   1.404   1.590  0.00  0.00     0.004 A 
ATOM      3  C4  UNL d   1      -1.965   1.306   2.864  0.00  0.00    -0.003 A 
ATOM      4  C5  UNL d   1      -1.097   0.261   3.162  0.00  0.00     0.000 A 
ATOM      5  C6  UNL d   1      -0.775  -0.677   2.182  0.00  0.00     0.000 A 
ATOM      6  C7  UNL d   1      -1.316  -0.583   0.888  0.00  0.00    -0.073 A 
ATOM      7  C8  UNL d   1      -0.938  -1.626  -0.129  0.00  0.00     0.078 C 
ENDROOT
BRANCH   1   8
ATOM      8  C1  UNL d   1      -2.879   0.599  -0.761  0.00  0.00     0.053 C 
ATOM      9  C   UNL d   1      -4.238   1.276  -0.682  0.00  0.00     0.018 C 
ENDBRANCH   1   8
TORSDOF 1
ENDMDL
