MODEL 1
REMARK minimizedAffinity 7.04003382
REMARK minimizedRMSD -1
REMARK  1 active torsions:
REMARK  status: ('A' for Active; 'I' for Inactive)
REMARK    1  A    between atoms: C1_2  and  C2_3 
ROOT
ATOM      1  C2  UNL d   1      -5.773   3.323  -0.990  0.00  0.00    -0.076 A 
ATOM      2  C3  UNL d   1      -5.715   4.382  -1.913  0.00  0.00     0.004 A 
ATOM      3  C4  UNL d   1      -5.805   5.707  -1.491  0.00  0.00    -0.003 A 
ATOM      4  C5  UNL d   1      -5.953   5.995  -0.139  0.00  0.00     0.000 A 
ATOM      5  C6  UNL d   1      -5.995   4.959   0.792  0.00  0.00     0.000 A 
ATOM      6  C7  UNL d   1      -5.889   3.617   0.385  0.00  0.00    -0.073 A 
ATOM      7  C8  UNL d   1      -5.946   2.539   1.432  0.00  0.00     0.078 C 
ENDROOT
BRANCH   1   8
ATOM      8  C1  UNL d   1      -5.698   1.905  -1.509  0.00  0.00     0.053 C 
ATOM      9  C   UNL d   1      -4.386   1.223  -1.153  0.00  0.00     0.018 C 
ENDBRANCH   1   8
TORSDOF 1
ENDMDL
