MODEL 1
REMARK minimizedAffinity 0.740928113
REMARK minimizedRMSD -1
REMARK  1 active torsions:
REMARK  status: ('A' for Active; 'I' for Inactive)
REMARK    1  A    between atoms: C1_2  and  C2_3 
ROOT
ATOM      1  C2  UNL d   1      -0.079   0.690   2.503  0.00  0.00    -0.076 A 
ATOM      2  C3  UNL d   1      -0.338   1.783   3.348  0.00  0.00     0.004 A 
ATOM      3  C4  UNL d   1       0.693   2.619   3.776  0.00  0.00    -0.003 A 
ATOM      4  C5  UNL d   1       1.998   2.375   3.364  0.00  0.00     0.000 A 
ATOM      5  C6  UNL d   1       2.270   1.306   2.512  0.00  0.00     0.000 A 
ATOM      6  C7  UNL d   1       1.241   0.463   2.058  0.00  0.00    -0.073 A 
ATOM      7  C8  UNL d   1       1.592  -0.679   1.145  0.00  0.00     0.078 C 
ENDROOT
BRANCH   1   8
ATOM      8  C1  UNL d   1      -1.233  -0.198   2.094  0.00  0.00     0.053 C 
ATOM      9  C   UNL d   1      -2.269   0.540   1.261  0.00  0.00     0.018 C 
ENDBRANCH   1   8
TORSDOF 1
ENDMDL
