MODEL 1
REMARK minimizedAffinity -1.09798217
REMARK minimizedRMSD -1
REMARK  1 active torsions:
REMARK  status: ('A' for Active; 'I' for Inactive)
REMARK    1  A    between atoms: C1_2  and  C2_3 
ROOT
ATOM      1  C2  UNL d   1      -0.261   0.870   2.268  0.00  0.00    -0.076 A 
ATOM      2  C3  UNL d   1      -0.412   1.863   3.251  0.00  0.00     0.004 A 
ATOM      3  C4  UNL d   1       0.646   2.707   3.587  0.00  0.00    -0.003 A 
ATOM      4  C5  UNL d   1       1.872   2.571   2.944  0.00  0.00     0.000 A 
ATOM      5  C6  UNL d   1       2.034   1.603   1.954  0.00  0.00     0.000 A 
ATOM      6  C7  UNL d   1       0.972   0.755   1.592  0.00  0.00    -0.073 A 
ATOM      7  C8  UNL d   1       1.205  -0.275   0.521  0.00  0.00     0.078 C 
ENDROOT
BRANCH   1   8
ATOM      8  C1  UNL d   1      -1.435  -0.033   1.965  0.00  0.00     0.053 C 
ATOM      9  C   UNL d   1      -2.397   0.579   0.959  0.00  0.00     0.018 C 
ENDBRANCH   1   8
TORSDOF 1
ENDMDL
