MODEL 1
REMARK minimizedAffinity 4.87918043
REMARK minimizedRMSD -1
REMARK  1 active torsions:
REMARK  status: ('A' for Active; 'I' for Inactive)
REMARK    1  A    between atoms: C1_2  and  C2_3 
ROOT
ATOM      1  C2  UNL d   1      -0.434  -0.000   2.381  0.00  0.00    -0.076 A 
ATOM      2  C3  UNL d   1      -0.373  -1.081   3.279  0.00  0.00     0.004 A 
ATOM      3  C4  UNL d   1      -1.523  -1.558   3.905  0.00  0.00    -0.003 A 
ATOM      4  C5  UNL d   1      -2.752  -0.963   3.644  0.00  0.00     0.000 A 
ATOM      5  C6  UNL d   1      -2.834   0.098   2.743  0.00  0.00     0.000 A 
ATOM      6  C7  UNL d   1      -1.686   0.581   2.090  0.00  0.00    -0.073 A 
ATOM      7  C8  UNL d   1      -1.831   1.732   1.133  0.00  0.00     0.078 C 
ENDROOT
BRANCH   1   8
ATOM      8  C1  UNL d   1       0.850   0.492   1.752  0.00  0.00     0.053 C 
ATOM      9  C   UNL d   1       2.062  -0.315   2.194  0.00  0.00     0.018 C 
ENDBRANCH   1   8
TORSDOF 1
ENDMDL
