MODEL 1
REMARK minimizedAffinity 3.08841443
REMARK minimizedRMSD -1
REMARK  1 active torsions:
REMARK  status: ('A' for Active; 'I' for Inactive)
REMARK    1  A    between atoms: C1_2  and  C2_3 
ROOT
ATOM      1  C2  UNL d   1      -1.661   0.644   1.640  0.00  0.00    -0.076 A 
ATOM      2  C3  UNL d   1      -1.975   1.996   1.418  0.00  0.00     0.004 A 
ATOM      3  C4  UNL d   1      -3.008   2.361   0.557  0.00  0.00    -0.003 A 
ATOM      4  C5  UNL d   1      -3.745   1.379  -0.097  0.00  0.00     0.000 A 
ATOM      5  C6  UNL d   1      -3.458   0.032   0.125  0.00  0.00     0.000 A 
ATOM      6  C7  UNL d   1      -2.430  -0.353   1.003  0.00  0.00    -0.073 A 
ATOM      7  C8  UNL d   1      -2.161  -1.819   1.200  0.00  0.00     0.078 C 
ENDROOT
BRANCH   1   8
ATOM      8  C1  UNL d   1      -0.512   0.310   2.564  0.00  0.00     0.053 C 
ATOM      9  C   UNL d   1       0.789   0.069   1.813  0.00  0.00     0.018 C 
ENDBRANCH   1   8
TORSDOF 1
ENDMDL
