MODEL 1
REMARK minimizedAffinity 6.35996819
REMARK minimizedRMSD -1
REMARK  1 active torsions:
REMARK  status: ('A' for Active; 'I' for Inactive)
REMARK    1  A    between atoms: C1_2  and  C2_3 
ROOT
ATOM      1  C2  UNL d   1      -1.205   0.196   2.178  0.00  0.00    -0.076 A 
ATOM      2  C3  UNL d   1      -1.985   1.193   2.790  0.00  0.00     0.004 A 
ATOM      3  C4  UNL d   1      -1.390   2.293   3.404  0.00  0.00    -0.003 A 
ATOM      4  C5  UNL d   1      -0.005   2.415   3.416  0.00  0.00     0.000 A 
ATOM      5  C6  UNL d   1       0.784   1.445   2.798  0.00  0.00     0.000 A 
ATOM      6  C7  UNL d   1       0.199   0.338   2.161  0.00  0.00    -0.073 A 
ATOM      7  C8  UNL d   1       1.097  -0.682   1.516  0.00  0.00     0.078 C 
ENDROOT
BRANCH   1   8
ATOM      8  C1  UNL d   1      -1.906  -0.989   1.552  0.00  0.00     0.053 C 
ATOM      9  C   UNL d   1      -2.753  -1.760   2.552  0.00  0.00     0.018 C 
ENDBRANCH   1   8
TORSDOF 1
ENDMDL
