MODEL 1
REMARK minimizedAffinity 3.31811738
REMARK minimizedRMSD -1
REMARK  1 active torsions:
REMARK  status: ('A' for Active; 'I' for Inactive)
REMARK    1  A    between atoms: C1_2  and  C2_3 
ROOT
ATOM      1  C2  UNL d   1      -0.062  -1.485  -0.064  0.00  0.00    -0.076 A 
ATOM      2  C3  UNL d   1      -1.297  -1.033   0.434  0.00  0.00     0.004 A 
ATOM      3  C4  UNL d   1      -1.366  -0.284   1.607  0.00  0.00    -0.003 A 
ATOM      4  C5  UNL d   1      -0.202   0.028   2.300  0.00  0.00     0.000 A 
ATOM      5  C6  UNL d   1       1.033  -0.397   1.811  0.00  0.00     0.000 A 
ATOM      6  C7  UNL d   1       1.122  -1.140   0.621  0.00  0.00    -0.073 A 
ATOM      7  C8  UNL d   1       2.479  -1.577   0.143  0.00  0.00     0.078 C 
ENDROOT
BRANCH   1   8
ATOM      8  C1  UNL d   1      -0.051  -2.317  -1.326  0.00  0.00     0.053 C 
ATOM      9  C   UNL d   1      -0.582  -3.725  -1.101  0.00  0.00     0.018 C 
ENDBRANCH   1   8
TORSDOF 1
ENDMDL
