MODEL 1
REMARK minimizedAffinity 6.66152763
REMARK minimizedRMSD -1
REMARK  1 active torsions:
REMARK  status: ('A' for Active; 'I' for Inactive)
REMARK    1  A    between atoms: C1_2  and  C2_3 
ROOT
ATOM      1  C2  UNL d   1       1.029  -0.069   2.007  0.00  0.00    -0.076 A 
ATOM      2  C3  UNL d   1       0.153   0.204   3.072  0.00  0.00     0.004 A 
ATOM      3  C4  UNL d   1      -1.227   0.087   2.914  0.00  0.00    -0.003 A 
ATOM      4  C5  UNL d   1      -1.753  -0.306   1.688  0.00  0.00     0.000 A 
ATOM      5  C6  UNL d   1      -0.898  -0.598   0.626  0.00  0.00     0.000 A 
ATOM      6  C7  UNL d   1       0.497  -0.500   0.774  0.00  0.00    -0.073 A 
ATOM      7  C8  UNL d   1       1.372  -0.821  -0.407  0.00  0.00     0.078 C 
ENDROOT
BRANCH   1   8
ATOM      8  C1  UNL d   1       2.515   0.102   2.230  0.00  0.00     0.053 C 
ATOM      9  C   UNL d   1       3.308  -1.140   1.852  0.00  0.00     0.018 C 
ENDBRANCH   1   8
TORSDOF 1
ENDMDL
