MODEL 1
REMARK minimizedAffinity -4.55111456
REMARK minimizedRMSD -1
REMARK  0 active torsions:
REMARK  status: ('A' for Active; 'I' for Inactive)
ROOT
ATOM      1  C1  BNZ d   1       0.792  -0.570  -0.511  0.00  0.00     0.000 A 
ATOM      2  C2  BNZ d   1       2.081  -0.775  -0.097  0.00  0.00     0.000 A 
ATOM      3  C3  BNZ d   1       2.700   0.119   0.731  0.00  0.00     0.000 A 
ATOM      4  C4  BNZ d   1       2.045   1.235   1.110  0.00  0.00     0.000 A 
ATOM      5  C5  BNZ d   1       0.748   1.461   0.693  0.00  0.00     0.000 A 
ATOM      6  C6  BNZ d   1       0.114   0.539  -0.109  0.00  0.00     0.000 A 
ENDROOT
TORSDOF 0
ENDMDL
