MODEL 1
REMARK minimizedAffinity -2.93409991
REMARK minimizedRMSD -1
REMARK  0 active torsions:
REMARK  status: ('A' for Active; 'I' for Inactive)
ROOT
ATOM      1  C1  BNZ d   1       0.435   0.770   0.105  0.00  0.00     0.000 A 
ATOM      2  C2  BNZ d   1       1.715   1.117   0.448  0.00  0.00     0.000 A 
ATOM      3  C3  BNZ d   1       2.641   0.160   0.757  0.00  0.00     0.000 A 
ATOM      4  C4  BNZ d   1       2.276  -1.139   0.761  0.00  0.00     0.000 A 
ATOM      5  C5  BNZ d   1       0.987  -1.504   0.426  0.00  0.00     0.000 A 
ATOM      6  C6  BNZ d   1       0.068  -0.540   0.079  0.00  0.00     0.000 A 
ENDROOT
TORSDOF 0
ENDMDL
