MODEL 1
REMARK minimizedAffinity 0.907789648
REMARK minimizedRMSD -1
REMARK  0 active torsions:
REMARK  status: ('A' for Active; 'I' for Inactive)
ROOT
ATOM      1  C1  BNZ d   1       0.080  -1.155   0.469  0.00  0.00     0.000 A 
ATOM      2  C2  BNZ d   1      -0.088   0.082   1.033  0.00  0.00     0.000 A 
ATOM      3  C3  BNZ d   1      -0.685   1.094   0.335  0.00  0.00     0.000 A 
ATOM      4  C4  BNZ d   1      -1.078   0.880  -0.937  0.00  0.00     0.000 A 
ATOM      5  C5  BNZ d   1      -0.908  -0.358  -1.522  0.00  0.00     0.000 A 
ATOM      6  C6  BNZ d   1      -0.341  -1.386  -0.804  0.00  0.00     0.000 A 
ENDROOT
TORSDOF 0
ENDMDL
