MODEL 1
REMARK minimizedAffinity -4.78095675
REMARK minimizedRMSD -1
REMARK  0 active torsions:
REMARK  status: ('A' for Active; 'I' for Inactive)
ROOT
ATOM      1  C1  BNZ d   1       3.232  -1.135   1.447  0.00  0.00     0.000 A 
ATOM      2  C2  BNZ d   1       3.086  -0.072   0.595  0.00  0.00     0.000 A 
ATOM      3  C3  BNZ d   1       1.859   0.253   0.087  0.00  0.00     0.000 A 
ATOM      4  C4  BNZ d   1       0.790  -0.506   0.399  0.00  0.00     0.000 A 
ATOM      5  C5  BNZ d   1       0.923  -1.587   1.248  0.00  0.00     0.000 A 
ATOM      6  C6  BNZ d   1       2.152  -1.888   1.788  0.00  0.00     0.000 A 
ENDROOT
TORSDOF 0
ENDMDL
