MODEL 1
REMARK minimizedAffinity -4.90864515
REMARK minimizedRMSD -1
REMARK  0 active torsions:
REMARK  status: ('A' for Active; 'I' for Inactive)
ROOT
ATOM      1  C1  BNZ d   1       2.547   0.060   0.649  0.00  0.00     0.000 A 
ATOM      2  C2  BNZ d   1       2.915  -1.074   1.322  0.00  0.00     0.000 A 
ATOM      3  C3  BNZ d   1       1.986  -2.014   1.670  0.00  0.00     0.000 A 
ATOM      4  C4  BNZ d   1       0.686  -1.800   1.380  0.00  0.00     0.000 A 
ATOM      5  C5  BNZ d   1       0.298  -0.657   0.710  0.00  0.00     0.000 A 
ATOM      6  C6  BNZ d   1       1.242   0.268   0.327  0.00  0.00     0.000 A 
ENDROOT
TORSDOF 0
ENDMDL
