MODEL 1
REMARK minimizedAffinity -0.82904911
REMARK minimizedRMSD -1
REMARK  0 active torsions:
REMARK  status: ('A' for Active; 'I' for Inactive)
ROOT
ATOM      1  C1  BNZ d   1       0.401   0.597   0.632  0.00  0.00     0.000 A 
ATOM      2  C2  BNZ d   1       1.437   0.158   1.414  0.00  0.00     0.000 A 
ATOM      3  C3  BNZ d   1       2.350   1.038   1.924  0.00  0.00     0.000 A 
ATOM      4  C4  BNZ d   1       2.249   2.349   1.621  0.00  0.00     0.000 A 
ATOM      5  C5  BNZ d   1       1.216   2.805   0.827  0.00  0.00     0.000 A 
ATOM      6  C6  BNZ d   1       0.277   1.921   0.347  0.00  0.00     0.000 A 
ENDROOT
TORSDOF 0
ENDMDL
