MODEL 1
REMARK minimizedAffinity -1.14979017
REMARK minimizedRMSD -1
REMARK  0 active torsions:
REMARK  status: ('A' for Active; 'I' for Inactive)
ROOT
ATOM      1  C1  BNZ d   1       1.024   1.075   1.165  0.00  0.00     0.000 A 
ATOM      2  C2  BNZ d   1       2.038   0.854   2.058  0.00  0.00     0.000 A 
ATOM      3  C3  BNZ d   1       2.032  -0.250   2.864  0.00  0.00     0.000 A 
ATOM      4  C4  BNZ d   1       0.994  -1.109   2.804  0.00  0.00     0.000 A 
ATOM      5  C5  BNZ d   1      -0.041  -0.894   1.916  0.00  0.00     0.000 A 
ATOM      6  C6  BNZ d   1      -0.013   0.197   1.079  0.00  0.00     0.000 A 
ENDROOT
TORSDOF 0
ENDMDL
