MODEL 1
REMARK minimizedAffinity -2.54447031
REMARK minimizedRMSD -1
REMARK  0 active torsions:
REMARK  status: ('A' for Active; 'I' for Inactive)
ROOT
ATOM      1  C1  BNZ d   1       0.686  -0.725   0.958  0.00  0.00     0.000 A 
ATOM      2  C2  BNZ d   1       0.733  -1.837   1.757  0.00  0.00     0.000 A 
ATOM      3  C3  BNZ d   1       1.785  -2.045   2.604  0.00  0.00     0.000 A 
ATOM      4  C4  BNZ d   1       2.807  -1.165   2.622  0.00  0.00     0.000 A 
ATOM      5  C5  BNZ d   1       2.778  -0.044   1.816  0.00  0.00     0.000 A 
ATOM      6  C6  BNZ d   1       1.699   0.183   0.993  0.00  0.00     0.000 A 
ENDROOT
TORSDOF 0
ENDMDL
