MODEL 1
REMARK minimizedAffinity -4.92287254
REMARK minimizedRMSD -1
REMARK  0 active torsions:
REMARK  status: ('A' for Active; 'I' for Inactive)
ROOT
ATOM      1  C1  BNZ d   1       0.984   1.543   0.586  0.00  0.00     0.000 A 
ATOM      2  C2  BNZ d   1       0.125   0.530   0.254  0.00  0.00     0.000 A 
ATOM      3  C3  BNZ d   1       0.502  -0.778   0.383  0.00  0.00     0.000 A 
ATOM      4  C4  BNZ d   1       1.750  -1.069   0.804  0.00  0.00     0.000 A 
ATOM      5  C5  BNZ d   1       2.630  -0.058   1.134  0.00  0.00     0.000 A 
ATOM      6  C6  BNZ d   1       2.234   1.256   1.041  0.00  0.00     0.000 A 
ENDROOT
TORSDOF 0
ENDMDL
