MODEL 1
REMARK minimizedAffinity -3.38728738
REMARK minimizedRMSD -1
REMARK  0 active torsions:
REMARK  status: ('A' for Active; 'I' for Inactive)
ROOT
ATOM      1  C1  BNZ d   1       0.768  -1.350   0.926  0.00  0.00     0.000 A 
ATOM      2  C2  BNZ d   1       1.229  -0.178   0.389  0.00  0.00     0.000 A 
ATOM      3  C3  BNZ d   1       0.360   0.790  -0.031  0.00  0.00     0.000 A 
ATOM      4  C4  BNZ d   1      -0.968   0.568   0.049  0.00  0.00     0.000 A 
ATOM      5  C5  BNZ d   1      -1.449  -0.613   0.579  0.00  0.00     0.000 A 
ATOM      6  C6  BNZ d   1      -0.571  -1.568   1.037  0.00  0.00     0.000 A 
ENDROOT
TORSDOF 0
ENDMDL
