MODEL 1
REMARK minimizedAffinity -5.69669342
REMARK minimizedRMSD -1
REMARK  0 active torsions:
REMARK  status: ('A' for Active; 'I' for Inactive)
ROOT
ATOM      1  C1  DEN d   1       0.400   0.182  -0.506  0.00  0.00     0.130 A 
ATOM      2  C2  DEN d   1       1.747  -0.086  -1.002  0.00  0.00    -0.031 A 
ATOM      3  C3  DEN d   1       2.326  -1.172  -0.187  0.00  0.00     0.027 A 
ATOM      4  C4  DEN d   1       1.271  -2.463   1.782  0.00  0.00     0.027 A 
ATOM      5  C5  DEN d   1       0.151  -2.582   2.574  0.00  0.00    -0.003 A 
ATOM      6  C6  DEN d   1      -0.943  -1.773   2.418  0.00  0.00     0.001 A 
ATOM      7  C7  DEN d   1      -0.958  -0.836   1.418  0.00  0.00     0.017 A 
ATOM      8  C8  DEN d   1       0.171  -0.705   0.621  0.00  0.00    -0.094 A 
ATOM      9  C9  DEN d   1       1.262  -1.541   0.786  0.00  0.00    -0.072 A 
ENDROOT
TORSDOF 0
ENDMDL
