MODEL 1
REMARK minimizedAffinity -6.98914957
REMARK minimizedRMSD -1
REMARK  0 active torsions:
REMARK  status: ('A' for Active; 'I' for Inactive)
ROOT
ATOM      1  C1  DEN d   1       0.863   0.226  -0.414  0.00  0.00     0.130 A 
ATOM      2  C2  DEN d   1      -0.267   1.137  -0.256  0.00  0.00    -0.031 A 
ATOM      3  C3  DEN d   1      -1.135   0.607   0.815  0.00  0.00     0.027 A 
ATOM      4  C4  DEN d   1      -0.836  -1.522   2.241  0.00  0.00     0.027 A 
ATOM      5  C5  DEN d   1      -0.035  -2.620   2.464  0.00  0.00    -0.003 A 
ATOM      6  C6  DEN d   1       1.093  -2.863   1.726  0.00  0.00     0.001 A 
ATOM      7  C7  DEN d   1       1.478  -1.971   0.760  0.00  0.00     0.017 A 
ATOM      8  C8  DEN d   1       0.672  -0.865   0.524  0.00  0.00    -0.094 A 
ATOM      9  C9  DEN d   1      -0.459  -0.631   1.289  0.00  0.00    -0.072 A 
ENDROOT
TORSDOF 0
ENDMDL
