MODEL 1
REMARK minimizedAffinity -6.84006882
REMARK minimizedRMSD -1
REMARK  0 active torsions:
REMARK  status: ('A' for Active; 'I' for Inactive)
ROOT
ATOM      1  C1  DEN d   1       1.421   0.014  -0.655  0.00  0.00     0.130 A 
ATOM      2  C2  DEN d   1       0.220   0.842  -0.728  0.00  0.00    -0.031 A 
ATOM      3  C3  DEN d   1      -0.743   0.338   0.273  0.00  0.00     0.027 A 
ATOM      4  C4  DEN d   1      -0.489  -1.629   1.922  0.00  0.00     0.027 A 
ATOM      5  C5  DEN d   1       0.349  -2.636   2.347  0.00  0.00    -0.003 A 
ATOM      6  C6  DEN d   1       1.579  -2.850   1.783  0.00  0.00     0.001 A 
ATOM      7  C7  DEN d   1       2.025  -2.017   0.791  0.00  0.00     0.017 A 
ATOM      8  C8  DEN d   1       1.183  -1.004   0.352  0.00  0.00    -0.094 A 
ATOM      9  C9  DEN d   1      -0.052  -0.796   0.944  0.00  0.00    -0.072 A 
ENDROOT
TORSDOF 0
ENDMDL
