MODEL 1
REMARK minimizedAffinity -3.77930546
REMARK minimizedRMSD -1
REMARK  0 active torsions:
REMARK  status: ('A' for Active; 'I' for Inactive)
ROOT
ATOM      1  C1  DEN d   1       0.561   1.212  -1.023  0.00  0.00     0.130 A 
ATOM      2  C2  DEN d   1      -0.763   1.646  -0.587  0.00  0.00    -0.031 A 
ATOM      3  C3  DEN d   1      -1.256   0.677   0.412  0.00  0.00     0.027 A 
ATOM      4  C4  DEN d   1      -0.100  -1.441   1.325  0.00  0.00     0.027 A 
ATOM      5  C5  DEN d   1       1.029  -2.226   1.245  0.00  0.00    -0.003 A 
ATOM      6  C6  DEN d   1       2.057  -1.942   0.387  0.00  0.00     0.001 A 
ATOM      7  C7  DEN d   1       1.998  -0.818  -0.395  0.00  0.00     0.017 A 
ATOM      8  C8  DEN d   1       0.860  -0.026  -0.326  0.00  0.00    -0.094 A 
ATOM      9  C9  DEN d   1      -0.164  -0.324   0.557  0.00  0.00    -0.072 A 
ENDROOT
TORSDOF 0
ENDMDL
