MODEL 1
REMARK minimizedAffinity -5.5758605
REMARK minimizedRMSD -1
REMARK  0 active torsions:
REMARK  status: ('A' for Active; 'I' for Inactive)
ROOT
ATOM      1  C1  DEN d   1      -0.749   0.471  -0.060  0.00  0.00     0.130 A 
ATOM      2  C2  DEN d   1       0.219   1.044  -0.992  0.00  0.00    -0.031 A 
ATOM      3  C3  DEN d   1       1.469   0.265  -0.888  0.00  0.00     0.027 A 
ATOM      4  C4  DEN d   1       1.996  -1.765   0.613  0.00  0.00     0.027 A 
ATOM      5  C5  DEN d   1       1.492  -2.607   1.581  0.00  0.00    -0.003 A 
ATOM      6  C6  DEN d   1       0.229  -2.461   2.090  0.00  0.00     0.001 A 
ATOM      7  C7  DEN d   1      -0.591  -1.478   1.601  0.00  0.00     0.017 A 
ATOM      8  C8  DEN d   1      -0.088  -0.622   0.630  0.00  0.00    -0.094 A 
ATOM      9  C9  DEN d   1       1.188  -0.793   0.120  0.00  0.00    -0.072 A 
ENDROOT
TORSDOF 0
ENDMDL
