MODEL 1
REMARK minimizedAffinity -2.98795676
REMARK minimizedRMSD -1
REMARK  0 active torsions:
REMARK  status: ('A' for Active; 'I' for Inactive)
ROOT
ATOM      1  C1  DEN d   1       1.533   0.421  -0.470  0.00  0.00     0.130 A 
ATOM      2  C2  DEN d   1       0.245   1.077  -0.685  0.00  0.00    -0.031 A 
ATOM      3  C3  DEN d   1      -0.776   0.343   0.090  0.00  0.00     0.027 A 
ATOM      4  C4  DEN d   1      -0.489  -1.730   1.597  0.00  0.00     0.027 A 
ATOM      5  C5  DEN d   1       0.415  -2.650   2.081  0.00  0.00    -0.003 A 
ATOM      6  C6  DEN d   1       1.738  -2.631   1.725  0.00  0.00     0.001 A 
ATOM      7  C7  DEN d   1       2.203  -1.645   0.895  0.00  0.00     0.017 A 
ATOM      8  C8  DEN d   1       1.296  -0.719   0.397  0.00  0.00    -0.094 A 
ATOM      9  C9  DEN d   1      -0.034  -0.747   0.779  0.00  0.00    -0.072 A 
ENDROOT
TORSDOF 0
ENDMDL
