MODEL 1
REMARK minimizedAffinity -3.68311548
REMARK minimizedRMSD -1
REMARK  0 active torsions:
REMARK  status: ('A' for Active; 'I' for Inactive)
ROOT
ATOM      1  C1  DEN d   1      -0.602   0.279   0.392  0.00  0.00     0.130 A 
ATOM      2  C2  DEN d   1       0.178   0.908  -0.670  0.00  0.00    -0.031 A 
ATOM      3  C3  DEN d   1       1.427   0.139  -0.836  0.00  0.00     0.027 A 
ATOM      4  C4  DEN d   1       2.223  -1.957   0.439  0.00  0.00     0.027 A 
ATOM      5  C5  DEN d   1       1.907  -2.851   1.438  0.00  0.00    -0.003 A 
ATOM      6  C6  DEN d   1       0.757  -2.745   2.176  0.00  0.00     0.001 A 
ATOM      7  C7  DEN d   1      -0.140  -1.748   1.894  0.00  0.00     0.017 A 
ATOM      8  C8  DEN d   1       0.176  -0.839   0.893  0.00  0.00    -0.094 A 
ATOM      9  C9  DEN d   1       1.337  -0.970   0.151  0.00  0.00    -0.072 A 
ENDROOT
TORSDOF 0
ENDMDL
