MODEL 1
REMARK minimizedAffinity -5.85108042
REMARK minimizedRMSD -1
REMARK  0 active torsions:
REMARK  status: ('A' for Active; 'I' for Inactive)
ROOT
ATOM      1  C1  DEN d   1      -0.825  -1.383   2.192  0.00  0.00     0.130 A 
ATOM      2  C2  DEN d   1      -0.400  -2.635   2.812  0.00  0.00    -0.031 A 
ATOM      3  C3  DEN d   1       0.750  -3.156   2.046  0.00  0.00     0.027 A 
ATOM      4  C4  DEN d   1       1.912  -2.148  -0.024  0.00  0.00     0.027 A 
ATOM      5  C5  DEN d   1       1.900  -1.102  -0.920  0.00  0.00    -0.003 A 
ATOM      6  C6  DEN d   1       0.965  -0.102  -0.862  0.00  0.00     0.001 A 
ATOM      7  C7  DEN d   1       0.031  -0.104   0.139  0.00  0.00     0.017 A 
ATOM      8  C8  DEN d   1       0.032  -1.159   1.042  0.00  0.00    -0.094 A 
ATOM      9  C9  DEN d   1       0.993  -2.154   0.974  0.00  0.00    -0.072 A 
ENDROOT
TORSDOF 0
ENDMDL
