MODEL 1
REMARK minimizedAffinity -6.27203131
REMARK minimizedRMSD -1
REMARK  0 active torsions:
REMARK  status: ('A' for Active; 'I' for Inactive)
ROOT
ATOM      1  C1  DEN d   1      -0.664   0.626   0.532  0.00  0.00     0.130 A 
ATOM      2  C2  DEN d   1       0.271   1.105  -0.483  0.00  0.00    -0.031 A 
ATOM      3  C3  DEN d   1       1.349   0.105  -0.619  0.00  0.00     0.027 A 
ATOM      4  C4  DEN d   1       1.656  -2.130   0.631  0.00  0.00     0.027 A 
ATOM      5  C5  DEN d   1       1.126  -2.960   1.594  0.00  0.00    -0.003 A 
ATOM      6  C6  DEN d   1      -0.011  -2.640   2.288  0.00  0.00     0.001 A 
ATOM      7  C7  DEN d   1      -0.679  -1.480   1.998  0.00  0.00     0.017 A 
ATOM      8  C8  DEN d   1      -0.146  -0.634   1.034  0.00  0.00    -0.094 A 
ATOM      9  C9  DEN d   1       0.997  -0.982   0.334  0.00  0.00    -0.072 A 
ENDROOT
TORSDOF 0
ENDMDL
