MODEL 1
REMARK minimizedAffinity -7.03165245
REMARK minimizedRMSD -1
REMARK  0 active torsions:
REMARK  status: ('A' for Active; 'I' for Inactive)
ROOT
ATOM      1  C1  DEN d   1       1.547  -2.261   0.858  0.00  0.00     0.130 A 
ATOM      2  C2  DEN d   1       1.138  -3.096   1.984  0.00  0.00    -0.031 A 
ATOM      3  C3  DEN d   1       0.034  -2.410   2.684  0.00  0.00     0.027 A 
ATOM      4  C4  DEN d   1      -1.079  -0.149   2.135  0.00  0.00     0.027 A 
ATOM      5  C5  DEN d   1      -1.064   0.931   1.279  0.00  0.00    -0.003 A 
ATOM      6  C6  DEN d   1      -0.164   1.037   0.253  0.00  0.00     0.001 A 
ATOM      7  C7  DEN d   1       0.731   0.025   0.028  0.00  0.00     0.017 A 
ATOM      8  C8  DEN d   1       0.728  -1.063   0.890  0.00  0.00    -0.094 A 
ATOM      9  C9  DEN d   1      -0.198  -1.158   1.915  0.00  0.00    -0.072 A 
ENDROOT
TORSDOF 0
ENDMDL
