MODEL 1
REMARK minimizedAffinity -5.71169519
REMARK minimizedRMSD -1
REMARK  0 active torsions:
REMARK  status: ('A' for Active; 'I' for Inactive)
ROOT
ATOM      1  C1  DEN d   1      -0.754   0.146   0.802  0.00  0.00     0.130 A 
ATOM      2  C2  DEN d   1       0.029   0.606  -0.342  0.00  0.00    -0.031 A 
ATOM      3  C3  DEN d   1       1.129  -0.355  -0.560  0.00  0.00     0.027 A 
ATOM      4  C4  DEN d   1       1.690  -2.503   0.753  0.00  0.00     0.027 A 
ATOM      5  C5  DEN d   1       1.319  -3.300   1.813  0.00  0.00    -0.003 A 
ATOM      6  C6  DEN d   1       0.260  -2.989   2.624  0.00  0.00     0.001 A 
ATOM      7  C7  DEN d   1      -0.492  -1.875   2.361  0.00  0.00     0.017 A 
ATOM      8  C8  DEN d   1      -0.120  -1.062   1.298  0.00  0.00    -0.094 A 
ATOM      9  C9  DEN d   1       0.946  -1.400   0.482  0.00  0.00    -0.072 A 
ENDROOT
TORSDOF 0
ENDMDL
