MODEL 1
REMARK minimizedAffinity -2.85387826
REMARK minimizedRMSD -1
REMARK  0 active torsions:
REMARK  status: ('A' for Active; 'I' for Inactive)
ROOT
ATOM      1  C1  DEN d   1       1.627   0.663  -0.918  0.00  0.00     0.130 A 
ATOM      2  C2  DEN d   1       0.375   1.406  -1.033  0.00  0.00    -0.031 A 
ATOM      3  C3  DEN d   1      -0.679   0.634  -0.344  0.00  0.00     0.027 A 
ATOM      4  C4  DEN d   1      -0.494  -1.624   0.887  0.00  0.00     0.027 A 
ATOM      5  C5  DEN d   1       0.363  -2.643   1.241  0.00  0.00    -0.003 A 
ATOM      6  C6  DEN d   1       1.683  -2.648   0.874  0.00  0.00     0.001 A 
ATOM      7  C7  DEN d   1       2.195  -1.591   0.168  0.00  0.00     0.017 A 
ATOM      8  C8  DEN d   1       1.335  -0.563  -0.198  0.00  0.00    -0.094 A 
ATOM      9  C9  DEN d   1       0.007  -0.571   0.193  0.00  0.00    -0.072 A 
ENDROOT
TORSDOF 0
ENDMDL
