MODEL 1
REMARK minimizedAffinity -4.57135773
REMARK minimizedRMSD -1
REMARK  0 active torsions:
REMARK  status: ('A' for Active; 'I' for Inactive)
ROOT
ATOM      1  C1  DEN d   1       0.623   0.228  -0.561  0.00  0.00     0.130 A 
ATOM      2  C2  DEN d   1      -0.706   0.770  -0.294  0.00  0.00    -0.031 A 
ATOM      3  C3  DEN d   1      -1.237   0.103   0.912  0.00  0.00     0.027 A 
ATOM      4  C4  DEN d   1      -0.133  -1.703   2.386  0.00  0.00     0.027 A 
ATOM      5  C5  DEN d   1       0.987  -2.487   2.550  0.00  0.00    -0.003 A 
ATOM      6  C6  DEN d   1       2.041  -2.447   1.677  0.00  0.00     0.001 A 
ATOM      7  C7  DEN d   1       2.017  -1.571   0.624  0.00  0.00     0.017 A 
ATOM      8  C8  DEN d   1       0.888  -0.782   0.448  0.00  0.00    -0.094 A 
ATOM      9  C9  DEN d   1      -0.162  -0.829   1.349  0.00  0.00    -0.072 A 
ENDROOT
TORSDOF 0
ENDMDL
