MODEL 1
REMARK minimizedAffinity 0.11965815
REMARK minimizedRMSD -1
REMARK  0 active torsions:
REMARK  status: ('A' for Active; 'I' for Inactive)
ROOT
ATOM      1  C1  DEN d   1       0.424  -1.893   2.135  0.00  0.00     0.130 A 
ATOM      2  C2  DEN d   1       1.756  -2.413   1.839  0.00  0.00    -0.031 A 
ATOM      3  C3  DEN d   1       2.272  -1.699   0.654  0.00  0.00     0.027 A 
ATOM      4  C4  DEN d   1       1.146   0.155  -0.741  0.00  0.00     0.027 A 
ATOM      5  C5  DEN d   1       0.009   0.920  -0.882  0.00  0.00    -0.003 A 
ATOM      6  C6  DEN d   1      -1.073   0.778  -0.055  0.00  0.00     0.001 A 
ATOM      7  C7  DEN d   1      -1.025  -0.119   0.979  0.00  0.00     0.017 A 
ATOM      8  C8  DEN d   1       0.115  -0.899   1.123  0.00  0.00    -0.094 A 
ATOM      9  C9  DEN d   1       1.204  -0.732   0.284  0.00  0.00    -0.072 A 
ENDROOT
TORSDOF 0
ENDMDL
