MODEL 1
REMARK minimizedAffinity -0.910830915
REMARK minimizedRMSD -1
REMARK  0 active torsions:
REMARK  status: ('A' for Active; 'I' for Inactive)
ROOT
ATOM      1  C1  DEN d   1       0.626  -1.990   1.595  0.00  0.00     0.130 A 
ATOM      2  C2  DEN d   1       2.043  -2.317   1.458  0.00  0.00    -0.031 A 
ATOM      3  C3  DEN d   1       2.672  -1.278   0.618  0.00  0.00     0.027 A 
ATOM      4  C4  DEN d   1       1.597   0.797  -0.474  0.00  0.00     0.027 A 
ATOM      5  C5  DEN d   1       0.420   1.489  -0.650  0.00  0.00    -0.003 A 
ATOM      6  C6  DEN d   1      -0.768   1.056  -0.123  0.00  0.00     0.001 A 
ATOM      7  C7  DEN d   1      -0.797  -0.078   0.644  0.00  0.00     0.017 A 
ATOM      8  C8  DEN d   1       0.385  -0.786   0.820  0.00  0.00    -0.094 A 
ATOM      9  C9  DEN d   1       1.578  -0.325   0.290  0.00  0.00    -0.072 A 
ENDROOT
TORSDOF 0
ENDMDL
