MODEL 1
REMARK minimizedAffinity -5.12867212
REMARK minimizedRMSD -1
REMARK  0 active torsions:
REMARK  status: ('A' for Active; 'I' for Inactive)
ROOT
ATOM      1  C4' PXY d   1      -1.176  -1.420  -1.632  0.00  0.00     0.077 C 
ATOM      2  C1' PXY d   1       1.928   2.569   1.171  0.00  0.00     0.077 C 
ATOM      3  C1  PXY d   1       1.125   1.517   0.433  0.00  0.00    -0.082 A 
ATOM      4  C2  PXY d   1      -0.084   1.812  -0.015  0.00  0.00     0.003 A 
ATOM      5  C3  PXY d   1      -0.837   0.862  -0.657  0.00  0.00     0.003 A 
ATOM      6  C4  PXY d   1      -0.326  -0.386  -0.889  0.00  0.00    -0.082 A 
ATOM      7  C5  PXY d   1       0.912  -0.692  -0.445  0.00  0.00     0.003 A 
ATOM      8  C6  PXY d   1       1.644   0.274   0.240  0.00  0.00     0.003 A 
ENDROOT
TORSDOF 0
ENDMDL
