MODEL 1
REMARK minimizedAffinity -1.78523088
REMARK minimizedRMSD -1
REMARK  0 active torsions:
REMARK  status: ('A' for Active; 'I' for Inactive)
ROOT
ATOM      1  C4' PXY d   1      -1.351  -2.323   1.169  0.00  0.00     0.077 C 
ATOM      2  C1' PXY d   1       1.291   2.618  -0.255  0.00  0.00     0.077 C 
ATOM      3  C1  PXY d   1       0.588   1.325   0.111  0.00  0.00    -0.082 A 
ATOM      4  C2  PXY d   1       0.860   0.736   1.264  0.00  0.00     0.003 A 
ATOM      5  C3  PXY d   1       0.257  -0.450   1.596  0.00  0.00     0.003 A 
ATOM      6  C4  PXY d   1      -0.672  -1.012   0.763  0.00  0.00    -0.082 A 
ATOM      7  C5  PXY d   1      -0.963  -0.412  -0.411  0.00  0.00     0.003 A 
ATOM      8  C6  PXY d   1      -0.310   0.770  -0.748  0.00  0.00     0.003 A 
ENDROOT
TORSDOF 0
ENDMDL
