MODEL 1
REMARK minimizedAffinity -0.815836608
REMARK minimizedRMSD -1
REMARK  0 active torsions:
REMARK  status: ('A' for Active; 'I' for Inactive)
ROOT
ATOM      1  C4' PXY d   1      -0.784  -2.283   1.887  0.00  0.00     0.077 C 
ATOM      2  C1' PXY d   1       1.055   3.160   1.250  0.00  0.00     0.077 C 
ATOM      3  C1  PXY d   1       0.573   1.731   1.404  0.00  0.00    -0.082 A 
ATOM      4  C2  PXY d   1      -0.105   1.382   2.486  0.00  0.00     0.003 A 
ATOM      5  C3  PXY d   1      -0.520   0.087   2.656  0.00  0.00     0.003 A 
ATOM      6  C4  PXY d   1      -0.286  -0.849   1.685  0.00  0.00    -0.082 A 
ATOM      7  C5  PXY d   1       0.395  -0.499   0.574  0.00  0.00     0.003 A 
ATOM      8  C6  PXY d   1       0.844   0.812   0.439  0.00  0.00     0.003 A 
ENDROOT
TORSDOF 0
ENDMDL
