MODEL 1
REMARK minimizedAffinity 5.78226566
REMARK minimizedRMSD -1
REMARK  0 active torsions:
REMARK  status: ('A' for Active; 'I' for Inactive)
ROOT
ATOM      1  C4' PXY d   1      -1.108   0.014   1.163  0.00  0.00     0.077 C 
ATOM      2  C1' PXY d   1       3.746   0.020  -1.976  0.00  0.00     0.077 C 
ATOM      3  C1  PXY d   1       2.479   0.024  -1.142  0.00  0.00    -0.082 A 
ATOM      4  C2  PXY d   1       1.519  -0.848  -1.407  0.00  0.00     0.003 A 
ATOM      5  C3  PXY d   1       0.354  -0.837  -0.684  0.00  0.00     0.003 A 
ATOM      6  C4  PXY d   1       0.191   0.040   0.355  0.00  0.00    -0.082 A 
ATOM      7  C5  PXY d   1       1.170   0.926   0.637  0.00  0.00     0.003 A 
ATOM      8  C6  PXY d   1       2.328   0.926  -0.135  0.00  0.00     0.003 A 
ENDROOT
TORSDOF 0
ENDMDL
