MODEL 1
REMARK minimizedAffinity -1.13747132
REMARK minimizedRMSD -1
REMARK  0 active torsions:
REMARK  status: ('A' for Active; 'I' for Inactive)
ROOT
ATOM      1  C4' PXY d   1       1.304   1.437   2.792  0.00  0.00     0.077 C 
ATOM      2  C1' PXY d   1      -1.719   0.210  -1.980  0.00  0.00     0.077 C 
ATOM      3  C1  PXY d   1      -0.915   0.534  -0.735  0.00  0.00    -0.082 A 
ATOM      4  C2  PXY d   1      -1.322   0.084   0.441  0.00  0.00     0.003 A 
ATOM      5  C3  PXY d   1      -0.625   0.394   1.580  0.00  0.00     0.003 A 
ATOM      6  C4  PXY d   1       0.529   1.127   1.508  0.00  0.00    -0.082 A 
ATOM      7  C5  PXY d   1       0.956   1.580   0.311  0.00  0.00     0.003 A 
ATOM      8  C6  PXY d   1       0.212   1.290  -0.829  0.00  0.00     0.003 A 
ENDROOT
TORSDOF 0
ENDMDL
