MODEL 1
REMARK minimizedAffinity -2.82678914
REMARK minimizedRMSD -1
REMARK  0 active torsions:
REMARK  status: ('A' for Active; 'I' for Inactive)
ROOT
ATOM      1  C4' PXY d   1      -1.995   1.268   2.439  0.00  0.00     0.077 C 
ATOM      2  C1' PXY d   1       2.729   0.460  -0.794  0.00  0.00     0.077 C 
ATOM      3  C1  PXY d   1       1.497   0.680   0.062  0.00  0.00    -0.082 A 
ATOM      4  C2  PXY d   1       0.537  -0.231   0.072  0.00  0.00     0.003 A 
ATOM      5  C3  PXY d   1      -0.598  -0.033   0.815  0.00  0.00     0.003 A 
ATOM      6  C4  PXY d   1      -0.729   1.084   1.597  0.00  0.00    -0.082 A 
ATOM      7  C5  PXY d   1       0.251   2.012   1.600  0.00  0.00     0.003 A 
ATOM      8  C6  PXY d   1       1.377   1.812   0.807  0.00  0.00     0.003 A 
ENDROOT
TORSDOF 0
ENDMDL
