MODEL 1
REMARK minimizedAffinity 0.112522066
REMARK minimizedRMSD -1
REMARK  0 active torsions:
REMARK  status: ('A' for Active; 'I' for Inactive)
ROOT
ATOM      1  C4' PXY d   1      -1.444  -1.931   2.575  0.00  0.00     0.077 C 
ATOM      2  C1' PXY d   1       1.057   2.896   0.614  0.00  0.00     0.077 C 
ATOM      3  C1  PXY d   1       0.397   1.628   1.116  0.00  0.00    -0.082 A 
ATOM      4  C2  PXY d   1       0.101   1.509   2.400  0.00  0.00     0.003 A 
ATOM      5  C3  PXY d   1      -0.468   0.356   2.877  0.00  0.00     0.003 A 
ATOM      6  C4  PXY d   1      -0.785  -0.665   2.022  0.00  0.00    -0.082 A 
ATOM      7  C5  PXY d   1      -0.497  -0.547   0.708  0.00  0.00     0.003 A 
ATOM      8  C6  PXY d   1       0.118   0.615   0.251  0.00  0.00     0.003 A 
ENDROOT
TORSDOF 0
ENDMDL
