MODEL 1
REMARK minimizedAffinity 2.30809402
REMARK minimizedRMSD -1
REMARK  0 active torsions:
REMARK  status: ('A' for Active; 'I' for Inactive)
ROOT
ATOM      1  C4' PXY d   1       0.469   1.298   3.538  0.00  0.00     0.077 C 
ATOM      2  C1' PXY d   1       1.313  -0.335  -1.943  0.00  0.00     0.077 C 
ATOM      3  C1  PXY d   1       1.102   0.102  -0.507  0.00  0.00    -0.082 A 
ATOM      4  C2  PXY d   1       0.555  -0.737   0.358  0.00  0.00     0.003 A 
ATOM      5  C3  PXY d   1       0.327  -0.347   1.653  0.00  0.00     0.003 A 
ATOM      6  C4  PXY d   1       0.711   0.897   2.080  0.00  0.00    -0.082 A 
ATOM      7  C5  PXY d   1       1.278   1.754   1.206  0.00  0.00     0.003 A 
ATOM      8  C6  PXY d   1       1.464   1.354  -0.114  0.00  0.00     0.003 A 
ENDROOT
TORSDOF 0
ENDMDL
