MODEL 1
REMARK minimizedAffinity -0.678534746
REMARK minimizedRMSD -1
REMARK  0 active torsions:
REMARK  status: ('A' for Active; 'I' for Inactive)
ROOT
ATOM      1  C4' PXY d   1      -1.027  -2.190   0.175  0.00  0.00     0.077 C 
ATOM      2  C1' PXY d   1       2.355   2.494   0.361  0.00  0.00     0.077 C 
ATOM      3  C1  PXY d   1       1.475   1.262   0.301  0.00  0.00    -0.082 A 
ATOM      4  C2  PXY d   1       0.269   1.292   0.845  0.00  0.00     0.003 A 
ATOM      5  C3  PXY d   1      -0.528   0.177   0.829  0.00  0.00     0.003 A 
ATOM      6  C4  PXY d   1      -0.108  -0.966   0.202  0.00  0.00    -0.082 A 
ATOM      7  C5  PXY d   1       1.117  -1.002  -0.364  0.00  0.00     0.003 A 
ATOM      8  C6  PXY d   1       1.927   0.128  -0.301  0.00  0.00     0.003 A 
ENDROOT
TORSDOF 0
ENDMDL
