MODEL 1
REMARK minimizedAffinity -4.8083086
REMARK minimizedRMSD -1
REMARK  0 active torsions:
REMARK  status: ('A' for Active; 'I' for Inactive)
ROOT
ATOM      1  C4' PXY d   1      -0.559  -2.253   1.020  0.00  0.00     0.077 C 
ATOM      2  C1' PXY d   1       1.574   3.115   0.792  0.00  0.00     0.077 C 
ATOM      3  C1  PXY d   1       1.018   1.705   0.840  0.00  0.00    -0.082 A 
ATOM      4  C2  PXY d   1       0.043   1.414   1.685  0.00  0.00     0.003 A 
ATOM      5  C3  PXY d   1      -0.449   0.137   1.764  0.00  0.00     0.003 A 
ATOM      6  C4  PXY d   1       0.026  -0.841   0.931  0.00  0.00    -0.082 A 
ATOM      7  C5  PXY d   1       1.013  -0.550   0.058  0.00  0.00     0.003 A 
ATOM      8  C6  PXY d   1       1.527   0.743   0.022  0.00  0.00     0.003 A 
ENDROOT
TORSDOF 0
ENDMDL
