MODEL 1
REMARK minimizedAffinity -4.2629261
REMARK minimizedRMSD -1
REMARK  0 active torsions:
REMARK  status: ('A' for Active; 'I' for Inactive)
ROOT
ATOM      1  C4' PXY d   1      -0.904  -1.299  -1.772  0.00  0.00     0.077 C 
ATOM      2  C1' PXY d   1       1.372   2.873   1.518  0.00  0.00     0.077 C 
ATOM      3  C1  PXY d   1       0.785   1.780   0.647  0.00  0.00    -0.082 A 
ATOM      4  C2  PXY d   1      -0.524   1.589   0.630  0.00  0.00     0.003 A 
ATOM      5  C3  PXY d   1      -1.068   0.583  -0.127  0.00  0.00     0.003 A 
ATOM      6  C4  PXY d   1      -0.269  -0.201  -0.915  0.00  0.00    -0.082 A 
ATOM      7  C5  PXY d   1       1.066  -0.005  -0.912  0.00  0.00     0.003 A 
ATOM      8  C6  PXY d   1       1.603   0.994  -0.105  0.00  0.00     0.003 A 
ENDROOT
TORSDOF 0
ENDMDL
