MODEL 1
REMARK minimizedAffinity -4.2365551
REMARK minimizedRMSD -1
REMARK  0 active torsions:
REMARK  status: ('A' for Active; 'I' for Inactive)
ROOT
ATOM      1  C4' PXY d   1      -0.741  -1.449  -1.709  0.00  0.00     0.077 C 
ATOM      2  C1' PXY d   1       1.525   2.750   1.553  0.00  0.00     0.077 C 
ATOM      3  C1  PXY d   1       0.941   1.651   0.689  0.00  0.00    -0.082 A 
ATOM      4  C2  PXY d   1      -0.342   1.344   0.799  0.00  0.00     0.003 A 
ATOM      5  C3  PXY d   1      -0.880   0.331   0.048  0.00  0.00     0.003 A 
ATOM      6  C4  PXY d   1      -0.110  -0.340  -0.863  0.00  0.00    -0.082 A 
ATOM      7  C5  PXY d   1       1.197  -0.026  -0.989  0.00  0.00     0.003 A 
ATOM      8  C6  PXY d   1       1.734   0.978  -0.188  0.00  0.00     0.003 A 
ENDROOT
TORSDOF 0
ENDMDL
