MODEL 1
REMARK minimizedAffinity 7.79643202
REMARK minimizedRMSD -1
REMARK  0 active torsions:
REMARK  status: ('A' for Active; 'I' for Inactive)
ROOT
ATOM      1  C4' PXY d   1       0.765   4.129  -5.311  0.00  0.00     0.077 C 
ATOM      2  C1' PXY d   1       6.000   3.452  -2.953  0.00  0.00     0.077 C 
ATOM      3  C1  PXY d   1       4.622   3.622  -3.562  0.00  0.00    -0.082 A 
ATOM      4  C2  PXY d   1       4.507   3.962  -4.836  0.00  0.00     0.003 A 
ATOM      5  C3  PXY d   1       3.269   4.150  -5.394  0.00  0.00     0.003 A 
ATOM      6  C4  PXY d   1       2.136   3.937  -4.656  0.00  0.00    -0.082 A 
ATOM      7  C5  PXY d   1       2.245   3.580  -3.359  0.00  0.00     0.003 A 
ATOM      8  C6  PXY d   1       3.511   3.434  -2.799  0.00  0.00     0.003 A 
ENDROOT
TORSDOF 0
ENDMDL
