MODEL 1
REMARK minimizedAffinity 10.3726454
REMARK minimizedRMSD -1
REMARK  0 active torsions:
REMARK  status: ('A' for Active; 'I' for Inactive)
ROOT
ATOM      1  C4' PXY d   1      -0.076   0.449   0.740  0.00  0.00     0.077 C 
ATOM      2  C1' PXY d   1       1.094   4.156  -3.538  0.00  0.00     0.077 C 
ATOM      3  C1  PXY d   1       0.781   3.193  -2.409  0.00  0.00    -0.082 A 
ATOM      4  C2  PXY d   1       1.555   2.138  -2.216  0.00  0.00     0.003 A 
ATOM      5  C3  PXY d   1       1.268   1.240  -1.220  0.00  0.00     0.003 A 
ATOM      6  C4  PXY d   1       0.207   1.452  -0.381  0.00  0.00    -0.082 A 
ATOM      7  C5  PXY d   1      -0.581   2.532  -0.565  0.00  0.00     0.003 A 
ATOM      8  C6  PXY d   1      -0.297   3.410  -1.607  0.00  0.00     0.003 A 
ENDROOT
TORSDOF 0
ENDMDL
