MODEL 1
REMARK minimizedAffinity -3.55342555
REMARK minimizedRMSD -1
REMARK  0 active torsions:
REMARK  status: ('A' for Active; 'I' for Inactive)
ROOT
ATOM      1  C4' PXY d   1       0.282   5.999  -5.257  0.00  0.00     0.077 C 
ATOM      2  C1' PXY d   1       5.266   3.781  -3.344  0.00  0.00     0.077 C 
ATOM      3  C1  PXY d   1       3.965   4.367  -3.857  0.00  0.00    -0.082 A 
ATOM      4  C2  PXY d   1       3.009   4.685  -2.999  0.00  0.00     0.003 A 
ATOM      5  C3  PXY d   1       1.814   5.186  -3.448  0.00  0.00     0.003 A 
ATOM      6  C4  PXY d   1       1.616   5.413  -4.784  0.00  0.00    -0.082 A 
ATOM      7  C5  PXY d   1       2.591   5.101  -5.664  0.00  0.00     0.003 A 
ATOM      8  C6  PXY d   1       3.781   4.555  -5.191  0.00  0.00     0.003 A 
ENDROOT
TORSDOF 0
ENDMDL
