MODEL 1
REMARK minimizedAffinity -2.59641981
REMARK minimizedRMSD -1
REMARK  0 active torsions:
REMARK  status: ('A' for Active; 'I' for Inactive)
ROOT
ATOM      1  C4' PXY d   1      -1.018   0.628   1.056  0.00  0.00     0.077 C 
ATOM      2  C1' PXY d   1       3.889   2.055   3.758  0.00  0.00     0.077 C 
ATOM      3  C1  PXY d   1       2.596   1.678   3.061  0.00  0.00    -0.082 A 
ATOM      4  C2  PXY d   1       2.623   1.304   1.792  0.00  0.00     0.003 A 
ATOM      5  C3  PXY d   1       1.459   0.990   1.137  0.00  0.00     0.003 A 
ATOM      6  C4  PXY d   1       0.263   1.008   1.803  0.00  0.00    -0.082 A 
ATOM      7  C5  PXY d   1       0.229   1.379   3.100  0.00  0.00     0.003 A 
ATOM      8  C6  PXY d   1       1.416   1.733   3.736  0.00  0.00     0.003 A 
ENDROOT
TORSDOF 0
ENDMDL
