MODEL 1
REMARK minimizedAffinity -2.70058203
REMARK minimizedRMSD -1
REMARK  0 active torsions:
REMARK  status: ('A' for Active; 'I' for Inactive)
ROOT
ATOM      1  C4' PXY d   1      -0.406  -0.164   0.807  0.00  0.00     0.077 C 
ATOM      2  C1' PXY d   1      -3.207  -3.120   4.910  0.00  0.00     0.077 C 
ATOM      3  C1  PXY d   1      -2.465  -2.356   3.832  0.00  0.00    -0.082 A 
ATOM      4  C2  PXY d   1      -2.400  -1.036   3.893  0.00  0.00     0.003 A 
ATOM      5  C3  PXY d   1      -1.761  -0.326   2.909  0.00  0.00     0.003 A 
ATOM      6  C4  PXY d   1      -1.136  -0.978   1.879  0.00  0.00    -0.082 A 
ATOM      7  C5  PXY d   1      -1.189  -2.325   1.816  0.00  0.00     0.003 A 
ATOM      8  C6  PXY d   1      -1.878  -3.025   2.802  0.00  0.00     0.003 A 
ENDROOT
TORSDOF 0
ENDMDL
