MODEL 1
REMARK minimizedAffinity 0.761436462
REMARK minimizedRMSD -1
REMARK  0 active torsions:
REMARK  status: ('A' for Active; 'I' for Inactive)
ROOT
ATOM      1  C4' PXY d   1      -4.136  -2.862  -1.612  0.00  0.00     0.077 C 
ATOM      2  C1' PXY d   1      -0.685   0.334  -4.973  0.00  0.00     0.077 C 
ATOM      3  C1  PXY d   1      -1.583  -0.502  -4.081  0.00  0.00    -0.082 A 
ATOM      4  C2  PXY d   1      -2.345  -1.442  -4.617  0.00  0.00     0.003 A 
ATOM      5  C3  PXY d   1      -3.186  -2.185  -3.829  0.00  0.00     0.003 A 
ATOM      6  C4  PXY d   1      -3.208  -2.000  -2.473  0.00  0.00    -0.082 A 
ATOM      7  C5  PXY d   1      -2.426  -1.051  -1.917  0.00  0.00     0.003 A 
ATOM      8  C6  PXY d   1      -1.609  -0.279  -2.739  0.00  0.00     0.003 A 
ENDROOT
TORSDOF 0
ENDMDL
