MODEL 1
REMARK minimizedAffinity 8.33888912
REMARK minimizedRMSD -1
REMARK  0 active torsions:
REMARK  status: ('A' for Active; 'I' for Inactive)
ROOT
ATOM      1  C4' PXY d   1       2.122   1.941  -2.739  0.00  0.00     0.077 C 
ATOM      2  C1' PXY d   1      -1.252  -1.757  -5.630  0.00  0.00     0.077 C 
ATOM      3  C1  PXY d   1      -0.369  -0.794  -4.861  0.00  0.00    -0.082 A 
ATOM      4  C2  PXY d   1      -0.188   0.435  -5.318  0.00  0.00     0.003 A 
ATOM      5  C3  PXY d   1       0.632   1.308  -4.652  0.00  0.00     0.003 A 
ATOM      6  C4  PXY d   1       1.231   0.938  -3.478  0.00  0.00    -0.082 A 
ATOM      7  C5  PXY d   1       1.043  -0.310  -3.000  0.00  0.00     0.003 A 
ATOM      8  C6  PXY d   1       0.240  -1.195  -3.713  0.00  0.00     0.003 A 
ENDROOT
TORSDOF 0
ENDMDL
