MODEL 1
REMARK minimizedAffinity -2.44861865
REMARK minimizedRMSD -1
REMARK  0 active torsions:
REMARK  status: ('A' for Active; 'I' for Inactive)
ROOT
ATOM      1  C4' PXY d   1      -3.709   6.000  -1.954  0.00  0.00     0.077 C 
ATOM      2  C1' PXY d   1       0.498   5.979  -5.917  0.00  0.00     0.077 C 
ATOM      3  C1  PXY d   1      -0.597   5.979  -4.869  0.00  0.00    -0.082 A 
ATOM      4  C2  PXY d   1      -1.865   5.967  -5.247  0.00  0.00     0.003 A 
ATOM      5  C3  PXY d   1      -2.868   6.000  -4.313  0.00  0.00     0.003 A 
ATOM      6  C4  PXY d   1      -2.570   5.990  -2.977  0.00  0.00    -0.082 A 
ATOM      7  C5  PXY d   1      -1.280   5.991  -2.582  0.00  0.00     0.003 A 
ATOM      8  C6  PXY d   1      -0.276   6.000  -3.547  0.00  0.00     0.003 A 
ENDROOT
TORSDOF 0
ENDMDL
