MODEL 1
REMARK minimizedAffinity 12.758893
REMARK minimizedRMSD -1
REMARK  0 active torsions:
REMARK  status: ('A' for Active; 'I' for Inactive)
ROOT
ATOM      1  O1  BZF d   1      -3.805   0.289  -5.313  0.00  0.00    -0.204 OA
ATOM      2  C2  BZF d   1      -4.950  -0.065  -6.000  0.00  0.00     0.174 A 
ATOM      3  C3  BZF d   1      -5.999   0.684  -5.601  0.00  0.00    -0.012 A 
ATOM      4  C3A BZF d   1      -5.456   1.623  -4.668  0.00  0.00    -0.107 A 
ATOM      5  C4  BZF d   1      -6.000   2.642  -3.939  0.00  0.00     0.055 A 
ATOM      6  C5  BZF d   1      -5.211   3.323  -3.065  0.00  0.00    -0.016 A 
ATOM      7  C6  BZF d   1      -3.880   3.007  -2.892  0.00  0.00     0.022 A 
ATOM      8  C7  BZF d   1      -3.295   2.008  -3.596  0.00  0.00     0.029 A 
ATOM      9  C7A BZF d   1      -4.081   1.340  -4.504  0.00  0.00     0.058 A 
ENDROOT
TORSDOF 0
ENDMDL
