MODEL 1
REMARK minimizedAffinity 0.393970668
REMARK minimizedRMSD -1
REMARK  0 active torsions:
REMARK  status: ('A' for Active; 'I' for Inactive)
ROOT
ATOM      1  O1  BZF d   1       1.119  -1.201  -0.201  0.00  0.00    -0.204 OA
ATOM      2  C2  BZF d   1       1.740  -2.352   0.243  0.00  0.00     0.174 A 
ATOM      3  C3  BZF d   1       1.321  -2.674   1.484  0.00  0.00    -0.012 A 
ATOM      4  C3A BZF d   1       0.310  -1.712   1.801  0.00  0.00    -0.107 A 
ATOM      5  C4  BZF d   1      -0.492  -1.517   2.889  0.00  0.00     0.055 A 
ATOM      6  C5  BZF d   1      -1.322  -0.441   2.913  0.00  0.00    -0.016 A 
ATOM      7  C6  BZF d   1      -1.372   0.461   1.870  0.00  0.00     0.022 A 
ATOM      8  C7  BZF d   1      -0.599   0.306   0.767  0.00  0.00     0.029 A 
ATOM      9  C7A BZF d   1       0.217  -0.798   0.726  0.00  0.00     0.058 A 
ENDROOT
TORSDOF 0
ENDMDL
