MODEL 1
REMARK minimizedAffinity -1.79045427
REMARK minimizedRMSD -1
REMARK  0 active torsions:
REMARK  status: ('A' for Active; 'I' for Inactive)
ROOT
ATOM      1  O1  BZF d   1       3.194  -1.743   4.532  0.00  0.00    -0.204 OA
ATOM      2  C2  BZF d   1       4.319  -2.454   4.904  0.00  0.00     0.174 A 
ATOM      3  C3  BZF d   1       4.763  -3.216   3.884  0.00  0.00    -0.012 A 
ATOM      4  C3A BZF d   1       3.913  -2.896   2.778  0.00  0.00    -0.107 A 
ATOM      5  C4  BZF d   1       3.863  -3.317   1.480  0.00  0.00     0.055 A 
ATOM      6  C5  BZF d   1       2.864  -2.865   0.677  0.00  0.00    -0.016 A 
ATOM      7  C6  BZF d   1       1.897  -1.998   1.140  0.00  0.00     0.022 A 
ATOM      8  C7  BZF d   1       1.907  -1.549   2.419  0.00  0.00     0.029 A 
ATOM      9  C7A BZF d   1       2.934  -1.977   3.223  0.00  0.00     0.058 A 
ENDROOT
TORSDOF 0
ENDMDL
