MODEL 1
REMARK minimizedAffinity 2.31358099
REMARK minimizedRMSD -1
REMARK  0 active torsions:
REMARK  status: ('A' for Active; 'I' for Inactive)
ROOT
ATOM      1  O1  BZF d   1       5.803  -1.645   4.282  0.00  0.00    -0.204 OA
ATOM      2  C2  BZF d   1       5.038  -2.330   5.206  0.00  0.00     0.174 A 
ATOM      3  C3  BZF d   1       4.056  -3.023   4.594  0.00  0.00    -0.012 A 
ATOM      4  C3A BZF d   1       4.274  -2.828   3.193  0.00  0.00    -0.107 A 
ATOM      5  C4  BZF d   1       3.636  -3.276   2.072  0.00  0.00     0.055 A 
ATOM      6  C5  BZF d   1       4.056  -2.842   0.855  0.00  0.00    -0.016 A 
ATOM      7  C6  BZF d   1       5.106  -1.957   0.722  0.00  0.00     0.022 A 
ATOM      8  C7  BZF d   1       5.773  -1.488   1.805  0.00  0.00     0.029 A 
ATOM      9  C7A BZF d   1       5.372  -1.951   3.035  0.00  0.00     0.058 A 
ENDROOT
TORSDOF 0
ENDMDL
