MODEL 1
REMARK minimizedAffinity -4.62069416
REMARK minimizedRMSD -1
REMARK  0 active torsions:
REMARK  status: ('A' for Active; 'I' for Inactive)
ROOT
ATOM      1  O1  BZF d   1       5.621   4.069  -5.211  0.00  0.00    -0.204 OA
ATOM      2  C2  BZF d   1       4.550   4.821  -5.655  0.00  0.00     0.174 A 
ATOM      3  C3  BZF d   1       3.516   4.026  -5.997  0.00  0.00    -0.012 A 
ATOM      4  C3A BZF d   1       3.936   2.699  -5.665  0.00  0.00    -0.107 A 
ATOM      5  C4  BZF d   1       3.338   1.475  -5.757  0.00  0.00     0.055 A 
ATOM      6  C5  BZF d   1       4.047   0.367  -5.415  0.00  0.00    -0.016 A 
ATOM      7  C6  BZF d   1       5.355   0.446  -4.983  0.00  0.00     0.022 A 
ATOM      8  C7  BZF d   1       5.988   1.638  -4.871  0.00  0.00     0.029 A 
ATOM      9  C7A BZF d   1       5.264   2.763  -5.184  0.00  0.00     0.058 A 
ENDROOT
TORSDOF 0
ENDMDL
