MODEL 1
REMARK minimizedAffinity -3.34703088
REMARK minimizedRMSD -1
REMARK  1 active torsions:
REMARK  status: ('A' for Active; 'I' for Inactive)
REMARK    1  A    between atoms: C3_4  and  O_7 
ROOT
ATOM      1  C   UNL d   1      -0.072   0.569  -1.243  0.00  0.00    -0.033 A 
ATOM      2  C1  UNL d   1      -1.358   0.321  -0.759  0.00  0.00     0.039 A 
ATOM      3  C2  UNL d   1      -1.539  -0.124   0.552  0.00  0.00    -0.080 A 
ATOM      4  C3  UNL d   1      -0.427  -0.317   1.368  0.00  0.00     0.150 A 
ATOM      5  C4  UNL d   1       0.857  -0.068   0.893  0.00  0.00    -0.007 A 
ATOM      6  C5  UNL d   1       1.035   0.376  -0.416  0.00  0.00     0.039 A 
ENDROOT
BRANCH   4   7
ATOM      7  O   UNL d   1      -0.553  -0.755   2.652  0.00  0.00    -0.526 OA
ATOM      8  H5  UNL d   1      -1.495  -0.912   2.833  0.00  0.00     0.418 HD
ENDBRANCH   4   7
TORSDOF 1
ENDMDL
