MODEL 1
REMARK minimizedAffinity -4.40239096
REMARK minimizedRMSD -1
REMARK  1 active torsions:
REMARK  status: ('A' for Active; 'I' for Inactive)
REMARK    1  A    between atoms: C3_4  and  O_7 
ROOT
ATOM      1  C   UNL d   1       0.771   0.642  -0.101  0.00  0.00    -0.033 A 
ATOM      2  C1  UNL d   1       1.429   0.861   1.111  0.00  0.00     0.039 A 
ATOM      3  C2  UNL d   1       0.891   0.363   2.299  0.00  0.00    -0.080 A 
ATOM      4  C3  UNL d   1      -0.303  -0.353   2.261  0.00  0.00     0.150 A 
ATOM      5  C4  UNL d   1      -0.961  -0.578   1.056  0.00  0.00    -0.007 A 
ATOM      6  C5  UNL d   1      -0.423  -0.079  -0.129  0.00  0.00     0.039 A 
ENDROOT
BRANCH   4   7
ATOM      7  O   UNL d   1      -0.869  -0.855   3.395  0.00  0.00    -0.526 OA
ATOM      8  H5  UNL d   1      -0.319  -0.597   4.154  0.00  0.00     0.418 HD
ENDBRANCH   4   7
TORSDOF 1
ENDMDL
