MODEL 1
REMARK minimizedAffinity -3.72109532
REMARK minimizedRMSD -1
REMARK  1 active torsions:
REMARK  status: ('A' for Active; 'I' for Inactive)
REMARK    1  A    between atoms: C3_4  and  O_7 
ROOT
ATOM      1  C   UNL d   1      -0.102   0.821  -1.292  0.00  0.00    -0.033 A 
ATOM      2  C1  UNL d   1      -1.494   0.863  -1.191  0.00  0.00     0.039 A 
ATOM      3  C2  UNL d   1      -2.122   0.460  -0.011  0.00  0.00    -0.080 A 
ATOM      4  C3  UNL d   1      -1.348   0.018   1.059  0.00  0.00     0.150 A 
ATOM      5  C4  UNL d   1       0.039  -0.023   0.966  0.00  0.00    -0.007 A 
ATOM      6  C5  UNL d   1       0.664   0.379  -0.213  0.00  0.00     0.039 A 
ENDROOT
BRANCH   4   7
ATOM      7  O   UNL d   1      -1.916  -0.390   2.229  0.00  0.00    -0.526 OA
ATOM      8  H5  UNL d   1      -2.882  -0.334   2.138  0.00  0.00     0.418 HD
ENDBRANCH   4   7
TORSDOF 1
ENDMDL
