MODEL 1
REMARK minimizedAffinity -4.92745161
REMARK minimizedRMSD -1
REMARK  1 active torsions:
REMARK  status: ('A' for Active; 'I' for Inactive)
REMARK    1  A    between atoms: C3_4  and  O_7 
ROOT
ATOM      1  C   UNL d   1      -2.881   0.207   2.800  0.00  0.00    -0.033 A 
ATOM      2  C1  UNL d   1      -1.725   0.111   3.578  0.00  0.00     0.039 A 
ATOM      3  C2  UNL d   1      -0.476   0.001   2.964  0.00  0.00    -0.080 A 
ATOM      4  C3  UNL d   1      -0.397  -0.012   1.574  0.00  0.00     0.150 A 
ATOM      5  C4  UNL d   1      -1.544   0.087   0.793  0.00  0.00    -0.007 A 
ATOM      6  C5  UNL d   1      -2.790   0.196   1.408  0.00  0.00     0.039 A 
ENDROOT
BRANCH   4   7
ATOM      7  O   UNL d   1       0.800  -0.124   0.929  0.00  0.00    -0.526 OA
ATOM      8  H5  UNL d   1       1.501  -0.212   1.596  0.00  0.00     0.418 HD
ENDBRANCH   4   7
TORSDOF 1
ENDMDL
