MODEL 1
REMARK minimizedAffinity -4.88386202
REMARK minimizedRMSD -1
REMARK  1 active torsions:
REMARK  status: ('A' for Active; 'I' for Inactive)
REMARK    1  A    between atoms: C3_4  and  O_7 
ROOT
ATOM      1  C   UNL d   1       0.066   0.425  -0.198  0.00  0.00    -0.033 A 
ATOM      2  C1  UNL d   1      -1.077  -0.342   0.042  0.00  0.00     0.039 A 
ATOM      3  C2  UNL d   1      -1.264  -0.949   1.285  0.00  0.00    -0.080 A 
ATOM      4  C3  UNL d   1      -0.303  -0.781   2.278  0.00  0.00     0.150 A 
ATOM      5  C4  UNL d   1       0.835  -0.016   2.048  0.00  0.00    -0.007 A 
ATOM      6  C5  UNL d   1       1.021   0.589   0.805  0.00  0.00     0.039 A 
ENDROOT
BRANCH   4   7
ATOM      7  O   UNL d   1      -0.440  -1.359   3.506  0.00  0.00    -0.526 OA
ATOM      8  H5  UNL d   1      -1.259  -1.880   3.511  0.00  0.00     0.418 HD
ENDBRANCH   4   7
TORSDOF 1
ENDMDL
