MODEL 1
REMARK minimizedAffinity -3.73990345
REMARK minimizedRMSD -1
REMARK  1 active torsions:
REMARK  status: ('A' for Active; 'I' for Inactive)
REMARK    1  A    between atoms: C3_4  and  O_7 
ROOT
ATOM      1  C   UNL d   1       1.611   0.970  -0.494  0.00  0.00    -0.033 A 
ATOM      2  C1  UNL d   1       0.447   0.202  -0.433  0.00  0.00     0.039 A 
ATOM      3  C2  UNL d   1      -0.050  -0.221   0.801  0.00  0.00    -0.080 A 
ATOM      4  C3  UNL d   1       0.626   0.132   1.966  0.00  0.00     0.150 A 
ATOM      5  C4  UNL d   1       1.784   0.900   1.914  0.00  0.00    -0.007 A 
ATOM      6  C5  UNL d   1       2.279   1.320   0.680  0.00  0.00     0.039 A 
ENDROOT
BRANCH   4   7
ATOM      7  O   UNL d   1       0.182  -0.261   3.194  0.00  0.00    -0.526 OA
ATOM      8  H5  UNL d   1      -0.611  -0.809   3.074  0.00  0.00     0.418 HD
ENDBRANCH   4   7
TORSDOF 1
ENDMDL
