MODEL 1
REMARK minimizedAffinity -2.57057071
REMARK minimizedRMSD -1
REMARK  1 active torsions:
REMARK  status: ('A' for Active; 'I' for Inactive)
REMARK    1  A    between atoms: C3_4  and  O_7 
ROOT
ATOM      1  C   UNL d   1      -0.498  -0.318   3.005  0.00  0.00    -0.033 A 
ATOM      2  C1  UNL d   1       0.805  -0.205   2.515  0.00  0.00     0.039 A 
ATOM      3  C2  UNL d   1       1.023   0.071   1.164  0.00  0.00    -0.080 A 
ATOM      4  C3  UNL d   1      -0.069   0.234   0.315  0.00  0.00     0.150 A 
ATOM      5  C4  UNL d   1      -1.369   0.127   0.797  0.00  0.00    -0.007 A 
ATOM      6  C5  UNL d   1      -1.585  -0.151   2.147  0.00  0.00     0.039 A 
ENDROOT
BRANCH   4   7
ATOM      7  O   UNL d   1       0.094   0.500  -1.012  0.00  0.00    -0.526 OA
ATOM      8  H5  UNL d   1       1.046   0.518  -1.208  0.00  0.00     0.418 HD
ENDBRANCH   4   7
TORSDOF 1
ENDMDL
