MODEL 1
REMARK minimizedAffinity 0.770433426
REMARK minimizedRMSD -1
REMARK  1 active torsions:
REMARK  status: ('A' for Active; 'I' for Inactive)
REMARK    1  A    between atoms: C3_4  and  O_7 
ROOT
ATOM      1  C   UNL d   1      -2.230   0.012   2.239  0.00  0.00    -0.033 A 
ATOM      2  C1  UNL d   1      -1.214   0.715   1.588  0.00  0.00     0.039 A 
ATOM      3  C2  UNL d   1       0.121   0.494   1.932  0.00  0.00    -0.080 A 
ATOM      4  C3  UNL d   1       0.426  -0.431   2.927  0.00  0.00     0.150 A 
ATOM      5  C4  UNL d   1      -0.581  -1.137   3.577  0.00  0.00    -0.007 A 
ATOM      6  C5  UNL d   1      -1.914  -0.915   3.232  0.00  0.00     0.039 A 
ENDROOT
BRANCH   4   7
ATOM      7  O   UNL d   1       1.713  -0.677   3.301  0.00  0.00    -0.526 OA
ATOM      8  H5  UNL d   1       2.299  -0.096   2.787  0.00  0.00     0.418 HD
ENDBRANCH   4   7
TORSDOF 1
ENDMDL
