MODEL 1
REMARK minimizedAffinity -3.996907
REMARK minimizedRMSD -1
REMARK  1 active torsions:
REMARK  status: ('A' for Active; 'I' for Inactive)
REMARK    1  A    between atoms: C3_4  and  O_7 
ROOT
ATOM      1  C   UNL d   1       0.160   0.614  -0.069  0.00  0.00    -0.033 A 
ATOM      2  C1  UNL d   1      -0.835  -0.365  -0.083  0.00  0.00     0.039 A 
ATOM      3  C2  UNL d   1      -1.147  -1.063   1.085  0.00  0.00    -0.080 A 
ATOM      4  C3  UNL d   1      -0.458  -0.771   2.260  0.00  0.00     0.150 A 
ATOM      5  C4  UNL d   1       0.532   0.206   2.282  0.00  0.00    -0.007 A 
ATOM      6  C5  UNL d   1       0.842   0.901   1.113  0.00  0.00     0.039 A 
ENDROOT
BRANCH   4   7
ATOM      7  O   UNL d   1      -0.724  -1.429   3.424  0.00  0.00    -0.526 OA
ATOM      8  H5  UNL d   1      -1.410  -2.095   3.251  0.00  0.00     0.418 HD
ENDBRANCH   4   7
TORSDOF 1
ENDMDL
