MODEL 1
REMARK minimizedAffinity -3.55953145
REMARK minimizedRMSD -1
REMARK  1 active torsions:
REMARK  status: ('A' for Active; 'I' for Inactive)
REMARK    1  A    between atoms: C3_4  and  O_7 
ROOT
ATOM      1  C   UNL d   1      -0.887   0.144  -0.406  0.00  0.00    -0.033 A 
ATOM      2  C1  UNL d   1       0.450  -0.141  -0.120  0.00  0.00     0.039 A 
ATOM      3  C2  UNL d   1       0.852  -0.358   1.199  0.00  0.00    -0.080 A 
ATOM      4  C3  UNL d   1      -0.090  -0.288   2.222  0.00  0.00     0.150 A 
ATOM      5  C4  UNL d   1      -1.424  -0.008   1.944  0.00  0.00    -0.007 A 
ATOM      6  C5  UNL d   1      -1.824   0.209   0.626  0.00  0.00     0.039 A 
ENDROOT
BRANCH   4   7
ATOM      7  O   UNL d   1       0.256  -0.487   3.525  0.00  0.00    -0.526 OA
ATOM      8  H5  UNL d   1       1.215  -0.642   3.568  0.00  0.00     0.418 HD
ENDBRANCH   4   7
TORSDOF 1
ENDMDL
