MODEL 1
REMARK minimizedAffinity -4.57458305
REMARK minimizedRMSD -1
REMARK  1 active torsions:
REMARK  status: ('A' for Active; 'I' for Inactive)
REMARK    1  A    between atoms: C3_4  and  O_7 
ROOT
ATOM      1  C   UNL d   1       0.775   0.635   0.155  0.00  0.00    -0.033 A 
ATOM      2  C1  UNL d   1      -0.490   0.045   0.207  0.00  0.00     0.039 A 
ATOM      3  C2  UNL d   1      -0.852  -0.738   1.305  0.00  0.00    -0.080 A 
ATOM      4  C3  UNL d   1       0.058  -0.923   2.342  0.00  0.00     0.150 A 
ATOM      5  C4  UNL d   1       1.318  -0.335   2.299  0.00  0.00    -0.007 A 
ATOM      6  C5  UNL d   1       1.678   0.446   1.202  0.00  0.00     0.039 A 
ENDROOT
BRANCH   4   7
ATOM      7  O   UNL d   1      -0.249  -1.683   3.431  0.00  0.00    -0.526 OA
ATOM      8  H5  UNL d   1      -1.141  -2.049   3.310  0.00  0.00     0.418 HD
ENDBRANCH   4   7
TORSDOF 1
ENDMDL
