MODEL 1
REMARK minimizedAffinity -5.0412426
REMARK minimizedRMSD -1
REMARK  1 active torsions:
REMARK  status: ('A' for Active; 'I' for Inactive)
REMARK    1  A    between atoms: C3_4  and  O_7 
ROOT
ATOM      1  C   UNL d   1      -2.155  -0.493   3.536  0.00  0.00    -0.033 A 
ATOM      2  C1  UNL d   1      -0.767  -0.586   3.414  0.00  0.00     0.039 A 
ATOM      3  C2  UNL d   1      -0.163  -0.446   2.163  0.00  0.00    -0.080 A 
ATOM      4  C3  UNL d   1      -0.957  -0.212   1.044  0.00  0.00     0.150 A 
ATOM      5  C4  UNL d   1      -2.340  -0.114   1.159  0.00  0.00    -0.007 A 
ATOM      6  C5  UNL d   1      -2.941  -0.255   2.409  0.00  0.00     0.039 A 
ENDROOT
BRANCH   4   7
ATOM      7  O   UNL d   1      -0.414  -0.074  -0.199  0.00  0.00    -0.526 OA
ATOM      8  H5  UNL d   1       0.548  -0.194  -0.129  0.00  0.00     0.418 HD
ENDBRANCH   4   7
TORSDOF 1
ENDMDL
