MODEL 1
REMARK minimizedAffinity -4.68626976
REMARK minimizedRMSD -1
REMARK  1 active torsions:
REMARK  status: ('A' for Active; 'I' for Inactive)
REMARK    1  A    between atoms: C3_4  and  O_7 
ROOT
ATOM      1  C   UNL d   1      -1.734  -0.185   3.149  0.00  0.00    -0.033 A 
ATOM      2  C1  UNL d   1      -2.408   0.114   1.963  0.00  0.00     0.039 A 
ATOM      3  C2  UNL d   1      -1.689   0.332   0.786  0.00  0.00    -0.080 A 
ATOM      4  C3  UNL d   1      -0.300   0.249   0.808  0.00  0.00     0.150 A 
ATOM      5  C4  UNL d   1       0.378  -0.052   1.985  0.00  0.00    -0.007 A 
ATOM      6  C5  UNL d   1      -0.341  -0.269   3.160  0.00  0.00     0.039 A 
ENDROOT
BRANCH   4   7
ATOM      7  O   UNL d   1       0.444   0.459  -0.314  0.00  0.00    -0.526 OA
ATOM      8  H5  UNL d   1      -0.156   0.686  -1.044  0.00  0.00     0.418 HD
ENDBRANCH   4   7
TORSDOF 1
ENDMDL
