MODEL 1
REMARK minimizedAffinity -2.48878741
REMARK minimizedRMSD -1
REMARK  1 active torsions:
REMARK  status: ('A' for Active; 'I' for Inactive)
REMARK    1  A    between atoms: C3_4  and  O_7 
ROOT
ATOM      1  C   UNL d   1      -3.107   0.343   1.827  0.00  0.00    -0.033 A 
ATOM      2  C1  UNL d   1      -3.027   0.413   0.435  0.00  0.00     0.039 A 
ATOM      3  C2  UNL d   1      -1.806   0.199  -0.208  0.00  0.00    -0.080 A 
ATOM      4  C3  UNL d   1      -0.675  -0.085   0.552  0.00  0.00     0.150 A 
ATOM      5  C4  UNL d   1      -0.748  -0.160   1.939  0.00  0.00    -0.007 A 
ATOM      6  C5  UNL d   1      -1.968   0.055   2.579  0.00  0.00     0.039 A 
ENDROOT
BRANCH   4   7
ATOM      7  O   UNL d   1       0.540  -0.297  -0.030  0.00  0.00    -0.526 OA
ATOM      8  H5  UNL d   1       0.445  -0.184  -0.990  0.00  0.00     0.418 HD
ENDBRANCH   4   7
TORSDOF 1
ENDMDL
