MODEL 1
REMARK minimizedAffinity -2.7555294
REMARK minimizedRMSD -1
REMARK  1 active torsions:
REMARK  status: ('A' for Active; 'I' for Inactive)
REMARK    1  A    between atoms: C3_4  and  O_7 
ROOT
ATOM      1  C   UNL d   1       1.883  -1.679  -3.867  0.00  0.00    -0.033 A 
ATOM      2  C1  UNL d   1       2.332  -0.384  -3.600  0.00  0.00     0.039 A 
ATOM      3  C2  UNL d   1       1.510   0.516  -2.919  0.00  0.00    -0.080 A 
ATOM      4  C3  UNL d   1       0.243   0.108  -2.510  0.00  0.00     0.150 A 
ATOM      5  C4  UNL d   1      -0.209  -1.182  -2.769  0.00  0.00    -0.007 A 
ATOM      6  C5  UNL d   1       0.613  -2.078  -3.450  0.00  0.00     0.039 A 
ENDROOT
BRANCH   4   7
ATOM      7  O   UNL d   1      -0.597   0.952  -1.846  0.00  0.00    -0.526 OA
ATOM      8  H5  UNL d   1      -0.162   1.817  -1.763  0.00  0.00     0.418 HD
ENDBRANCH   4   7
TORSDOF 1
ENDMDL
