MODEL 1
REMARK minimizedAffinity 0.630338252
REMARK minimizedRMSD -1
REMARK  1 active torsions:
REMARK  status: ('A' for Active; 'I' for Inactive)
REMARK    1  A    between atoms: C3_4  and  O_7 
ROOT
ATOM      1  C   UNL d   1      -2.459  -2.422   1.475  0.00  0.00    -0.033 A 
ATOM      2  C1  UNL d   1      -2.093  -1.186   2.013  0.00  0.00     0.039 A 
ATOM      3  C2  UNL d   1      -1.524  -0.208   1.195  0.00  0.00    -0.080 A 
ATOM      4  C3  UNL d   1      -1.327  -0.477  -0.156  0.00  0.00     0.150 A 
ATOM      5  C4  UNL d   1      -1.693  -1.704  -0.699  0.00  0.00    -0.007 A 
ATOM      6  C5  UNL d   1      -2.261  -2.680   0.119  0.00  0.00     0.039 A 
ENDROOT
BRANCH   4   7
ATOM      7  O   UNL d   1      -0.771   0.444  -0.993  0.00  0.00    -0.526 OA
ATOM      8  H5  UNL d   1      -0.542   1.233  -0.473  0.00  0.00     0.418 HD
ENDBRANCH   4   7
TORSDOF 1
ENDMDL
