MODEL 1
REMARK minimizedAffinity -4.15228987
REMARK minimizedRMSD -1
REMARK  1 active torsions:
REMARK  status: ('A' for Active; 'I' for Inactive)
REMARK    1  A    between atoms: C3_4  and  O_7 
ROOT
ATOM      1  C   UNL d   1      -1.033  -0.520   3.030  0.00  0.00    -0.033 A 
ATOM      2  C1  UNL d   1      -1.945  -0.639   1.980  0.00  0.00     0.039 A 
ATOM      3  C2  UNL d   1      -1.524  -0.452   0.662  0.00  0.00    -0.080 A 
ATOM      4  C3  UNL d   1      -0.189  -0.149   0.408  0.00  0.00     0.150 A 
ATOM      5  C4  UNL d   1       0.726  -0.033   1.448  0.00  0.00    -0.007 A 
ATOM      6  C5  UNL d   1       0.303  -0.218   2.764  0.00  0.00     0.039 A 
ENDROOT
BRANCH   4   7
ATOM      7  O   UNL d   1       0.267   0.047  -0.862  0.00  0.00    -0.526 OA
ATOM      8  H5  UNL d   1      -0.482  -0.036  -1.475  0.00  0.00     0.418 HD
ENDBRANCH   4   7
TORSDOF 1
ENDMDL
