MODEL 1
REMARK minimizedAffinity -5.03293419
REMARK minimizedRMSD -1
REMARK  1 active torsions:
REMARK  status: ('A' for Active; 'I' for Inactive)
REMARK    1  A    between atoms: C3_4  and  O_7 
ROOT
ATOM      1  C   UNL d   1      -1.267  -0.099   2.976  0.00  0.00    -0.033 A 
ATOM      2  C1  UNL d   1      -2.167  -0.236   1.918  0.00  0.00     0.039 A 
ATOM      3  C2  UNL d   1      -1.712  -0.174   0.599  0.00  0.00    -0.080 A 
ATOM      4  C3  UNL d   1      -0.356   0.023   0.353  0.00  0.00     0.150 A 
ATOM      5  C4  UNL d   1       0.547   0.156   1.403  0.00  0.00    -0.007 A 
ATOM      6  C5  UNL d   1       0.091   0.095   2.718  0.00  0.00     0.039 A 
ENDROOT
BRANCH   4   7
ATOM      7  O   UNL d   1       0.135   0.095  -0.917  0.00  0.00    -0.526 OA
ATOM      8  H5  UNL d   1      -0.608   0.016  -1.539  0.00  0.00     0.418 HD
ENDBRANCH   4   7
TORSDOF 1
ENDMDL
