MODEL 1
REMARK minimizedAffinity -4.22160721
REMARK minimizedRMSD -1
REMARK  1 active torsions:
REMARK  status: ('A' for Active; 'I' for Inactive)
REMARK    1  A    between atoms: C1_2  and  C2_3 
ROOT
ATOM      1  C2  UNL d   1      -0.335  -0.512   0.268  0.00  0.00    -0.077 A 
ATOM      2  C3  UNL d   1       0.642  -1.383  -0.234  0.00  0.00     0.002 A 
ATOM      3  C4  UNL d   1       0.528  -2.761  -0.036  0.00  0.00     0.002 A 
ATOM      4  C5  UNL d   1      -0.562  -3.278   0.661  0.00  0.00    -0.004 A 
ATOM      5  C6  UNL d   1      -1.537  -2.420   1.165  0.00  0.00     0.002 A 
ATOM      6  C7  UNL d   1      -1.425  -1.043   0.969  0.00  0.00     0.002 A 
ENDROOT
BRANCH   1   7
ATOM      7  C1  UNL d   1      -0.240   0.970   0.012  0.00  0.00     0.055 C 
ATOM      8  C   UNL d   1       1.050   1.547   0.576  0.00  0.00     0.019 C 
ENDBRANCH   1   7
TORSDOF 1
ENDMDL
