MODEL 1
REMARK minimizedAffinity -5.2847538
REMARK minimizedRMSD -1
REMARK  1 active torsions:
REMARK  status: ('A' for Active; 'I' for Inactive)
REMARK    1  A    between atoms: C1_2  and  C2_3 
ROOT
ATOM      1  C2  UNL d   1       0.309  -0.028   0.645  0.00  0.00    -0.077 A 
ATOM      2  C3  UNL d   1       0.426  -1.084  -0.270  0.00  0.00     0.002 A 
ATOM      3  C4  UNL d   1      -0.375  -2.220  -0.143  0.00  0.00     0.002 A 
ATOM      4  C5  UNL d   1      -1.302  -2.309   0.893  0.00  0.00    -0.004 A 
ATOM      5  C6  UNL d   1      -1.425  -1.266   1.809  0.00  0.00     0.002 A 
ATOM      6  C7  UNL d   1      -0.623  -0.130   1.686  0.00  0.00     0.002 A 
ENDROOT
BRANCH   1   7
ATOM      7  C1  UNL d   1       1.138   1.219   0.482  0.00  0.00     0.055 C 
ATOM      8  C   UNL d   1       0.683   2.033  -0.720  0.00  0.00     0.019 C 
ENDBRANCH   1   7
TORSDOF 1
ENDMDL
