MODEL 1
REMARK minimizedAffinity -2.71283555
REMARK minimizedRMSD -1
REMARK  1 active torsions:
REMARK  status: ('A' for Active; 'I' for Inactive)
REMARK    1  A    between atoms: C1_2  and  C2_3 
ROOT
ATOM      1  C2  UNL d   1       1.228   1.688   0.067  0.00  0.00    -0.077 A 
ATOM      2  C3  UNL d   1       0.615   2.727   0.782  0.00  0.00     0.002 A 
ATOM      3  C4  UNL d   1       1.366   3.815   1.231  0.00  0.00     0.002 A 
ATOM      4  C5  UNL d   1       2.733   3.877   0.966  0.00  0.00    -0.004 A 
ATOM      5  C6  UNL d   1       3.352   2.848   0.257  0.00  0.00     0.002 A 
ATOM      6  C7  UNL d   1       2.603   1.759  -0.191  0.00  0.00     0.002 A 
ENDROOT
BRANCH   1   7
ATOM      7  C1  UNL d   1       0.411   0.538  -0.460  0.00  0.00     0.055 C 
ATOM      8  C   UNL d   1       0.853  -0.782   0.155  0.00  0.00     0.019 C 
ENDBRANCH   1   7
TORSDOF 1
ENDMDL
