MODEL 1
REMARK minimizedAffinity -2.65396142
REMARK minimizedRMSD -1
REMARK  1 active torsions:
REMARK  status: ('A' for Active; 'I' for Inactive)
REMARK    1  A    between atoms: C1_2  and  C2_3 
ROOT
ATOM      1  C2  UNL d   1       0.068   3.630   1.165  0.00  0.00    -0.077 A 
ATOM      2  C3  UNL d   1       1.353   4.190   1.128  0.00  0.00     0.002 A 
ATOM      3  C4  UNL d   1       2.344   3.629   0.320  0.00  0.00     0.002 A 
ATOM      4  C5  UNL d   1       2.060   2.510  -0.459  0.00  0.00    -0.004 A 
ATOM      5  C6  UNL d   1       0.786   1.945  -0.428  0.00  0.00     0.002 A 
ATOM      6  C7  UNL d   1      -0.206   2.503   0.380  0.00  0.00     0.002 A 
ENDROOT
BRANCH   1   7
ATOM      7  C1  UNL d   1      -1.016   4.263   1.997  0.00  0.00     0.055 C 
ATOM      8  C   UNL d   1      -0.438   4.973   3.213  0.00  0.00     0.019 C 
ENDBRANCH   1   7
TORSDOF 1
ENDMDL
