MODEL 1
REMARK minimizedAffinity -4.7301693
REMARK minimizedRMSD -1
REMARK  1 active torsions:
REMARK  status: ('A' for Active; 'I' for Inactive)
REMARK    1  A    between atoms: C1_2  and  C2_3 
ROOT
ATOM      1  C2  UNL d   1      -1.663  -2.055   1.335  0.00  0.00    -0.077 A 
ATOM      2  C3  UNL d   1      -1.252  -0.718   1.243  0.00  0.00     0.002 A 
ATOM      3  C4  UNL d   1      -0.025  -0.394   0.663  0.00  0.00     0.002 A 
ATOM      4  C5  UNL d   1       0.800  -1.401   0.166  0.00  0.00    -0.004 A 
ATOM      5  C6  UNL d   1       0.402  -2.734   0.255  0.00  0.00     0.002 A 
ATOM      6  C7  UNL d   1      -0.824  -3.060   0.836  0.00  0.00     0.002 A 
ENDROOT
BRANCH   1   7
ATOM      7  C1  UNL d   1      -3.008  -2.403   1.916  0.00  0.00     0.055 C 
ATOM      8  C   UNL d   1      -4.014  -2.737   0.824  0.00  0.00     0.019 C 
ENDBRANCH   1   7
TORSDOF 1
ENDMDL
