MODEL 1
REMARK minimizedAffinity -5.22749615
REMARK minimizedRMSD -1
REMARK  1 active torsions:
REMARK  status: ('A' for Active; 'I' for Inactive)
REMARK    1  A    between atoms: C1_2  and  C2_3 
ROOT
ATOM      1  C2  UNL d   1      -1.060  -1.891   1.295  0.00  0.00    -0.077 A 
ATOM      2  C3  UNL d   1      -0.609  -0.615   0.930  0.00  0.00     0.002 A 
ATOM      3  C4  UNL d   1       0.232  -0.453  -0.173  0.00  0.00     0.002 A 
ATOM      4  C5  UNL d   1       0.626  -1.561  -0.921  0.00  0.00    -0.004 A 
ATOM      5  C6  UNL d   1       0.184  -2.834  -0.564  0.00  0.00     0.002 A 
ATOM      6  C7  UNL d   1      -0.656  -2.999   0.539  0.00  0.00     0.002 A 
ENDROOT
BRANCH   1   7
ATOM      7  C1  UNL d   1      -2.007  -2.063   2.454  0.00  0.00     0.055 C 
ATOM      8  C   UNL d   1      -1.973  -0.856   3.380  0.00  0.00     0.019 C 
ENDBRANCH   1   7
TORSDOF 1
ENDMDL
