MODEL 1
REMARK minimizedAffinity -1.9456135
REMARK minimizedRMSD -1
REMARK  1 active torsions:
REMARK  status: ('A' for Active; 'I' for Inactive)
REMARK    1  A    between atoms: C1_2  and  C2_3 
ROOT
ATOM      1  C2  UNL d   1      -0.263  -0.532  -0.641  0.00  0.00    -0.077 A 
ATOM      2  C3  UNL d   1      -0.668  -1.874  -0.635  0.00  0.00     0.002 A 
ATOM      3  C4  UNL d   1      -1.351  -2.401   0.463  0.00  0.00     0.002 A 
ATOM      4  C5  UNL d   1      -1.639  -1.592   1.560  0.00  0.00    -0.004 A 
ATOM      5  C6  UNL d   1      -1.238  -0.256   1.564  0.00  0.00     0.002 A 
ATOM      6  C7  UNL d   1      -0.554   0.271   0.468  0.00  0.00     0.002 A 
ENDROOT
BRANCH   1   7
ATOM      7  C1  UNL d   1       0.430   0.050  -1.845  0.00  0.00     0.055 C 
ATOM      8  C   UNL d   1       0.651  -1.003  -2.921  0.00  0.00     0.019 C 
ENDBRANCH   1   7
TORSDOF 1
ENDMDL
