MODEL 1
REMARK minimizedAffinity -5.47743082
REMARK minimizedRMSD -1
REMARK  1 active torsions:
REMARK  status: ('A' for Active; 'I' for Inactive)
REMARK    1  A    between atoms: C1_2  and  C2_3 
ROOT
ATOM      1  C2  UNL d   1      -0.401  -0.438   0.462  0.00  0.00    -0.077 A 
ATOM      2  C3  UNL d   1       0.500  -1.305  -0.173  0.00  0.00     0.002 A 
ATOM      3  C4  UNL d   1       0.228  -2.672  -0.251  0.00  0.00     0.002 A 
ATOM      4  C5  UNL d   1      -0.945  -3.184   0.299  0.00  0.00    -0.004 A 
ATOM      5  C6  UNL d   1      -1.846  -2.330   0.934  0.00  0.00     0.002 A 
ATOM      6  C7  UNL d   1      -1.576  -0.963   1.014  0.00  0.00     0.002 A 
ENDROOT
BRANCH   1   7
ATOM      7  C1  UNL d   1      -0.133   1.044   0.504  0.00  0.00     0.055 C 
ATOM      8  C   UNL d   1       0.347   1.558  -0.845  0.00  0.00     0.019 C 
ENDBRANCH   1   7
TORSDOF 1
ENDMDL
