MODEL 1
REMARK minimizedAffinity -5.26050806
REMARK minimizedRMSD -1
REMARK  1 active torsions:
REMARK  status: ('A' for Active; 'I' for Inactive)
REMARK    1  A    between atoms: C1_2  and  C2_3 
ROOT
ATOM      1  C2  UNL d   1      -0.272  -0.399   0.174  0.00  0.00    -0.077 A 
ATOM      2  C3  UNL d   1      -1.431  -1.046   0.625  0.00  0.00     0.002 A 
ATOM      3  C4  UNL d   1      -1.411  -2.413   0.909  0.00  0.00     0.002 A 
ATOM      4  C5  UNL d   1      -0.235  -3.143   0.748  0.00  0.00    -0.004 A 
ATOM      5  C6  UNL d   1       0.922  -2.509   0.298  0.00  0.00     0.002 A 
ATOM      6  C7  UNL d   1       0.904  -1.143   0.013  0.00  0.00     0.002 A 
ENDROOT
BRANCH   1   7
ATOM      7  C1  UNL d   1      -0.278   1.085  -0.085  0.00  0.00     0.055 C 
ATOM      8  C   UNL d   1       1.124   1.669   0.007  0.00  0.00     0.019 C 
ENDBRANCH   1   7
TORSDOF 1
ENDMDL
