MODEL 1
REMARK minimizedAffinity -2.68241072
REMARK minimizedRMSD -1
REMARK  1 active torsions:
REMARK  status: ('A' for Active; 'I' for Inactive)
REMARK    1  A    between atoms: C1_2  and  C2_3 
ROOT
ATOM      1  C2  UNL d   1      -1.111  -0.831   0.433  0.00  0.00    -0.077 A 
ATOM      2  C3  UNL d   1       0.233  -0.624   0.092  0.00  0.00     0.002 A 
ATOM      3  C4  UNL d   1       1.168  -1.649   0.251  0.00  0.00     0.002 A 
ATOM      4  C5  UNL d   1       0.769  -2.888   0.746  0.00  0.00    -0.004 A 
ATOM      5  C6  UNL d   1      -0.565  -3.104   1.089  0.00  0.00     0.002 A 
ATOM      6  C7  UNL d   1      -1.501  -2.080   0.933  0.00  0.00     0.002 A 
ENDROOT
BRANCH   1   7
ATOM      7  C1  UNL d   1      -2.130   0.257   0.216  0.00  0.00     0.055 C 
ATOM      8  C   UNL d   1      -3.294   0.126   1.188  0.00  0.00     0.019 C 
ENDBRANCH   1   7
TORSDOF 1
ENDMDL
