MODEL 1
REMARK minimizedAffinity -4.59199524
REMARK minimizedRMSD -1
REMARK  1 active torsions:
REMARK  status: ('A' for Active; 'I' for Inactive)
REMARK    1  A    between atoms: C1_2  and  C2_3 
ROOT
ATOM      1  C2  UNL d   1      -0.710  -0.801  -0.084  0.00  0.00    -0.077 A 
ATOM      2  C3  UNL d   1      -0.141  -0.614  -1.352  0.00  0.00     0.002 A 
ATOM      3  C4  UNL d   1       0.092  -1.707  -2.189  0.00  0.00     0.002 A 
ATOM      4  C5  UNL d   1      -0.245  -2.992  -1.771  0.00  0.00    -0.004 A 
ATOM      5  C6  UNL d   1      -0.810  -3.189  -0.511  0.00  0.00     0.002 A 
ATOM      6  C7  UNL d   1      -1.042  -2.098   0.328  0.00  0.00     0.002 A 
ENDROOT
BRANCH   1   7
ATOM      7  C1  UNL d   1      -1.008   0.381   0.801  0.00  0.00     0.055 C 
ATOM      8  C   UNL d   1      -2.218   0.119   1.686  0.00  0.00     0.019 C 
ENDBRANCH   1   7
TORSDOF 1
ENDMDL
