MODEL 1
REMARK minimizedAffinity -4.90743351
REMARK minimizedRMSD -1
REMARK  1 active torsions:
REMARK  status: ('A' for Active; 'I' for Inactive)
REMARK    1  A    between atoms: C1_2  and  C2_3 
ROOT
ATOM      1  C2  UNL d   1       0.080  -0.273   0.155  0.00  0.00    -0.077 A 
ATOM      2  C3  UNL d   1       0.864  -1.367  -0.235  0.00  0.00     0.002 A 
ATOM      3  C4  UNL d   1       0.516  -2.661   0.159  0.00  0.00     0.002 A 
ATOM      4  C5  UNL d   1      -0.618  -2.872   0.940  0.00  0.00    -0.004 A 
ATOM      5  C6  UNL d   1      -1.404  -1.790   1.334  0.00  0.00     0.002 A 
ATOM      6  C7  UNL d   1      -1.057  -0.496   0.943  0.00  0.00     0.002 A 
ENDROOT
BRANCH   1   7
ATOM      7  C1  UNL d   1       0.425   1.118  -0.310  0.00  0.00     0.055 C 
ATOM      8  C   UNL d   1       1.529   1.728   0.542  0.00  0.00     0.019 C 
ENDBRANCH   1   7
TORSDOF 1
ENDMDL
