MODEL 1
REMARK minimizedAffinity -5.28540707
REMARK minimizedRMSD -1
REMARK  1 active torsions:
REMARK  status: ('A' for Active; 'I' for Inactive)
REMARK    1  A    between atoms: C1_2  and  C2_3 
ROOT
ATOM      1  C2  UNL d   1       0.110   0.078  -0.194  0.00  0.00    -0.077 A 
ATOM      2  C3  UNL d   1       0.834  -0.644  -1.153  0.00  0.00     0.002 A 
ATOM      3  C4  UNL d   1       0.892  -2.038  -1.092  0.00  0.00     0.002 A 
ATOM      4  C5  UNL d   1       0.226  -2.721  -0.077  0.00  0.00    -0.004 A 
ATOM      5  C6  UNL d   1      -0.494  -2.011   0.884  0.00  0.00     0.002 A 
ATOM      6  C7  UNL d   1      -0.552  -0.618   0.825  0.00  0.00     0.002 A 
ENDROOT
BRANCH   1   7
ATOM      7  C1  UNL d   1       0.006   1.578  -0.286  0.00  0.00     0.055 C 
ATOM      8  C   UNL d   1       1.350   2.244  -0.033  0.00  0.00     0.019 C 
ENDBRANCH   1   7
TORSDOF 1
ENDMDL
