MODEL 1
REMARK minimizedAffinity -5.18377781
REMARK minimizedRMSD -1
REMARK  1 active torsions:
REMARK  status: ('A' for Active; 'I' for Inactive)
REMARK    1  A    between atoms: C1_2  and  C2_3 
ROOT
ATOM      1  C2  UNL d   1       0.149  -0.054   0.007  0.00  0.00    -0.077 A 
ATOM      2  C3  UNL d   1      -0.802  -0.355   0.992  0.00  0.00     0.002 A 
ATOM      3  C4  UNL d   1      -0.836  -1.624   1.575  0.00  0.00     0.002 A 
ATOM      4  C5  UNL d   1       0.079  -2.598   1.183  0.00  0.00    -0.004 A 
ATOM      5  C6  UNL d   1       1.027  -2.308   0.202  0.00  0.00     0.002 A 
ATOM      6  C7  UNL d   1       1.062  -1.042  -0.383  0.00  0.00     0.002 A 
ENDROOT
BRANCH   1   7
ATOM      7  C1  UNL d   1       0.220   1.329  -0.588  0.00  0.00     0.055 C 
ATOM      8  C   UNL d   1       1.406   2.107  -0.039  0.00  0.00     0.019 C 
ENDBRANCH   1   7
TORSDOF 1
ENDMDL
