MODEL 1
REMARK minimizedAffinity -2.21375299
REMARK minimizedRMSD -1
REMARK  0 active torsions:
REMARK  status: ('A' for Active; 'I' for Inactive)
ROOT
ATOM      1  C   UNL d   1      -0.867  -0.027   2.526  0.00  0.00     0.078 C 
ATOM      2  C1  UNL d   1       0.084  -0.840   1.699  0.00  0.00    -0.077 A 
ATOM      3  C2  UNL d   1       0.534  -0.380   0.455  0.00  0.00    -0.001 A 
ATOM      4  C3  UNL d   1       1.411  -1.152  -0.308  0.00  0.00     0.003 A 
ATOM      5  C4  UNL d   1       1.846  -2.389   0.164  0.00  0.00    -0.005 A 
ATOM      6  C5  UNL d   1       1.403  -2.856   1.399  0.00  0.00     0.003 A 
ATOM      7  C6  UNL d   1       0.525  -2.085   2.164  0.00  0.00    -0.001 A 
ENDROOT
TORSDOF 0
ENDMDL
