MODEL 1
REMARK minimizedAffinity 2.95774817
REMARK minimizedRMSD -1
REMARK  0 active torsions:
REMARK  status: ('A' for Active; 'I' for Inactive)
ROOT
ATOM      1  C   UNL d   1      -0.663  -0.485   2.584  0.00  0.00     0.078 C 
ATOM      2  C1  UNL d   1       0.280  -1.467   1.955  0.00  0.00    -0.077 A 
ATOM      3  C2  UNL d   1       0.642  -2.646   2.618  0.00  0.00    -0.001 A 
ATOM      4  C3  UNL d   1       1.528  -3.546   2.024  0.00  0.00     0.003 A 
ATOM      5  C4  UNL d   1       2.061  -3.276   0.765  0.00  0.00    -0.005 A 
ATOM      6  C5  UNL d   1       1.708  -2.105   0.099  0.00  0.00     0.003 A 
ATOM      7  C6  UNL d   1       0.822  -1.203   0.691  0.00  0.00    -0.001 A 
ENDROOT
TORSDOF 0
ENDMDL
