MODEL 1
REMARK minimizedAffinity -0.578234017
REMARK minimizedRMSD -1
REMARK  0 active torsions:
REMARK  status: ('A' for Active; 'I' for Inactive)
ROOT
ATOM      1  C   UNL d   1       3.092  -4.815   0.927  0.00  0.00     0.078 C 
ATOM      2  C1  UNL d   1       1.877  -4.117   1.459  0.00  0.00    -0.077 A 
ATOM      3  C2  UNL d   1       1.856  -2.726   1.618  0.00  0.00    -0.001 A 
ATOM      4  C3  UNL d   1       0.721  -2.090   2.124  0.00  0.00     0.003 A 
ATOM      5  C4  UNL d   1      -0.401  -2.837   2.476  0.00  0.00    -0.005 A 
ATOM      6  C5  UNL d   1      -0.389  -4.222   2.323  0.00  0.00     0.003 A 
ATOM      7  C6  UNL d   1       0.745  -4.860   1.817  0.00  0.00    -0.001 A 
ENDROOT
TORSDOF 0
ENDMDL
