MODEL 1
REMARK minimizedAffinity -4.52471876
REMARK minimizedRMSD -1
REMARK  0 active torsions:
REMARK  status: ('A' for Active; 'I' for Inactive)
ROOT
ATOM      1  C   UNL d   1       1.728  -2.845   1.290  0.00  0.00     0.078 C 
ATOM      2  C1  UNL d   1       0.507  -1.976   1.264  0.00  0.00    -0.077 A 
ATOM      3  C2  UNL d   1       0.094  -1.347   0.082  0.00  0.00    -0.001 A 
ATOM      4  C3  UNL d   1      -1.039  -0.533   0.075  0.00  0.00     0.003 A 
ATOM      5  C4  UNL d   1      -1.770  -0.339   1.245  0.00  0.00    -0.005 A 
ATOM      6  C5  UNL d   1      -1.366  -0.959   2.426  0.00  0.00     0.003 A 
ATOM      7  C6  UNL d   1      -0.232  -1.773   2.436  0.00  0.00    -0.001 A 
ENDROOT
TORSDOF 0
ENDMDL
