MODEL 1
REMARK minimizedAffinity 5.12714005
REMARK minimizedRMSD -1
REMARK  0 active torsions:
REMARK  status: ('A' for Active; 'I' for Inactive)
ROOT
ATOM      1  C   UNL d   1      -0.790  -0.087   1.873  0.00  0.00     0.078 C 
ATOM      2  C1  UNL d   1      -0.436  -1.515   2.164  0.00  0.00    -0.077 A 
ATOM      3  C2  UNL d   1       0.694  -2.109   1.590  0.00  0.00    -0.001 A 
ATOM      4  C3  UNL d   1       1.006  -3.442   1.861  0.00  0.00     0.003 A 
ATOM      5  C4  UNL d   1       0.192  -4.193   2.707  0.00  0.00    -0.005 A 
ATOM      6  C5  UNL d   1      -0.937  -3.611   3.281  0.00  0.00     0.003 A 
ATOM      7  C6  UNL d   1      -1.250  -2.278   3.011  0.00  0.00    -0.001 A 
ENDROOT
TORSDOF 0
ENDMDL
