MODEL 1
REMARK minimizedAffinity -1.92673099
REMARK minimizedRMSD -1
REMARK  0 active torsions:
REMARK  status: ('A' for Active; 'I' for Inactive)
ROOT
ATOM      1  C   UNL d   1      -1.042  -0.950  -0.658  0.00  0.00     0.078 C 
ATOM      2  C1  UNL d   1      -0.119  -0.696   0.495  0.00  0.00    -0.077 A 
ATOM      3  C2  UNL d   1       0.879   0.283   0.419  0.00  0.00    -0.001 A 
ATOM      4  C3  UNL d   1       1.738   0.502   1.497  0.00  0.00     0.003 A 
ATOM      5  C4  UNL d   1       1.609  -0.256   2.659  0.00  0.00    -0.005 A 
ATOM      6  C5  UNL d   1       0.621  -1.234   2.744  0.00  0.00     0.003 A 
ATOM      7  C6  UNL d   1      -0.239  -1.455   1.667  0.00  0.00    -0.001 A 
ENDROOT
TORSDOF 0
ENDMDL
