MODEL 1
REMARK minimizedAffinity -3.28062272
REMARK minimizedRMSD -1
REMARK  0 active torsions:
REMARK  status: ('A' for Active; 'I' for Inactive)
ROOT
ATOM      1  C   UNL d   1       2.048  -0.685  -1.691  0.00  0.00     0.078 C 
ATOM      2  C1  UNL d   1       1.315  -0.426  -0.409  0.00  0.00    -0.077 A 
ATOM      3  C2  UNL d   1       1.980   0.093   0.709  0.00  0.00    -0.001 A 
ATOM      4  C3  UNL d   1       1.287   0.321   1.899  0.00  0.00     0.003 A 
ATOM      5  C4  UNL d   1      -0.074   0.032   1.983  0.00  0.00    -0.005 A 
ATOM      6  C5  UNL d   1      -0.743  -0.486   0.876  0.00  0.00     0.003 A 
ATOM      7  C6  UNL d   1      -0.052  -0.715  -0.315  0.00  0.00    -0.001 A 
ENDROOT
TORSDOF 0
ENDMDL
