MODEL 1
REMARK minimizedAffinity 6.38269186
REMARK minimizedRMSD -1
REMARK  1 active torsions:
REMARK  status: ('A' for Active; 'I' for Inactive)
REMARK    1  A    between atoms: C3_4  and  O_7 
ROOT
ATOM      1  C   UNL d   1      -3.567   0.023   2.701  0.00  0.00    -0.033 A 
ATOM      2  C1  UNL d   1      -2.859   1.211   2.888  0.00  0.00     0.039 A 
ATOM      3  C2  UNL d   1      -3.393   2.226   3.684  0.00  0.00    -0.080 A 
ATOM      4  C3  UNL d   1      -4.634   2.040   4.287  0.00  0.00     0.150 A 
ATOM      5  C4  UNL d   1      -5.343   0.857   4.108  0.00  0.00    -0.007 A 
ATOM      6  C5  UNL d   1      -4.809  -0.155   3.312  0.00  0.00     0.039 A 
ENDROOT
BRANCH   4   7
ATOM      7  O   UNL d   1      -5.198   3.004   5.069  0.00  0.00    -0.526 OA
ATOM      8  H5  UNL d   1      -4.608   3.777   5.079  0.00  0.00     0.418 HD
ENDBRANCH   4   7
TORSDOF 1
ENDMDL
