MODEL 1
REMARK minimizedAffinity -2.18790913
REMARK minimizedRMSD -1
REMARK  1 active torsions:
REMARK  status: ('A' for Active; 'I' for Inactive)
REMARK    1  A    between atoms: C3_4  and  O_7 
ROOT
ATOM      1  C   UNL d   1      -2.316  -4.126  -4.115  0.00  0.00    -0.033 A 
ATOM      2  C1  UNL d   1      -3.229  -4.867  -3.362  0.00  0.00     0.039 A 
ATOM      3  C2  UNL d   1      -4.448  -5.254  -3.924  0.00  0.00    -0.080 A 
ATOM      4  C3  UNL d   1      -4.740  -4.894  -5.236  0.00  0.00     0.150 A 
ATOM      5  C4  UNL d   1      -3.833  -4.158  -5.993  0.00  0.00    -0.007 A 
ATOM      6  C5  UNL d   1      -2.617  -3.773  -5.430  0.00  0.00     0.039 A 
ENDROOT
BRANCH   4   7
ATOM      7  O   UNL d   1      -5.919  -5.244  -5.826  0.00  0.00    -0.526 OA
ATOM      8  H5  UNL d   1      -6.458  -5.724  -5.175  0.00  0.00     0.418 HD
ENDBRANCH   4   7
TORSDOF 1
ENDMDL
