MODEL 1
REMARK minimizedAffinity 11.6829643
REMARK minimizedRMSD -1
REMARK  1 active torsions:
REMARK  status: ('A' for Active; 'I' for Inactive)
REMARK    1  A    between atoms: C3_4  and  O_7 
ROOT
ATOM      1  C   UNL d   1       2.457  -1.765  -0.509  0.00  0.00    -0.033 A 
ATOM      2  C1  UNL d   1       1.707  -1.079  -1.467  0.00  0.00     0.039 A 
ATOM      3  C2  UNL d   1       0.747  -1.756  -2.221  0.00  0.00    -0.080 A 
ATOM      4  C3  UNL d   1       0.547  -3.118  -2.008  0.00  0.00     0.150 A 
ATOM      5  C4  UNL d   1       1.288  -3.806  -1.054  0.00  0.00    -0.007 A 
ATOM      6  C5  UNL d   1       2.247  -3.128  -0.302  0.00  0.00     0.039 A 
ENDROOT
BRANCH   4   7
ATOM      7  O   UNL d   1      -0.374  -3.823  -2.724  0.00  0.00    -0.526 OA
ATOM      8  H5  UNL d   1      -0.790  -3.223  -3.366  0.00  0.00     0.418 HD
ENDBRANCH   4   7
TORSDOF 1
ENDMDL
