MODEL 1
REMARK minimizedAffinity 5.49843693
REMARK minimizedRMSD -1
REMARK  1 active torsions:
REMARK  status: ('A' for Active; 'I' for Inactive)
REMARK    1  A    between atoms: C3_4  and  O_7 
ROOT
ATOM      1  C   UNL d   1      -0.066  -0.923  -3.056  0.00  0.00    -0.033 A 
ATOM      2  C1  UNL d   1       0.171  -2.285  -3.249  0.00  0.00     0.039 A 
ATOM      3  C2  UNL d   1      -0.900  -3.164  -3.423  0.00  0.00    -0.080 A 
ATOM      4  C3  UNL d   1      -2.200  -2.669  -3.403  0.00  0.00     0.150 A 
ATOM      5  C4  UNL d   1      -2.444  -1.312  -3.215  0.00  0.00    -0.007 A 
ATOM      6  C5  UNL d   1      -1.373  -0.436  -3.040  0.00  0.00     0.039 A 
ENDROOT
BRANCH   4   7
ATOM      7  O   UNL d   1      -3.278  -3.489  -3.563  0.00  0.00    -0.526 OA
ATOM      8  H5  UNL d   1      -2.958  -4.402  -3.654  0.00  0.00     0.418 HD
ENDBRANCH   4   7
TORSDOF 1
ENDMDL
