MODEL 1
REMARK minimizedAffinity 8.58959675
REMARK minimizedRMSD -1
REMARK  1 active torsions:
REMARK  status: ('A' for Active; 'I' for Inactive)
REMARK    1  A    between atoms: C3_4  and  O_7 
ROOT
ATOM      1  C   UNL d   1      -0.767  -4.542  -2.978  0.00  0.00    -0.033 A 
ATOM      2  C1  UNL d   1      -0.662  -3.658  -4.053  0.00  0.00     0.039 A 
ATOM      3  C2  UNL d   1      -1.814  -3.143  -4.651  0.00  0.00    -0.080 A 
ATOM      4  C3  UNL d   1      -3.063  -3.519  -4.163  0.00  0.00     0.150 A 
ATOM      5  C4  UNL d   1      -3.174  -4.396  -3.090  0.00  0.00    -0.007 A 
ATOM      6  C5  UNL d   1      -2.023  -4.910  -2.495  0.00  0.00     0.039 A 
ENDROOT
BRANCH   4   7
ATOM      7  O   UNL d   1      -4.216  -3.047  -4.717  0.00  0.00    -0.526 OA
ATOM      8  H5  UNL d   1      -3.984  -2.474  -5.467  0.00  0.00     0.418 HD
ENDBRANCH   4   7
TORSDOF 1
ENDMDL
