MODEL 1
REMARK minimizedAffinity -1.73369563
REMARK minimizedRMSD -1
REMARK  1 active torsions:
REMARK  status: ('A' for Active; 'I' for Inactive)
REMARK    1  A    between atoms: C3_4  and  O_7 
ROOT
ATOM      1  C   UNL d   1      -1.339  -4.497  -3.759  0.00  0.00    -0.033 A 
ATOM      2  C1  UNL d   1      -1.356  -3.999  -5.064  0.00  0.00     0.039 A 
ATOM      3  C2  UNL d   1      -2.573  -3.780  -5.712  0.00  0.00    -0.080 A 
ATOM      4  C3  UNL d   1      -3.763  -4.061  -5.047  0.00  0.00     0.150 A 
ATOM      5  C4  UNL d   1      -3.753  -4.553  -3.746  0.00  0.00    -0.007 A 
ATOM      6  C5  UNL d   1      -2.537  -4.773  -3.100  0.00  0.00     0.039 A 
ENDROOT
BRANCH   4   7
ATOM      7  O   UNL d   1      -4.975  -3.867  -5.641  0.00  0.00    -0.526 OA
ATOM      8  H5  UNL d   1      -4.826  -3.551  -6.547  0.00  0.00     0.418 HD
ENDBRANCH   4   7
TORSDOF 1
ENDMDL
