MODEL 1
REMARK minimizedAffinity 3.4224174
REMARK minimizedRMSD -1
REMARK  1 active torsions:
REMARK  status: ('A' for Active; 'I' for Inactive)
REMARK    1  A    between atoms: C3_4  and  O_7 
ROOT
ATOM      1  C   UNL d   1      -1.453  -4.455  -2.773  0.00  0.00    -0.033 A 
ATOM      2  C1  UNL d   1      -1.429  -3.245  -3.470  0.00  0.00     0.039 A 
ATOM      3  C2  UNL d   1      -2.584  -2.777  -4.100  0.00  0.00    -0.080 A 
ATOM      4  C3  UNL d   1      -3.755  -3.526  -4.024  0.00  0.00     0.150 A 
ATOM      5  C4  UNL d   1      -3.787  -4.730  -3.327  0.00  0.00    -0.007 A 
ATOM      6  C5  UNL d   1      -2.633  -5.196  -2.700  0.00  0.00     0.039 A 
ENDROOT
BRANCH   4   7
ATOM      7  O   UNL d   1      -4.906  -3.113  -4.626  0.00  0.00    -0.526 OA
ATOM      8  H5  UNL d   1      -4.726  -2.280  -5.094  0.00  0.00     0.418 HD
ENDBRANCH   4   7
TORSDOF 1
ENDMDL
