MODEL 1
REMARK minimizedAffinity 2.8732357
REMARK minimizedRMSD -1
REMARK  1 active torsions:
REMARK  status: ('A' for Active; 'I' for Inactive)
REMARK    1  A    between atoms: C3_4  and  O_7 
ROOT
ATOM      1  C   UNL d   1      -5.897  -3.724  -6.000  0.00  0.00    -0.033 A 
ATOM      2  C1  UNL d   1      -5.241  -2.598  -5.497  0.00  0.00     0.039 A 
ATOM      3  C2  UNL d   1      -3.945  -2.712  -4.989  0.00  0.00    -0.080 A 
ATOM      4  C3  UNL d   1      -3.317  -3.954  -4.991  0.00  0.00     0.150 A 
ATOM      5  C4  UNL d   1      -3.963  -5.079  -5.494  0.00  0.00    -0.007 A 
ATOM      6  C5  UNL d   1      -5.257  -4.964  -6.000  0.00  0.00     0.039 A 
ENDROOT
BRANCH   4   7
ATOM      7  O   UNL d   1      -2.055  -4.116  -4.502  0.00  0.00    -0.526 OA
ATOM      8  H5  UNL d   1      -1.745  -3.260  -4.162  0.00  0.00     0.418 HD
ENDBRANCH   4   7
TORSDOF 1
ENDMDL
