MODEL 1
REMARK minimizedAffinity 9.20523167
REMARK minimizedRMSD -1
REMARK  1 active torsions:
REMARK  status: ('A' for Active; 'I' for Inactive)
REMARK    1  A    between atoms: C3_4  and  O_7 
ROOT
ATOM      1  C   UNL d   1       0.129   1.875   5.998  0.00  0.00    -0.033 A 
ATOM      2  C1  UNL d   1       0.392   0.504   5.999  0.00  0.00     0.039 A 
ATOM      3  C2  UNL d   1       0.535  -0.182   4.792  0.00  0.00    -0.080 A 
ATOM      4  C3  UNL d   1       0.415   0.513   3.592  0.00  0.00     0.150 A 
ATOM      5  C4  UNL d   1       0.157   1.880   3.583  0.00  0.00    -0.007 A 
ATOM      6  C5  UNL d   1       0.014   2.564   4.790  0.00  0.00     0.039 A 
ENDROOT
BRANCH   4   7
ATOM      7  O   UNL d   1       0.542  -0.115   2.389  0.00  0.00    -0.526 OA
ATOM      8  H5  UNL d   1       0.689  -1.062   2.550  0.00  0.00     0.418 HD
ENDBRANCH   4   7
TORSDOF 1
ENDMDL
