MODEL 1
REMARK minimizedAffinity 6.20883703
REMARK minimizedRMSD -1
REMARK  1 active torsions:
REMARK  status: ('A' for Active; 'I' for Inactive)
REMARK    1  A    between atoms: C3_4  and  O_7 
ROOT
ATOM      1  C   UNL d   1      -0.778   3.593  -5.998  0.00  0.00    -0.033 A 
ATOM      2  C1  UNL d   1      -2.139   3.519  -5.694  0.00  0.00     0.039 A 
ATOM      3  C2  UNL d   1      -2.604   2.555  -4.799  0.00  0.00    -0.080 A 
ATOM      4  C3  UNL d   1      -1.701   1.672  -4.214  0.00  0.00     0.150 A 
ATOM      5  C4  UNL d   1      -0.343   1.742  -4.510  0.00  0.00    -0.007 A 
ATOM      6  C5  UNL d   1       0.120   2.705  -5.405  0.00  0.00     0.039 A 
ENDROOT
BRANCH   4   7
ATOM      7  O   UNL d   1      -2.109   0.710  -3.338  0.00  0.00    -0.526 OA
ATOM      8  H5  UNL d   1      -3.075   0.763  -3.252  0.00  0.00     0.418 HD
ENDBRANCH   4   7
TORSDOF 1
ENDMDL
