MODEL 1
REMARK minimizedAffinity 6.51150703
REMARK minimizedRMSD -1
REMARK  1 active torsions:
REMARK  status: ('A' for Active; 'I' for Inactive)
REMARK    1  A    between atoms: C3_4  and  O_7 
ROOT
ATOM      1  C   UNL d   1      -2.279   1.327   2.598  0.00  0.00    -0.033 A 
ATOM      2  C1  UNL d   1      -0.889   1.221   2.679  0.00  0.00     0.039 A 
ATOM      3  C2  UNL d   1      -0.284  -0.036   2.722  0.00  0.00    -0.080 A 
ATOM      4  C3  UNL d   1      -1.078  -1.179   2.681  0.00  0.00     0.150 A 
ATOM      5  C4  UNL d   1      -2.463  -1.081   2.596  0.00  0.00    -0.007 A 
ATOM      6  C5  UNL d   1      -3.066   0.175   2.555  0.00  0.00     0.039 A 
ENDROOT
BRANCH   4   7
ATOM      7  O   UNL d   1      -0.533  -2.427   2.725  0.00  0.00    -0.526 OA
ATOM      8  H5  UNL d   1       0.431  -2.339   2.812  0.00  0.00     0.418 HD
ENDBRANCH   4   7
TORSDOF 1
ENDMDL
