MODEL 1
REMARK minimizedAffinity -0.655231714
REMARK minimizedRMSD -1
REMARK  1 active torsions:
REMARK  status: ('A' for Active; 'I' for Inactive)
REMARK    1  A    between atoms: C3_4  and  O_7 
ROOT
ATOM      1  C   UNL d   1       3.313  -2.734  -0.577  0.00  0.00    -0.033 A 
ATOM      2  C1  UNL d   1       2.068  -2.275  -1.011  0.00  0.00     0.039 A 
ATOM      3  C2  UNL d   1       1.346  -3.002  -1.959  0.00  0.00    -0.080 A 
ATOM      4  C3  UNL d   1       1.878  -4.185  -2.464  0.00  0.00     0.150 A 
ATOM      5  C4  UNL d   1       3.116  -4.650  -2.033  0.00  0.00    -0.007 A 
ATOM      6  C5  UNL d   1       3.837  -3.922  -1.087  0.00  0.00     0.039 A 
ENDROOT
BRANCH   4   7
ATOM      7  O   UNL d   1       1.213  -4.926  -3.395  0.00  0.00    -0.526 OA
ATOM      8  H5  UNL d   1       0.385  -4.468  -3.619  0.00  0.00     0.418 HD
ENDBRANCH   4   7
TORSDOF 1
ENDMDL
