MODEL 1
REMARK minimizedAffinity -4.8194294
REMARK minimizedRMSD -1
REMARK  0 active torsions:
REMARK  status: ('A' for Active; 'I' for Inactive)
ROOT
ATOM      1  N1  IND d   1       0.169   1.101   2.404  0.00  0.00    -0.196 N 
ATOM      2  C2  IND d   1      -1.113   1.432   2.744  0.00  0.00     0.054 A 
ATOM      3  C3  IND d   1      -1.978   0.984   1.807  0.00  0.00    -0.031 A 
ATOM      4  C4  IND d   1      -1.520  -0.401  -0.314  0.00  0.00     0.051 A 
ATOM      5  C5  IND d   1      -0.500  -0.914  -1.066  0.00  0.00    -0.031 A 
ATOM      6  C6  IND d   1       0.821  -0.782  -0.690  0.00  0.00     0.015 A 
ATOM      7  C7  IND d   1       1.173  -0.138   0.462  0.00  0.00    -0.016 A 
ATOM      8  C8  IND d   1       0.141   0.391   1.224  0.00  0.00    -0.047 A 
ATOM      9  C9  IND d   1      -1.199   0.297   0.827  0.00  0.00    -0.096 A 
ATOM     10  HN1 IND d   1       0.875   1.303   2.852  0.00  0.00     0.298 HD
ENDROOT
TORSDOF 0
ENDMDL
