MODEL 1
REMARK minimizedAffinity -6.77070284
REMARK minimizedRMSD -1
REMARK  0 active torsions:
REMARK  status: ('A' for Active; 'I' for Inactive)
ROOT
ATOM      1  N1  IND d   1       1.766  -0.674   1.709  0.00  0.00    -0.196 N 
ATOM      2  C2  IND d   1       1.849  -0.252   3.007  0.00  0.00     0.054 A 
ATOM      3  C3  IND d   1       0.716   0.392   3.366  0.00  0.00    -0.031 A 
ATOM      4  C4  IND d   1      -1.443   0.778   2.017  0.00  0.00     0.051 A 
ATOM      5  C5  IND d   1      -1.980   0.606   0.772  0.00  0.00    -0.031 A 
ATOM      6  C6  IND d   1      -1.283  -0.016  -0.244  0.00  0.00     0.015 A 
ATOM      7  C7  IND d   1      -0.022  -0.502  -0.048  0.00  0.00    -0.016 A 
ATOM      8  C8  IND d   1       0.530  -0.323   1.213  0.00  0.00    -0.047 A 
ATOM      9  C9  IND d   1      -0.156   0.345   2.235  0.00  0.00    -0.096 A 
ATOM     10  HN1 IND d   1       2.382  -1.089   1.277  0.00  0.00     0.298 HD
ENDROOT
TORSDOF 0
ENDMDL
