MODEL 1
REMARK minimizedAffinity -4.39757538
REMARK minimizedRMSD -1
REMARK  0 active torsions:
REMARK  status: ('A' for Active; 'I' for Inactive)
ROOT
ATOM      1  N1  IND d   1       0.855  -0.464  -0.425  0.00  0.00    -0.196 N 
ATOM      2  C2  IND d   1      -0.203  -0.995  -1.108  0.00  0.00     0.054 A 
ATOM      3  C3  IND d   1      -1.369  -0.544  -0.595  0.00  0.00    -0.031 A 
ATOM      4  C4  IND d   1      -1.774   1.150   1.301  0.00  0.00     0.051 A 
ATOM      5  C5  IND d   1      -1.118   1.881   2.251  0.00  0.00    -0.031 A 
ATOM      6  C6  IND d   1       0.258   1.870   2.358  0.00  0.00     0.015 A 
ATOM      7  C7  IND d   1       1.032   1.132   1.508  0.00  0.00    -0.016 A 
ATOM      8  C8  IND d   1       0.369   0.383   0.546  0.00  0.00    -0.047 A 
ATOM      9  C9  IND d   1      -1.029   0.357   0.460  0.00  0.00    -0.096 A 
ATOM     10  HN1 IND d   1       1.685  -0.631  -0.576  0.00  0.00     0.298 HD
ENDROOT
TORSDOF 0
ENDMDL
