MODEL 1
REMARK minimizedAffinity -3.92841506
REMARK minimizedRMSD -1
REMARK  0 active torsions:
REMARK  status: ('A' for Active; 'I' for Inactive)
ROOT
ATOM      1  N1  IND d   1       1.330   0.545  -0.216  0.00  0.00    -0.196 N 
ATOM      2  C2  IND d   1       0.825  -0.035  -1.346  0.00  0.00     0.054 A 
ATOM      3  C3  IND d   1      -0.476  -0.357  -1.167  0.00  0.00    -0.031 A 
ATOM      4  C4  IND d   1      -2.003   0.069   0.861  0.00  0.00     0.051 A 
ATOM      5  C5  IND d   1      -1.983   0.538   2.145  0.00  0.00    -0.031 A 
ATOM      6  C6  IND d   1      -0.836   1.046   2.718  0.00  0.00     0.015 A 
ATOM      7  C7  IND d   1       0.338   1.115   2.021  0.00  0.00    -0.016 A 
ATOM      8  C8  IND d   1       0.323   0.633   0.720  0.00  0.00    -0.047 A 
ATOM      9  C9  IND d   1      -0.828   0.077   0.147  0.00  0.00    -0.096 A 
ATOM     10  HN1 IND d   1       2.141   0.811  -0.108  0.00  0.00     0.298 HD
ENDROOT
TORSDOF 0
ENDMDL
