MODEL 1
REMARK minimizedAffinity -5.76225138
REMARK minimizedRMSD -1
REMARK  0 active torsions:
REMARK  status: ('A' for Active; 'I' for Inactive)
ROOT
ATOM      1  N1  IND d   1       0.788  -0.191  -0.244  0.00  0.00    -0.196 N 
ATOM      2  C2  IND d   1      -0.386   0.074  -0.892  0.00  0.00     0.054 A 
ATOM      3  C3  IND d   1      -1.322   0.500  -0.015  0.00  0.00    -0.031 A 
ATOM      4  C4  IND d   1      -1.117   0.934   2.514  0.00  0.00     0.051 A 
ATOM      5  C5  IND d   1      -0.251   0.802   3.563  0.00  0.00    -0.031 A 
ATOM      6  C6  IND d   1       1.033   0.325   3.392  0.00  0.00     0.015 A 
ATOM      7  C7  IND d   1       1.504  -0.028   2.160  0.00  0.00    -0.016 A 
ATOM      8  C8  IND d   1       0.625   0.098   1.094  0.00  0.00    -0.047 A 
ATOM      9  C9  IND d   1      -0.693   0.540   1.267  0.00  0.00    -0.096 A 
ATOM     10  HN1 IND d   1       1.507  -0.489  -0.609  0.00  0.00     0.298 HD
ENDROOT
TORSDOF 0
ENDMDL
