MODEL 1
REMARK minimizedAffinity -2.04385972
REMARK minimizedRMSD -1
REMARK  0 active torsions:
REMARK  status: ('A' for Active; 'I' for Inactive)
ROOT
ATOM      1  N1  IND d   1       0.948   0.631  -1.000  0.00  0.00    -0.196 N 
ATOM      2  C2  IND d   1       0.466  -0.529  -1.540  0.00  0.00     0.054 A 
ATOM      3  C3  IND d   1      -0.452  -1.084  -0.718  0.00  0.00    -0.031 A 
ATOM      4  C4  IND d   1      -1.390  -0.210   1.514  0.00  0.00     0.051 A 
ATOM      5  C5  IND d   1      -1.231   0.790   2.432  0.00  0.00    -0.031 A 
ATOM      6  C6  IND d   1      -0.321   1.811   2.247  0.00  0.00     0.015 A 
ATOM      7  C7  IND d   1       0.459   1.876   1.127  0.00  0.00    -0.016 A 
ATOM      8  C8  IND d   1       0.305   0.858   0.197  0.00  0.00    -0.047 A 
ATOM      9  C9  IND d   1      -0.586  -0.204   0.399  0.00  0.00    -0.096 A 
ATOM     10  HN1 IND d   1       1.551   1.135  -1.350  0.00  0.00     0.298 HD
ENDROOT
TORSDOF 0
ENDMDL
