MODEL 1
REMARK minimizedAffinity -5.47380304
REMARK minimizedRMSD -1
REMARK  0 active torsions:
REMARK  status: ('A' for Active; 'I' for Inactive)
ROOT
ATOM      1  N1  IND d   1       0.671  -0.717  -0.632  0.00  0.00    -0.196 N 
ATOM      2  C2  IND d   1      -0.397  -1.398  -1.146  0.00  0.00     0.054 A 
ATOM      3  C3  IND d   1      -1.480  -1.243  -0.352  0.00  0.00    -0.031 A 
ATOM      4  C4  IND d   1      -1.755   0.170   1.782  0.00  0.00     0.051 A 
ATOM      5  C5  IND d   1      -1.048   0.942   2.662  0.00  0.00    -0.031 A 
ATOM      6  C6  IND d   1       0.294   1.208   2.483  0.00  0.00     0.015 A 
ATOM      7  C7  IND d   1       0.980   0.719   1.407  0.00  0.00    -0.016 A 
ATOM      8  C8  IND d   1       0.267  -0.071   0.516  0.00  0.00    -0.047 A 
ATOM      9  C9  IND d   1      -1.085  -0.379   0.715  0.00  0.00    -0.096 A 
ATOM     10  HN1 IND d   1       1.462  -0.695  -0.969  0.00  0.00     0.298 HD
ENDROOT
TORSDOF 0
ENDMDL
