MODEL 1
REMARK minimizedAffinity -2.97175741
REMARK minimizedRMSD -1
REMARK  0 active torsions:
REMARK  status: ('A' for Active; 'I' for Inactive)
ROOT
ATOM      1  N1  IND d   1      -0.138  -2.167   0.199  0.00  0.00    -0.196 N 
ATOM      2  C2  IND d   1      -1.482  -1.918   0.159  0.00  0.00     0.054 A 
ATOM      3  C3  IND d   1      -1.751  -0.707   0.696  0.00  0.00    -0.031 A 
ATOM      4  C4  IND d   1      -0.133   1.076   1.606  0.00  0.00     0.051 A 
ATOM      5  C5  IND d   1       1.188   1.290   1.885  0.00  0.00    -0.031 A 
ATOM      6  C6  IND d   1       2.154   0.344   1.607  0.00  0.00     0.015 A 
ATOM      7  C7  IND d   1       1.835  -0.851   1.028  0.00  0.00    -0.016 A 
ATOM      8  C8  IND d   1       0.494  -1.075   0.750  0.00  0.00    -0.047 A 
ATOM      9  C9  IND d   1      -0.496  -0.136   1.068  0.00  0.00    -0.096 A 
ATOM     10  HN1 IND d   1       0.247  -2.885  -0.075  0.00  0.00     0.298 HD
ENDROOT
TORSDOF 0
ENDMDL
