MODEL 1
REMARK minimizedAffinity 1.89518356
REMARK minimizedRMSD -1
REMARK  0 active torsions:
REMARK  status: ('A' for Active; 'I' for Inactive)
ROOT
ATOM      1  N1  IND d   1       0.349   1.105  -4.736  0.00  0.00    -0.196 N 
ATOM      2  C2  IND d   1       1.134   0.868  -3.642  0.00  0.00     0.054 A 
ATOM      3  C3  IND d   1       0.926  -0.385  -3.177  0.00  0.00    -0.031 A 
ATOM      4  C4  IND d   1      -0.580  -2.249  -4.116  0.00  0.00     0.051 A 
ATOM      5  C5  IND d   1      -1.517  -2.494  -5.081  0.00  0.00    -0.031 A 
ATOM      6  C6  IND d   1      -1.886  -1.532  -6.000  0.00  0.00     0.015 A 
ATOM      7  C7  IND d   1      -1.320  -0.289  -5.996  0.00  0.00    -0.016 A 
ATOM      8  C8  IND d   1      -0.373  -0.035  -5.013  0.00  0.00    -0.047 A 
ATOM      9  C9  IND d   1      -0.026  -0.992  -4.052  0.00  0.00    -0.096 A 
ATOM     10  HN1 IND d   1       0.312   1.843  -5.176  0.00  0.00     0.298 HD
ENDROOT
TORSDOF 0
ENDMDL
