MODEL 1
REMARK minimizedAffinity 3.16845608
REMARK minimizedRMSD -1
REMARK  0 active torsions:
REMARK  status: ('A' for Active; 'I' for Inactive)
ROOT
ATOM      1  C2' OXE d   1      -3.899   3.395  -2.358  0.00  0.00     0.078 C 
ATOM      2  C1' OXE d   1      -5.994   1.548  -2.073  0.00  0.00     0.078 C 
ATOM      3  C1  OXE d   1      -5.476   1.814  -3.464  0.00  0.00    -0.078 A 
ATOM      4  C2  OXE d   1      -4.483   2.754  -3.599  0.00  0.00    -0.078 A 
ATOM      5  C3  OXE d   1      -3.931   2.998  -4.854  0.00  0.00     0.003 A 
ATOM      6  C4  OXE d   1      -4.483   2.409  -5.998  0.00  0.00    -0.002 A 
ATOM      7  C5  OXE d   1      -5.522   1.479  -5.886  0.00  0.00    -0.002 A 
ATOM      8  C6  OXE d   1      -6.000   1.139  -4.625  0.00  0.00     0.003 A 
ENDROOT
TORSDOF 0
ENDMDL
