MODEL 1
REMARK minimizedAffinity 5.08427238
REMARK minimizedRMSD -1
REMARK  0 active torsions:
REMARK  status: ('A' for Active; 'I' for Inactive)
ROOT
ATOM      1  C2' OXE d   1       1.156   6.000  -3.022  0.00  0.00     0.078 C 
ATOM      2  C1' OXE d   1      -1.489   5.340  -2.351  0.00  0.00     0.078 C 
ATOM      3  C1  OXE d   1      -0.383   4.760  -1.505  0.00  0.00    -0.078 A 
ATOM      4  C2  OXE d   1       0.910   5.050  -1.869  0.00  0.00    -0.078 A 
ATOM      5  C3  OXE d   1       1.966   4.585  -1.090  0.00  0.00     0.003 A 
ATOM      6  C4  OXE d   1       1.730   3.700  -0.032  0.00  0.00    -0.002 A 
ATOM      7  C5  OXE d   1       0.422   3.359   0.331  0.00  0.00    -0.002 A 
ATOM      8  C6  OXE d   1      -0.645   3.913  -0.367  0.00  0.00     0.003 A 
ENDROOT
TORSDOF 0
ENDMDL
