MODEL 1
REMARK minimizedAffinity 13.1415949
REMARK minimizedRMSD -1
REMARK  0 active torsions:
REMARK  status: ('A' for Active; 'I' for Inactive)
ROOT
ATOM      1  C2' OXE d   1       2.097   4.871  -0.376  0.00  0.00     0.078 C 
ATOM      2  C1' OXE d   1       0.042   3.335   0.763  0.00  0.00     0.078 C 
ATOM      3  C1  OXE d   1      -0.256   4.066  -0.522  0.00  0.00    -0.078 A 
ATOM      4  C2  OXE d   1       0.741   4.852  -1.048  0.00  0.00    -0.078 A 
ATOM      5  C3  OXE d   1       0.538   5.505  -2.260  0.00  0.00     0.003 A 
ATOM      6  C4  OXE d   1      -0.723   5.491  -2.870  0.00  0.00    -0.002 A 
ATOM      7  C5  OXE d   1      -1.764   4.728  -2.331  0.00  0.00    -0.002 A 
ATOM      8  C6  OXE d   1      -1.535   3.977  -1.183  0.00  0.00     0.003 A 
ENDROOT
TORSDOF 0
ENDMDL
