MODEL 1
REMARK minimizedAffinity 4.8688798
REMARK minimizedRMSD -1
REMARK  0 active torsions:
REMARK  status: ('A' for Active; 'I' for Inactive)
ROOT
ATOM      1  C2' OXE d   1       0.004   2.653   0.030  0.00  0.00     0.078 C 
ATOM      2  C1' OXE d   1       1.908   4.715  -0.011  0.00  0.00     0.078 C 
ATOM      3  C1  OXE d   1       0.718   4.838  -0.930  0.00  0.00    -0.078 A 
ATOM      4  C2  OXE d   1      -0.184   3.802  -0.937  0.00  0.00    -0.078 A 
ATOM      5  C3  OXE d   1      -1.328   3.889  -1.725  0.00  0.00     0.003 A 
ATOM      6  C4  OXE d   1      -1.490   4.950  -2.624  0.00  0.00    -0.002 A 
ATOM      7  C5  OXE d   1      -0.562   5.997  -2.662  0.00  0.00    -0.002 A 
ATOM      8  C6  OXE d   1       0.523   5.977  -1.792  0.00  0.00     0.003 A 
ENDROOT
TORSDOF 0
ENDMDL
