MODEL 1
REMARK minimizedAffinity 1.61009562
REMARK minimizedRMSD -1
REMARK  0 active torsions:
REMARK  status: ('A' for Active; 'I' for Inactive)
ROOT
ATOM      1  C2' OXE d   1      -2.478   5.704   1.532  0.00  0.00     0.078 C 
ATOM      2  C1' OXE d   1      -1.701   3.122   2.311  0.00  0.00     0.078 C 
ATOM      3  C1  OXE d   1      -1.365   3.565   0.909  0.00  0.00    -0.078 A 
ATOM      4  C2  OXE d   1      -1.790   4.812   0.521  0.00  0.00    -0.078 A 
ATOM      5  C3  OXE d   1      -1.459   5.291  -0.743  0.00  0.00     0.003 A 
ATOM      6  C4  OXE d   1      -0.831   4.456  -1.675  0.00  0.00    -0.002 A 
ATOM      7  C5  OXE d   1      -0.425   3.167  -1.313  0.00  0.00    -0.002 A 
ATOM      8  C6  OXE d   1      -0.646   2.723  -0.015  0.00  0.00     0.003 A 
ENDROOT
TORSDOF 0
ENDMDL
