MODEL 1
REMARK minimizedAffinity 8.44558907
REMARK minimizedRMSD -1
REMARK  0 active torsions:
REMARK  status: ('A' for Active; 'I' for Inactive)
ROOT
ATOM      1  C2' OXE d   1       0.010   2.135   3.377  0.00  0.00     0.078 C 
ATOM      2  C1' OXE d   1      -1.041   2.881   0.884  0.00  0.00     0.078 C 
ATOM      3  C1  OXE d   1       0.423   3.141   1.136  0.00  0.00    -0.078 A 
ATOM      4  C2  OXE d   1       0.918   2.815   2.376  0.00  0.00    -0.078 A 
ATOM      5  C3  OXE d   1       2.274   2.984   2.643  0.00  0.00     0.003 A 
ATOM      6  C4  OXE d   1       3.105   3.624   1.715  0.00  0.00    -0.002 A 
ATOM      7  C5  OXE d   1       2.611   3.999   0.461  0.00  0.00    -0.002 A 
ATOM      8  C6  OXE d   1       1.286   3.727   0.140  0.00  0.00     0.003 A 
ENDROOT
TORSDOF 0
ENDMDL
