MODEL 1
REMARK minimizedAffinity 4.7488637
REMARK minimizedRMSD -1
REMARK  0 active torsions:
REMARK  status: ('A' for Active; 'I' for Inactive)
ROOT
ATOM      1  C2' OXE d   1       0.772   2.188   1.636  0.00  0.00     0.078 C 
ATOM      2  C1' OXE d   1      -1.465   1.669   3.250  0.00  0.00     0.078 C 
ATOM      3  C1  OXE d   1      -0.241   0.811   3.447  0.00  0.00    -0.078 A 
ATOM      4  C2  OXE d   1       0.833   1.041   2.621  0.00  0.00    -0.078 A 
ATOM      5  C3  OXE d   1       2.007   0.315   2.797  0.00  0.00     0.003 A 
ATOM      6  C4  OXE d   1       2.052  -0.751   3.704  0.00  0.00    -0.002 A 
ATOM      7  C5  OXE d   1       0.956  -1.029   4.528  0.00  0.00    -0.002 A 
ATOM      8  C6  OXE d   1      -0.181  -0.232   4.442  0.00  0.00     0.003 A 
ENDROOT
TORSDOF 0
ENDMDL
