MODEL 1
REMARK minimizedAffinity 12.60987
REMARK minimizedRMSD -1
REMARK  0 active torsions:
REMARK  status: ('A' for Active; 'I' for Inactive)
ROOT
ATOM      1  C2' OXE d   1       0.684   3.527   0.464  0.00  0.00     0.078 C 
ATOM      2  C1' OXE d   1      -0.601   5.996   0.831  0.00  0.00     0.078 C 
ATOM      3  C1  OXE d   1      -0.770   5.306  -0.499  0.00  0.00    -0.078 A 
ATOM      4  C2  OXE d   1      -0.100   4.121  -0.686  0.00  0.00    -0.078 A 
ATOM      5  C3  OXE d   1      -0.265   3.416  -1.875  0.00  0.00     0.003 A 
ATOM      6  C4  OXE d   1      -0.984   3.977  -2.938  0.00  0.00    -0.002 A 
ATOM      7  C5  OXE d   1      -1.642   5.201  -2.782  0.00  0.00    -0.002 A 
ATOM      8  C6  OXE d   1      -1.580   5.857  -1.557  0.00  0.00     0.003 A 
ENDROOT
TORSDOF 0
ENDMDL
