MODEL 1
REMARK minimizedAffinity 4.96788311
REMARK minimizedRMSD -1
REMARK  1 active torsions:
REMARK  status: ('A' for Active; 'I' for Inactive)
REMARK    1  A    between atoms: C1_2  and  C2_3 
ROOT
ATOM      1  C2  UNL d   1       3.884  -4.920  -2.323  0.00  0.00    -0.076 A 
ATOM      2  C3  UNL d   1       2.532  -4.683  -2.017  0.00  0.00     0.004 A 
ATOM      3  C4  UNL d   1       1.679  -4.092  -2.947  0.00  0.00    -0.003 A 
ATOM      4  C5  UNL d   1       2.163  -3.729  -4.199  0.00  0.00     0.000 A 
ATOM      5  C6  UNL d   1       3.496  -3.972  -4.526  0.00  0.00     0.000 A 
ATOM      6  C7  UNL d   1       4.366  -4.582  -3.605  0.00  0.00    -0.073 A 
ATOM      7  C8  UNL d   1       5.796  -4.815  -4.009  0.00  0.00     0.078 C 
ENDROOT
BRANCH   1   8
ATOM      8  C1  UNL d   1       4.768  -5.539  -1.265  0.00  0.00     0.053 C 
ATOM      9  C   UNL d   1       4.822  -4.710   0.009  0.00  0.00     0.018 C 
ENDBRANCH   1   8
TORSDOF 1
ENDMDL
