MODEL 1
REMARK minimizedAffinity 6.72918177
REMARK minimizedRMSD -1
REMARK  1 active torsions:
REMARK  status: ('A' for Active; 'I' for Inactive)
REMARK    1  A    between atoms: C1_2  and  C2_3 
ROOT
ATOM      1  C2  UNL d   1      -5.358  -4.476   2.329  0.00  0.00    -0.076 A 
ATOM      2  C3  UNL d   1      -4.749  -5.623   2.868  0.00  0.00     0.004 A 
ATOM      3  C4  UNL d   1      -4.122  -5.585   4.112  0.00  0.00    -0.003 A 
ATOM      4  C5  UNL d   1      -4.093  -4.399   4.838  0.00  0.00     0.000 A 
ATOM      5  C6  UNL d   1      -4.708  -3.257   4.327  0.00  0.00     0.000 A 
ATOM      6  C7  UNL d   1      -5.359  -3.282   3.082  0.00  0.00    -0.073 A 
ATOM      7  C8  UNL d   1      -5.999  -2.019   2.576  0.00  0.00     0.078 C 
ENDROOT
BRANCH   1   8
ATOM      8  C1  UNL d   1      -6.000  -4.571   0.964  0.00  0.00     0.053 C 
ATOM      9  C   UNL d   1      -5.077  -5.196  -0.071  0.00  0.00     0.018 C 
ENDBRANCH   1   8
TORSDOF 1
ENDMDL
