MODEL 1
REMARK minimizedAffinity 1.23389125
REMARK minimizedRMSD -1
REMARK  1 active torsions:
REMARK  status: ('A' for Active; 'I' for Inactive)
REMARK    1  A    between atoms: C1_2  and  C2_3 
ROOT
ATOM      1  C2  UNL d   1       3.407  -3.583  -1.791  0.00  0.00    -0.076 A 
ATOM      2  C3  UNL d   1       4.201  -4.385  -2.629  0.00  0.00     0.004 A 
ATOM      3  C4  UNL d   1       4.145  -4.249  -4.015  0.00  0.00    -0.003 A 
ATOM      4  C5  UNL d   1       3.295  -3.308  -4.586  0.00  0.00     0.000 A 
ATOM      5  C6  UNL d   1       2.514  -2.492  -3.769  0.00  0.00     0.000 A 
ATOM      6  C7  UNL d   1       2.570  -2.605  -2.369  0.00  0.00    -0.073 A 
ATOM      7  C8  UNL d   1       1.701  -1.703  -1.536  0.00  0.00     0.078 C 
ENDROOT
BRANCH   1   8
ATOM      8  C1  UNL d   1       3.490  -3.795  -0.296  0.00  0.00     0.053 C 
ATOM      9  C   UNL d   1       4.897  -3.590   0.245  0.00  0.00     0.018 C 
ENDBRANCH   1   8
TORSDOF 1
ENDMDL
