MODEL 1
REMARK minimizedAffinity 7.01091099
REMARK minimizedRMSD -1
REMARK  1 active torsions:
REMARK  status: ('A' for Active; 'I' for Inactive)
REMARK    1  A    between atoms: C1_2  and  C2_3 
ROOT
ATOM      1  C2  UNL d   1       2.823  -3.935  -2.039  0.00  0.00    -0.076 A 
ATOM      2  C3  UNL d   1       2.923  -3.396  -0.744  0.00  0.00     0.004 A 
ATOM      3  C4  UNL d   1       3.861  -3.884   0.165  0.00  0.00    -0.003 A 
ATOM      4  C5  UNL d   1       4.713  -4.918  -0.206  0.00  0.00     0.000 A 
ATOM      5  C6  UNL d   1       4.639  -5.452  -1.492  0.00  0.00     0.000 A 
ATOM      6  C7  UNL d   1       3.711  -4.961  -2.426  0.00  0.00    -0.073 A 
ATOM      7  C8  UNL d   1       3.671  -5.579  -3.797  0.00  0.00     0.078 C 
ENDROOT
BRANCH   1   8
ATOM      8  C1  UNL d   1       1.768  -3.385  -2.973  0.00  0.00     0.053 C 
ATOM      9  C   UNL d   1       1.537  -1.894  -2.777  0.00  0.00     0.018 C 
ENDBRANCH   1   8
TORSDOF 1
ENDMDL
