MODEL 1
REMARK minimizedAffinity 0.713517606
REMARK minimizedRMSD -1
REMARK  1 active torsions:
REMARK  status: ('A' for Active; 'I' for Inactive)
REMARK    1  A    between atoms: C1_2  and  C2_3 
ROOT
ATOM      1  C2  UNL d   1       2.817  -2.985  -1.754  0.00  0.00    -0.076 A 
ATOM      2  C3  UNL d   1       2.501  -2.734  -3.100  0.00  0.00     0.004 A 
ATOM      3  C4  UNL d   1       3.153  -3.413  -4.129  0.00  0.00    -0.003 A 
ATOM      4  C5  UNL d   1       4.131  -4.354  -3.827  0.00  0.00     0.000 A 
ATOM      5  C6  UNL d   1       4.445  -4.629  -2.497  0.00  0.00     0.000 A 
ATOM      6  C7  UNL d   1       3.786  -3.965  -1.448  0.00  0.00    -0.073 A 
ATOM      7  C8  UNL d   1       4.168  -4.296  -0.031  0.00  0.00     0.078 C 
ENDROOT
BRANCH   1   8
ATOM      8  C1  UNL d   1       2.097  -2.199  -0.682  0.00  0.00     0.053 C 
ATOM      9  C   UNL d   1       1.826  -0.761  -1.097  0.00  0.00     0.018 C 
ENDBRANCH   1   8
TORSDOF 1
ENDMDL
