MODEL 1
REMARK minimizedAffinity 2.22780895
REMARK minimizedRMSD -1
REMARK  1 active torsions:
REMARK  status: ('A' for Active; 'I' for Inactive)
REMARK    1  A    between atoms: C1_2  and  C2_3 
ROOT
ATOM      1  C2  UNL d   1       2.927  -3.540  -1.769  0.00  0.00    -0.076 A 
ATOM      2  C3  UNL d   1       3.180  -2.992  -0.499  0.00  0.00     0.004 A 
ATOM      3  C4  UNL d   1       4.137  -3.551   0.346  0.00  0.00    -0.003 A 
ATOM      4  C5  UNL d   1       4.858  -4.667  -0.066  0.00  0.00     0.000 A 
ATOM      5  C6  UNL d   1       4.632  -5.213  -1.329  0.00  0.00     0.000 A 
ATOM      6  C7  UNL d   1       3.682  -4.652  -2.199  0.00  0.00    -0.073 A 
ATOM      7  C8  UNL d   1       3.475  -5.285  -3.548  0.00  0.00     0.078 C 
ENDROOT
BRANCH   1   8
ATOM      8  C1  UNL d   1       1.857  -2.908  -2.630  0.00  0.00     0.053 C 
ATOM      9  C   UNL d   1       1.746  -1.406  -2.413  0.00  0.00     0.018 C 
ENDBRANCH   1   8
TORSDOF 1
ENDMDL
