MODEL 1
REMARK minimizedAffinity 9.72005749
REMARK minimizedRMSD -1
REMARK  1 active torsions:
REMARK  status: ('A' for Active; 'I' for Inactive)
REMARK    1  A    between atoms: C1_2  and  C2_3 
ROOT
ATOM      1  C2  UNL d   1       3.368  -4.444  -2.207  0.00  0.00    -0.076 A 
ATOM      2  C3  UNL d   1       4.480  -3.827  -1.607  0.00  0.00     0.004 A 
ATOM      3  C4  UNL d   1       4.765  -4.021  -0.256  0.00  0.00    -0.003 A 
ATOM      4  C5  UNL d   1       3.943  -4.835   0.516  0.00  0.00     0.000 A 
ATOM      5  C6  UNL d   1       2.847  -5.468  -0.067  0.00  0.00     0.000 A 
ATOM      6  C7  UNL d   1       2.554  -5.297  -1.431  0.00  0.00    -0.073 A 
ATOM      7  C8  UNL d   1       1.355  -5.999  -2.007  0.00  0.00     0.078 C 
ENDROOT
BRANCH   1   8
ATOM      8  C1  UNL d   1       3.094  -4.175  -3.669  0.00  0.00     0.053 C 
ATOM      9  C   UNL d   1       4.358  -4.199  -4.514  0.00  0.00     0.018 C 
ENDBRANCH   1   8
TORSDOF 1
ENDMDL
