MODEL 1
REMARK minimizedAffinity 2.01077795
REMARK minimizedRMSD -1
REMARK  1 active torsions:
REMARK  status: ('A' for Active; 'I' for Inactive)
REMARK    1  A    between atoms: C1_2  and  C2_3 
ROOT
ATOM      1  C2  UNL d   1       2.577  -3.487  -1.969  0.00  0.00    -0.076 A 
ATOM      2  C3  UNL d   1       1.795  -2.650  -2.783  0.00  0.00     0.004 A 
ATOM      3  C4  UNL d   1       1.516  -1.337  -2.405  0.00  0.00    -0.003 A 
ATOM      4  C5  UNL d   1       2.017  -0.840  -1.207  0.00  0.00     0.000 A 
ATOM      5  C6  UNL d   1       2.809  -1.651  -0.395  0.00  0.00     0.000 A 
ATOM      6  C7  UNL d   1       3.113  -2.971  -0.769  0.00  0.00    -0.073 A 
ATOM      7  C8  UNL d   1       3.968  -3.803   0.148  0.00  0.00     0.078 C 
ENDROOT
BRANCH   1   8
ATOM      8  C1  UNL d   1       2.823  -4.910  -2.417  0.00  0.00     0.053 C 
ATOM      9  C   UNL d   1       2.826  -5.051  -3.931  0.00  0.00     0.018 C 
ENDBRANCH   1   8
TORSDOF 1
ENDMDL
