MODEL 1
REMARK minimizedAffinity 13.8823786
REMARK minimizedRMSD -1
REMARK  1 active torsions:
REMARK  status: ('A' for Active; 'I' for Inactive)
REMARK    1  A    between atoms: C1_2  and  C2_3 
ROOT
ATOM      1  C2  UNL d   1      -3.945  -2.132   2.920  0.00  0.00    -0.076 A 
ATOM      2  C3  UNL d   1      -3.339  -2.954   3.886  0.00  0.00     0.004 A 
ATOM      3  C4  UNL d   1      -4.054  -3.974   4.511  0.00  0.00    -0.003 A 
ATOM      4  C5  UNL d   1      -5.387  -4.190   4.179  0.00  0.00     0.000 A 
ATOM      5  C6  UNL d   1      -5.999  -3.396   3.210  0.00  0.00     0.000 A 
ATOM      6  C7  UNL d   1      -5.288  -2.374   2.559  0.00  0.00    -0.073 A 
ATOM      7  C8  UNL d   1      -6.000  -1.544   1.526  0.00  0.00     0.078 C 
ENDROOT
BRANCH   1   8
ATOM      8  C1  UNL d   1      -3.127  -1.024   2.295  0.00  0.00     0.053 C 
ATOM      9  C   UNL d   1      -3.397   0.330   2.933  0.00  0.00     0.018 C 
ENDBRANCH   1   8
TORSDOF 1
ENDMDL
