MODEL 1
REMARK minimizedAffinity -1.46248925
REMARK minimizedRMSD -1
REMARK  1 active torsions:
REMARK  status: ('A' for Active; 'I' for Inactive)
REMARK    1  A    between atoms: C1_2  and  C2_3 
ROOT
ATOM      1  C2  UNL d   1       3.347  -4.227  -1.755  0.00  0.00    -0.076 A 
ATOM      2  C3  UNL d   1       2.064  -3.678  -1.591  0.00  0.00     0.004 A 
ATOM      3  C4  UNL d   1       1.446  -2.975  -2.623  0.00  0.00    -0.003 A 
ATOM      4  C5  UNL d   1       2.102  -2.809  -3.838  0.00  0.00     0.000 A 
ATOM      5  C6  UNL d   1       3.369  -3.362  -4.025  0.00  0.00     0.000 A 
ATOM      6  C7  UNL d   1       3.999  -4.087  -3.000  0.00  0.00    -0.073 A 
ATOM      7  C8  UNL d   1       5.368  -4.656  -3.254  0.00  0.00     0.078 C 
ENDROOT
BRANCH   1   8
ATOM      8  C1  UNL d   1       3.978  -4.956  -0.590  0.00  0.00     0.053 C 
ATOM      9  C   UNL d   1       4.715  -4.018   0.354  0.00  0.00     0.018 C 
ENDBRANCH   1   8
TORSDOF 1
ENDMDL
