MODEL 1
REMARK minimizedAffinity 3.64068007
REMARK minimizedRMSD -1
REMARK  1 active torsions:
REMARK  status: ('A' for Active; 'I' for Inactive)
REMARK    1  A    between atoms: C1_2  and  C2_3 
ROOT
ATOM      1  C2  UNL d   1       3.636  -4.548  -0.989  0.00  0.00    -0.076 A 
ATOM      2  C3  UNL d   1       3.640  -5.689  -1.811  0.00  0.00     0.004 A 
ATOM      3  C4  UNL d   1       2.845  -5.752  -2.954  0.00  0.00    -0.003 A 
ATOM      4  C5  UNL d   1       2.033  -4.676  -3.295  0.00  0.00     0.000 A 
ATOM      5  C6  UNL d   1       2.029  -3.530  -2.500  0.00  0.00     0.000 A 
ATOM      6  C7  UNL d   1       2.837  -3.443  -1.353  0.00  0.00    -0.073 A 
ATOM      7  C8  UNL d   1       2.789  -2.185  -0.530  0.00  0.00     0.078 C 
ENDROOT
BRANCH   1   8
ATOM      8  C1  UNL d   1       4.498  -4.547   0.253  0.00  0.00     0.053 C 
ATOM      9  C   UNL d   1       5.968  -4.310  -0.059  0.00  0.00     0.018 C 
ENDBRANCH   1   8
TORSDOF 1
ENDMDL
