MODEL 1
REMARK minimizedAffinity 19.1649303
REMARK minimizedRMSD -1
REMARK  1 active torsions:
REMARK  status: ('A' for Active; 'I' for Inactive)
REMARK    1  A    between atoms: C1_2  and  C2_3 
ROOT
ATOM      1  C2  UNL d   1       1.536   3.956  -0.273  0.00  0.00    -0.076 A 
ATOM      2  C3  UNL d   1       1.142   3.359   0.937  0.00  0.00     0.004 A 
ATOM      3  C4  UNL d   1       0.409   4.073   1.884  0.00  0.00    -0.003 A 
ATOM      4  C5  UNL d   1       0.057   5.395   1.635  0.00  0.00     0.000 A 
ATOM      5  C6  UNL d   1       0.424   5.997   0.432  0.00  0.00     0.000 A 
ATOM      6  C7  UNL d   1       1.149   5.287  -0.540  0.00  0.00    -0.073 A 
ATOM      7  C8  UNL d   1       1.524   5.988  -1.817  0.00  0.00     0.078 C 
ENDROOT
BRANCH   1   8
ATOM      8  C1  UNL d   1       2.353   3.141  -1.251  0.00  0.00     0.053 C 
ATOM      9  C   UNL d   1       2.603   1.723  -0.761  0.00  0.00     0.018 C 
ENDBRANCH   1   8
TORSDOF 1
ENDMDL
