MODEL 1
REMARK minimizedAffinity 10.1457891
REMARK minimizedRMSD -1
REMARK  1 active torsions:
REMARK  status: ('A' for Active; 'I' for Inactive)
REMARK    1  A    between atoms: C1_2  and  C2_3 
ROOT
ATOM      1  C2  UNL d   1       1.576   4.158   0.416  0.00  0.00    -0.076 A 
ATOM      2  C3  UNL d   1       1.935   2.916   0.967  0.00  0.00     0.004 A 
ATOM      3  C4  UNL d   1       2.122   1.799   0.155  0.00  0.00    -0.003 A 
ATOM      4  C5  UNL d   1       1.953   1.906  -1.221  0.00  0.00     0.000 A 
ATOM      5  C6  UNL d   1       1.614   3.135  -1.786  0.00  0.00     0.000 A 
ATOM      6  C7  UNL d   1       1.438   4.275  -0.983  0.00  0.00    -0.073 A 
ATOM      7  C8  UNL d   1       1.067   5.574  -1.645  0.00  0.00     0.078 C 
ENDROOT
BRANCH   1   8
ATOM      8  C1  UNL d   1       1.361   5.329   1.349  0.00  0.00     0.053 C 
ATOM      9  C   UNL d   1      -0.113   5.643   1.559  0.00  0.00     0.018 C 
ENDBRANCH   1   8
TORSDOF 1
ENDMDL
