MODEL 1
REMARK minimizedAffinity 18.2892208
REMARK minimizedRMSD -1
REMARK  1 active torsions:
REMARK  status: ('A' for Active; 'I' for Inactive)
REMARK    1  A    between atoms: C1_2  and  C2_3 
ROOT
ATOM      1  C2  UNL d   1      -2.109  -4.445  -3.635  0.00  0.00    -0.076 A 
ATOM      2  C3  UNL d   1      -1.122  -4.073  -4.564  0.00  0.00     0.004 A 
ATOM      3  C4  UNL d   1       0.232  -4.224  -4.272  0.00  0.00    -0.003 A 
ATOM      4  C5  UNL d   1       0.622  -4.749  -3.045  0.00  0.00     0.000 A 
ATOM      5  C6  UNL d   1      -0.343  -5.140  -2.118  0.00  0.00     0.000 A 
ATOM      6  C7  UNL d   1      -1.713  -5.010  -2.403  0.00  0.00    -0.073 A 
ATOM      7  C8  UNL d   1      -2.711  -5.442  -1.364  0.00  0.00     0.078 C 
ENDROOT
BRANCH   1   8
ATOM      8  C1  UNL d   1      -3.562  -4.234  -3.996  0.00  0.00     0.053 C 
ATOM      9  C   UNL d   1      -3.737  -3.670  -5.398  0.00  0.00     0.018 C 
ENDBRANCH   1   8
TORSDOF 1
ENDMDL
