MODEL 1
REMARK minimizedAffinity 6.42011118
REMARK minimizedRMSD -1
REMARK  1 active torsions:
REMARK  status: ('A' for Active; 'I' for Inactive)
REMARK    1  A    between atoms: C3_4  and  O_7 
ROOT
ATOM      1  C   UNL d   1       3.718  -2.009  -0.369  0.00  0.00    -0.033 A 
ATOM      2  C1  UNL d   1       4.913  -2.052  -1.089  0.00  0.00     0.039 A 
ATOM      3  C2  UNL d   1       5.586  -3.264  -1.258  0.00  0.00    -0.080 A 
ATOM      4  C3  UNL d   1       5.053  -4.424  -0.703  0.00  0.00     0.150 A 
ATOM      5  C4  UNL d   1       3.860  -4.389   0.013  0.00  0.00    -0.007 A 
ATOM      6  C5  UNL d   1       3.191  -3.178   0.181  0.00  0.00     0.039 A 
ENDROOT
BRANCH   4   7
ATOM      7  O   UNL d   1       5.675  -5.630  -0.837  0.00  0.00    -0.526 OA
ATOM      8  H5  UNL d   1       6.502  -5.496  -1.330  0.00  0.00     0.418 HD
ENDBRANCH   4   7
TORSDOF 1
ENDMDL
