MODEL 1
REMARK minimizedAffinity 5.5355401
REMARK minimizedRMSD -1
REMARK  1 active torsions:
REMARK  status: ('A' for Active; 'I' for Inactive)
REMARK    1  A    between atoms: C3_4  and  O_7 
ROOT
ATOM      1  C   UNL d   1      -1.147   4.392  -2.043  0.00  0.00    -0.033 A 
ATOM      2  C1  UNL d   1      -1.908   4.659  -0.903  0.00  0.00     0.039 A 
ATOM      3  C2  UNL d   1      -1.469   4.223   0.349  0.00  0.00    -0.080 A 
ATOM      4  C3  UNL d   1      -0.270   3.523   0.447  0.00  0.00     0.150 A 
ATOM      5  C4  UNL d   1       0.495   3.258  -0.684  0.00  0.00    -0.007 A 
ATOM      6  C5  UNL d   1       0.056   3.693  -1.933  0.00  0.00     0.039 A 
ENDROOT
BRANCH   4   7
ATOM      7  O   UNL d   1       0.197   3.074   1.647  0.00  0.00    -0.526 OA
ATOM      8  H5  UNL d   1      -0.450   3.305   2.335  0.00  0.00     0.418 HD
ENDBRANCH   4   7
TORSDOF 1
ENDMDL
