MODEL 1
REMARK minimizedAffinity 0.35899061
REMARK minimizedRMSD -1
REMARK  1 active torsions:
REMARK  status: ('A' for Active; 'I' for Inactive)
REMARK    1  A    between atoms: C3_4  and  O_7 
ROOT
ATOM      1  C   UNL d   1      -1.493   6.000  -2.247  0.00  0.00    -0.033 A 
ATOM      2  C1  UNL d   1      -0.748   5.046  -2.944  0.00  0.00     0.039 A 
ATOM      3  C2  UNL d   1      -0.125   4.004  -2.255  0.00  0.00    -0.080 A 
ATOM      4  C3  UNL d   1      -0.254   3.927  -0.871  0.00  0.00     0.150 A 
ATOM      5  C4  UNL d   1      -0.997   4.872  -0.171  0.00  0.00    -0.007 A 
ATOM      6  C5  UNL d   1      -1.618   5.912  -0.861  0.00  0.00     0.039 A 
ENDROOT
BRANCH   4   7
ATOM      7  O   UNL d   1       0.340   2.931  -0.154  0.00  0.00    -0.526 OA
ATOM      8  H5  UNL d   1       0.844   2.370  -0.767  0.00  0.00     0.418 HD
ENDBRANCH   4   7
TORSDOF 1
ENDMDL
