MODEL 1
REMARK minimizedAffinity 1.81330061
REMARK minimizedRMSD -1
REMARK  1 active torsions:
REMARK  status: ('A' for Active; 'I' for Inactive)
REMARK    1  A    between atoms: C3_4  and  O_7 
ROOT
ATOM      1  C   UNL d   1      -5.993   2.985  -2.389  0.00  0.00    -0.033 A 
ATOM      2  C1  UNL d   1      -5.998   3.505  -3.685  0.00  0.00     0.039 A 
ATOM      3  C2  UNL d   1      -5.999   2.645  -4.785  0.00  0.00    -0.080 A 
ATOM      4  C3  UNL d   1      -5.997   1.269  -4.575  0.00  0.00     0.150 A 
ATOM      5  C4  UNL d   1      -5.997   0.744  -3.287  0.00  0.00    -0.007 A 
ATOM      6  C5  UNL d   1      -5.994   1.604  -2.191  0.00  0.00     0.039 A 
ENDROOT
BRANCH   4   7
ATOM      7  O   UNL d   1      -5.994   0.389  -5.617  0.00  0.00    -0.526 OA
ATOM      8  H5  UNL d   1      -5.966   0.895  -6.447  0.00  0.00     0.418 HD
ENDBRANCH   4   7
TORSDOF 1
ENDMDL
