MODEL 1
REMARK minimizedAffinity -2.80241251
REMARK minimizedRMSD -1
REMARK  1 active torsions:
REMARK  status: ('A' for Active; 'I' for Inactive)
REMARK    1  A    between atoms: C3_4  and  O_7 
ROOT
ATOM      1  C   UNL d   1       0.170   3.940  -0.707  0.00  0.00    -0.033 A 
ATOM      2  C1  UNL d   1      -0.356   3.462  -1.909  0.00  0.00     0.039 A 
ATOM      3  C2  UNL d   1      -0.773   2.133  -2.011  0.00  0.00    -0.080 A 
ATOM      4  C3  UNL d   1      -0.660   1.294  -0.905  0.00  0.00     0.150 A 
ATOM      5  C4  UNL d   1      -0.140   1.765   0.296  0.00  0.00    -0.007 A 
ATOM      6  C5  UNL d   1       0.276   3.092   0.396  0.00  0.00     0.039 A 
ENDROOT
BRANCH   4   7
ATOM      7  O   UNL d   1      -1.049  -0.011  -0.958  0.00  0.00    -0.526 OA
ATOM      8  H5  UNL d   1      -1.361  -0.203  -1.858  0.00  0.00     0.418 HD
ENDBRANCH   4   7
TORSDOF 1
ENDMDL
