MODEL 1
REMARK minimizedAffinity 13.0741243
REMARK minimizedRMSD -1
REMARK  2 active torsions:
REMARK  status: ('A' for Active; 'I' for Inactive)
REMARK    1  A    between atoms: C2'_3  and  C1'_4 
REMARK    2  A    between atoms: C1'_4  and  C1_5 
ROOT
ATOM      1  C1  I4B d   1       1.996  -0.424   1.127  0.00  0.00    -0.075 A 
ATOM      2  C2  I4B d   1       2.604  -1.388   0.361  0.00  0.00     0.003 A 
ATOM      3  C3  I4B d   1       2.138  -2.724   0.396  0.00  0.00     0.002 A 
ATOM      4  C4  I4B d   1       1.103  -3.061   1.244  0.00  0.00    -0.004 A 
ATOM      5  C5  I4B d   1       0.473  -2.079   2.002  0.00  0.00     0.002 A 
ATOM      6  C6  I4B d   1       0.914  -0.749   1.935  0.00  0.00     0.003 A 
ENDROOT
BRANCH   1   7
ATOM      7  C1' I4B d   1       2.535   0.971   1.090  0.00  0.00     0.060 C 
BRANCH   7   8
ATOM      8  C2' I4B d   1       1.960   1.661  -0.131  0.00  0.00    -0.013 C 
ATOM      9  C4' I4B d   1       1.429   3.027   0.214  0.00  0.00     0.013 C 
ATOM     10  C3' I4B d   1       3.042   1.747  -1.166  0.00  0.00     0.013 C 
ENDBRANCH   7   8
ENDBRANCH   1   7
TORSDOF 2
ENDMDL
