MODEL 1
REMARK minimizedAffinity 1.92668033
REMARK minimizedRMSD -1
REMARK  2 active torsions:
REMARK  status: ('A' for Active; 'I' for Inactive)
REMARK    1  A    between atoms: C2'_3  and  C1'_4 
REMARK    2  A    between atoms: C1'_4  and  C1_5 
ROOT
ATOM      1  C1  I4B d   1      -5.165  -5.185   1.238  0.00  0.00    -0.075 A 
ATOM      2  C2  I4B d   1      -4.269  -4.349   0.620  0.00  0.00     0.003 A 
ATOM      3  C3  I4B d   1      -4.182  -4.317  -0.793  0.00  0.00     0.002 A 
ATOM      4  C4  I4B d   1      -4.969  -5.169  -1.542  0.00  0.00    -0.004 A 
ATOM      5  C5  I4B d   1      -5.892  -6.000  -0.914  0.00  0.00     0.002 A 
ATOM      6  C6  I4B d   1      -6.000  -6.000   0.485  0.00  0.00     0.003 A 
ENDROOT
BRANCH   1   7
ATOM      7  C1' I4B d   1      -5.207  -5.217   2.733  0.00  0.00     0.060 C 
BRANCH   7   8
ATOM      8  C2' I4B d   1      -5.190  -3.786   3.231  0.00  0.00    -0.013 C 
ATOM      9  C4' I4B d   1      -5.915  -3.657   4.545  0.00  0.00     0.013 C 
ATOM     10  C3' I4B d   1      -3.758  -3.357   3.359  0.00  0.00     0.013 C 
ENDBRANCH   7   8
ENDBRANCH   1   7
TORSDOF 2
ENDMDL
