MODEL 1
REMARK minimizedAffinity 9.90675545
REMARK minimizedRMSD -1
REMARK  2 active torsions:
REMARK  status: ('A' for Active; 'I' for Inactive)
REMARK    1  A    between atoms: C2'_3  and  C1'_4 
REMARK    2  A    between atoms: C1'_4  and  C1_5 
ROOT
ATOM      1  C1  I4B d   1      -1.361  -2.194   2.774  0.00  0.00    -0.075 A 
ATOM      2  C2  I4B d   1      -0.649  -2.940   1.868  0.00  0.00     0.003 A 
ATOM      3  C3  I4B d   1       0.649  -2.535   1.475  0.00  0.00     0.002 A 
ATOM      4  C4  I4B d   1       1.174  -1.359   1.971  0.00  0.00    -0.004 A 
ATOM      5  C5  I4B d   1       0.460  -0.616   2.907  0.00  0.00     0.002 A 
ATOM      6  C6  I4B d   1      -0.811  -1.043   3.321  0.00  0.00     0.003 A 
ENDROOT
BRANCH   1   7
ATOM      7  C1' I4B d   1      -2.743  -2.634   3.142  0.00  0.00     0.060 C 
BRANCH   7   8
ATOM      8  C2' I4B d   1      -3.368  -3.280   1.921  0.00  0.00    -0.013 C 
ATOM      9  C4' I4B d   1      -3.870  -4.665   2.234  0.00  0.00     0.013 C 
ATOM     10  C3' I4B d   1      -4.482  -2.394   1.448  0.00  0.00     0.013 C 
ENDBRANCH   7   8
ENDBRANCH   1   7
TORSDOF 2
ENDMDL
