MODEL 1
REMARK minimizedAffinity 15.0204353
REMARK minimizedRMSD -1
REMARK  2 active torsions:
REMARK  status: ('A' for Active; 'I' for Inactive)
REMARK    1  A    between atoms: C2'_3  and  C1'_4 
REMARK    2  A    between atoms: C1'_4  and  C1_5 
ROOT
ATOM      1  C1  I4B d   1      -3.182   2.959  -4.156  0.00  0.00    -0.075 A 
ATOM      2  C2  I4B d   1      -2.782   3.464  -2.944  0.00  0.00     0.003 A 
ATOM      3  C3  I4B d   1      -2.083   4.693  -2.879  0.00  0.00     0.002 A 
ATOM      4  C4  I4B d   1      -1.761   5.355  -4.047  0.00  0.00    -0.004 A 
ATOM      5  C5  I4B d   1      -2.187   4.853  -5.273  0.00  0.00     0.002 A 
ATOM      6  C6  I4B d   1      -2.912   3.654  -5.328  0.00  0.00     0.003 A 
ENDROOT
BRANCH   1   7
ATOM      7  C1' I4B d   1      -3.890   1.642  -4.190  0.00  0.00     0.060 C 
BRANCH   7   8
ATOM      8  C2' I4B d   1      -5.380   1.914  -4.201  0.00  0.00    -0.013 C 
ATOM      9  C4' I4B d   1      -5.996   1.525  -5.519  0.00  0.00     0.013 C 
ATOM     10  C3' I4B d   1      -5.998   1.149  -3.068  0.00  0.00     0.013 C 
ENDBRANCH   7   8
ENDBRANCH   1   7
TORSDOF 2
ENDMDL
