MODEL 1
REMARK minimizedAffinity 15.1276999
REMARK minimizedRMSD -1
REMARK  2 active torsions:
REMARK  status: ('A' for Active; 'I' for Inactive)
REMARK    1  A    between atoms: C2'_3  and  C1'_4 
REMARK    2  A    between atoms: C1'_4  and  C1_5 
ROOT
ATOM      1  C1  I4B d   1       1.992   0.829   0.588  0.00  0.00    -0.075 A 
ATOM      2  C2  I4B d   1       2.845  -0.231   0.404  0.00  0.00     0.003 A 
ATOM      3  C3  I4B d   1       2.512  -1.510   0.912  0.00  0.00     0.002 A 
ATOM      4  C4  I4B d   1       1.349  -1.672   1.637  0.00  0.00    -0.004 A 
ATOM      5  C5  I4B d   1       0.474  -0.602   1.802  0.00  0.00     0.002 A 
ATOM      6  C6  I4B d   1       0.791   0.654   1.264  0.00  0.00     0.003 A 
ENDROOT
BRANCH   1   7
ATOM      7  C1' I4B d   1       2.389   2.173   0.067  0.00  0.00     0.060 C 
BRANCH   7   8
ATOM      8  C2' I4B d   1       1.128   2.910  -0.335  0.00  0.00    -0.013 C 
ATOM      9  C4' I4B d   1       1.021   4.235   0.374  0.00  0.00     0.013 C 
ATOM     10  C3' I4B d   1       1.152   3.094  -1.823  0.00  0.00     0.013 C 
ENDBRANCH   7   8
ENDBRANCH   1   7
TORSDOF 2
ENDMDL
