MODEL 1
REMARK minimizedAffinity 15.3685102
REMARK minimizedRMSD -1
REMARK  2 active torsions:
REMARK  status: ('A' for Active; 'I' for Inactive)
REMARK    1  A    between atoms: C2'_3  and  C1'_4 
REMARK    2  A    between atoms: C1'_4  and  C1_5 
ROOT
ATOM      1  C1  I4B d   1      -3.225  -4.809   0.400  0.00  0.00    -0.075 A 
ATOM      2  C2  I4B d   1      -3.894  -5.937  -0.008  0.00  0.00     0.003 A 
ATOM      3  C3  I4B d   1      -5.306  -6.000   0.082  0.00  0.00     0.002 A 
ATOM      4  C4  I4B d   1      -6.000  -4.940   0.630  0.00  0.00    -0.004 A 
ATOM      5  C5  I4B d   1      -5.322  -3.789   1.022  0.00  0.00     0.002 A 
ATOM      6  C6  I4B d   1      -3.927  -3.718   0.895  0.00  0.00     0.003 A 
ENDROOT
BRANCH   1   7
ATOM      7  C1' I4B d   1      -1.732  -4.790   0.321  0.00  0.00     0.060 C 
BRANCH   7   8
ATOM      8  C2' I4B d   1      -1.306  -3.402  -0.115  0.00  0.00    -0.013 C 
ATOM      9  C4' I4B d   1       0.002  -3.009   0.521  0.00  0.00     0.013 C 
ATOM     10  C3' I4B d   1      -1.203  -3.398  -1.611  0.00  0.00     0.013 C 
ENDBRANCH   7   8
ENDBRANCH   1   7
TORSDOF 2
ENDMDL
