MODEL 1
REMARK minimizedAffinity 15.08251
REMARK minimizedRMSD -1
REMARK  2 active torsions:
REMARK  status: ('A' for Active; 'I' for Inactive)
REMARK    1  A    between atoms: C2'_3  and  C1'_4 
REMARK    2  A    between atoms: C1'_4  and  C1_5 
ROOT
ATOM      1  C1  I4B d   1      -2.632   4.270  -3.254  0.00  0.00    -0.075 A 
ATOM      2  C2  I4B d   1      -2.482   3.313  -4.227  0.00  0.00     0.003 A 
ATOM      3  C3  I4B d   1      -2.191   3.692  -5.560  0.00  0.00     0.002 A 
ATOM      4  C4  I4B d   1      -2.110   5.031  -5.884  0.00  0.00    -0.004 A 
ATOM      5  C5  I4B d   1      -2.240   5.998  -4.892  0.00  0.00     0.002 A 
ATOM      6  C6  I4B d   1      -2.490   5.616  -3.566  0.00  0.00     0.003 A 
ENDROOT
BRANCH   1   7
ATOM      7  C1' I4B d   1      -2.971   3.837  -1.863  0.00  0.00     0.060 C 
BRANCH   7   8
ATOM      8  C2' I4B d   1      -4.469   3.620  -1.794  0.00  0.00    -0.013 C 
ATOM      9  C4' I4B d   1      -4.861   2.313  -2.431  0.00  0.00     0.013 C 
ATOM     10  C3' I4B d   1      -4.876   3.663  -0.351  0.00  0.00     0.013 C 
ENDBRANCH   7   8
ENDBRANCH   1   7
TORSDOF 2
ENDMDL
