MODEL 1
REMARK minimizedAffinity 16.8425579
REMARK minimizedRMSD -1
REMARK  2 active torsions:
REMARK  status: ('A' for Active; 'I' for Inactive)
REMARK    1  A    between atoms: C2'_3  and  C1'_4 
REMARK    2  A    between atoms: C1'_4  and  C1_5 
ROOT
ATOM      1  C1  I4B d   1      -1.873  -2.501   3.229  0.00  0.00    -0.075 A 
ATOM      2  C2  I4B d   1      -0.954  -2.909   2.296  0.00  0.00     0.003 A 
ATOM      3  C3  I4B d   1       0.228  -2.159   2.084  0.00  0.00     0.002 A 
ATOM      4  C4  I4B d   1       0.425  -0.988   2.786  0.00  0.00    -0.004 A 
ATOM      5  C5  I4B d   1      -0.498  -0.587   3.748  0.00  0.00     0.002 A 
ATOM      6  C6  I4B d   1      -1.648  -1.354   3.981  0.00  0.00     0.003 A 
ENDROOT
BRANCH   1   7
ATOM      7  C1' I4B d   1      -3.126  -3.299   3.404  0.00  0.00     0.060 C 
BRANCH   7   8
ATOM      8  C2' I4B d   1      -3.622  -3.697   2.029  0.00  0.00    -0.013 C 
ATOM      9  C4' I4B d   1      -4.190  -5.092   2.037  0.00  0.00     0.013 C 
ATOM     10  C3' I4B d   1      -4.653  -2.695   1.600  0.00  0.00     0.013 C 
ENDBRANCH   7   8
ENDBRANCH   1   7
TORSDOF 2
ENDMDL
