MODEL 1
REMARK minimizedAffinity 17.6099052
REMARK minimizedRMSD -1
REMARK  2 active torsions:
REMARK  status: ('A' for Active; 'I' for Inactive)
REMARK    1  A    between atoms: C2'_3  and  C1'_4 
REMARK    2  A    between atoms: C1'_4  and  C1_5 
ROOT
ATOM      1  C1  I4B d   1       2.200  -4.778  -5.854  0.00  0.00    -0.075 A 
ATOM      2  C2  I4B d   1       2.857  -3.573  -5.893  0.00  0.00     0.003 A 
ATOM      3  C3  I4B d   1       4.269  -3.535  -5.993  0.00  0.00     0.002 A 
ATOM      4  C4  I4B d   1       4.982  -4.716  -6.000  0.00  0.00    -0.004 A 
ATOM      5  C5  I4B d   1       4.313  -5.936  -5.983  0.00  0.00     0.002 A 
ATOM      6  C6  I4B d   1       2.912  -5.968  -5.922  0.00  0.00     0.003 A 
ENDROOT
BRANCH   1   7
ATOM      7  C1' I4B d   1       0.710  -4.782  -5.714  0.00  0.00     0.060 C 
BRANCH   7   8
ATOM      8  C2' I4B d   1       0.372  -4.338  -4.306  0.00  0.00    -0.013 C 
ATOM      9  C4' I4B d   1       0.796  -5.370  -3.293  0.00  0.00     0.013 C 
ATOM     10  C3' I4B d   1       1.052  -3.025  -4.058  0.00  0.00     0.013 C 
ENDBRANCH   7   8
ENDBRANCH   1   7
TORSDOF 2
ENDMDL
