MODEL 1
REMARK minimizedAffinity 3.13258934
REMARK minimizedRMSD -1
REMARK  2 active torsions:
REMARK  status: ('A' for Active; 'I' for Inactive)
REMARK    1  A    between atoms: C2'_3  and  C1'_4 
REMARK    2  A    between atoms: C1'_4  and  C1_5 
ROOT
ATOM      1  C1  I4B d   1       3.211  -4.925  -5.984  0.00  0.00    -0.075 A 
ATOM      2  C2  I4B d   1       3.612  -3.613  -5.989  0.00  0.00     0.003 A 
ATOM      3  C3  I4B d   1       4.990  -3.288  -5.999  0.00  0.00     0.002 A 
ATOM      4  C4  I4B d   1       5.927  -4.300  -5.952  0.00  0.00    -0.004 A 
ATOM      5  C5  I4B d   1       5.519  -5.631  -5.970  0.00  0.00     0.002 A 
ATOM      6  C6  I4B d   1       4.153  -5.946  -5.999  0.00  0.00     0.003 A 
ENDROOT
BRANCH   1   7
ATOM      7  C1' I4B d   1       1.748  -5.232  -5.940  0.00  0.00     0.060 C 
BRANCH   7   8
ATOM      8  C2' I4B d   1       1.302  -5.178  -4.493  0.00  0.00    -0.013 C 
ATOM      9  C4' I4B d   1       1.068  -3.758  -4.048  0.00  0.00     0.013 C 
ATOM     10  C3' I4B d   1       0.055  -6.000  -4.361  0.00  0.00     0.013 C 
ENDBRANCH   7   8
ENDBRANCH   1   7
TORSDOF 2
ENDMDL
