MODEL 1
REMARK minimizedAffinity -0.0336741209
REMARK minimizedRMSD -1
REMARK  0 active torsions:
REMARK  status: ('A' for Active; 'I' for Inactive)
ROOT
ATOM      1  C   UNL d   1       5.799  -2.008   6.000  0.00  0.00     0.078 C 
ATOM      2  C1  UNL d   1       4.305  -1.878   5.992  0.00  0.00    -0.077 A 
ATOM      3  C2  UNL d   1       3.483  -3.012   5.978  0.00  0.00    -0.001 A 
ATOM      4  C3  UNL d   1       2.093  -2.876   5.961  0.00  0.00     0.003 A 
ATOM      5  C4  UNL d   1       1.514  -1.609   5.958  0.00  0.00    -0.005 A 
ATOM      6  C5  UNL d   1       2.324  -0.475   5.970  0.00  0.00     0.003 A 
ATOM      7  C6  UNL d   1       3.713  -0.609   5.986  0.00  0.00    -0.001 A 
ENDROOT
TORSDOF 0
ENDMDL
