MODEL 1
REMARK minimizedAffinity 2.72829056
REMARK minimizedRMSD -1
REMARK  0 active torsions:
REMARK  status: ('A' for Active; 'I' for Inactive)
ROOT
ATOM      1  C   UNL d   1       0.431   2.771   0.238  0.00  0.00     0.078 C 
ATOM      2  C1  UNL d   1       0.870   1.345   0.086  0.00  0.00    -0.077 A 
ATOM      3  C2  UNL d   1       1.351   0.618   1.182  0.00  0.00    -0.001 A 
ATOM      4  C3  UNL d   1       1.766  -0.706   1.023  0.00  0.00     0.003 A 
ATOM      5  C4  UNL d   1       1.705  -1.313  -0.230  0.00  0.00    -0.005 A 
ATOM      6  C5  UNL d   1       1.231  -0.596  -1.326  0.00  0.00     0.003 A 
ATOM      7  C6  UNL d   1       0.816   0.727  -1.170  0.00  0.00    -0.001 A 
ENDROOT
TORSDOF 0
ENDMDL
