MODEL 1
REMARK minimizedAffinity -1.0091424
REMARK minimizedRMSD -1
REMARK  0 active torsions:
REMARK  status: ('A' for Active; 'I' for Inactive)
ROOT
ATOM      1  C   UNL d   1      -6.000   2.307  -3.582  0.00  0.00     0.078 C 
ATOM      2  C1  UNL d   1      -5.295   3.365  -4.378  0.00  0.00    -0.077 A 
ATOM      3  C2  UNL d   1      -6.000   4.195  -5.258  0.00  0.00    -0.001 A 
ATOM      4  C3  UNL d   1      -5.329   5.169  -5.999  0.00  0.00     0.003 A 
ATOM      5  C4  UNL d   1      -3.950   5.321  -5.869  0.00  0.00    -0.005 A 
ATOM      6  C5  UNL d   1      -3.240   4.498  -4.998  0.00  0.00     0.003 A 
ATOM      7  C6  UNL d   1      -3.909   3.524  -4.256  0.00  0.00    -0.001 A 
ENDROOT
TORSDOF 0
ENDMDL
