MODEL 1
REMARK minimizedAffinity 5.19455481
REMARK minimizedRMSD -1
REMARK  0 active torsions:
REMARK  status: ('A' for Active; 'I' for Inactive)
ROOT
ATOM      1  C   UNL d   1      -1.737   4.223  -5.901  0.00  0.00     0.078 C 
ATOM      2  C1  UNL d   1      -3.214   4.475  -5.941  0.00  0.00    -0.077 A 
ATOM      3  C2  UNL d   1      -3.724   5.779  -5.968  0.00  0.00    -0.001 A 
ATOM      4  C3  UNL d   1      -5.102   5.998  -5.996  0.00  0.00     0.003 A 
ATOM      5  C4  UNL d   1      -5.982   4.918  -5.995  0.00  0.00    -0.005 A 
ATOM      6  C5  UNL d   1      -5.485   3.617  -5.966  0.00  0.00     0.003 A 
ATOM      7  C6  UNL d   1      -4.107   3.395  -5.938  0.00  0.00    -0.001 A 
ENDROOT
TORSDOF 0
ENDMDL
