MODEL 1
REMARK minimizedAffinity 1.95258439
REMARK minimizedRMSD -1
REMARK  0 active torsions:
REMARK  status: ('A' for Active; 'I' for Inactive)
ROOT
ATOM      1  C   UNL d   1      -3.088   4.732  -4.635  0.00  0.00     0.078 C 
ATOM      2  C1  UNL d   1      -2.386   3.409  -4.553  0.00  0.00    -0.077 A 
ATOM      3  C2  UNL d   1      -2.356   2.681  -3.357  0.00  0.00    -0.001 A 
ATOM      4  C3  UNL d   1      -1.690   1.457  -3.293  0.00  0.00     0.003 A 
ATOM      5  C4  UNL d   1      -1.048   0.949  -4.421  0.00  0.00    -0.005 A 
ATOM      6  C5  UNL d   1      -1.070   1.667  -5.614  0.00  0.00     0.003 A 
ATOM      7  C6  UNL d   1      -1.736   2.892  -5.681  0.00  0.00    -0.001 A 
ENDROOT
TORSDOF 0
ENDMDL
