MODEL 1
REMARK minimizedAffinity 9.33298969
REMARK minimizedRMSD -1
REMARK  0 active torsions:
REMARK  status: ('A' for Active; 'I' for Inactive)
ROOT
ATOM      1  C   UNL d   1      -2.535   2.948   0.389  0.00  0.00     0.078 C 
ATOM      2  C1  UNL d   1      -1.151   3.419   0.056  0.00  0.00    -0.077 A 
ATOM      3  C2  UNL d   1      -0.024   2.711   0.489  0.00  0.00    -0.001 A 
ATOM      4  C3  UNL d   1       1.258   3.167   0.180  0.00  0.00     0.003 A 
ATOM      5  C4  UNL d   1       1.426   4.333  -0.564  0.00  0.00    -0.005 A 
ATOM      6  C5  UNL d   1       0.310   5.046  -0.997  0.00  0.00     0.003 A 
ATOM      7  C6  UNL d   1      -0.973   4.592  -0.689  0.00  0.00    -0.001 A 
ENDROOT
TORSDOF 0
ENDMDL
