MODEL 1
REMARK minimizedAffinity 7.10033798
REMARK minimizedRMSD -1
REMARK  0 active torsions:
REMARK  status: ('A' for Active; 'I' for Inactive)
ROOT
ATOM      1  O1  BZF d   1       1.899   5.303  -5.996  0.00  0.00    -0.204 OA
ATOM      2  C2  BZF d   1       2.883   5.397  -5.031  0.00  0.00     0.174 A 
ATOM      3  C3  BZF d   1       2.351   5.715  -3.834  0.00  0.00    -0.012 A 
ATOM      4  C3A BZF d   1       0.936   5.736  -4.045  0.00  0.00    -0.107 A 
ATOM      5  C4  BZF d   1      -0.132   5.974  -3.228  0.00  0.00     0.055 A 
ATOM      6  C5  BZF d   1      -1.382   5.991  -3.762  0.00  0.00    -0.016 A 
ATOM      7  C6  BZF d   1      -1.599   5.779  -5.107  0.00  0.00     0.022 A 
ATOM      8  C7  BZF d   1      -0.572   5.534  -5.957  0.00  0.00     0.029 A 
ATOM      9  C7A BZF d   1       0.689   5.484  -5.414  0.00  0.00     0.058 A 
ENDROOT
TORSDOF 0
ENDMDL
