MODEL 1
REMARK minimizedAffinity 1.231359
REMARK minimizedRMSD -1
REMARK  0 active torsions:
REMARK  status: ('A' for Active; 'I' for Inactive)
ROOT
ATOM      1  O1  BZF d   1       3.675   5.950  -3.700  0.00  0.00    -0.204 OA
ATOM      2  C2  BZF d   1       4.418   5.832  -4.859  0.00  0.00     0.174 A 
ATOM      3  C3  BZF d   1       3.613   5.680  -5.930  0.00  0.00    -0.012 A 
ATOM      4  C3A BZF d   1       2.281   5.797  -5.419  0.00  0.00    -0.107 A 
ATOM      5  C4  BZF d   1       1.046   5.751  -5.999  0.00  0.00     0.055 A 
ATOM      6  C5  BZF d   1      -0.058   5.827  -5.210  0.00  0.00    -0.016 A 
ATOM      7  C6  BZF d   1       0.037   5.944  -3.839  0.00  0.00     0.022 A 
ATOM      8  C7  BZF d   1       1.241   5.999  -3.218  0.00  0.00     0.029 A 
ATOM      9  C7A BZF d   1       2.358   5.956  -4.016  0.00  0.00     0.058 A 
ENDROOT
TORSDOF 0
ENDMDL
