MODEL 1
REMARK minimizedAffinity 7.53382492
REMARK minimizedRMSD -1
REMARK  0 active torsions:
REMARK  status: ('A' for Active; 'I' for Inactive)
ROOT
ATOM      1  O1  BZF d   1       0.054  -0.091   1.442  0.00  0.00    -0.204 OA
ATOM      2  C2  BZF d   1      -0.542   0.238   2.645  0.00  0.00     0.174 A 
ATOM      3  C3  BZF d   1      -0.384   1.550   2.913  0.00  0.00    -0.012 A 
ATOM      4  C3A BZF d   1       0.277   2.093   1.766  0.00  0.00    -0.107 A 
ATOM      5  C4  BZF d   1       0.693   3.349   1.429  0.00  0.00     0.055 A 
ATOM      6  C5  BZF d   1       1.372   3.530   0.266  0.00  0.00    -0.016 A 
ATOM      7  C6  BZF d   1       1.657   2.477  -0.580  0.00  0.00     0.022 A 
ATOM      8  C7  BZF d   1       1.260   1.214  -0.290  0.00  0.00     0.029 A 
ATOM      9  C7A BZF d   1       0.545   1.034   0.868  0.00  0.00     0.058 A 
ENDROOT
TORSDOF 0
ENDMDL
