MODEL 1
REMARK minimizedAffinity -1.96259654
REMARK minimizedRMSD -1
REMARK  0 active torsions:
REMARK  status: ('A' for Active; 'I' for Inactive)
ROOT
ATOM      1  O1  BZF d   1       2.169   4.125  -4.748  0.00  0.00    -0.204 OA
ATOM      2  C2  BZF d   1       1.543   5.084  -5.521  0.00  0.00     0.174 A 
ATOM      3  C3  BZF d   1       2.432   5.996  -5.965  0.00  0.00    -0.012 A 
ATOM      4  C3A BZF d   1       3.707   5.530  -5.512  0.00  0.00    -0.107 A 
ATOM      5  C4  BZF d   1       4.982   5.999  -5.652  0.00  0.00     0.055 A 
ATOM      6  C5  BZF d   1       5.997   5.348  -5.026  0.00  0.00    -0.016 A 
ATOM      7  C6  BZF d   1       5.774   4.229  -4.250  0.00  0.00     0.022 A 
ATOM      8  C7  BZF d   1       4.527   3.724  -4.086  0.00  0.00     0.029 A 
ATOM      9  C7A BZF d   1       3.503   4.360  -4.744  0.00  0.00     0.058 A 
ENDROOT
TORSDOF 0
ENDMDL
