MODEL 1
REMARK minimizedAffinity 6.25235653
REMARK minimizedRMSD -1
REMARK  0 active torsions:
REMARK  status: ('A' for Active; 'I' for Inactive)
ROOT
ATOM      1  O1  BZF d   1      -1.644   0.357   0.736  0.00  0.00    -0.204 OA
ATOM      2  C2  BZF d   1      -0.321   0.688   0.959  0.00  0.00     0.174 A 
ATOM      3  C3  BZF d   1       0.434   0.394  -0.119  0.00  0.00    -0.012 A 
ATOM      4  C3A BZF d   1      -0.489  -0.069  -1.110  0.00  0.00    -0.107 A 
ATOM      5  C4  BZF d   1      -0.346  -0.495  -2.399  0.00  0.00     0.055 A 
ATOM      6  C5  BZF d   1      -1.438  -0.949  -3.070  0.00  0.00    -0.016 A 
ATOM      7  C6  BZF d   1      -2.684  -0.996  -2.480  0.00  0.00     0.022 A 
ATOM      8  C7  BZF d   1      -2.876  -0.579  -1.205  0.00  0.00     0.029 A 
ATOM      9  C7A BZF d   1      -1.781  -0.089  -0.536  0.00  0.00     0.058 A 
ENDROOT
TORSDOF 0
ENDMDL
