MODEL 1
REMARK minimizedAffinity -1.07311535
REMARK minimizedRMSD -1
REMARK  0 active torsions:
REMARK  status: ('A' for Active; 'I' for Inactive)
ROOT
ATOM      1  O1  BZF d   1      -0.973   6.000  -4.830  0.00  0.00    -0.204 OA
ATOM      2  C2  BZF d   1       0.408   5.981  -4.866  0.00  0.00     0.174 A 
ATOM      3  C3  BZF d   1       0.919   6.000  -3.618  0.00  0.00    -0.012 A 
ATOM      4  C3A BZF d   1      -0.214   5.939  -2.747  0.00  0.00    -0.107 A 
ATOM      5  C4  BZF d   1      -0.353   5.909  -1.388  0.00  0.00     0.055 A 
ATOM      6  C5  BZF d   1      -1.601   5.924  -0.852  0.00  0.00    -0.016 A 
ATOM      7  C6  BZF d   1      -2.731   5.973  -1.642  0.00  0.00     0.022 A 
ATOM      8  C7  BZF d   1      -2.644   5.998  -2.994  0.00  0.00     0.029 A 
ATOM      9  C7A BZF d   1      -1.384   5.950  -3.540  0.00  0.00     0.058 A 
ENDROOT
TORSDOF 0
ENDMDL
