MODEL 1
REMARK minimizedAffinity -0.867456138
REMARK minimizedRMSD -1
REMARK  0 active torsions:
REMARK  status: ('A' for Active; 'I' for Inactive)
ROOT
ATOM      1  O1  BZF d   1      -1.024   5.932  -5.349  0.00  0.00    -0.204 OA
ATOM      2  C2  BZF d   1       0.291   5.929  -4.926  0.00  0.00     0.174 A 
ATOM      3  C3  BZF d   1       0.362   6.000  -3.581  0.00  0.00    -0.012 A 
ATOM      4  C3A BZF d   1      -0.996   5.956  -3.131  0.00  0.00    -0.107 A 
ATOM      5  C4  BZF d   1      -1.575   5.975  -1.894  0.00  0.00     0.055 A 
ATOM      6  C5  BZF d   1      -2.931   5.994  -1.801  0.00  0.00    -0.016 A 
ATOM      7  C6  BZF d   1      -3.736   6.000  -2.921  0.00  0.00     0.022 A 
ATOM      8  C7  BZF d   1      -3.207   5.977  -4.169  0.00  0.00     0.029 A 
ATOM      9  C7A BZF d   1      -1.838   5.924  -4.266  0.00  0.00     0.058 A 
ENDROOT
TORSDOF 0
ENDMDL
