MODEL 1
REMARK minimizedAffinity -0.998572171
REMARK minimizedRMSD -1
REMARK  0 active torsions:
REMARK  status: ('A' for Active; 'I' for Inactive)
ROOT
ATOM      1  O1  BZF d   1      -2.357   5.949  -4.974  0.00  0.00    -0.204 OA
ATOM      2  C2  BZF d   1      -3.090   5.961  -3.803  0.00  0.00     0.174 A 
ATOM      3  C3  BZF d   1      -2.275   5.927  -2.729  0.00  0.00    -0.012 A 
ATOM      4  C3A BZF d   1      -0.948   5.984  -3.261  0.00  0.00    -0.107 A 
ATOM      5  C4  BZF d   1       0.292   6.000  -2.690  0.00  0.00     0.055 A 
ATOM      6  C5  BZF d   1       1.389   5.986  -3.492  0.00  0.00    -0.016 A 
ATOM      7  C6  BZF d   1       1.282   5.951  -4.867  0.00  0.00     0.022 A 
ATOM      8  C7  BZF d   1       0.073   5.939  -5.479  0.00  0.00     0.029 A 
ATOM      9  C7A BZF d   1      -1.037   5.987  -4.672  0.00  0.00     0.058 A 
ENDROOT
TORSDOF 0
ENDMDL
