MODEL 1
REMARK minimizedAffinity 0.516852558
REMARK minimizedRMSD -1
REMARK  0 active torsions:
REMARK  status: ('A' for Active; 'I' for Inactive)
ROOT
ATOM      1  O1  BZF d   1       2.815   5.999  -3.718  0.00  0.00    -0.204 OA
ATOM      2  C2  BZF d   1       3.544   5.927  -4.890  0.00  0.00     0.174 A 
ATOM      3  C3  BZF d   1       2.727   5.796  -5.954  0.00  0.00    -0.012 A 
ATOM      4  C3A BZF d   1       1.401   5.879  -5.424  0.00  0.00    -0.107 A 
ATOM      5  C4  BZF d   1       0.159   5.832  -5.989  0.00  0.00     0.055 A 
ATOM      6  C5  BZF d   1      -0.935   5.868  -5.184  0.00  0.00    -0.016 A 
ATOM      7  C6  BZF d   1      -0.824   5.945  -3.811  0.00  0.00     0.022 A 
ATOM      8  C7  BZF d   1       0.387   5.998  -3.205  0.00  0.00     0.029 A 
ATOM      9  C7A BZF d   1       1.494   5.996  -4.018  0.00  0.00     0.058 A 
ENDROOT
TORSDOF 0
ENDMDL
