MODEL 1
REMARK minimizedAffinity 7.60906315
REMARK minimizedRMSD -1
REMARK  0 active torsions:
REMARK  status: ('A' for Active; 'I' for Inactive)
ROOT
ATOM      1  O1  BZF d   1       6.000   3.837  -4.089  0.00  0.00    -0.204 OA
ATOM      2  C2  BZF d   1       5.727   2.523  -3.760  0.00  0.00     0.174 A 
ATOM      3  C3  BZF d   1       4.419   2.247  -3.938  0.00  0.00    -0.012 A 
ATOM      4  C3A BZF d   1       3.856   3.438  -4.496  0.00  0.00    -0.107 A 
ATOM      5  C4  BZF d   1       2.599   3.779  -4.906  0.00  0.00     0.055 A 
ATOM      6  C5  BZF d   1       2.365   5.048  -5.335  0.00  0.00    -0.016 A 
ATOM      7  C6  BZF d   1       3.363   6.000  -5.362  0.00  0.00     0.022 A 
ATOM      8  C7  BZF d   1       4.627   5.707  -4.970  0.00  0.00     0.029 A 
ATOM      9  C7A BZF d   1       4.873   4.418  -4.567  0.00  0.00     0.058 A 
ENDROOT
TORSDOF 0
ENDMDL
