MODEL 1
REMARK minimizedAffinity 1.37473083
REMARK minimizedRMSD -1
REMARK  0 active torsions:
REMARK  status: ('A' for Active; 'I' for Inactive)
ROOT
ATOM      1  O1  BZF d   1      -2.071  -4.230   5.563  0.00  0.00    -0.204 OA
ATOM      2  C2  BZF d   1      -2.778  -3.047   5.472  0.00  0.00     0.174 A 
ATOM      3  C3  BZF d   1      -2.575  -2.458   4.276  0.00  0.00    -0.012 A 
ATOM      4  C3A BZF d   1      -1.758  -3.374   3.540  0.00  0.00    -0.107 A 
ATOM      5  C4  BZF d   1      -1.234  -3.360   2.279  0.00  0.00     0.055 A 
ATOM      6  C5  BZF d   1      -0.418  -4.375   1.892  0.00  0.00    -0.016 A 
ATOM      7  C6  BZF d   1      -0.102  -5.416   2.740  0.00  0.00     0.022 A 
ATOM      8  C7  BZF d   1      -0.602  -5.477   3.998  0.00  0.00     0.029 A 
ATOM      9  C7A BZF d   1      -1.453  -4.469   4.381  0.00  0.00     0.058 A 
ENDROOT
TORSDOF 0
ENDMDL
