MODEL 1
REMARK minimizedAffinity -2.53609324
REMARK minimizedRMSD -1
REMARK  0 active torsions:
REMARK  status: ('A' for Active; 'I' for Inactive)
ROOT
ATOM      1  O1  BZF d   1      -0.754   5.954  -4.897  0.00  0.00    -0.204 OA
ATOM      2  C2  BZF d   1       0.440   5.944  -4.202  0.00  0.00     0.174 A 
ATOM      3  C3  BZF d   1       0.221   6.000  -2.873  0.00  0.00    -0.012 A 
ATOM      4  C3A BZF d   1      -1.201   5.954  -2.724  0.00  0.00    -0.107 A 
ATOM      5  C4  BZF d   1      -2.032   5.960  -1.640  0.00  0.00     0.055 A 
ATOM      6  C5  BZF d   1      -3.377   5.980  -1.838  0.00  0.00    -0.016 A 
ATOM      7  C6  BZF d   1      -3.923   6.000  -3.105  0.00  0.00     0.022 A 
ATOM      8  C7  BZF d   1      -3.139   5.989  -4.210  0.00  0.00     0.029 A 
ATOM      9  C7A BZF d   1      -1.781   5.936  -4.013  0.00  0.00     0.058 A 
ENDROOT
TORSDOF 0
ENDMDL
