MODEL 1
REMARK minimizedAffinity -1.84702182
REMARK minimizedRMSD -1
REMARK  0 active torsions:
REMARK  status: ('A' for Active; 'I' for Inactive)
ROOT
ATOM      1  O1  BZF d   1      -3.192   5.710  -4.130  0.00  0.00    -0.204 OA
ATOM      2  C2  BZF d   1      -3.567   5.625  -2.803  0.00  0.00     0.174 A 
ATOM      3  C3  BZF d   1      -2.483   5.621  -2.000  0.00  0.00    -0.012 A 
ATOM      4  C3A BZF d   1      -1.365   5.801  -2.874  0.00  0.00    -0.107 A 
ATOM      5  C4  BZF d   1      -0.019   5.897  -2.669  0.00  0.00     0.055 A 
ATOM      6  C5  BZF d   1       0.808   5.997  -3.743  0.00  0.00    -0.016 A 
ATOM      7  C6  BZF d   1       0.323   5.999  -5.034  0.00  0.00     0.022 A 
ATOM      8  C7  BZF d   1      -1.006   5.912  -5.288  0.00  0.00     0.029 A 
ATOM      9  C7A BZF d   1      -1.846   5.844  -4.203  0.00  0.00     0.058 A 
ENDROOT
TORSDOF 0
ENDMDL
