MODEL 1
REMARK minimizedAffinity -3.13879204
REMARK minimizedRMSD -1
REMARK  0 active torsions:
REMARK  status: ('A' for Active; 'I' for Inactive)
ROOT
ATOM      1  O1  BZF d   1      -0.721   5.754  -5.921  0.00  0.00    -0.204 OA
ATOM      2  C2  BZF d   1       0.659   5.716  -5.980  0.00  0.00     0.174 A 
ATOM      3  C3  BZF d   1       1.194   5.826  -4.747  0.00  0.00    -0.012 A 
ATOM      4  C3A BZF d   1       0.077   5.848  -3.853  0.00  0.00    -0.107 A 
ATOM      5  C4  BZF d   1      -0.037   5.928  -2.494  0.00  0.00     0.055 A 
ATOM      6  C5  BZF d   1      -1.274   6.000  -1.938  0.00  0.00    -0.016 A 
ATOM      7  C6  BZF d   1      -2.418   6.000  -2.709  0.00  0.00     0.022 A 
ATOM      8  C7  BZF d   1      -2.356   5.917  -4.061  0.00  0.00     0.029 A 
ATOM      9  C7A BZF d   1      -1.108   5.811  -4.624  0.00  0.00     0.058 A 
ENDROOT
TORSDOF 0
ENDMDL
