MODEL 1
REMARK minimizedAffinity 0.782994509
REMARK minimizedRMSD -1
REMARK  0 active torsions:
REMARK  status: ('A' for Active; 'I' for Inactive)
ROOT
ATOM      1  O1  BZF d   1       2.371   5.999  -5.918  0.00  0.00    -0.204 OA
ATOM      2  C2  BZF d   1       1.427   5.128  -5.410  0.00  0.00     0.174 A 
ATOM      3  C3  BZF d   1       2.017   4.036  -4.883  0.00  0.00    -0.012 A 
ATOM      4  C3A BZF d   1       3.423   4.280  -4.991  0.00  0.00    -0.107 A 
ATOM      5  C4  BZF d   1       4.530   3.567  -4.627  0.00  0.00     0.055 A 
ATOM      6  C5  BZF d   1       5.760   4.052  -4.940  0.00  0.00    -0.016 A 
ATOM      7  C6  BZF d   1       5.920   5.242  -5.621  0.00  0.00     0.022 A 
ATOM      8  C7  BZF d   1       4.852   5.986  -5.999  0.00  0.00     0.029 A 
ATOM      9  C7A BZF d   1       3.608   5.515  -5.654  0.00  0.00     0.058 A 
ENDROOT
TORSDOF 0
ENDMDL
