MODEL 1
REMARK minimizedAffinity 4.88671398
REMARK minimizedRMSD -1
REMARK  0 active torsions:
REMARK  status: ('A' for Active; 'I' for Inactive)
ROOT
ATOM      1  O1  BZF d   1       1.049  -0.129   0.310  0.00  0.00    -0.204 OA
ATOM      2  C2  BZF d   1      -0.092  -0.172   1.088  0.00  0.00     0.174 A 
ATOM      3  C3  BZF d   1      -0.437   1.065   1.500  0.00  0.00    -0.012 A 
ATOM      4  C3A BZF d   1       0.498   1.946   0.870  0.00  0.00    -0.107 A 
ATOM      5  C4  BZF d   1       0.663   3.302   0.878  0.00  0.00     0.055 A 
ATOM      6  C5  BZF d   1       1.719   3.843   0.215  0.00  0.00    -0.016 A 
ATOM      7  C6  BZF d   1       2.630   3.058  -0.461  0.00  0.00     0.022 A 
ATOM      8  C7  BZF d   1       2.505   1.710  -0.502  0.00  0.00     0.029 A 
ATOM      9  C7A BZF d   1       1.421   1.162   0.139  0.00  0.00     0.058 A 
ENDROOT
TORSDOF 0
ENDMDL
