MODEL 1
REMARK minimizedAffinity 1.41006958
REMARK minimizedRMSD -1
REMARK  0 active torsions:
REMARK  status: ('A' for Active; 'I' for Inactive)
ROOT
ATOM      1  O1  BZF d   1      -1.478   5.938  -5.408  0.00  0.00    -0.204 OA
ATOM      2  C2  BZF d   1      -0.151   5.934  -5.793  0.00  0.00     0.174 A 
ATOM      3  C3  BZF d   1       0.659   6.000  -4.717  0.00  0.00    -0.012 A 
ATOM      4  C3A BZF d   1      -0.215   5.956  -3.585  0.00  0.00    -0.107 A 
ATOM      5  C4  BZF d   1      -0.005   5.971  -2.235  0.00  0.00     0.055 A 
ATOM      6  C5  BZF d   1      -1.077   5.990  -1.400  0.00  0.00    -0.016 A 
ATOM      7  C6  BZF d   1      -2.370   6.000  -1.879  0.00  0.00     0.022 A 
ATOM      8  C7  BZF d   1      -2.629   5.980  -3.209  0.00  0.00     0.029 A 
ATOM      9  C7A BZF d   1      -1.548   5.928  -4.055  0.00  0.00     0.058 A 
ENDROOT
TORSDOF 0
ENDMDL
