MODEL 1
REMARK minimizedAffinity 4.07880116
REMARK minimizedRMSD -1
REMARK  0 active torsions:
REMARK  status: ('A' for Active; 'I' for Inactive)
ROOT
ATOM      1  O1  BZF d   1       0.996   3.870  -5.335  0.00  0.00    -0.204 OA
ATOM      2  C2  BZF d   1       0.408   4.977  -5.917  0.00  0.00     0.174 A 
ATOM      3  C3  BZF d   1       1.284   6.000  -5.991  0.00  0.00    -0.012 A 
ATOM      4  C3A BZF d   1       2.522   5.472  -5.505  0.00  0.00    -0.107 A 
ATOM      5  C4  BZF d   1       3.771   6.000  -5.348  0.00  0.00     0.055 A 
ATOM      6  C5  BZF d   1       4.743   5.241  -4.777  0.00  0.00    -0.016 A 
ATOM      7  C6  BZF d   1       4.499   3.953  -4.346  0.00  0.00     0.022 A 
ATOM      8  C7  BZF d   1       3.276   3.384  -4.485  0.00  0.00     0.029 A 
ATOM      9  C7A BZF d   1       2.301   4.137  -5.092  0.00  0.00     0.058 A 
ENDROOT
TORSDOF 0
ENDMDL
