MODEL 1
REMARK minimizedAffinity 3.46996665
REMARK minimizedRMSD -1
REMARK  0 active torsions:
REMARK  status: ('A' for Active; 'I' for Inactive)
ROOT
ATOM      1  O1  BZF d   1      -0.484   5.939  -6.000  0.00  0.00    -0.204 OA
ATOM      2  C2  BZF d   1       0.897   5.934  -5.997  0.00  0.00     0.174 A 
ATOM      3  C3  BZF d   1       1.373   5.999  -4.737  0.00  0.00    -0.012 A 
ATOM      4  C3A BZF d   1       0.217   5.955  -3.895  0.00  0.00    -0.107 A 
ATOM      5  C4  BZF d   1       0.040   5.969  -2.541  0.00  0.00     0.055 A 
ATOM      6  C5  BZF d   1      -1.223   5.989  -2.040  0.00  0.00    -0.016 A 
ATOM      7  C6  BZF d   1      -2.330   5.999  -2.863  0.00  0.00     0.022 A 
ATOM      8  C7  BZF d   1      -2.205   5.980  -4.212  0.00  0.00     0.029 A 
ATOM      9  C7A BZF d   1      -0.930   5.927  -4.721  0.00  0.00     0.058 A 
ENDROOT
TORSDOF 0
ENDMDL
