MODEL 1
REMARK minimizedAffinity 1.78598619
REMARK minimizedRMSD -1
REMARK  0 active torsions:
REMARK  status: ('A' for Active; 'I' for Inactive)
ROOT
ATOM      1  C   UNL d   1       1.651  -1.159  -0.183  0.00  0.00     0.124 A 
ATOM      2  C1  UNL d   1       1.641  -1.002   1.196  0.00  0.00     0.062 A 
ATOM      3  C2  UNL d   1       0.517  -0.486   1.834  0.00  0.00     0.162 A 
ATOM      4  C3  UNL d   1      -0.608  -0.123   1.093  0.00  0.00    -0.034 A 
ATOM      5  C4  UNL d   1      -0.590  -0.282  -0.294  0.00  0.00     0.162 A 
ATOM      6  C5  UNL d   1       0.536  -0.798  -0.926  0.00  0.00     0.062 A 
ATOM      7  F   UNL d   1       0.544  -0.948  -2.259  0.00  0.00    -0.097 F 
ATOM      8  F1  UNL d   1      -1.654   0.057  -1.036  0.00  0.00    -0.096 F 
ATOM      9  I   UNL d   1      -2.291   0.650   2.043  0.00  0.00    -0.060 I 
ATOM     10  F2  UNL d   1       0.535  -0.346   3.168  0.00  0.00    -0.096 F 
ATOM     11  F3  UNL d   1       2.718  -1.349   1.917  0.00  0.00    -0.097 F 
ATOM     12  F4  UNL d   1       2.735  -1.655  -0.794  0.00  0.00    -0.092 F 
ENDROOT
TORSDOF 0
ENDMDL
