MODEL 1
REMARK minimizedAffinity -3.52779937
REMARK minimizedRMSD -1
REMARK  0 active torsions:
REMARK  status: ('A' for Active; 'I' for Inactive)
ROOT
ATOM      1  C   UNL d   1       3.067  -0.298   0.765  0.00  0.00     0.124 A 
ATOM      2  C1  UNL d   1       2.101  -1.295   0.751  0.00  0.00     0.062 A 
ATOM      3  C2  UNL d   1       0.791  -0.995   0.388  0.00  0.00     0.162 A 
ATOM      4  C3  UNL d   1       0.439   0.308   0.035  0.00  0.00    -0.034 A 
ATOM      5  C4  UNL d   1       1.415   1.305   0.053  0.00  0.00     0.162 A 
ATOM      6  C5  UNL d   1       2.723   1.001   0.417  0.00  0.00     0.062 A 
ATOM      7  F   UNL d   1       3.655   1.965   0.430  0.00  0.00    -0.097 F 
ATOM      8  F1  UNL d   1       1.111   2.568  -0.280  0.00  0.00    -0.096 F 
ATOM      9  I   UNL d   1      -1.519   0.760  -0.508  0.00  0.00    -0.060 I 
ATOM     10  F2  UNL d   1      -0.121  -1.978   0.383  0.00  0.00    -0.096 F 
ATOM     11  F3  UNL d   1       2.431  -2.550   1.088  0.00  0.00    -0.097 F 
ATOM     12  F4  UNL d   1       4.326  -0.588   1.115  0.00  0.00    -0.092 F 
ENDROOT
TORSDOF 0
ENDMDL
