MODEL 1
REMARK minimizedAffinity -5.40837097
REMARK minimizedRMSD -1
REMARK  0 active torsions:
REMARK  status: ('A' for Active; 'I' for Inactive)
ROOT
ATOM      1  C   UNL d   1       3.182  -0.471   0.306  0.00  0.00     0.124 A 
ATOM      2  C1  UNL d   1       2.204  -1.422   0.052  0.00  0.00     0.062 A 
ATOM      3  C2  UNL d   1       0.893  -1.027  -0.198  0.00  0.00     0.162 A 
ATOM      4  C3  UNL d   1       0.552   0.326  -0.196  0.00  0.00    -0.034 A 
ATOM      5  C4  UNL d   1       1.542   1.276   0.062  0.00  0.00     0.162 A 
ATOM      6  C5  UNL d   1       2.851   0.877   0.311  0.00  0.00     0.062 A 
ATOM      7  F   UNL d   1       3.795   1.796   0.557  0.00  0.00    -0.097 F 
ATOM      8  F1  UNL d   1       1.249   2.585   0.073  0.00  0.00    -0.096 F 
ATOM      9  I   UNL d   1      -1.407   0.920  -0.569  0.00  0.00    -0.060 I 
ATOM     10  F2  UNL d   1      -0.033  -1.967  -0.441  0.00  0.00    -0.096 F 
ATOM     11  F3  UNL d   1       2.521  -2.724   0.047  0.00  0.00    -0.097 F 
ATOM     12  F4  UNL d   1       4.443  -0.854   0.547  0.00  0.00    -0.092 F 
ENDROOT
TORSDOF 0
ENDMDL
