MODEL 1
REMARK minimizedAffinity 2.12020397
REMARK minimizedRMSD -1
REMARK  0 active torsions:
REMARK  status: ('A' for Active; 'I' for Inactive)
ROOT
ATOM      1  C   UNL d   1       1.853   1.163   0.819  0.00  0.00     0.124 A 
ATOM      2  C1  UNL d   1       1.243  -0.036   1.162  0.00  0.00     0.062 A 
ATOM      3  C2  UNL d   1      -0.050  -0.312   0.728  0.00  0.00     0.162 A 
ATOM      4  C3  UNL d   1      -0.743   0.612  -0.055  0.00  0.00    -0.034 A 
ATOM      5  C4  UNL d   1      -0.123   1.816  -0.395  0.00  0.00     0.162 A 
ATOM      6  C5  UNL d   1       1.170   2.087   0.041  0.00  0.00     0.062 A 
ATOM      7  F   UNL d   1       1.757   3.246  -0.291  0.00  0.00    -0.097 F 
ATOM      8  F1  UNL d   1      -0.760   2.726  -1.146  0.00  0.00    -0.096 F 
ATOM      9  I   UNL d   1      -2.677   0.202  -0.706  0.00  0.00    -0.060 I 
ATOM     10  F2  UNL d   1      -0.615  -1.479   1.074  0.00  0.00    -0.096 F 
ATOM     11  F3  UNL d   1       1.901  -0.930   1.914  0.00  0.00    -0.097 F 
ATOM     12  F4  UNL d   1       3.097   1.427   1.238  0.00  0.00    -0.092 F 
ENDROOT
TORSDOF 0
ENDMDL
