MODEL 1
REMARK minimizedAffinity 1.79229569
REMARK minimizedRMSD -1
REMARK  0 active torsions:
REMARK  status: ('A' for Active; 'I' for Inactive)
ROOT
ATOM      1  C   UNL d   1       1.489   0.371   0.526  0.00  0.00     0.124 A 
ATOM      2  C1  UNL d   1       0.736  -0.739   0.884  0.00  0.00     0.062 A 
ATOM      3  C2  UNL d   1      -0.641  -0.746   0.678  0.00  0.00     0.162 A 
ATOM      4  C3  UNL d   1      -1.274   0.360   0.111  0.00  0.00    -0.034 A 
ATOM      5  C4  UNL d   1      -0.509   1.473  -0.246  0.00  0.00     0.162 A 
ATOM      6  C5  UNL d   1       0.866   1.475  -0.038  0.00  0.00     0.062 A 
ATOM      7  F   UNL d   1       1.592   2.548  -0.385  0.00  0.00    -0.097 F 
ATOM      8  F1  UNL d   1      -1.086   2.553  -0.793  0.00  0.00    -0.096 F 
ATOM      9  I   UNL d   1      -3.332   0.353  -0.198  0.00  0.00    -0.060 I 
ATOM     10  F2  UNL d   1      -1.344  -1.832   1.034  0.00  0.00    -0.096 F 
ATOM     11  F3  UNL d   1       1.335  -1.807   1.430  0.00  0.00    -0.097 F 
ATOM     12  F4  UNL d   1       2.813   0.375   0.725  0.00  0.00    -0.092 F 
ENDROOT
TORSDOF 0
ENDMDL
