MODEL 1
REMARK minimizedAffinity -0.824794888
REMARK minimizedRMSD -1
REMARK  0 active torsions:
REMARK  status: ('A' for Active; 'I' for Inactive)
ROOT
ATOM      1  C   UNL d   1       2.253  -0.394   0.397  0.00  0.00     0.124 A 
ATOM      2  C1  UNL d   1       1.403  -1.476   0.213  0.00  0.00     0.062 A 
ATOM      3  C2  UNL d   1       0.051  -1.268  -0.046  0.00  0.00     0.162 A 
ATOM      4  C3  UNL d   1      -0.460   0.028  -0.124  0.00  0.00    -0.034 A 
ATOM      5  C4  UNL d   1       0.401   1.111   0.063  0.00  0.00     0.162 A 
ATOM      6  C5  UNL d   1       1.752   0.898   0.321  0.00  0.00     0.062 A 
ATOM      7  F   UNL d   1       2.571   1.944   0.498  0.00  0.00    -0.097 F 
ATOM      8  F1  UNL d   1      -0.056   2.370  -0.006  0.00  0.00    -0.096 F 
ATOM      9  I   UNL d   1      -2.480   0.343  -0.511  0.00  0.00    -0.060 I 
ATOM     10  F2  UNL d   1      -0.747  -2.332  -0.219  0.00  0.00    -0.096 F 
ATOM     11  F3  UNL d   1       1.884  -2.725   0.286  0.00  0.00    -0.097 F 
ATOM     12  F4  UNL d   1       3.553  -0.597   0.646  0.00  0.00    -0.092 F 
ENDROOT
TORSDOF 0
ENDMDL
