MODEL 1
REMARK minimizedAffinity 2.87744761
REMARK minimizedRMSD -1
REMARK  1 active torsions:
REMARK  status: ('A' for Active; 'I' for Inactive)
REMARK    1  A    between atoms: C3_4  and  O_7 
ROOT
ATOM      1  C   UNL d   1      -0.832   2.913  -0.203  0.00  0.00    -0.033 A 
ATOM      2  C1  UNL d   1      -1.171   4.093   0.462  0.00  0.00     0.039 A 
ATOM      3  C2  UNL d   1      -2.313   4.804   0.087  0.00  0.00    -0.080 A 
ATOM      4  C3  UNL d   1      -3.107   4.325  -0.951  0.00  0.00     0.150 A 
ATOM      5  C4  UNL d   1      -2.777   3.148  -1.615  0.00  0.00    -0.007 A 
ATOM      6  C5  UNL d   1      -1.635   2.440  -1.241  0.00  0.00     0.039 A 
ENDROOT
BRANCH   4   7
ATOM      7  O   UNL d   1      -4.228   4.986  -1.355  0.00  0.00    -0.526 OA
ATOM      8  H5  UNL d   1      -4.315   5.796  -0.826  0.00  0.00     0.418 HD
ENDBRANCH   4   7
TORSDOF 1
ENDMDL
