MODEL 1
REMARK minimizedAffinity -2.0473702
REMARK minimizedRMSD -1
REMARK  1 active torsions:
REMARK  status: ('A' for Active; 'I' for Inactive)
REMARK    1  A    between atoms: C3_4  and  O_7 
ROOT
ATOM      1  C   UNL d   1      -0.519  -2.957   1.945  0.00  0.00    -0.033 A 
ATOM      2  C1  UNL d   1      -1.233  -2.213   1.004  0.00  0.00     0.039 A 
ATOM      3  C2  UNL d   1      -0.932  -2.330  -0.355  0.00  0.00    -0.080 A 
ATOM      4  C3  UNL d   1       0.083  -3.193  -0.758  0.00  0.00     0.150 A 
ATOM      5  C4  UNL d   1       0.796  -3.940   0.174  0.00  0.00    -0.007 A 
ATOM      6  C5  UNL d   1       0.495  -3.821   1.530  0.00  0.00     0.039 A 
ENDROOT
BRANCH   4   7
ATOM      7  O   UNL d   1       0.416  -3.337  -2.072  0.00  0.00    -0.526 OA
ATOM      8  H5  UNL d   1      -0.141  -2.738  -2.598  0.00  0.00     0.418 HD
ENDBRANCH   4   7
TORSDOF 1
ENDMDL
