MODEL 1
REMARK minimizedAffinity -2.05660534
REMARK minimizedRMSD -1
REMARK  1 active torsions:
REMARK  status: ('A' for Active; 'I' for Inactive)
REMARK    1  A    between atoms: C3_4  and  O_7 
ROOT
ATOM      1  C   UNL d   1       0.441  -3.820  -2.205  0.00  0.00    -0.033 A 
ATOM      2  C1  UNL d   1       0.054  -3.138  -1.050  0.00  0.00     0.039 A 
ATOM      3  C2  UNL d   1      -0.056  -1.746  -1.063  0.00  0.00    -0.080 A 
ATOM      4  C3  UNL d   1       0.223  -1.050  -2.236  0.00  0.00     0.150 A 
ATOM      5  C4  UNL d   1       0.605  -1.723  -3.391  0.00  0.00    -0.007 A 
ATOM      6  C5  UNL d   1       0.716  -3.113  -3.376  0.00  0.00     0.039 A 
ENDROOT
BRANCH   4   7
ATOM      7  O   UNL d   1       0.134   0.309  -2.295  0.00  0.00    -0.526 OA
ATOM      8  H5  UNL d   1      -0.113   0.640  -1.416  0.00  0.00     0.418 HD
ENDBRANCH   4   7
TORSDOF 1
ENDMDL
