MODEL 1
REMARK minimizedAffinity 0.451954603
REMARK minimizedRMSD -1
REMARK  1 active torsions:
REMARK  status: ('A' for Active; 'I' for Inactive)
REMARK    1  A    between atoms: C3_4  and  O_7 
ROOT
ATOM      1  C   UNL d   1      -0.737  -1.863  -0.393  0.00  0.00    -0.033 A 
ATOM      2  C1  UNL d   1      -0.424  -2.844   0.550  0.00  0.00     0.039 A 
ATOM      3  C2  UNL d   1      -0.651  -2.608   1.907  0.00  0.00    -0.080 A 
ATOM      4  C3  UNL d   1      -1.192  -1.390   2.308  0.00  0.00     0.150 A 
ATOM      5  C4  UNL d   1      -1.510  -0.410   1.373  0.00  0.00    -0.007 A 
ATOM      6  C5  UNL d   1      -1.282  -0.647   0.019  0.00  0.00     0.039 A 
ENDROOT
BRANCH   4   7
ATOM      7  O   UNL d   1      -1.427  -1.112   3.621  0.00  0.00    -0.526 OA
ATOM      8  H5  UNL d   1      -1.132  -1.870   4.154  0.00  0.00     0.418 HD
ENDBRANCH   4   7
TORSDOF 1
ENDMDL
