MODEL 1
REMARK minimizedAffinity -4.51700878
REMARK minimizedRMSD -1
REMARK  1 active torsions:
REMARK  status: ('A' for Active; 'I' for Inactive)
REMARK    1  A    between atoms: C3_4  and  O_7 
ROOT
ATOM      1  C   UNL d   1       0.446  -2.684  -0.886  0.00  0.00    -0.033 A 
ATOM      2  C1  UNL d   1      -0.361  -1.595  -0.551  0.00  0.00     0.039 A 
ATOM      3  C2  UNL d   1      -0.916  -1.503   0.727  0.00  0.00    -0.080 A 
ATOM      4  C3  UNL d   1      -0.657  -2.505   1.659  0.00  0.00     0.150 A 
ATOM      5  C4  UNL d   1       0.149  -3.590   1.332  0.00  0.00    -0.007 A 
ATOM      6  C5  UNL d   1       0.702  -3.681   0.056  0.00  0.00     0.039 A 
ENDROOT
BRANCH   4   7
ATOM      7  O   UNL d   1      -1.181  -2.461   2.916  0.00  0.00    -0.526 OA
ATOM      8  H5  UNL d   1      -1.740  -1.669   2.990  0.00  0.00     0.418 HD
ENDBRANCH   4   7
TORSDOF 1
ENDMDL
