MODEL 1
REMARK minimizedAffinity 6.28244877
REMARK minimizedRMSD -1
REMARK  1 active torsions:
REMARK  status: ('A' for Active; 'I' for Inactive)
REMARK    1  A    between atoms: C3_4  and  O_7 
ROOT
ATOM      1  C   UNL d   1      -1.457  -3.389   1.499  0.00  0.00    -0.033 A 
ATOM      2  C1  UNL d   1      -2.133  -3.218   0.289  0.00  0.00     0.039 A 
ATOM      3  C2  UNL d   1      -1.420  -2.922  -0.874  0.00  0.00    -0.080 A 
ATOM      4  C3  UNL d   1      -0.035  -2.800  -0.815  0.00  0.00     0.150 A 
ATOM      5  C4  UNL d   1       0.645  -2.973   0.386  0.00  0.00    -0.007 A 
ATOM      6  C5  UNL d   1      -0.068  -3.268   1.547  0.00  0.00     0.039 A 
ENDROOT
BRANCH   4   7
ATOM      7  O   UNL d   1       0.703  -2.507  -1.923  0.00  0.00    -0.526 OA
ATOM      8  H5  UNL d   1       0.097  -2.387  -2.673  0.00  0.00     0.418 HD
ENDBRANCH   4   7
TORSDOF 1
ENDMDL
