MODEL 1
REMARK minimizedAffinity 0.0157409832
REMARK minimizedRMSD -1
REMARK  1 active torsions:
REMARK  status: ('A' for Active; 'I' for Inactive)
REMARK    1  A    between atoms: C3_4  and  O_7 
ROOT
ATOM      1  C   UNL d   1       0.172  -3.708   0.374  0.00  0.00    -0.033 A 
ATOM      2  C1  UNL d   1      -0.041  -2.332   0.275  0.00  0.00     0.039 A 
ATOM      3  C2  UNL d   1       0.070  -1.694  -0.962  0.00  0.00    -0.080 A 
ATOM      4  C3  UNL d   1       0.393  -2.443  -2.091  0.00  0.00     0.150 A 
ATOM      5  C4  UNL d   1       0.603  -3.815  -2.000  0.00  0.00    -0.007 A 
ATOM      6  C5  UNL d   1       0.492  -4.450  -0.763  0.00  0.00     0.039 A 
ENDROOT
BRANCH   4   7
ATOM      7  O   UNL d   1       0.518  -1.864  -3.319  0.00  0.00    -0.526 OA
ATOM      8  H5  UNL d   1       0.374  -0.908  -3.224  0.00  0.00     0.418 HD
ENDBRANCH   4   7
TORSDOF 1
ENDMDL
