MODEL 1
REMARK minimizedAffinity 3.0535872
REMARK minimizedRMSD -1
REMARK  1 active torsions:
REMARK  status: ('A' for Active; 'I' for Inactive)
REMARK    1  A    between atoms: C3_4  and  O_7 
ROOT
ATOM      1  C   UNL d   1       0.135  -1.855  -0.658  0.00  0.00    -0.033 A 
ATOM      2  C1  UNL d   1      -0.300  -2.961  -1.392  0.00  0.00     0.039 A 
ATOM      3  C2  UNL d   1      -0.317  -2.912  -2.787  0.00  0.00    -0.080 A 
ATOM      4  C3  UNL d   1       0.104  -1.753  -3.435  0.00  0.00     0.150 A 
ATOM      5  C4  UNL d   1       0.542  -0.650  -2.711  0.00  0.00    -0.007 A 
ATOM      6  C5  UNL d   1       0.557  -0.701  -1.317  0.00  0.00     0.039 A 
ENDROOT
BRANCH   4   7
ATOM      7  O   UNL d   1       0.100  -1.657  -4.795  0.00  0.00    -0.526 OA
ATOM      8  H5  UNL d   1      -0.254  -2.484  -5.162  0.00  0.00     0.418 HD
ENDBRANCH   4   7
TORSDOF 1
ENDMDL
