MODEL 1
REMARK minimizedAffinity 2.62796259
REMARK minimizedRMSD -1
REMARK  1 active torsions:
REMARK  status: ('A' for Active; 'I' for Inactive)
REMARK    1  A    between atoms: C3_4  and  O_7 
ROOT
ATOM      1  C   UNL d   1      -0.265  -2.880   0.005  0.00  0.00    -0.033 A 
ATOM      2  C1  UNL d   1       0.237  -2.153  -1.076  0.00  0.00     0.039 A 
ATOM      3  C2  UNL d   1      -0.113  -0.811  -1.240  0.00  0.00    -0.080 A 
ATOM      4  C3  UNL d   1      -0.964  -0.210  -0.317  0.00  0.00     0.150 A 
ATOM      5  C4  UNL d   1      -1.464  -0.927   0.764  0.00  0.00    -0.007 A 
ATOM      6  C5  UNL d   1      -1.114  -2.267   0.926  0.00  0.00     0.039 A 
ENDROOT
BRANCH   4   7
ATOM      7  O   UNL d   1      -1.338   1.096  -0.438  0.00  0.00    -0.526 OA
ATOM      8  H5  UNL d   1      -0.938   1.456  -1.247  0.00  0.00     0.418 HD
ENDBRANCH   4   7
TORSDOF 1
ENDMDL
