MODEL 1
REMARK minimizedAffinity 1.98806047
REMARK minimizedRMSD -1
REMARK  1 active torsions:
REMARK  status: ('A' for Active; 'I' for Inactive)
REMARK    1  A    between atoms: C3_4  and  O_7 
ROOT
ATOM      1  C   UNL d   1      -0.171  -3.503  -1.795  0.00  0.00    -0.033 A 
ATOM      2  C1  UNL d   1       0.412  -2.707  -2.783  0.00  0.00     0.039 A 
ATOM      3  C2  UNL d   1       0.819  -1.406  -2.484  0.00  0.00    -0.080 A 
ATOM      4  C3  UNL d   1       0.638  -0.913  -1.194  0.00  0.00     0.150 A 
ATOM      5  C4  UNL d   1       0.062  -1.702  -0.204  0.00  0.00    -0.007 A 
ATOM      6  C5  UNL d   1      -0.345  -3.001  -0.505  0.00  0.00     0.039 A 
ENDROOT
BRANCH   4   7
ATOM      7  O   UNL d   1       1.014   0.353  -0.856  0.00  0.00    -0.526 OA
ATOM      8  H5  UNL d   1       1.371   0.790  -1.647  0.00  0.00     0.418 HD
ENDBRANCH   4   7
TORSDOF 1
ENDMDL
