MODEL 1
REMARK minimizedAffinity 3.61174369
REMARK minimizedRMSD -1
REMARK  1 active torsions:
REMARK  status: ('A' for Active; 'I' for Inactive)
REMARK    1  A    between atoms: C3_4  and  O_7 
ROOT
ATOM      1  C   UNL d   1      -2.927   5.514   0.230  0.00  0.00    -0.033 A 
ATOM      2  C1  UNL d   1      -3.712   4.975  -0.791  0.00  0.00     0.039 A 
ATOM      3  C2  UNL d   1      -3.687   3.601  -1.042  0.00  0.00    -0.080 A 
ATOM      4  C3  UNL d   1      -2.876   2.780  -0.264  0.00  0.00     0.150 A 
ATOM      5  C4  UNL d   1      -2.095   3.310   0.758  0.00  0.00    -0.007 A 
ATOM      6  C5  UNL d   1      -2.120   4.682   1.006  0.00  0.00     0.039 A 
ENDROOT
BRANCH   4   7
ATOM      7  O   UNL d   1      -2.815   1.434  -0.474  0.00  0.00    -0.526 OA
ATOM      8  H5  UNL d   1      -3.385   1.214  -1.229  0.00  0.00     0.418 HD
ENDBRANCH   4   7
TORSDOF 1
ENDMDL
