MODEL 1
REMARK minimizedAffinity 5.22411966
REMARK minimizedRMSD -1
REMARK  1 active torsions:
REMARK  status: ('A' for Active; 'I' for Inactive)
REMARK    1  A    between atoms: C3_4  and  O_7 
ROOT
ATOM      1  C   UNL d   1       2.868   1.285  -0.042  0.00  0.00    -0.033 A 
ATOM      2  C1  UNL d   1       3.154  -0.069   0.143  0.00  0.00     0.039 A 
ATOM      3  C2  UNL d   1       2.412  -1.040  -0.532  0.00  0.00    -0.080 A 
ATOM      4  C3  UNL d   1       1.390  -0.645  -1.390  0.00  0.00     0.150 A 
ATOM      5  C4  UNL d   1       1.102   0.702  -1.583  0.00  0.00    -0.007 A 
ATOM      6  C5  UNL d   1       1.842   1.671  -0.906  0.00  0.00     0.039 A 
ENDROOT
BRANCH   4   7
ATOM      7  O   UNL d   1       0.636  -1.556  -2.067  0.00  0.00    -0.526 OA
ATOM      8  H5  UNL d   1       0.929  -2.447  -1.814  0.00  0.00     0.418 HD
ENDBRANCH   4   7
TORSDOF 1
ENDMDL
