MODEL 1
REMARK minimizedAffinity 2.65049052
REMARK minimizedRMSD -1
REMARK  1 active torsions:
REMARK  status: ('A' for Active; 'I' for Inactive)
REMARK    1  A    between atoms: C3_4  and  O_7 
ROOT
ATOM      1  C   UNL d   1       3.034   0.839  -0.268  0.00  0.00    -0.033 A 
ATOM      2  C1  UNL d   1       3.628  -0.307  -0.801  0.00  0.00     0.039 A 
ATOM      3  C2  UNL d   1       2.979  -1.028  -1.806  0.00  0.00    -0.080 A 
ATOM      4  C3  UNL d   1       1.740  -0.593  -2.268  0.00  0.00     0.150 A 
ATOM      5  C4  UNL d   1       1.145   0.550  -1.744  0.00  0.00    -0.007 A 
ATOM      6  C5  UNL d   1       1.793   1.268  -0.740  0.00  0.00     0.039 A 
ENDROOT
BRANCH   4   7
ATOM      7  O   UNL d   1       1.066  -1.267  -3.243  0.00  0.00    -0.526 OA
ATOM      8  H5  UNL d   1       1.585  -2.051  -3.489  0.00  0.00     0.418 HD
ENDBRANCH   4   7
TORSDOF 1
ENDMDL
