MODEL 1
REMARK minimizedAffinity -0.630040348
REMARK minimizedRMSD -1
REMARK  1 active torsions:
REMARK  status: ('A' for Active; 'I' for Inactive)
REMARK    1  A    between atoms: C3_4  and  O_7 
ROOT
ATOM      1  C   UNL d   1      -1.164  -3.878   0.799  0.00  0.00    -0.033 A 
ATOM      2  C1  UNL d   1      -0.587  -2.851   1.549  0.00  0.00     0.039 A 
ATOM      3  C2  UNL d   1      -0.904  -1.520   1.274  0.00  0.00    -0.080 A 
ATOM      4  C3  UNL d   1      -1.799  -1.228   0.249  0.00  0.00     0.150 A 
ATOM      5  C4  UNL d   1      -2.381  -2.246  -0.500  0.00  0.00    -0.007 A 
ATOM      6  C5  UNL d   1      -2.062  -3.575  -0.225  0.00  0.00     0.039 A 
ENDROOT
BRANCH   4   7
ATOM      7  O   UNL d   1      -2.135   0.056  -0.060  0.00  0.00    -0.526 OA
ATOM      8  H5  UNL d   1      -1.634   0.654   0.521  0.00  0.00     0.418 HD
ENDBRANCH   4   7
TORSDOF 1
ENDMDL
