MODEL 1
REMARK minimizedAffinity 11.5465832
REMARK minimizedRMSD -1
REMARK  1 active torsions:
REMARK  status: ('A' for Active; 'I' for Inactive)
REMARK    1  A    between atoms: C3_4  and  O_7 
ROOT
ATOM      1  C   UNL d   1       1.705   0.785  -1.287  0.00  0.00    -0.033 A 
ATOM      2  C1  UNL d   1       2.837   1.241  -0.609  0.00  0.00     0.039 A 
ATOM      3  C2  UNL d   1       3.676   0.334   0.042  0.00  0.00    -0.080 A 
ATOM      4  C3  UNL d   1       3.372  -1.024   0.006  0.00  0.00     0.150 A 
ATOM      5  C4  UNL d   1       2.248  -1.486  -0.672  0.00  0.00    -0.007 A 
ATOM      6  C5  UNL d   1       1.412  -0.578  -1.320  0.00  0.00     0.039 A 
ENDROOT
BRANCH   4   7
ATOM      7  O   UNL d   1       4.158  -1.947   0.630  0.00  0.00    -0.526 OA
ATOM      8  H5  UNL d   1       4.882  -1.480   1.080  0.00  0.00     0.418 HD
ENDBRANCH   4   7
TORSDOF 1
ENDMDL
