MODEL 1
REMARK minimizedAffinity -2.32910967
REMARK minimizedRMSD -1
REMARK  1 active torsions:
REMARK  status: ('A' for Active; 'I' for Inactive)
REMARK    1  A    between atoms: C3_4  and  O_7 
ROOT
ATOM      1  C   UNL d   1      -2.655   4.942   1.074  0.00  0.00    -0.033 A 
ATOM      2  C1  UNL d   1      -3.365   5.999   0.501  0.00  0.00     0.039 A 
ATOM      3  C2  UNL d   1      -3.633   6.000  -0.869  0.00  0.00    -0.080 A 
ATOM      4  C3  UNL d   1      -3.187   4.940  -1.654  0.00  0.00     0.150 A 
ATOM      5  C4  UNL d   1      -2.482   3.882  -1.089  0.00  0.00    -0.007 A 
ATOM      6  C5  UNL d   1      -2.214   3.883   0.280  0.00  0.00     0.039 A 
ENDROOT
BRANCH   4   7
ATOM      7  O   UNL d   1      -3.421   4.899  -2.996  0.00  0.00    -0.526 OA
ATOM      8  H5  UNL d   1      -3.893   5.710  -3.251  0.00  0.00     0.418 HD
ENDBRANCH   4   7
TORSDOF 1
ENDMDL
