MODEL 1
REMARK minimizedAffinity -3.13678169
REMARK minimizedRMSD -1
REMARK  0 active torsions:
REMARK  status: ('A' for Active; 'I' for Inactive)
ROOT
ATOM      1  C   UNL d   1      -5.641   5.845   2.227  0.00  0.00     0.078 C 
ATOM      2  C1  UNL d   1      -5.733   5.115   3.534  0.00  0.00    -0.077 A 
ATOM      3  C2  UNL d   1      -5.663   3.718   3.586  0.00  0.00    -0.001 A 
ATOM      4  C3  UNL d   1      -5.760   3.051   4.808  0.00  0.00     0.003 A 
ATOM      5  C4  UNL d   1      -5.927   3.774   5.988  0.00  0.00    -0.005 A 
ATOM      6  C5  UNL d   1      -6.000   5.165   5.946  0.00  0.00     0.003 A 
ATOM      7  C6  UNL d   1      -5.904   5.833   4.724  0.00  0.00    -0.001 A 
ENDROOT
TORSDOF 0
ENDMDL
