MODEL 1
REMARK minimizedAffinity -1.92367291
REMARK minimizedRMSD -1
REMARK  0 active torsions:
REMARK  status: ('A' for Active; 'I' for Inactive)
ROOT
ATOM      1  C   UNL d   1      -5.951   4.872   2.359  0.00  0.00     0.078 C 
ATOM      2  C1  UNL d   1      -5.529   4.155   3.607  0.00  0.00    -0.077 A 
ATOM      3  C2  UNL d   1      -5.171   2.802   3.575  0.00  0.00    -0.001 A 
ATOM      4  C3  UNL d   1      -4.789   2.145   4.746  0.00  0.00     0.003 A 
ATOM      5  C4  UNL d   1      -4.764   2.833   5.958  0.00  0.00    -0.005 A 
ATOM      6  C5  UNL d   1      -5.121   4.179   5.999  0.00  0.00     0.003 A 
ATOM      7  C6  UNL d   1      -5.503   4.837   4.829  0.00  0.00    -0.001 A 
ENDROOT
TORSDOF 0
ENDMDL
