MODEL 1
REMARK minimizedAffinity 3.13288069
REMARK minimizedRMSD -1
REMARK  0 active torsions:
REMARK  status: ('A' for Active; 'I' for Inactive)
ROOT
ATOM      1  C   UNL d   1      -5.999   5.947   4.889  0.00  0.00     0.078 C 
ATOM      2  C1  UNL d   1      -5.639   5.168   3.659  0.00  0.00    -0.077 A 
ATOM      3  C2  UNL d   1      -5.981   5.636   2.384  0.00  0.00    -0.001 A 
ATOM      4  C3  UNL d   1      -5.649   4.896   1.248  0.00  0.00     0.003 A 
ATOM      5  C4  UNL d   1      -4.974   3.683   1.376  0.00  0.00    -0.005 A 
ATOM      6  C5  UNL d   1      -4.631   3.209   2.641  0.00  0.00     0.003 A 
ATOM      7  C6  UNL d   1      -4.963   3.948   3.777  0.00  0.00    -0.001 A 
ENDROOT
TORSDOF 0
ENDMDL
