MODEL 1
REMARK minimizedAffinity -2.52304387
REMARK minimizedRMSD -1
REMARK  0 active torsions:
REMARK  status: ('A' for Active; 'I' for Inactive)
ROOT
ATOM      1  C   UNL d   1      -4.852   4.001   2.243  0.00  0.00     0.078 C 
ATOM      2  C1  UNL d   1      -4.368   3.454   3.552  0.00  0.00    -0.077 A 
ATOM      3  C2  UNL d   1      -2.999   3.376   3.840  0.00  0.00    -0.001 A 
ATOM      4  C3  UNL d   1      -2.563   2.856   5.059  0.00  0.00     0.003 A 
ATOM      5  C4  UNL d   1      -3.488   2.407   6.000  0.00  0.00    -0.005 A 
ATOM      6  C5  UNL d   1      -4.851   2.479   5.722  0.00  0.00     0.003 A 
ATOM      7  C6  UNL d   1      -5.290   2.999   4.503  0.00  0.00    -0.001 A 
ENDROOT
TORSDOF 0
ENDMDL
