MODEL 1
REMARK minimizedAffinity -2.51127791
REMARK minimizedRMSD -1
REMARK  0 active torsions:
REMARK  status: ('A' for Active; 'I' for Inactive)
ROOT
ATOM      1  C   UNL d   1      -5.880   4.193   5.799  0.00  0.00     0.078 C 
ATOM      2  C1  UNL d   1      -5.903   4.443   4.320  0.00  0.00    -0.077 A 
ATOM      3  C2  UNL d   1      -5.990   3.382   3.411  0.00  0.00    -0.001 A 
ATOM      4  C3  UNL d   1      -6.000   3.629   2.037  0.00  0.00     0.003 A 
ATOM      5  C4  UNL d   1      -5.922   4.937   1.560  0.00  0.00    -0.005 A 
ATOM      6  C5  UNL d   1      -5.832   5.999   2.458  0.00  0.00     0.003 A 
ATOM      7  C6  UNL d   1      -5.822   5.754   3.832  0.00  0.00    -0.001 A 
ENDROOT
TORSDOF 0
ENDMDL
