MODEL 1
REMARK minimizedAffinity -2.69239116
REMARK minimizedRMSD -1
REMARK  0 active torsions:
REMARK  status: ('A' for Active; 'I' for Inactive)
ROOT
ATOM      1  C   UNL d   1      -4.874   4.870   5.618  0.00  0.00     0.078 C 
ATOM      2  C1  UNL d   1      -5.138   4.860   4.142  0.00  0.00    -0.077 A 
ATOM      3  C2  UNL d   1      -5.645   3.719   3.508  0.00  0.00    -0.001 A 
ATOM      4  C3  UNL d   1      -5.877   3.721   2.131  0.00  0.00     0.003 A 
ATOM      5  C4  UNL d   1      -5.604   4.860   1.377  0.00  0.00    -0.005 A 
ATOM      6  C5  UNL d   1      -5.098   6.000   1.999  0.00  0.00     0.003 A 
ATOM      7  C6  UNL d   1      -4.865   6.000   3.376  0.00  0.00    -0.001 A 
ENDROOT
TORSDOF 0
ENDMDL
