MODEL 1
REMARK minimizedAffinity -2.74841166
REMARK minimizedRMSD -1
REMARK  0 active torsions:
REMARK  status: ('A' for Active; 'I' for Inactive)
ROOT
ATOM      1  C   UNL d   1      -5.542   3.617   5.966  0.00  0.00     0.078 C 
ATOM      2  C1  UNL d   1      -5.492   4.198   4.585  0.00  0.00    -0.077 A 
ATOM      3  C2  UNL d   1      -6.000   5.475   4.321  0.00  0.00    -0.001 A 
ATOM      4  C3  UNL d   1      -5.955   5.999   3.028  0.00  0.00     0.003 A 
ATOM      5  C4  UNL d   1      -5.404   5.252   1.988  0.00  0.00    -0.005 A 
ATOM      6  C5  UNL d   1      -4.898   3.979   2.241  0.00  0.00     0.003 A 
ATOM      7  C6  UNL d   1      -4.942   3.453   3.533  0.00  0.00    -0.001 A 
ENDROOT
TORSDOF 0
ENDMDL
