MODEL 1
REMARK minimizedAffinity -3.2153852
REMARK minimizedRMSD -1
REMARK  0 active torsions:
REMARK  status: ('A' for Active; 'I' for Inactive)
ROOT
ATOM      1  C   UNL d   1      -4.872   3.185   6.000  0.00  0.00     0.078 C 
ATOM      2  C1  UNL d   1      -5.000   3.966   4.726  0.00  0.00    -0.077 A 
ATOM      3  C2  UNL d   1      -4.530   5.282   4.636  0.00  0.00    -0.001 A 
ATOM      4  C3  UNL d   1      -4.665   6.000   3.447  0.00  0.00     0.003 A 
ATOM      5  C4  UNL d   1      -5.271   5.411   2.339  0.00  0.00    -0.005 A 
ATOM      6  C5  UNL d   1      -5.744   4.103   2.419  0.00  0.00     0.003 A 
ATOM      7  C6  UNL d   1      -5.610   3.383   3.608  0.00  0.00    -0.001 A 
ENDROOT
TORSDOF 0
ENDMDL
