MODEL 1
REMARK minimizedAffinity -2.888381
REMARK minimizedRMSD -1
REMARK  0 active torsions:
REMARK  status: ('A' for Active; 'I' for Inactive)
ROOT
ATOM      1  C   UNL d   1      -5.200   3.064   5.790  0.00  0.00     0.078 C 
ATOM      2  C1  UNL d   1      -5.385   3.892   4.554  0.00  0.00    -0.077 A 
ATOM      3  C2  UNL d   1      -5.102   3.369   3.286  0.00  0.00    -0.001 A 
ATOM      4  C3  UNL d   1      -5.269   4.156   2.145  0.00  0.00     0.003 A 
ATOM      5  C4  UNL d   1      -5.718   5.470   2.260  0.00  0.00    -0.005 A 
ATOM      6  C5  UNL d   1      -6.000   6.000   3.518  0.00  0.00     0.003 A 
ATOM      7  C6  UNL d   1      -5.833   5.215   4.660  0.00  0.00    -0.001 A 
ENDROOT
TORSDOF 0
ENDMDL
