MODEL 1
REMARK minimizedAffinity 4.36379528
REMARK minimizedRMSD -1
REMARK  0 active torsions:
REMARK  status: ('A' for Active; 'I' for Inactive)
ROOT
ATOM      1  C   UNL d   1       0.166   0.064  -1.663  0.00  0.00     0.078 C 
ATOM      2  C1  UNL d   1      -0.643  -0.299  -0.454  0.00  0.00    -0.077 A 
ATOM      3  C2  UNL d   1      -0.568   0.461   0.720  0.00  0.00    -0.001 A 
ATOM      4  C3  UNL d   1      -1.320   0.105   1.841  0.00  0.00     0.003 A 
ATOM      5  C4  UNL d   1      -2.150  -1.013   1.800  0.00  0.00    -0.005 A 
ATOM      6  C5  UNL d   1      -2.229  -1.777   0.638  0.00  0.00     0.003 A 
ATOM      7  C6  UNL d   1      -1.479  -1.423  -0.484  0.00  0.00    -0.001 A 
ENDROOT
TORSDOF 0
ENDMDL
