MODEL 1
REMARK minimizedAffinity -1.53217435
REMARK minimizedRMSD -1
REMARK  0 active torsions:
REMARK  status: ('A' for Active; 'I' for Inactive)
ROOT
ATOM      1  C   UNL d   1      -5.611   1.362   5.994  0.00  0.00     0.078 C 
ATOM      2  C1  UNL d   1      -5.731   2.671   5.272  0.00  0.00    -0.077 A 
ATOM      3  C2  UNL d   1      -5.675   2.733   3.875  0.00  0.00    -0.001 A 
ATOM      4  C3  UNL d   1      -5.779   3.959   3.217  0.00  0.00     0.003 A 
ATOM      5  C4  UNL d   1      -5.939   5.134   3.949  0.00  0.00    -0.005 A 
ATOM      6  C5  UNL d   1      -5.994   5.084   5.340  0.00  0.00     0.003 A 
ATOM      7  C6  UNL d   1      -5.890   3.858   6.000  0.00  0.00    -0.001 A 
ENDROOT
TORSDOF 0
ENDMDL
