MODEL 1
REMARK minimizedAffinity -0.103029616
REMARK minimizedRMSD -1
REMARK  0 active torsions:
REMARK  status: ('A' for Active; 'I' for Inactive)
ROOT
ATOM      1  C   UNL d   1      -5.985   5.786   0.396  0.00  0.00     0.078 C 
ATOM      2  C1  UNL d   1      -5.620   5.291   1.764  0.00  0.00    -0.077 A 
ATOM      3  C2  UNL d   1      -5.994   6.000   2.912  0.00  0.00    -0.001 A 
ATOM      4  C3  UNL d   1      -5.638   5.532   4.178  0.00  0.00     0.003 A 
ATOM      5  C4  UNL d   1      -4.906   4.354   4.308  0.00  0.00    -0.005 A 
ATOM      6  C5  UNL d   1      -4.527   3.642   3.171  0.00  0.00     0.003 A 
ATOM      7  C6  UNL d   1      -4.882   4.109   1.904  0.00  0.00    -0.001 A 
ENDROOT
TORSDOF 0
ENDMDL
