MODEL 1
REMARK minimizedAffinity -2.51491809
REMARK minimizedRMSD -1
REMARK  0 active torsions:
REMARK  status: ('A' for Active; 'I' for Inactive)
ROOT
ATOM      1  C   UNL d   1      -4.158   2.281   6.000  0.00  0.00     0.078 C 
ATOM      2  C1  UNL d   1      -4.404   3.572   5.278  0.00  0.00    -0.077 A 
ATOM      3  C2  UNL d   1      -4.884   3.583   3.962  0.00  0.00    -0.001 A 
ATOM      4  C3  UNL d   1      -5.099   4.792   3.299  0.00  0.00     0.003 A 
ATOM      5  C4  UNL d   1      -4.838   6.000   3.943  0.00  0.00    -0.005 A 
ATOM      6  C5  UNL d   1      -4.359   5.999   5.252  0.00  0.00     0.003 A 
ATOM      7  C6  UNL d   1      -4.142   4.791   5.916  0.00  0.00    -0.001 A 
ENDROOT
TORSDOF 0
ENDMDL
