MODEL 1
REMARK minimizedAffinity -3.11100316
REMARK minimizedRMSD -1
REMARK  0 active torsions:
REMARK  status: ('A' for Active; 'I' for Inactive)
ROOT
ATOM      1  C   UNL d   1      -4.713   5.650   1.884  0.00  0.00     0.078 C 
ATOM      2  C1  UNL d   1      -4.912   5.253   3.317  0.00  0.00    -0.077 A 
ATOM      3  C2  UNL d   1      -5.740   6.000   4.163  0.00  0.00    -0.001 A 
ATOM      4  C3  UNL d   1      -5.908   5.624   5.497  0.00  0.00     0.003 A 
ATOM      5  C4  UNL d   1      -5.250   4.503   5.996  0.00  0.00    -0.005 A 
ATOM      6  C5  UNL d   1      -4.421   3.755   5.162  0.00  0.00     0.003 A 
ATOM      7  C6  UNL d   1      -4.252   4.129   3.828  0.00  0.00    -0.001 A 
ENDROOT
TORSDOF 0
ENDMDL
