MODEL 1
REMARK minimizedAffinity -2.90241265
REMARK minimizedRMSD -1
REMARK  0 active torsions:
REMARK  status: ('A' for Active; 'I' for Inactive)
ROOT
ATOM      1  C   UNL d   1      -4.877   2.121   5.093  0.00  0.00     0.078 C 
ATOM      2  C1  UNL d   1      -5.108   3.475   4.491  0.00  0.00    -0.077 A 
ATOM      3  C2  UNL d   1      -5.782   4.475   5.202  0.00  0.00    -0.001 A 
ATOM      4  C3  UNL d   1      -5.998   5.728   4.625  0.00  0.00     0.003 A 
ATOM      5  C4  UNL d   1      -5.544   5.991   3.334  0.00  0.00    -0.005 A 
ATOM      6  C5  UNL d   1      -4.875   5.001   2.618  0.00  0.00     0.003 A 
ATOM      7  C6  UNL d   1      -4.657   3.748   3.193  0.00  0.00    -0.001 A 
ENDROOT
TORSDOF 0
ENDMDL
