MODEL 1
REMARK minimizedAffinity -1.56504893
REMARK minimizedRMSD -1
REMARK  0 active torsions:
REMARK  status: ('A' for Active; 'I' for Inactive)
ROOT
ATOM      1  C   UNL d   1      -5.634   5.526   1.905  0.00  0.00     0.078 C 
ATOM      2  C1  UNL d   1      -5.652   5.073   3.334  0.00  0.00    -0.077 A 
ATOM      3  C2  UNL d   1      -5.996   5.954   4.366  0.00  0.00    -0.001 A 
ATOM      4  C3  UNL d   1      -6.000   5.521   5.693  0.00  0.00     0.003 A 
ATOM      5  C4  UNL d   1      -5.659   4.205   6.000  0.00  0.00    -0.005 A 
ATOM      6  C5  UNL d   1      -5.313   3.321   4.980  0.00  0.00     0.003 A 
ATOM      7  C6  UNL d   1      -5.309   3.753   3.653  0.00  0.00    -0.001 A 
ENDROOT
TORSDOF 0
ENDMDL
