MODEL 1
REMARK minimizedAffinity -2.70543671
REMARK minimizedRMSD -1
REMARK  0 active torsions:
REMARK  status: ('A' for Active; 'I' for Inactive)
ROOT
ATOM      1  C   UNL d   1      -5.258   5.764   2.036  0.00  0.00     0.078 C 
ATOM      2  C1  UNL d   1      -5.387   5.191   3.415  0.00  0.00    -0.077 A 
ATOM      3  C2  UNL d   1      -5.086   3.847   3.669  0.00  0.00    -0.001 A 
ATOM      4  C3  UNL d   1      -5.220   3.324   4.956  0.00  0.00     0.003 A 
ATOM      5  C4  UNL d   1      -5.657   4.137   6.000  0.00  0.00    -0.005 A 
ATOM      6  C5  UNL d   1      -5.961   5.475   5.757  0.00  0.00     0.003 A 
ATOM      7  C6  UNL d   1      -5.827   6.000   4.470  0.00  0.00    -0.001 A 
ENDROOT
TORSDOF 0
ENDMDL
