MODEL 1
REMARK minimizedAffinity 7.25132561
REMARK minimizedRMSD -1
REMARK  1 active torsions:
REMARK  status: ('A' for Active; 'I' for Inactive)
REMARK    1  A    between atoms: C1_2  and  C2_3 
ROOT
ATOM      1  C2  UNL d   1      -2.974  -3.033   4.707  0.00  0.00    -0.073 A 
ATOM      2  C3  UNL d   1      -3.663  -2.009   5.367  0.00  0.00    -0.002 A 
ATOM      3  C4  UNL d   1      -4.884  -2.270   5.992  0.00  0.00     0.004 A 
ATOM      4  C5  UNL d   1      -5.423  -3.556   5.970  0.00  0.00    -0.004 A 
ATOM      5  C6  UNL d   1      -4.743  -4.595   5.326  0.00  0.00    -0.075 A 
ATOM      6  C7  UNL d   1      -5.311  -5.984   5.292  0.00  0.00     0.076 C 
ATOM      7  C8  UNL d   1      -3.520  -4.325   4.699  0.00  0.00     0.001 A 
ENDROOT
BRANCH   1   8
ATOM      8  C1  UNL d   1      -1.653  -2.758   4.037  0.00  0.00     0.053 C 
ATOM      9  C   UNL d   1      -0.624  -3.835   4.341  0.00  0.00     0.018 C 
ENDBRANCH   1   8
TORSDOF 1
ENDMDL
