MODEL 1
REMARK minimizedAffinity 1.79197526
REMARK minimizedRMSD -1
REMARK  1 active torsions:
REMARK  status: ('A' for Active; 'I' for Inactive)
REMARK    1  A    between atoms: C1_2  and  C2_3 
ROOT
ATOM      1  C2  UNL d   1      -1.722   1.774   1.435  0.00  0.00    -0.073 A 
ATOM      2  C3  UNL d   1      -1.363   0.436   1.237  0.00  0.00    -0.002 A 
ATOM      3  C4  UNL d   1      -0.503  -0.203   2.131  0.00  0.00     0.004 A 
ATOM      4  C5  UNL d   1      -0.001   0.486   3.236  0.00  0.00    -0.004 A 
ATOM      5  C6  UNL d   1      -0.358   1.820   3.457  0.00  0.00    -0.075 A 
ATOM      6  C7  UNL d   1       0.175   2.575   4.639  0.00  0.00     0.076 C 
ATOM      7  C8  UNL d   1      -1.219   2.455   2.553  0.00  0.00     0.001 A 
ENDROOT
BRANCH   1   8
ATOM      8  C1  UNL d   1      -2.655   2.467   0.475  0.00  0.00     0.053 C 
ATOM      9  C   UNL d   1      -2.137   2.423  -0.954  0.00  0.00     0.018 C 
ENDBRANCH   1   8
TORSDOF 1
ENDMDL
