MODEL 1
REMARK minimizedAffinity 11.03158
REMARK minimizedRMSD -1
REMARK  1 active torsions:
REMARK  status: ('A' for Active; 'I' for Inactive)
REMARK    1  A    between atoms: C1_2  and  C2_3 
ROOT
ATOM      1  C2  UNL d   1      -1.851  -0.541   2.895  0.00  0.00    -0.073 A 
ATOM      2  C3  UNL d   1      -0.458  -0.490   2.771  0.00  0.00    -0.002 A 
ATOM      3  C4  UNL d   1       0.151   0.574   2.104  0.00  0.00     0.004 A 
ATOM      4  C5  UNL d   1      -0.623   1.599   1.562  0.00  0.00    -0.004 A 
ATOM      5  C6  UNL d   1      -2.016   1.572   1.686  0.00  0.00    -0.075 A 
ATOM      6  C7  UNL d   1      -2.864   2.666   1.107  0.00  0.00     0.076 C 
ATOM      7  C8  UNL d   1      -2.621   0.499   2.355  0.00  0.00     0.001 A 
ENDROOT
BRANCH   1   8
ATOM      8  C1  UNL d   1      -2.514  -1.684   3.620  0.00  0.00     0.053 C 
ATOM      9  C   UNL d   1      -1.514  -2.752   4.033  0.00  0.00     0.018 C 
ENDBRANCH   1   8
TORSDOF 1
ENDMDL
