MODEL 1
REMARK minimizedAffinity 4.41324139
REMARK minimizedRMSD -1
REMARK  1 active torsions:
REMARK  status: ('A' for Active; 'I' for Inactive)
REMARK    1  A    between atoms: C1_2  and  C2_3 
ROOT
ATOM      1  C2  UNL d   1      -0.548   2.079   0.610  0.00  0.00    -0.073 A 
ATOM      2  C3  UNL d   1      -0.350   3.005  -0.421  0.00  0.00    -0.002 A 
ATOM      3  C4  UNL d   1       0.490   2.698  -1.492  0.00  0.00     0.004 A 
ATOM      4  C5  UNL d   1       1.133   1.462  -1.548  0.00  0.00    -0.004 A 
ATOM      5  C6  UNL d   1       0.938   0.519  -0.535  0.00  0.00    -0.075 A 
ATOM      6  C7  UNL d   1       1.625  -0.815  -0.579  0.00  0.00     0.076 C 
ATOM      7  C8  UNL d   1       0.096   0.835   0.540  0.00  0.00     0.001 A 
ENDROOT
BRANCH   1   8
ATOM      8  C1  UNL d   1      -1.459   2.403   1.765  0.00  0.00     0.053 C 
ATOM      9  C   UNL d   1      -2.892   2.638   1.314  0.00  0.00     0.018 C 
ENDBRANCH   1   8
TORSDOF 1
ENDMDL
