MODEL 1
REMARK minimizedAffinity 11.5859194
REMARK minimizedRMSD -1
REMARK  1 active torsions:
REMARK  status: ('A' for Active; 'I' for Inactive)
REMARK    1  A    between atoms: C1_2  and  C2_3 
ROOT
ATOM      1  C2  UNL d   1      -0.816   2.192  -0.290  0.00  0.00    -0.073 A 
ATOM      2  C3  UNL d   1      -2.205   2.073  -0.408  0.00  0.00    -0.002 A 
ATOM      3  C4  UNL d   1      -3.018   2.154   0.724  0.00  0.00     0.004 A 
ATOM      4  C5  UNL d   1      -2.452   2.363   1.981  0.00  0.00    -0.004 A 
ATOM      5  C6  UNL d   1      -1.067   2.496   2.118  0.00  0.00    -0.075 A 
ATOM      6  C7  UNL d   1      -0.442   2.718   3.464  0.00  0.00     0.076 C 
ATOM      7  C8  UNL d   1      -0.257   2.410   0.977  0.00  0.00     0.001 A 
ENDROOT
BRANCH   1   8
ATOM      8  C1  UNL d   1       0.066   2.111  -1.509  0.00  0.00     0.053 C 
ATOM      9  C   UNL d   1       0.860   0.815  -1.554  0.00  0.00     0.018 C 
ENDBRANCH   1   8
TORSDOF 1
ENDMDL
