MODEL 1
REMARK minimizedAffinity 8.26717854
REMARK minimizedRMSD -1
REMARK  1 active torsions:
REMARK  status: ('A' for Active; 'I' for Inactive)
REMARK    1  A    between atoms: C1_2  and  C2_3 
ROOT
ATOM      1  C2  UNL d   1      -0.458   1.277   0.030  0.00  0.00    -0.073 A 
ATOM      2  C3  UNL d   1       0.191   0.853   1.195  0.00  0.00    -0.002 A 
ATOM      3  C4  UNL d   1      -0.306   1.210   2.449  0.00  0.00     0.004 A 
ATOM      4  C5  UNL d   1      -1.459   1.988   2.551  0.00  0.00    -0.004 A 
ATOM      5  C6  UNL d   1      -2.128   2.412   1.399  0.00  0.00    -0.075 A 
ATOM      6  C7  UNL d   1      -3.369   3.251   1.492  0.00  0.00     0.076 C 
ATOM      7  C8  UNL d   1      -1.622   2.051   0.143  0.00  0.00     0.001 A 
ENDROOT
BRANCH   1   8
ATOM      8  C1  UNL d   1       0.071   0.888  -1.326  0.00  0.00     0.053 C 
ATOM      9  C   UNL d   1       0.711  -0.491  -1.315  0.00  0.00     0.018 C 
ENDBRANCH   1   8
TORSDOF 1
ENDMDL
