MODEL 1
REMARK minimizedAffinity 10.3515224
REMARK minimizedRMSD -1
REMARK  1 active torsions:
REMARK  status: ('A' for Active; 'I' for Inactive)
REMARK    1  A    between atoms: C1_2  and  C2_3 
ROOT
ATOM      1  C2  UNL d   1       4.299  -4.517  -2.251  0.00  0.00    -0.073 A 
ATOM      2  C3  UNL d   1       5.630  -4.123  -2.423  0.00  0.00    -0.002 A 
ATOM      3  C4  UNL d   1       6.000  -3.349  -3.524  0.00  0.00     0.004 A 
ATOM      4  C5  UNL d   1       5.042  -2.956  -4.459  0.00  0.00    -0.004 A 
ATOM      5  C6  UNL d   1       3.704  -3.330  -4.298  0.00  0.00    -0.075 A 
ATOM      6  C7  UNL d   1       2.662  -2.917  -5.296  0.00  0.00     0.076 C 
ATOM      7  C8  UNL d   1       3.341  -4.109  -3.191  0.00  0.00     0.001 A 
ENDROOT
BRANCH   1   8
ATOM      8  C1  UNL d   1       3.894  -5.346  -1.060  0.00  0.00     0.053 C 
ATOM      9  C   UNL d   1       4.600  -4.902   0.211  0.00  0.00     0.018 C 
ENDBRANCH   1   8
TORSDOF 1
ENDMDL
