MODEL 1
REMARK minimizedAffinity 6.73146343
REMARK minimizedRMSD -1
REMARK  1 active torsions:
REMARK  status: ('A' for Active; 'I' for Inactive)
REMARK    1  A    between atoms: C1_2  and  C2_3 
ROOT
ATOM      1  C2  UNL d   1      -0.723  -0.270   3.058  0.00  0.00    -0.073 A 
ATOM      2  C3  UNL d   1       0.317   0.283   3.815  0.00  0.00    -0.002 A 
ATOM      3  C4  UNL d   1       0.549   1.659   3.794  0.00  0.00     0.004 A 
ATOM      4  C5  UNL d   1      -0.258   2.496   3.024  0.00  0.00    -0.004 A 
ATOM      5  C6  UNL d   1      -1.310   1.964   2.270  0.00  0.00    -0.075 A 
ATOM      6  C7  UNL d   1      -2.186   2.850   1.435  0.00  0.00     0.076 C 
ATOM      7  C8  UNL d   1      -1.535   0.581   2.294  0.00  0.00     0.001 A 
ENDROOT
BRANCH   1   8
ATOM      8  C1  UNL d   1      -0.981  -1.754   3.081  0.00  0.00     0.053 C 
ATOM      9  C   UNL d   1      -2.005  -2.138   4.138  0.00  0.00     0.018 C 
ENDBRANCH   1   8
TORSDOF 1
ENDMDL
