MODEL 1
REMARK minimizedAffinity 11.0835352
REMARK minimizedRMSD -1
REMARK  1 active torsions:
REMARK  status: ('A' for Active; 'I' for Inactive)
REMARK    1  A    between atoms: C1_2  and  C2_3 
ROOT
ATOM      1  C2  UNL d   1      -1.353  -0.165   3.137  0.00  0.00    -0.073 A 
ATOM      2  C3  UNL d   1       0.019   0.050   2.968  0.00  0.00    -0.002 A 
ATOM      3  C4  UNL d   1       0.476   1.140   2.227  0.00  0.00     0.004 A 
ATOM      4  C5  UNL d   1      -0.432   2.029   1.653  0.00  0.00    -0.004 A 
ATOM      5  C6  UNL d   1      -1.807   1.838   1.820  0.00  0.00    -0.075 A 
ATOM      6  C7  UNL d   1      -2.798   2.785   1.207  0.00  0.00     0.076 C 
ATOM      7  C8  UNL d   1      -2.259   0.740   2.564  0.00  0.00     0.001 A 
ENDROOT
BRANCH   1   8
ATOM      8  C1  UNL d   1      -1.852  -1.337   3.942  0.00  0.00     0.053 C 
ATOM      9  C   UNL d   1      -0.909  -2.527   3.859  0.00  0.00     0.018 C 
ENDBRANCH   1   8
TORSDOF 1
ENDMDL
