MODEL 1
REMARK minimizedAffinity 5.34484673
REMARK minimizedRMSD -1
REMARK  1 active torsions:
REMARK  status: ('A' for Active; 'I' for Inactive)
REMARK    1  A    between atoms: C1_2  and  C2_3 
ROOT
ATOM      1  C2  UNL d   1       3.642  -3.479  -1.891  0.00  0.00    -0.073 A 
ATOM      2  C3  UNL d   1       2.397  -3.038  -1.427  0.00  0.00    -0.002 A 
ATOM      3  C4  UNL d   1       2.320  -2.015  -0.481  0.00  0.00     0.004 A 
ATOM      4  C5  UNL d   1       3.483  -1.418   0.004  0.00  0.00    -0.004 A 
ATOM      5  C6  UNL d   1       4.736  -1.836  -0.456  0.00  0.00    -0.075 A 
ATOM      6  C7  UNL d   1       5.996  -1.206   0.058  0.00  0.00     0.076 C 
ATOM      7  C8  UNL d   1       4.805  -2.867  -1.403  0.00  0.00     0.001 A 
ENDROOT
BRANCH   1   8
ATOM      8  C1  UNL d   1       3.731  -4.580  -2.916  0.00  0.00     0.053 C 
ATOM      9  C   UNL d   1       3.328  -5.928  -2.341  0.00  0.00     0.018 C 
ENDBRANCH   1   8
TORSDOF 1
ENDMDL
