MODEL 1
REMARK minimizedAffinity 5.33875561
REMARK minimizedRMSD -1
REMARK  1 active torsions:
REMARK  status: ('A' for Active; 'I' for Inactive)
REMARK    1  A    between atoms: C1_2  and  C2_3 
ROOT
ATOM      1  C2  UNL d   1      -0.081   1.780  -0.921  0.00  0.00    -0.073 A 
ATOM      2  C3  UNL d   1       0.993   1.983  -1.794  0.00  0.00    -0.002 A 
ATOM      3  C4  UNL d   1       1.060   1.291  -3.004  0.00  0.00     0.004 A 
ATOM      4  C5  UNL d   1       0.051   0.395  -3.356  0.00  0.00    -0.004 A 
ATOM      5  C6  UNL d   1      -1.037   0.186  -2.502  0.00  0.00    -0.075 A 
ATOM      6  C7  UNL d   1      -2.130  -0.776  -2.865  0.00  0.00     0.076 C 
ATOM      7  C8  UNL d   1      -1.095   0.883  -1.288  0.00  0.00     0.001 A 
ENDROOT
BRANCH   1   8
ATOM      8  C1  UNL d   1      -0.161   2.530   0.384  0.00  0.00     0.053 C 
ATOM      9  C   UNL d   1      -1.123   1.873   1.361  0.00  0.00     0.018 C 
ENDBRANCH   1   8
TORSDOF 1
ENDMDL
