MODEL 1
REMARK minimizedAffinity 8.48755646
REMARK minimizedRMSD -1
REMARK  1 active torsions:
REMARK  status: ('A' for Active; 'I' for Inactive)
REMARK    1  A    between atoms: C1_2  and  C2_3 
ROOT
ATOM      1  C2  UNL d   1      -1.464  -0.369   2.966  0.00  0.00    -0.073 A 
ATOM      2  C3  UNL d   1      -0.072  -0.227   2.978  0.00  0.00    -0.002 A 
ATOM      3  C4  UNL d   1       0.532   0.850   2.327  0.00  0.00     0.004 A 
ATOM      4  C5  UNL d   1      -0.249   1.797   1.665  0.00  0.00    -0.004 A 
ATOM      5  C6  UNL d   1      -1.643   1.678   1.652  0.00  0.00    -0.075 A 
ATOM      6  C7  UNL d   1      -2.496   2.687   0.942  0.00  0.00     0.076 C 
ATOM      7  C8  UNL d   1      -2.241   0.593   2.306  0.00  0.00     0.001 A 
ENDROOT
BRANCH   1   8
ATOM      8  C1  UNL d   1      -2.121  -1.527   3.674  0.00  0.00     0.053 C 
ATOM      9  C   UNL d   1      -1.177  -2.708   3.831  0.00  0.00     0.018 C 
ENDBRANCH   1   8
TORSDOF 1
ENDMDL
