MODEL 1
REMARK minimizedAffinity 12.2913198
REMARK minimizedRMSD -1
REMARK  1 active torsions:
REMARK  status: ('A' for Active; 'I' for Inactive)
REMARK    1  A    between atoms: C1_2  and  C2_3 
ROOT
ATOM      1  C2  UNL d   1      -1.124   3.661  -2.048  0.00  0.00    -0.073 A 
ATOM      2  C3  UNL d   1      -1.574   2.427  -2.531  0.00  0.00    -0.002 A 
ATOM      3  C4  UNL d   1      -2.256   2.352  -3.747  0.00  0.00     0.004 A 
ATOM      4  C5  UNL d   1      -2.488   3.507  -4.493  0.00  0.00    -0.004 A 
ATOM      5  C6  UNL d   1      -2.036   4.748  -4.033  0.00  0.00    -0.075 A 
ATOM      6  C7  UNL d   1      -2.279   6.000  -4.823  0.00  0.00     0.076 C 
ATOM      7  C8  UNL d   1      -1.354   4.815  -2.810  0.00  0.00     0.001 A 
ENDROOT
BRANCH   1   8
ATOM      8  C1  UNL d   1      -0.382   3.746  -0.739  0.00  0.00     0.053 C 
ATOM      9  C   UNL d   1      -0.763   2.618   0.206  0.00  0.00     0.018 C 
ENDBRANCH   1   8
TORSDOF 1
ENDMDL
