MODEL 1
REMARK minimizedAffinity 1.08165789
REMARK minimizedRMSD -1
REMARK  0 active torsions:
REMARK  status: ('A' for Active; 'I' for Inactive)
ROOT
ATOM      1  C   UNL d   1       5.466  -4.861  -0.458  0.00  0.00     0.078 C 
ATOM      2  C1  UNL d   1       4.435  -4.063   0.284  0.00  0.00    -0.077 A 
ATOM      3  C2  UNL d   1       3.219  -3.719  -0.319  0.00  0.00    -0.001 A 
ATOM      4  C3  UNL d   1       2.273  -2.968   0.379  0.00  0.00     0.003 A 
ATOM      5  C4  UNL d   1       2.533  -2.553   1.684  0.00  0.00    -0.005 A 
ATOM      6  C5  UNL d   1       3.741  -2.888   2.291  0.00  0.00     0.003 A 
ATOM      7  C6  UNL d   1       4.689  -3.640   1.594  0.00  0.00    -0.001 A 
ENDROOT
TORSDOF 0
ENDMDL
