MODEL 1
REMARK minimizedAffinity 5.62875509
REMARK minimizedRMSD -1
REMARK  0 active torsions:
REMARK  status: ('A' for Active; 'I' for Inactive)
ROOT
ATOM      1  C   UNL d   1       1.978  -2.074   0.664  0.00  0.00     0.078 C 
ATOM      2  C1  UNL d   1       2.906  -3.236   0.859  0.00  0.00    -0.077 A 
ATOM      3  C2  UNL d   1       3.186  -3.727   2.140  0.00  0.00    -0.001 A 
ATOM      4  C3  UNL d   1       4.059  -4.803   2.308  0.00  0.00     0.003 A 
ATOM      5  C4  UNL d   1       4.660  -5.396   1.199  0.00  0.00    -0.005 A 
ATOM      6  C5  UNL d   1       4.389  -4.913  -0.079  0.00  0.00     0.003 A 
ATOM      7  C6  UNL d   1       3.516  -3.837  -0.249  0.00  0.00    -0.001 A 
ENDROOT
TORSDOF 0
ENDMDL
