MODEL 1
REMARK minimizedAffinity 4.2316103
REMARK minimizedRMSD -1
REMARK  0 active torsions:
REMARK  status: ('A' for Active; 'I' for Inactive)
ROOT
ATOM      1  C   UNL d   1       5.950  -2.272   5.946  0.00  0.00     0.078 C 
ATOM      2  C1  UNL d   1       5.676  -3.568   5.243  0.00  0.00    -0.077 A 
ATOM      3  C2  UNL d   1       5.330  -4.719   5.961  0.00  0.00    -0.001 A 
ATOM      4  C3  UNL d   1       5.087  -5.921   5.295  0.00  0.00     0.003 A 
ATOM      5  C4  UNL d   1       5.188  -5.984   3.906  0.00  0.00    -0.005 A 
ATOM      6  C5  UNL d   1       5.534  -4.844   3.183  0.00  0.00     0.003 A 
ATOM      7  C6  UNL d   1       5.777  -3.642   3.848  0.00  0.00    -0.001 A 
ENDROOT
TORSDOF 0
ENDMDL
