MODEL 1
REMARK minimizedAffinity 5.5041914
REMARK minimizedRMSD -1
REMARK  0 active torsions:
REMARK  status: ('A' for Active; 'I' for Inactive)
ROOT
ATOM      1  C   UNL d   1       4.524   2.426  -4.877  0.00  0.00     0.078 C 
ATOM      2  C1  UNL d   1       3.781   3.673  -5.249  0.00  0.00    -0.077 A 
ATOM      3  C2  UNL d   1       4.464   4.824  -5.661  0.00  0.00    -0.001 A 
ATOM      4  C3  UNL d   1       3.759   5.982  -5.995  0.00  0.00     0.003 A 
ATOM      5  C4  UNL d   1       2.368   6.000  -5.921  0.00  0.00    -0.005 A 
ATOM      6  C5  UNL d   1       1.679   4.860  -5.511  0.00  0.00     0.003 A 
ATOM      7  C6  UNL d   1       2.382   3.702  -5.176  0.00  0.00    -0.001 A 
ENDROOT
TORSDOF 0
ENDMDL
