MODEL 1
REMARK minimizedAffinity 4.68991804
REMARK minimizedRMSD -1
REMARK  0 active torsions:
REMARK  status: ('A' for Active; 'I' for Inactive)
ROOT
ATOM      1  C   UNL d   1       0.582   5.388  -5.996  0.00  0.00     0.078 C 
ATOM      2  C1  UNL d   1       2.034   5.014  -5.990  0.00  0.00    -0.077 A 
ATOM      3  C2  UNL d   1       3.032   5.997  -5.995  0.00  0.00    -0.001 A 
ATOM      4  C3  UNL d   1       4.380   5.634  -5.999  0.00  0.00     0.003 A 
ATOM      5  C4  UNL d   1       4.742   4.289  -6.000  0.00  0.00    -0.005 A 
ATOM      6  C5  UNL d   1       3.757   3.304  -5.997  0.00  0.00     0.003 A 
ATOM      7  C6  UNL d   1       2.408   3.665  -5.993  0.00  0.00    -0.001 A 
ENDROOT
TORSDOF 0
ENDMDL
