MODEL 1
REMARK minimizedAffinity 6.07207489
REMARK minimizedRMSD -1
REMARK  0 active torsions:
REMARK  status: ('A' for Active; 'I' for Inactive)
ROOT
ATOM      1  C   UNL d   1      -2.612  -0.526  -1.562  0.00  0.00     0.078 C 
ATOM      2  C1  UNL d   1      -2.672   0.766  -2.320  0.00  0.00    -0.077 A 
ATOM      3  C2  UNL d   1      -3.498   0.907  -3.442  0.00  0.00    -0.001 A 
ATOM      4  C3  UNL d   1      -3.536   2.112  -4.144  0.00  0.00     0.003 A 
ATOM      5  C4  UNL d   1      -2.750   3.187  -3.732  0.00  0.00    -0.005 A 
ATOM      6  C5  UNL d   1      -1.924   3.056  -2.618  0.00  0.00     0.003 A 
ATOM      7  C6  UNL d   1      -1.884   1.851  -1.915  0.00  0.00    -0.001 A 
ENDROOT
TORSDOF 0
ENDMDL
