MODEL 1
REMARK minimizedAffinity 9.03322315
REMARK minimizedRMSD -1
REMARK  0 active torsions:
REMARK  status: ('A' for Active; 'I' for Inactive)
ROOT
ATOM      1  C   UNL d   1       1.110   4.661  -5.176  0.00  0.00     0.078 C 
ATOM      2  C1  UNL d   1       2.583   4.721  -5.446  0.00  0.00    -0.077 A 
ATOM      3  C2  UNL d   1       3.224   5.943  -5.684  0.00  0.00    -0.001 A 
ATOM      4  C3  UNL d   1       4.594   5.984  -5.944  0.00  0.00     0.003 A 
ATOM      5  C4  UNL d   1       5.336   4.804  -5.970  0.00  0.00    -0.005 A 
ATOM      6  C5  UNL d   1       4.708   3.583  -5.737  0.00  0.00     0.003 A 
ATOM      7  C6  UNL d   1       3.337   3.541  -5.477  0.00  0.00    -0.001 A 
ENDROOT
TORSDOF 0
ENDMDL
