MODEL 1
REMARK minimizedAffinity 4.39036751
REMARK minimizedRMSD -1
REMARK  0 active torsions:
REMARK  status: ('A' for Active; 'I' for Inactive)
ROOT
ATOM      1  C   UNL d   1       4.741   2.130  -5.256  0.00  0.00     0.078 C 
ATOM      2  C1  UNL d   1       4.106   3.479  -5.411  0.00  0.00    -0.077 A 
ATOM      3  C2  UNL d   1       4.846   4.576  -5.868  0.00  0.00    -0.001 A 
ATOM      4  C3  UNL d   1       4.245   5.829  -5.998  0.00  0.00     0.003 A 
ATOM      5  C4  UNL d   1       2.901   5.997  -5.671  0.00  0.00    -0.005 A 
ATOM      6  C5  UNL d   1       2.157   4.912  -5.213  0.00  0.00     0.003 A 
ATOM      7  C6  UNL d   1       2.756   3.658  -5.083  0.00  0.00    -0.001 A 
ENDROOT
TORSDOF 0
ENDMDL
