MODEL 1
REMARK minimizedAffinity 0.117580816
REMARK minimizedRMSD -1
REMARK  0 active torsions:
REMARK  status: ('A' for Active; 'I' for Inactive)
ROOT
ATOM      1  C   UNL d   1       4.901   1.725  -5.617  0.00  0.00     0.078 C 
ATOM      2  C1  UNL d   1       4.752   3.214  -5.705  0.00  0.00    -0.077 A 
ATOM      3  C2  UNL d   1       3.494   3.821  -5.602  0.00  0.00    -0.001 A 
ATOM      4  C3  UNL d   1       3.369   5.208  -5.696  0.00  0.00     0.003 A 
ATOM      5  C4  UNL d   1       4.498   6.000  -5.893  0.00  0.00    -0.005 A 
ATOM      6  C5  UNL d   1       5.754   5.405  -5.998  0.00  0.00     0.003 A 
ATOM      7  C6  UNL d   1       5.881   4.018  -5.905  0.00  0.00    -0.001 A 
ENDROOT
TORSDOF 0
ENDMDL
