MODEL 1
REMARK minimizedAffinity 9.35839462
REMARK minimizedRMSD -1
REMARK  0 active torsions:
REMARK  status: ('A' for Active; 'I' for Inactive)
ROOT
ATOM      1  C   UNL d   1       5.938  -2.521   6.000  0.00  0.00     0.078 C 
ATOM      2  C1  UNL d   1       5.435  -3.735   5.277  0.00  0.00    -0.077 A 
ATOM      3  C2  UNL d   1       5.008  -4.868   5.980  0.00  0.00    -0.001 A 
ATOM      4  C3  UNL d   1       4.552  -5.994   5.293  0.00  0.00     0.003 A 
ATOM      5  C4  UNL d   1       4.519  -5.999   3.900  0.00  0.00    -0.005 A 
ATOM      6  C5  UNL d   1       4.945  -4.877   3.192  0.00  0.00     0.003 A 
ATOM      7  C6  UNL d   1       5.402  -3.750   3.877  0.00  0.00    -0.001 A 
ENDROOT
TORSDOF 0
ENDMDL
