MODEL 1
REMARK minimizedAffinity 2.06155872
REMARK minimizedRMSD -1
REMARK  1 active torsions:
REMARK  status: ('A' for Active; 'I' for Inactive)
REMARK    1  A    between atoms: C3_4  and  O_7 
ROOT
ATOM      1  C   UNL d   1       4.222   1.697  -4.905  0.00  0.00    -0.033 A 
ATOM      2  C1  UNL d   1       5.566   1.657  -4.529  0.00  0.00     0.039 A 
ATOM      3  C2  UNL d   1       5.998   2.362  -3.404  0.00  0.00    -0.080 A 
ATOM      4  C3  UNL d   1       5.078   3.100  -2.665  0.00  0.00     0.150 A 
ATOM      5  C4  UNL d   1       3.737   3.141  -3.032  0.00  0.00    -0.007 A 
ATOM      6  C5  UNL d   1       3.307   2.438  -4.156  0.00  0.00     0.039 A 
ENDROOT
BRANCH   4   7
ATOM      7  O   UNL d   1       5.454   3.808  -1.562  0.00  0.00    -0.526 OA
ATOM      8  H5  UNL d   1       6.414   3.710  -1.446  0.00  0.00     0.418 HD
ENDBRANCH   4   7
TORSDOF 1
ENDMDL
