MODEL 1
REMARK minimizedAffinity -3.46078539
REMARK minimizedRMSD -1
REMARK  1 active torsions:
REMARK  status: ('A' for Active; 'I' for Inactive)
REMARK    1  A    between atoms: C3_4  and  O_7 
ROOT
ATOM      1  C   UNL d   1      -0.748   2.995  -5.948  0.00  0.00    -0.033 A 
ATOM      2  C1  UNL d   1      -0.379   4.341  -5.925  0.00  0.00     0.039 A 
ATOM      3  C2  UNL d   1      -1.359   5.336  -5.940  0.00  0.00    -0.080 A 
ATOM      4  C3  UNL d   1      -2.702   4.971  -5.978  0.00  0.00     0.150 A 
ATOM      5  C4  UNL d   1      -3.077   3.632  -5.997  0.00  0.00    -0.007 A 
ATOM      6  C5  UNL d   1      -2.097   2.640  -5.983  0.00  0.00     0.039 A 
ENDROOT
BRANCH   4   7
ATOM      7  O   UNL d   1      -3.694   5.906  -5.999  0.00  0.00    -0.526 OA
ATOM      8  H5  UNL d   1      -3.285   6.788  -6.011  0.00  0.00     0.418 HD
ENDBRANCH   4   7
TORSDOF 1
ENDMDL
