MODEL 1
REMARK minimizedAffinity -2.71504569
REMARK minimizedRMSD -1
REMARK  1 active torsions:
REMARK  status: ('A' for Active; 'I' for Inactive)
REMARK    1  A    between atoms: C3_4  and  O_7 
ROOT
ATOM      1  C   UNL d   1       0.293   2.394  -5.999  0.00  0.00    -0.033 A 
ATOM      2  C1  UNL d   1       0.938   3.632  -6.000  0.00  0.00     0.039 A 
ATOM      3  C2  UNL d   1       0.191   4.811  -5.999  0.00  0.00    -0.080 A 
ATOM      4  C3  UNL d   1      -1.200   4.738  -5.996  0.00  0.00     0.150 A 
ATOM      5  C4  UNL d   1      -1.849   3.508  -5.991  0.00  0.00    -0.007 A 
ATOM      6  C5  UNL d   1      -1.101   2.332  -5.993  0.00  0.00     0.039 A 
ENDROOT
BRANCH   4   7
ATOM      7  O   UNL d   1      -1.972   5.862  -6.000  0.00  0.00    -0.526 OA
ATOM      8  H5  UNL d   1      -1.387   6.637  -6.033  0.00  0.00     0.418 HD
ENDBRANCH   4   7
TORSDOF 1
ENDMDL
