MODEL 1
REMARK minimizedAffinity -2.21673393
REMARK minimizedRMSD -1
REMARK  1 active torsions:
REMARK  status: ('A' for Active; 'I' for Inactive)
REMARK    1  A    between atoms: C3_4  and  O_7 
ROOT
ATOM      1  C   UNL d   1      -0.012   3.855  -5.996  0.00  0.00    -0.033 A 
ATOM      2  C1  UNL d   1      -1.055   2.927  -5.998  0.00  0.00     0.039 A 
ATOM      3  C2  UNL d   1      -2.381   3.364  -5.999  0.00  0.00    -0.080 A 
ATOM      4  C3  UNL d   1      -2.650   4.730  -5.998  0.00  0.00     0.150 A 
ATOM      5  C4  UNL d   1      -1.616   5.660  -6.000  0.00  0.00    -0.007 A 
ATOM      6  C5  UNL d   1      -0.292   5.222  -5.998  0.00  0.00     0.039 A 
ENDROOT
BRANCH   4   7
ATOM      7  O   UNL d   1      -3.928   5.204  -5.993  0.00  0.00    -0.526 OA
ATOM      8  H5  UNL d   1      -4.537   4.447  -5.963  0.00  0.00     0.418 HD
ENDBRANCH   4   7
TORSDOF 1
ENDMDL
