MODEL 1
REMARK minimizedAffinity -2.90518427
REMARK minimizedRMSD -1
REMARK  1 active torsions:
REMARK  status: ('A' for Active; 'I' for Inactive)
REMARK    1  A    between atoms: C3_4  and  O_7 
ROOT
ATOM      1  C   UNL d   1      -1.137   4.033  -5.995  0.00  0.00    -0.033 A 
ATOM      2  C1  UNL d   1      -2.271   3.219  -6.000  0.00  0.00     0.039 A 
ATOM      3  C2  UNL d   1      -3.544   3.791  -5.999  0.00  0.00    -0.080 A 
ATOM      4  C3  UNL d   1      -3.669   5.178  -5.994  0.00  0.00     0.150 A 
ATOM      5  C4  UNL d   1      -2.544   5.995  -5.993  0.00  0.00    -0.007 A 
ATOM      6  C5  UNL d   1      -1.273   5.422  -5.993  0.00  0.00     0.039 A 
ENDROOT
BRANCH   4   7
ATOM      7  O   UNL d   1      -4.891   5.783  -5.989  0.00  0.00    -0.526 OA
ATOM      8  H5  UNL d   1      -5.576   5.094  -5.961  0.00  0.00     0.418 HD
ENDBRANCH   4   7
TORSDOF 1
ENDMDL
