MODEL 1
REMARK minimizedAffinity -2.7652123
REMARK minimizedRMSD -1
REMARK  1 active torsions:
REMARK  status: ('A' for Active; 'I' for Inactive)
REMARK    1  A    between atoms: C3_4  and  O_7 
ROOT
ATOM      1  C   UNL d   1       0.212   4.134  -5.990  0.00  0.00    -0.033 A 
ATOM      2  C1  UNL d   1      -0.362   2.861  -5.994  0.00  0.00     0.039 A 
ATOM      3  C2  UNL d   1      -1.751   2.720  -5.998  0.00  0.00    -0.080 A 
ATOM      4  C3  UNL d   1      -2.554   3.857  -5.998  0.00  0.00     0.150 A 
ATOM      5  C4  UNL d   1      -1.989   5.128  -5.998  0.00  0.00    -0.007 A 
ATOM      6  C5  UNL d   1      -0.602   5.268  -5.993  0.00  0.00     0.039 A 
ENDROOT
BRANCH   4   7
ATOM      7  O   UNL d   1      -3.914   3.769  -5.997  0.00  0.00    -0.526 OA
ATOM      8  H5  UNL d   1      -4.162   2.829  -5.968  0.00  0.00     0.418 HD
ENDBRANCH   4   7
TORSDOF 1
ENDMDL
