MODEL 1
REMARK minimizedAffinity -3.12904501
REMARK minimizedRMSD -1
REMARK  1 active torsions:
REMARK  status: ('A' for Active; 'I' for Inactive)
REMARK    1  A    between atoms: C3_4  and  O_7 
ROOT
ATOM      1  C   UNL d   1       0.379   4.144  -5.998  0.00  0.00    -0.033 A 
ATOM      2  C1  UNL d   1      -0.506   5.224  -5.990  0.00  0.00     0.039 A 
ATOM      3  C2  UNL d   1      -1.884   4.999  -5.987  0.00  0.00    -0.080 A 
ATOM      4  C3  UNL d   1      -2.364   3.692  -5.991  0.00  0.00     0.150 A 
ATOM      5  C4  UNL d   1      -1.488   2.612  -5.995  0.00  0.00    -0.007 A 
ATOM      6  C5  UNL d   1      -0.112   2.838  -5.999  0.00  0.00     0.039 A 
ENDROOT
BRANCH   4   7
ATOM      7  O   UNL d   1      -3.700   3.423  -5.993  0.00  0.00    -0.526 OA
ATOM      8  H5  UNL d   1      -4.184   4.266  -6.019  0.00  0.00     0.418 HD
ENDBRANCH   4   7
TORSDOF 1
ENDMDL
