MODEL 1
REMARK minimizedAffinity -2.51956749
REMARK minimizedRMSD -1
REMARK  1 active torsions:
REMARK  status: ('A' for Active; 'I' for Inactive)
REMARK    1  A    between atoms: C3_4  and  O_7 
ROOT
ATOM      1  C   UNL d   1       0.338   3.579  -5.987  0.00  0.00    -0.033 A 
ATOM      2  C1  UNL d   1      -0.661   2.603  -5.993  0.00  0.00     0.039 A 
ATOM      3  C2  UNL d   1      -2.006   2.979  -5.999  0.00  0.00    -0.080 A 
ATOM      4  C3  UNL d   1      -2.338   4.331  -5.999  0.00  0.00     0.150 A 
ATOM      5  C4  UNL d   1      -1.348   5.308  -5.996  0.00  0.00    -0.007 A 
ATOM      6  C5  UNL d   1      -0.006   4.931  -5.990  0.00  0.00     0.039 A 
ENDROOT
BRANCH   4   7
ATOM      7  O   UNL d   1      -3.637   4.745  -5.999  0.00  0.00    -0.526 OA
ATOM      8  H5  UNL d   1      -4.210   3.961  -5.972  0.00  0.00     0.418 HD
ENDBRANCH   4   7
TORSDOF 1
ENDMDL
