MODEL 1
REMARK minimizedAffinity -3.37804508
REMARK minimizedRMSD -1
REMARK  1 active torsions:
REMARK  status: ('A' for Active; 'I' for Inactive)
REMARK    1  A    between atoms: C3_4  and  O_7 
ROOT
ATOM      1  C   UNL d   1       0.224   2.912  -5.991  0.00  0.00    -0.033 A 
ATOM      2  C1  UNL d   1       0.671   4.235  -5.996  0.00  0.00     0.039 A 
ATOM      3  C2  UNL d   1      -0.249   5.285  -5.998  0.00  0.00    -0.080 A 
ATOM      4  C3  UNL d   1      -1.612   4.999  -5.993  0.00  0.00     0.150 A 
ATOM      5  C4  UNL d   1      -2.064   3.684  -5.984  0.00  0.00    -0.007 A 
ATOM      6  C5  UNL d   1      -1.144   2.636  -5.983  0.00  0.00     0.039 A 
ENDROOT
BRANCH   4   7
ATOM      7  O   UNL d   1      -2.548   5.990  -6.000  0.00  0.00    -0.526 OA
ATOM      8  H5  UNL d   1      -2.089   6.846  -6.035  0.00  0.00     0.418 HD
ENDBRANCH   4   7
TORSDOF 1
ENDMDL
