MODEL 1
REMARK minimizedAffinity -2.68888164
REMARK minimizedRMSD -1
REMARK  1 active torsions:
REMARK  status: ('A' for Active; 'I' for Inactive)
REMARK    1  A    between atoms: C3_4  and  O_7 
ROOT
ATOM      1  C   UNL d   1      -0.272   3.527  -5.989  0.00  0.00    -0.033 A 
ATOM      2  C1  UNL d   1      -1.304   2.586  -5.989  0.00  0.00     0.039 A 
ATOM      3  C2  UNL d   1      -2.635   3.007  -5.992  0.00  0.00    -0.080 A 
ATOM      4  C3  UNL d   1      -2.921   4.370  -5.996  0.00  0.00     0.150 A 
ATOM      5  C4  UNL d   1      -1.898   5.312  -6.000  0.00  0.00    -0.007 A 
ATOM      6  C5  UNL d   1      -0.569   4.890  -5.996  0.00  0.00     0.039 A 
ENDROOT
BRANCH   4   7
ATOM      7  O   UNL d   1      -4.205   4.829  -5.995  0.00  0.00    -0.526 OA
ATOM      8  H5  UNL d   1      -4.804   4.065  -5.963  0.00  0.00     0.418 HD
ENDBRANCH   4   7
TORSDOF 1
ENDMDL
