MODEL 1
REMARK minimizedAffinity 0.182206586
REMARK minimizedRMSD -1
REMARK  1 active torsions:
REMARK  status: ('A' for Active; 'I' for Inactive)
REMARK    1  A    between atoms: C3_4  and  O_7 
ROOT
ATOM      1  C   UNL d   1      -0.337   2.892  -5.993  0.00  0.00    -0.033 A 
ATOM      2  C1  UNL d   1      -1.702   2.600  -5.997  0.00  0.00     0.039 A 
ATOM      3  C2  UNL d   1      -2.639   3.635  -6.000  0.00  0.00    -0.080 A 
ATOM      4  C3  UNL d   1      -2.198   4.956  -5.999  0.00  0.00     0.150 A 
ATOM      5  C4  UNL d   1      -0.839   5.253  -5.999  0.00  0.00    -0.007 A 
ATOM      6  C5  UNL d   1       0.095   4.218  -5.996  0.00  0.00     0.039 A 
ENDROOT
BRANCH   4   7
ATOM      7  O   UNL d   1      -3.074   6.000  -5.997  0.00  0.00    -0.526 OA
ATOM      8  H5  UNL d   1      -3.978   5.643  -5.968  0.00  0.00     0.418 HD
ENDBRANCH   4   7
TORSDOF 1
ENDMDL
