MODEL 1
REMARK minimizedAffinity -2.94796395
REMARK minimizedRMSD -1
REMARK  1 active torsions:
REMARK  status: ('A' for Active; 'I' for Inactive)
REMARK    1  A    between atoms: C3_4  and  O_7 
ROOT
ATOM      1  C   UNL d   1      -0.233   4.505  -5.158  0.00  0.00    -0.033 A 
ATOM      2  C1  UNL d   1      -0.565   3.441  -6.000  0.00  0.00     0.039 A 
ATOM      3  C2  UNL d   1      -1.861   2.922  -5.994  0.00  0.00    -0.080 A 
ATOM      4  C3  UNL d   1      -2.815   3.475  -5.144  0.00  0.00     0.150 A 
ATOM      5  C4  UNL d   1      -2.492   4.537  -4.306  0.00  0.00    -0.007 A 
ATOM      6  C5  UNL d   1      -1.198   5.054  -4.313  0.00  0.00     0.039 A 
ENDROOT
BRANCH   4   7
ATOM      7  O   UNL d   1      -4.091   2.998  -5.100  0.00  0.00    -0.526 OA
ATOM      8  H5  UNL d   1      -4.160   2.246  -5.711  0.00  0.00     0.418 HD
ENDBRANCH   4   7
TORSDOF 1
ENDMDL
