MODEL 1
REMARK minimizedAffinity -3.91370034
REMARK minimizedRMSD -1
REMARK  1 active torsions:
REMARK  status: ('A' for Active; 'I' for Inactive)
REMARK    1  A    between atoms: C1_2  and  C2_3 
ROOT
ATOM      1  C2  UNL d   1       0.418   0.502   1.813  0.00  0.00    -0.076 A 
ATOM      2  C3  UNL d   1       1.557   0.279   1.020  0.00  0.00     0.004 A 
ATOM      3  C4  UNL d   1       2.839   0.437   1.544  0.00  0.00    -0.003 A 
ATOM      4  C5  UNL d   1       3.003   0.819   2.871  0.00  0.00     0.000 A 
ATOM      5  C6  UNL d   1       1.885   1.027   3.678  0.00  0.00     0.000 A 
ATOM      6  C7  UNL d   1       0.586   0.856   3.169  0.00  0.00    -0.073 A 
ATOM      7  C8  UNL d   1      -0.585   1.100   4.082  0.00  0.00     0.078 C 
ENDROOT
BRANCH   1   8
ATOM      8  C1  UNL d   1      -0.947   0.342   1.183  0.00  0.00     0.053 C 
ATOM      9  C   UNL d   1      -0.960  -0.707   0.081  0.00  0.00     0.018 C 
ENDBRANCH   1   8
TORSDOF 1
ENDMDL
