MODEL 1
REMARK minimizedAffinity 6.27985764
REMARK minimizedRMSD -1
REMARK  1 active torsions:
REMARK  status: ('A' for Active; 'I' for Inactive)
REMARK    1  A    between atoms: C1_2  and  C2_3 
ROOT
ATOM      1  C2  UNL d   1      -0.076   1.311  -3.573  0.00  0.00    -0.076 A 
ATOM      2  C3  UNL d   1      -1.392   0.854  -3.759  0.00  0.00     0.004 A 
ATOM      3  C4  UNL d   1      -1.891  -0.216  -3.018  0.00  0.00    -0.003 A 
ATOM      4  C5  UNL d   1      -1.082  -0.846  -2.079  0.00  0.00     0.000 A 
ATOM      5  C6  UNL d   1       0.220  -0.395  -1.869  0.00  0.00     0.000 A 
ATOM      6  C7  UNL d   1       0.734   0.693  -2.596  0.00  0.00    -0.073 A 
ATOM      7  C8  UNL d   1       2.147   1.134  -2.333  0.00  0.00     0.078 C 
ENDROOT
BRANCH   1   8
ATOM      8  C1  UNL d   1       0.419   2.458  -4.425  0.00  0.00     0.053 C 
ATOM      9  C   UNL d   1      -0.521   2.777  -5.577  0.00  0.00     0.018 C 
ENDBRANCH   1   8
TORSDOF 1
ENDMDL
