MODEL 1
REMARK minimizedAffinity 14.0731249
REMARK minimizedRMSD -1
REMARK  1 active torsions:
REMARK  status: ('A' for Active; 'I' for Inactive)
REMARK    1  A    between atoms: C1_2  and  C2_3 
ROOT
ATOM      1  C2  UNL d   1      -0.955  -0.663  -0.226  0.00  0.00    -0.076 A 
ATOM      2  C3  UNL d   1       0.005  -1.688  -0.163  0.00  0.00     0.004 A 
ATOM      3  C4  UNL d   1       0.200  -2.417   1.009  0.00  0.00    -0.003 A 
ATOM      4  C5  UNL d   1      -0.563  -2.133   2.137  0.00  0.00     0.000 A 
ATOM      5  C6  UNL d   1      -1.532  -1.132   2.086  0.00  0.00     0.000 A 
ATOM      6  C7  UNL d   1      -1.752  -0.398   0.908  0.00  0.00    -0.073 A 
ATOM      7  C8  UNL d   1      -2.806   0.675   0.911  0.00  0.00     0.078 C 
ENDROOT
BRANCH   1   8
ATOM      8  C1  UNL d   1      -1.102   0.112  -1.516  0.00  0.00     0.053 C 
ATOM      9  C   UNL d   1       0.238   0.437  -2.157  0.00  0.00     0.018 C 
ENDBRANCH   1   8
TORSDOF 1
ENDMDL
