MODEL 1
REMARK minimizedAffinity 11.7696304
REMARK minimizedRMSD -1
REMARK  1 active torsions:
REMARK  status: ('A' for Active; 'I' for Inactive)
REMARK    1  A    between atoms: C1_2  and  C2_3 
ROOT
ATOM      1  C2  UNL d   1      -5.503   4.520   3.717  0.00  0.00    -0.076 A 
ATOM      2  C3  UNL d   1      -5.851   5.721   3.074  0.00  0.00     0.004 A 
ATOM      3  C4  UNL d   1      -5.407   5.997   1.782  0.00  0.00    -0.003 A 
ATOM      4  C5  UNL d   1      -4.610   5.076   1.111  0.00  0.00     0.000 A 
ATOM      5  C6  UNL d   1      -4.270   3.872   1.727  0.00  0.00     0.000 A 
ATOM      6  C7  UNL d   1      -4.722   3.571   3.024  0.00  0.00    -0.073 A 
ATOM      7  C8  UNL d   1      -4.320   2.261   3.643  0.00  0.00     0.078 C 
ENDROOT
BRANCH   1   8
ATOM      8  C1  UNL d   1      -5.991   4.288   5.130  0.00  0.00     0.053 C 
ATOM      9  C   UNL d   1      -5.996   5.561   5.961  0.00  0.00     0.018 C 
ENDBRANCH   1   8
TORSDOF 1
ENDMDL
