MODEL 1
REMARK minimizedAffinity 11.9539394
REMARK minimizedRMSD -1
REMARK  1 active torsions:
REMARK  status: ('A' for Active; 'I' for Inactive)
REMARK    1  A    between atoms: C1_2  and  C2_3 
ROOT
ATOM      1  C2  UNL d   1       2.489   2.377  -2.066  0.00  0.00    -0.076 A 
ATOM      2  C3  UNL d   1       3.703   1.751  -2.398  0.00  0.00     0.004 A 
ATOM      3  C4  UNL d   1       4.896   2.131  -1.787  0.00  0.00    -0.003 A 
ATOM      4  C5  UNL d   1       4.895   3.142  -0.832  0.00  0.00     0.000 A 
ATOM      5  C6  UNL d   1       3.697   3.761  -0.477  0.00  0.00     0.000 A 
ATOM      6  C7  UNL d   1       2.483   3.379  -1.073  0.00  0.00    -0.073 A 
ATOM      7  C8  UNL d   1       1.221   4.085  -0.657  0.00  0.00     0.078 C 
ENDROOT
BRANCH   1   8
ATOM      8  C1  UNL d   1       1.230   1.942  -2.782  0.00  0.00     0.053 C 
ATOM      9  C   UNL d   1       1.061   0.431  -2.797  0.00  0.00     0.018 C 
ENDBRANCH   1   8
TORSDOF 1
ENDMDL
