MODEL 1
REMARK minimizedAffinity 5.48753452
REMARK minimizedRMSD -1
REMARK  1 active torsions:
REMARK  status: ('A' for Active; 'I' for Inactive)
REMARK    1  A    between atoms: C1_2  and  C2_3 
ROOT
ATOM      1  C2  UNL d   1      -2.390  -3.211   4.607  0.00  0.00    -0.076 A 
ATOM      2  C3  UNL d   1      -2.482  -4.499   4.051  0.00  0.00     0.004 A 
ATOM      3  C4  UNL d   1      -1.941  -4.780   2.798  0.00  0.00    -0.003 A 
ATOM      4  C5  UNL d   1      -1.300  -3.777   2.079  0.00  0.00     0.000 A 
ATOM      5  C6  UNL d   1      -1.184  -2.498   2.623  0.00  0.00     0.000 A 
ATOM      6  C7  UNL d   1      -1.709  -2.202   3.893  0.00  0.00    -0.073 A 
ATOM      7  C8  UNL d   1      -1.561  -0.804   4.428  0.00  0.00     0.078 C 
ENDROOT
BRANCH   1   8
ATOM      8  C1  UNL d   1      -3.019  -2.959   5.959  0.00  0.00     0.053 C 
ATOM      9  C   UNL d   1      -4.489  -3.347   5.999  0.00  0.00     0.018 C 
ENDBRANCH   1   8
TORSDOF 1
ENDMDL
