MODEL 1
REMARK minimizedAffinity 2.99279308
REMARK minimizedRMSD -1
REMARK  1 active torsions:
REMARK  status: ('A' for Active; 'I' for Inactive)
REMARK    1  A    between atoms: C1_2  and  C2_3 
ROOT
ATOM      1  C2  UNL d   1      -4.596   3.407   3.432  0.00  0.00    -0.076 A 
ATOM      2  C3  UNL d   1      -5.848   3.498   4.065  0.00  0.00     0.004 A 
ATOM      3  C4  UNL d   1      -5.999   4.202   5.259  0.00  0.00    -0.003 A 
ATOM      4  C5  UNL d   1      -4.900   4.827   5.838  0.00  0.00     0.000 A 
ATOM      5  C6  UNL d   1      -3.655   4.762   5.215  0.00  0.00     0.000 A 
ATOM      6  C7  UNL d   1      -3.489   4.070   4.003  0.00  0.00    -0.073 A 
ATOM      7  C8  UNL d   1      -2.122   4.027   3.377  0.00  0.00     0.078 C 
ENDROOT
BRANCH   1   8
ATOM      8  C1  UNL d   1      -4.488   2.607   2.153  0.00  0.00     0.053 C 
ATOM      9  C   UNL d   1      -5.404   3.132   1.058  0.00  0.00     0.018 C 
ENDBRANCH   1   8
TORSDOF 1
ENDMDL
