MODEL 1
REMARK minimizedAffinity 10.3207607
REMARK minimizedRMSD -1
REMARK  1 active torsions:
REMARK  status: ('A' for Active; 'I' for Inactive)
REMARK    1  A    between atoms: C1_2  and  C2_3 
ROOT
ATOM      1  C2  UNL d   1       5.578   5.183   3.309  0.00  0.00    -0.076 A 
ATOM      2  C3  UNL d   1       5.985   5.994   4.382  0.00  0.00     0.004 A 
ATOM      3  C4  UNL d   1       5.611   5.693   5.691  0.00  0.00    -0.003 A 
ATOM      4  C5  UNL d   1       4.824   4.576   5.947  0.00  0.00     0.000 A 
ATOM      5  C6  UNL d   1       4.426   3.750   4.896  0.00  0.00     0.000 A 
ATOM      6  C7  UNL d   1       4.808   4.030   3.573  0.00  0.00    -0.073 A 
ATOM      7  C8  UNL d   1       4.345   3.109   2.478  0.00  0.00     0.078 C 
ENDROOT
BRANCH   1   8
ATOM      8  C1  UNL d   1       5.991   5.574   1.908  0.00  0.00     0.053 C 
ATOM      9  C   UNL d   1       4.856   5.435   0.905  0.00  0.00     0.018 C 
ENDBRANCH   1   8
TORSDOF 1
ENDMDL
