MODEL 1
REMARK minimizedAffinity 2.89689374
REMARK minimizedRMSD -1
REMARK  1 active torsions:
REMARK  status: ('A' for Active; 'I' for Inactive)
REMARK    1  A    between atoms: C1_2  and  C2_3 
ROOT
ATOM      1  C2  UNL d   1      -1.959  -0.613  -0.729  0.00  0.00    -0.076 A 
ATOM      2  C3  UNL d   1      -1.005  -1.630  -0.553  0.00  0.00     0.004 A 
ATOM      3  C4  UNL d   1      -0.816  -2.228   0.692  0.00  0.00    -0.003 A 
ATOM      4  C5  UNL d   1      -1.578  -1.819   1.781  0.00  0.00     0.000 A 
ATOM      5  C6  UNL d   1      -2.542  -0.824   1.619  0.00  0.00     0.000 A 
ATOM      6  C7  UNL d   1      -2.756  -0.222   0.368  0.00  0.00    -0.073 A 
ATOM      7  C8  UNL d   1      -3.805   0.851   0.252  0.00  0.00     0.078 C 
ENDROOT
BRANCH   1   8
ATOM      8  C1  UNL d   1      -2.101   0.017  -2.096  0.00  0.00     0.053 C 
ATOM      9  C   UNL d   1      -1.375   1.350  -2.202  0.00  0.00     0.018 C 
ENDBRANCH   1   8
TORSDOF 1
ENDMDL
