MODEL 1
REMARK minimizedAffinity 21.2283421
REMARK minimizedRMSD -1
REMARK  1 active torsions:
REMARK  status: ('A' for Active; 'I' for Inactive)
REMARK    1  A    between atoms: C1_2  and  C2_3 
ROOT
ATOM      1  C2  UNL d   1      -2.259   1.347   2.562  0.00  0.00    -0.076 A 
ATOM      2  C3  UNL d   1      -2.851   1.138   1.304  0.00  0.00     0.004 A 
ATOM      3  C4  UNL d   1      -2.989  -0.147   0.781  0.00  0.00    -0.003 A 
ATOM      4  C5  UNL d   1      -2.538  -1.243   1.508  0.00  0.00     0.000 A 
ATOM      5  C6  UNL d   1      -1.965  -1.056   2.765  0.00  0.00     0.000 A 
ATOM      6  C7  UNL d   1      -1.833   0.231   3.314  0.00  0.00    -0.073 A 
ATOM      7  C8  UNL d   1      -1.201   0.376   4.672  0.00  0.00     0.078 C 
ENDROOT
BRANCH   1   8
ATOM      8  C1  UNL d   1      -2.111   2.765   3.066  0.00  0.00     0.053 C 
ATOM      9  C   UNL d   1      -1.226   3.614   2.167  0.00  0.00     0.018 C 
ENDBRANCH   1   8
TORSDOF 1
ENDMDL
