MODEL 1
REMARK minimizedAffinity 15.7128172
REMARK minimizedRMSD -1
REMARK  1 active torsions:
REMARK  status: ('A' for Active; 'I' for Inactive)
REMARK    1  A    between atoms: C1_2  and  C2_3 
ROOT
ATOM      1  C2  UNL d   1      -0.982  -2.794   1.467  0.00  0.00    -0.076 A 
ATOM      2  C3  UNL d   1      -1.241  -3.033   0.106  0.00  0.00     0.004 A 
ATOM      3  C4  UNL d   1      -1.361  -1.978  -0.797  0.00  0.00    -0.003 A 
ATOM      4  C5  UNL d   1      -1.223  -0.667  -0.353  0.00  0.00     0.000 A 
ATOM      5  C6  UNL d   1      -0.948  -0.413   0.990  0.00  0.00     0.000 A 
ATOM      6  C7  UNL d   1      -0.808  -1.466   1.910  0.00  0.00    -0.073 A 
ATOM      7  C8  UNL d   1      -0.518  -1.134   3.348  0.00  0.00     0.078 C 
ENDROOT
BRANCH   1   8
ATOM      8  C1  UNL d   1      -0.889  -3.977   2.405  0.00  0.00     0.053 C 
ATOM      9  C   UNL d   1      -2.117  -4.871   2.338  0.00  0.00     0.018 C 
ENDBRANCH   1   8
TORSDOF 1
ENDMDL
