MODEL 1
REMARK minimizedAffinity 2.68011808
REMARK minimizedRMSD -1
REMARK  1 active torsions:
REMARK  status: ('A' for Active; 'I' for Inactive)
REMARK    1  A    between atoms: C1_2  and  C2_3 
ROOT
ATOM      1  C2  UNL d   1       4.665   3.812   3.916  0.00  0.00    -0.076 A 
ATOM      2  C3  UNL d   1       4.792   5.199   3.721  0.00  0.00     0.004 A 
ATOM      3  C4  UNL d   1       5.454   5.996   4.653  0.00  0.00    -0.003 A 
ATOM      4  C5  UNL d   1       5.999   5.421   5.795  0.00  0.00     0.000 A 
ATOM      5  C6  UNL d   1       5.898   4.044   5.996  0.00  0.00     0.000 A 
ATOM      6  C7  UNL d   1       5.248   3.223   5.058  0.00  0.00    -0.073 A 
ATOM      7  C8  UNL d   1       5.163   1.746   5.328  0.00  0.00     0.078 C 
ENDROOT
BRANCH   1   8
ATOM      8  C1  UNL d   1       3.913   3.002   2.884  0.00  0.00     0.053 C 
ATOM      9  C   UNL d   1       3.683   3.771   1.593  0.00  0.00     0.018 C 
ENDBRANCH   1   8
TORSDOF 1
ENDMDL
