MODEL 1
REMARK minimizedAffinity 6.24810505
REMARK minimizedRMSD -1
REMARK  1 active torsions:
REMARK  status: ('A' for Active; 'I' for Inactive)
REMARK    1  A    between atoms: C1_2  and  C2_3 
ROOT
ATOM      1  C2  UNL d   1      -4.499   3.764   3.446  0.00  0.00    -0.076 A 
ATOM      2  C3  UNL d   1      -4.626   4.892   2.617  0.00  0.00     0.004 A 
ATOM      3  C4  UNL d   1      -5.369   6.000   3.022  0.00  0.00    -0.003 A 
ATOM      4  C5  UNL d   1      -5.996   5.998   4.263  0.00  0.00     0.000 A 
ATOM      5  C6  UNL d   1      -5.867   4.895   5.105  0.00  0.00     0.000 A 
ATOM      6  C7  UNL d   1      -5.108   3.776   4.720  0.00  0.00    -0.073 A 
ATOM      7  C8  UNL d   1      -5.007   2.611   5.666  0.00  0.00     0.078 C 
ENDROOT
BRANCH   1   8
ATOM      8  C1  UNL d   1      -3.703   2.581   2.943  0.00  0.00     0.053 C 
ATOM      9  C   UNL d   1      -2.715   2.061   3.976  0.00  0.00     0.018 C 
ENDBRANCH   1   8
TORSDOF 1
ENDMDL
