MODEL 1
REMARK minimizedAffinity 11.7884741
REMARK minimizedRMSD -1
REMARK  1 active torsions:
REMARK  status: ('A' for Active; 'I' for Inactive)
REMARK    1  A    between atoms: C1_2  and  C2_3 
ROOT
ATOM      1  C2  UNL d   1       4.912   3.021  -0.881  0.00  0.00    -0.076 A 
ATOM      2  C3  UNL d   1       4.857   2.944   0.522  0.00  0.00     0.004 A 
ATOM      3  C4  UNL d   1       3.891   3.647   1.242  0.00  0.00    -0.003 A 
ATOM      4  C5  UNL d   1       2.965   4.437   0.570  0.00  0.00     0.000 A 
ATOM      5  C6  UNL d   1       2.994   4.511  -0.822  0.00  0.00     0.000 A 
ATOM      6  C7  UNL d   1       3.950   3.797  -1.564  0.00  0.00    -0.073 A 
ATOM      7  C8  UNL d   1       3.939   3.918  -3.063  0.00  0.00     0.078 C 
ENDROOT
BRANCH   1   8
ATOM      8  C1  UNL d   1       5.998   2.259  -1.606  0.00  0.00     0.053 C 
ATOM      9  C   UNL d   1       5.767   0.756  -1.587  0.00  0.00     0.018 C 
ENDBRANCH   1   8
TORSDOF 1
ENDMDL
