MODEL 1
REMARK minimizedAffinity -3.17158222
REMARK minimizedRMSD -1
REMARK  1 active torsions:
REMARK  status: ('A' for Active; 'I' for Inactive)
REMARK    1  A    between atoms: C1_2  and  C2_3 
ROOT
ATOM      1  C2  UNL d   1      -3.847   4.889  -4.668  0.00  0.00    -0.076 A 
ATOM      2  C3  UNL d   1      -3.219   5.336  -3.493  0.00  0.00     0.004 A 
ATOM      3  C4  UNL d   1      -3.965   5.838  -2.428  0.00  0.00    -0.003 A 
ATOM      4  C5  UNL d   1      -5.351   5.900  -2.520  0.00  0.00     0.000 A 
ATOM      5  C6  UNL d   1      -5.991   5.444  -3.672  0.00  0.00     0.000 A 
ATOM      6  C7  UNL d   1      -5.255   4.920  -4.749  0.00  0.00    -0.073 A 
ATOM      7  C8  UNL d   1      -5.998   4.448  -5.969  0.00  0.00     0.078 C 
ENDROOT
BRANCH   1   8
ATOM      8  C1  UNL d   1      -2.984   4.380  -5.801  0.00  0.00     0.053 C 
ATOM      9  C   UNL d   1      -1.855   3.484  -5.317  0.00  0.00     0.018 C 
ENDBRANCH   1   8
TORSDOF 1
ENDMDL
