MODEL 1
REMARK minimizedAffinity 0.4969818
REMARK minimizedRMSD -1
REMARK  1 active torsions:
REMARK  status: ('A' for Active; 'I' for Inactive)
REMARK    1  A    between atoms: C1_2  and  C2_3 
ROOT
ATOM      1  C2  UNL d   1      -0.181   0.336   1.063  0.00  0.00    -0.076 A 
ATOM      2  C3  UNL d   1       0.245   1.674   0.980  0.00  0.00     0.004 A 
ATOM      3  C4  UNL d   1       1.230   2.058   0.073  0.00  0.00    -0.003 A 
ATOM      4  C5  UNL d   1       1.806   1.112  -0.767  0.00  0.00     0.000 A 
ATOM      5  C6  UNL d   1       1.383  -0.216  -0.712  0.00  0.00     0.000 A 
ATOM      6  C7  UNL d   1       0.379  -0.617   0.186  0.00  0.00    -0.073 A 
ATOM      7  C8  UNL d   1      -0.034  -2.063   0.208  0.00  0.00     0.078 C 
ENDROOT
BRANCH   1   8
ATOM      8  C1  UNL d   1      -1.234  -0.027   2.085  0.00  0.00     0.053 C 
ATOM      9  C   UNL d   1      -2.629   0.413   1.666  0.00  0.00     0.018 C 
ENDBRANCH   1   8
TORSDOF 1
ENDMDL
