MODEL 1
REMARK minimizedAffinity -3.25700545
REMARK minimizedRMSD -1
REMARK  1 active torsions:
REMARK  status: ('A' for Active; 'I' for Inactive)
REMARK    1  A    between atoms: C1_2  and  C2_3 
ROOT
ATOM      1  C2  UNL d   1       0.660  -0.232   0.265  0.00  0.00    -0.076 A 
ATOM      2  C3  UNL d   1       0.981   1.070  -0.156  0.00  0.00     0.004 A 
ATOM      3  C4  UNL d   1       1.497   1.306  -1.429  0.00  0.00    -0.003 A 
ATOM      4  C5  UNL d   1       1.700   0.243  -2.302  0.00  0.00     0.000 A 
ATOM      5  C6  UNL d   1       1.370  -1.053  -1.907  0.00  0.00     0.000 A 
ATOM      6  C7  UNL d   1       0.834  -1.306  -0.633  0.00  0.00    -0.073 A 
ATOM      7  C8  UNL d   1       0.502  -2.724  -0.258  0.00  0.00     0.078 C 
ENDROOT
BRANCH   1   8
ATOM      8  C1  UNL d   1       0.128  -0.429   1.667  0.00  0.00     0.053 C 
ATOM      9  C   UNL d   1      -1.277   0.125   1.841  0.00  0.00     0.018 C 
ENDBRANCH   1   8
TORSDOF 1
ENDMDL
