MODEL 1
REMARK minimizedAffinity -0.941588819
REMARK minimizedRMSD -1
REMARK  1 active torsions:
REMARK  status: ('A' for Active; 'I' for Inactive)
REMARK    1  A    between atoms: C1_2  and  C2_3 
ROOT
ATOM      1  C2  UNL d   1      -0.846   0.392  -0.905  0.00  0.00    -0.076 A 
ATOM      2  C3  UNL d   1      -0.175  -0.843  -0.924  0.00  0.00     0.004 A 
ATOM      3  C4  UNL d   1       1.218  -0.903  -0.927  0.00  0.00    -0.003 A 
ATOM      4  C5  UNL d   1       1.962   0.272  -0.911  0.00  0.00     0.000 A 
ATOM      5  C6  UNL d   1       1.313   1.505  -0.875  0.00  0.00     0.000 A 
ATOM      6  C7  UNL d   1      -0.090   1.583  -0.855  0.00  0.00    -0.073 A 
ATOM      7  C8  UNL d   1      -0.737   2.940  -0.822  0.00  0.00     0.078 C 
ENDROOT
BRANCH   1   8
ATOM      8  C1  UNL d   1      -2.357   0.395  -0.930  0.00  0.00     0.053 C 
ATOM      9  C   UNL d   1      -2.962   0.597   0.451  0.00  0.00     0.018 C 
ENDBRANCH   1   8
TORSDOF 1
ENDMDL
