MODEL 1
REMARK minimizedAffinity -1.16633666
REMARK minimizedRMSD -1
REMARK  1 active torsions:
REMARK  status: ('A' for Active; 'I' for Inactive)
REMARK    1  A    between atoms: C1_2  and  C2_3 
ROOT
ATOM      1  C2  UNL d   1       1.110   0.453  -1.172  0.00  0.00    -0.076 A 
ATOM      2  C3  UNL d   1       0.549   0.013   0.039  0.00  0.00     0.004 A 
ATOM      3  C4  UNL d   1      -0.181  -1.173   0.103  0.00  0.00    -0.003 A 
ATOM      4  C5  UNL d   1      -0.362  -1.938  -1.044  0.00  0.00     0.000 A 
ATOM      5  C6  UNL d   1       0.203  -1.525  -2.251  0.00  0.00     0.000 A 
ATOM      6  C7  UNL d   1       0.956  -0.341  -2.328  0.00  0.00    -0.073 A 
ATOM      7  C8  UNL d   1       1.536   0.059  -3.657  0.00  0.00     0.078 C 
ENDROOT
BRANCH   1   8
ATOM      8  C1  UNL d   1       1.869   1.761  -1.186  0.00  0.00     0.053 C 
ATOM      9  C   UNL d   1       1.453   2.688  -0.054  0.00  0.00     0.018 C 
ENDBRANCH   1   8
TORSDOF 1
ENDMDL
