MODEL 1
REMARK minimizedAffinity 8.69702053
REMARK minimizedRMSD -1
REMARK  1 active torsions:
REMARK  status: ('A' for Active; 'I' for Inactive)
REMARK    1  A    between atoms: C1_2  and  C2_3 
ROOT
ATOM      1  C2  UNL d   1       1.052   0.656  -0.970  0.00  0.00    -0.076 A 
ATOM      2  C3  UNL d   1       0.861  -0.130   0.180  0.00  0.00     0.004 A 
ATOM      3  C4  UNL d   1       0.462  -1.462   0.080  0.00  0.00    -0.003 A 
ATOM      4  C5  UNL d   1       0.250  -2.030  -1.171  0.00  0.00     0.000 A 
ATOM      5  C6  UNL d   1       0.452  -1.270  -2.323  0.00  0.00     0.000 A 
ATOM      6  C7  UNL d   1       0.869   0.069  -2.240  0.00  0.00    -0.073 A 
ATOM      7  C8  UNL d   1       1.067   0.844  -3.515  0.00  0.00     0.078 C 
ENDROOT
BRANCH   1   8
ATOM      8  C1  UNL d   1       1.458   2.102  -0.799  0.00  0.00     0.053 C 
ATOM      9  C   UNL d   1       1.816   2.441   0.640  0.00  0.00     0.018 C 
ENDBRANCH   1   8
TORSDOF 1
ENDMDL
