MODEL 1
REMARK minimizedAffinity -0.33831507
REMARK minimizedRMSD -1
REMARK  1 active torsions:
REMARK  status: ('A' for Active; 'I' for Inactive)
REMARK    1  A    between atoms: C1_2  and  C2_3 
ROOT
ATOM      1  C2  UNL d   1      -3.606   2.377  -5.898  0.00  0.00    -0.076 A 
ATOM      2  C3  UNL d   1      -4.938   1.928  -5.937  0.00  0.00     0.004 A 
ATOM      3  C4  UNL d   1      -5.999   2.830  -5.977  0.00  0.00    -0.003 A 
ATOM      4  C5  UNL d   1      -5.746   4.198  -5.979  0.00  0.00     0.000 A 
ATOM      5  C6  UNL d   1      -4.431   4.661  -5.958  0.00  0.00     0.000 A 
ATOM      6  C7  UNL d   1      -3.349   3.764  -5.934  0.00  0.00    -0.073 A 
ATOM      7  C8  UNL d   1      -1.951   4.319  -5.906  0.00  0.00     0.078 C 
ENDROOT
BRANCH   1   8
ATOM      8  C1  UNL d   1      -2.497   1.351  -5.828  0.00  0.00     0.053 C 
ATOM      9  C   UNL d   1      -3.024  -0.065  -5.656  0.00  0.00     0.018 C 
ENDBRANCH   1   8
TORSDOF 1
ENDMDL
