MODEL 1
REMARK minimizedAffinity -2.3006146
REMARK minimizedRMSD -1
REMARK  1 active torsions:
REMARK  status: ('A' for Active; 'I' for Inactive)
REMARK    1  A    between atoms: C1_2  and  C2_3 
ROOT
ATOM      1  C2  UNL d   1      -4.755  -1.248  -5.977  0.00  0.00    -0.076 A 
ATOM      2  C3  UNL d   1      -5.702  -2.287  -5.961  0.00  0.00     0.004 A 
ATOM      3  C4  UNL d   1      -5.303  -3.622  -5.973  0.00  0.00    -0.003 A 
ATOM      4  C5  UNL d   1      -3.950  -3.941  -6.000  0.00  0.00     0.000 A 
ATOM      5  C6  UNL d   1      -2.996  -2.924  -5.998  0.00  0.00     0.000 A 
ATOM      6  C7  UNL d   1      -3.381  -1.573  -5.970  0.00  0.00    -0.073 A 
ATOM      7  C8  UNL d   1      -2.310  -0.517  -5.976  0.00  0.00     0.078 C 
ENDROOT
BRANCH   1   8
ATOM      8  C1  UNL d   1      -5.247   0.181  -5.991  0.00  0.00     0.053 C 
ATOM      9  C   UNL d   1      -4.115   1.189  -5.864  0.00  0.00     0.018 C 
ENDBRANCH   1   8
TORSDOF 1
ENDMDL
