MODEL 1
REMARK minimizedAffinity 6.24657631
REMARK minimizedRMSD -1
REMARK  1 active torsions:
REMARK  status: ('A' for Active; 'I' for Inactive)
REMARK    1  A    between atoms: C1_2  and  C2_3 
ROOT
ATOM      1  C2  UNL d   1       1.496   4.217   1.199  0.00  0.00    -0.076 A 
ATOM      2  C3  UNL d   1       1.497   2.859   1.561  0.00  0.00     0.004 A 
ATOM      3  C4  UNL d   1       1.248   1.864   0.617  0.00  0.00    -0.003 A 
ATOM      4  C5  UNL d   1       0.995   2.212  -0.706  0.00  0.00     0.000 A 
ATOM      5  C6  UNL d   1       1.008   3.554  -1.086  0.00  0.00     0.000 A 
ATOM      6  C7  UNL d   1       1.273   4.568  -0.149  0.00  0.00    -0.073 A 
ATOM      7  C8  UNL d   1       1.269   5.998  -0.613  0.00  0.00     0.078 C 
ENDROOT
BRANCH   1   8
ATOM      8  C1  UNL d   1       1.745   5.253   2.273  0.00  0.00     0.053 C 
ATOM      9  C   UNL d   1       3.096   5.077   2.950  0.00  0.00     0.018 C 
ENDBRANCH   1   8
TORSDOF 1
ENDMDL
