MODEL 1
REMARK minimizedAffinity 17.8139095
REMARK minimizedRMSD -1
REMARK  1 active torsions:
REMARK  status: ('A' for Active; 'I' for Inactive)
REMARK    1  A    between atoms: C1_2  and  C2_3 
ROOT
ATOM      1  C2  UNL d   1       0.879  -3.921  -2.415  0.00  0.00    -0.076 A 
ATOM      2  C3  UNL d   1      -0.040  -2.875  -2.609  0.00  0.00     0.004 A 
ATOM      3  C4  UNL d   1      -0.250  -1.913  -1.623  0.00  0.00    -0.003 A 
ATOM      4  C5  UNL d   1       0.456  -1.980  -0.427  0.00  0.00     0.000 A 
ATOM      5  C6  UNL d   1       1.385  -3.001  -0.225  0.00  0.00     0.000 A 
ATOM      6  C7  UNL d   1       1.620  -3.970  -1.215  0.00  0.00    -0.073 A 
ATOM      7  C8  UNL d   1       2.629  -5.052  -0.942  0.00  0.00     0.078 C 
ENDROOT
BRANCH   1   8
ATOM      8  C1  UNL d   1       1.044  -4.952  -3.509  0.00  0.00     0.053 C 
ATOM      9  C   UNL d   1      -0.058  -6.000  -3.494  0.00  0.00     0.018 C 
ENDBRANCH   1   8
TORSDOF 1
ENDMDL
