MODEL 1
REMARK minimizedAffinity 12.2014322
REMARK minimizedRMSD -1
REMARK  1 active torsions:
REMARK  status: ('A' for Active; 'I' for Inactive)
REMARK    1  A    between atoms: C1_2  and  C2_3 
ROOT
ATOM      1  C2  UNL d   1      -3.271   2.016   3.960  0.00  0.00    -0.076 A 
ATOM      2  C3  UNL d   1      -2.290   2.978   3.666  0.00  0.00     0.004 A 
ATOM      3  C4  UNL d   1      -2.330   3.702   2.475  0.00  0.00    -0.003 A 
ATOM      4  C5  UNL d   1      -3.353   3.476   1.560  0.00  0.00     0.000 A 
ATOM      5  C6  UNL d   1      -4.344   2.537   1.844  0.00  0.00     0.000 A 
ATOM      6  C7  UNL d   1      -4.327   1.810   3.047  0.00  0.00    -0.073 A 
ATOM      7  C8  UNL d   1      -5.418   0.806   3.299  0.00  0.00     0.078 C 
ENDROOT
BRANCH   1   8
ATOM      8  C1  UNL d   1      -3.161   1.242   5.255  0.00  0.00     0.053 C 
ATOM      9  C   UNL d   1      -1.867   1.532   5.999  0.00  0.00     0.018 C 
ENDBRANCH   1   8
TORSDOF 1
ENDMDL
