MODEL 1
REMARK minimizedAffinity 5.86517096
REMARK minimizedRMSD -1
REMARK  1 active torsions:
REMARK  status: ('A' for Active; 'I' for Inactive)
REMARK    1  A    between atoms: C1_2  and  C2_3 
ROOT
ATOM      1  C2  UNL d   1      -4.072   0.505   3.337  0.00  0.00    -0.076 A 
ATOM      2  C3  UNL d   1      -3.553   0.341   4.633  0.00  0.00     0.004 A 
ATOM      3  C4  UNL d   1      -2.671   1.275   5.175  0.00  0.00    -0.003 A 
ATOM      4  C5  UNL d   1      -2.295   2.387   4.431  0.00  0.00     0.000 A 
ATOM      5  C6  UNL d   1      -2.814   2.574   3.150  0.00  0.00     0.000 A 
ATOM      6  C7  UNL d   1      -3.717   1.651   2.595  0.00  0.00    -0.073 A 
ATOM      7  C8  UNL d   1      -4.241   1.900   1.207  0.00  0.00     0.078 C 
ENDROOT
BRANCH   1   8
ATOM      8  C1  UNL d   1      -5.004  -0.554   2.791  0.00  0.00     0.053 C 
ATOM      9  C   UNL d   1      -4.446  -1.960   2.952  0.00  0.00     0.018 C 
ENDBRANCH   1   8
TORSDOF 1
ENDMDL
