MODEL 1
REMARK minimizedAffinity 6.81344318
REMARK minimizedRMSD -1
REMARK  1 active torsions:
REMARK  status: ('A' for Active; 'I' for Inactive)
REMARK    1  A    between atoms: C1_2  and  C2_3 
ROOT
ATOM      1  C2  UNL d   1      -2.484   4.201  -5.263  0.00  0.00    -0.076 A 
ATOM      2  C3  UNL d   1      -1.505   4.892  -5.999  0.00  0.00     0.004 A 
ATOM      3  C4  UNL d   1      -0.635   5.784  -5.374  0.00  0.00    -0.003 A 
ATOM      4  C5  UNL d   1      -0.729   6.000  -4.004  0.00  0.00     0.000 A 
ATOM      5  C6  UNL d   1      -1.683   5.310  -3.256  0.00  0.00     0.000 A 
ATOM      6  C7  UNL d   1      -2.557   4.395  -3.867  0.00  0.00    -0.073 A 
ATOM      7  C8  UNL d   1      -3.570   3.684  -3.013  0.00  0.00     0.078 C 
ENDROOT
BRANCH   1   8
ATOM      8  C1  UNL d   1      -3.417   3.267  -5.998  0.00  0.00     0.053 C 
ATOM      9  C   UNL d   1      -2.994   1.811  -5.883  0.00  0.00     0.018 C 
ENDBRANCH   1   8
TORSDOF 1
ENDMDL
