MODEL 1
REMARK minimizedAffinity 10.5335178
REMARK minimizedRMSD -1
REMARK  0 active torsions:
REMARK  status: ('A' for Active; 'I' for Inactive)
ROOT
ATOM      1  N1  IND d   1       3.188   2.986  -2.582  0.00  0.00    -0.196 N 
ATOM      2  C2  IND d   1       4.390   3.489  -2.169  0.00  0.00     0.054 A 
ATOM      3  C3  IND d   1       4.708   3.004  -0.947  0.00  0.00    -0.031 A 
ATOM      4  C4  IND d   1       3.452   1.294   0.511  0.00  0.00     0.051 A 
ATOM      5  C5  IND d   1       2.289   0.579   0.572  0.00  0.00    -0.031 A 
ATOM      6  C6  IND d   1       1.348   0.629  -0.436  0.00  0.00     0.015 A 
ATOM      7  C7  IND d   1       1.542   1.391  -1.554  0.00  0.00    -0.016 A 
ATOM      8  C8  IND d   1       2.719   2.123  -1.617  0.00  0.00    -0.047 A 
ATOM      9  C9  IND d   1       3.658   2.110  -0.577  0.00  0.00    -0.096 A 
ATOM     10  HN1 IND d   1       2.792   3.177  -3.321  0.00  0.00     0.298 HD
ENDROOT
TORSDOF 0
ENDMDL
