MODEL 1
REMARK minimizedAffinity 23.5287361
REMARK minimizedRMSD -1
REMARK  0 active torsions:
REMARK  status: ('A' for Active; 'I' for Inactive)
ROOT
ATOM      1  N1  IND d   1       3.302   2.551  -1.110  0.00  0.00    -0.196 N 
ATOM      2  C2  IND d   1       4.196   2.838  -0.117  0.00  0.00     0.054 A 
ATOM      3  C3  IND d   1       4.187   1.864   0.821  0.00  0.00    -0.031 A 
ATOM      4  C4  IND d   1       2.860  -0.342   0.874  0.00  0.00     0.051 A 
ATOM      5  C5  IND d   1       1.888  -1.030   0.205  0.00  0.00    -0.031 A 
ATOM      6  C6  IND d   1       1.328  -0.552  -0.962  0.00  0.00     0.015 A 
ATOM      7  C7  IND d   1       1.729   0.632  -1.512  0.00  0.00    -0.016 A 
ATOM      8  C8  IND d   1       2.711   1.338  -0.831  0.00  0.00    -0.047 A 
ATOM      9  C9  IND d   1       3.253   0.878   0.377  0.00  0.00    -0.096 A 
ATOM     10  HN1 IND d   1       3.136   3.044  -1.794  0.00  0.00     0.298 HD
ENDROOT
TORSDOF 0
ENDMDL
