MODEL 1
REMARK minimizedAffinity 8.0014801
REMARK minimizedRMSD -1
REMARK  0 active torsions:
REMARK  status: ('A' for Active; 'I' for Inactive)
ROOT
ATOM      1  N1  IND d   1       3.180   0.752  -2.243  0.00  0.00    -0.196 N 
ATOM      2  C2  IND d   1       3.468   1.441  -1.098  0.00  0.00     0.054 A 
ATOM      3  C3  IND d   1       3.119   0.716  -0.012  0.00  0.00    -0.031 A 
ATOM      4  C4  IND d   1       2.154  -1.667   0.122  0.00  0.00     0.051 A 
ATOM      5  C5  IND d   1       1.686  -2.685  -0.661  0.00  0.00    -0.031 A 
ATOM      6  C6  IND d   1       1.694  -2.609  -2.039  0.00  0.00     0.015 A 
ATOM      7  C7  IND d   1       2.184  -1.511  -2.688  0.00  0.00    -0.016 A 
ATOM      8  C8  IND d   1       2.654  -0.473  -1.897  0.00  0.00    -0.047 A 
ATOM      9  C9  IND d   1       2.608  -0.527  -0.498  0.00  0.00    -0.096 A 
ATOM     10  HN1 IND d   1       3.306   1.037  -3.045  0.00  0.00     0.298 HD
ENDROOT
TORSDOF 0
ENDMDL
