MODEL 1
REMARK minimizedAffinity 12.1048031
REMARK minimizedRMSD -1
REMARK  0 active torsions:
REMARK  status: ('A' for Active; 'I' for Inactive)
ROOT
ATOM      1  N1  IND d   1       3.554   1.142   0.737  0.00  0.00    -0.196 N 
ATOM      2  C2  IND d   1       2.995   0.514  -0.341  0.00  0.00     0.054 A 
ATOM      3  C3  IND d   1       3.465   1.047  -1.492  0.00  0.00    -0.031 A 
ATOM      4  C4  IND d   1       5.232   2.887  -1.840  0.00  0.00     0.051 A 
ATOM      5  C5  IND d   1       6.000   3.786  -1.155  0.00  0.00    -0.031 A 
ATOM      6  C6  IND d   1       5.994   3.850   0.223  0.00  0.00     0.015 A 
ATOM      7  C7  IND d   1       5.225   3.005   0.972  0.00  0.00    -0.016 A 
ATOM      8  C8  IND d   1       4.438   2.095   0.280  0.00  0.00    -0.047 A 
ATOM      9  C9  IND d   1       4.408   2.055  -1.120  0.00  0.00    -0.096 A 
ATOM     10  HN1 IND d   1       3.382   0.971   1.562  0.00  0.00     0.298 HD
ENDROOT
TORSDOF 0
ENDMDL
