MODEL 1
REMARK minimizedAffinity 6.93677044
REMARK minimizedRMSD -1
REMARK  0 active torsions:
REMARK  status: ('A' for Active; 'I' for Inactive)
ROOT
ATOM      1  N1  IND d   1      -4.512   0.997  -5.513  0.00  0.00    -0.196 N 
ATOM      2  C2  IND d   1      -5.833   0.733  -5.280  0.00  0.00     0.054 A 
ATOM      3  C3  IND d   1      -6.000   0.227  -4.037  0.00  0.00    -0.031 A 
ATOM      4  C4  IND d   1      -4.258  -0.158  -2.181  0.00  0.00     0.051 A 
ATOM      5  C5  IND d   1      -2.915  -0.101  -1.936  0.00  0.00    -0.031 A 
ATOM      6  C6  IND d   1      -2.017   0.336  -2.889  0.00  0.00     0.015 A 
ATOM      7  C7  IND d   1      -2.433   0.745  -4.124  0.00  0.00    -0.016 A 
ATOM      8  C8  IND d   1      -3.796   0.682  -4.379  0.00  0.00    -0.047 A 
ATOM      9  C9  IND d   1      -4.707   0.199  -3.431  0.00  0.00    -0.096 A 
ATOM     10  HN1 IND d   1      -4.184   1.307  -6.245  0.00  0.00     0.298 HD
ENDROOT
TORSDOF 0
ENDMDL
