MODEL 1
REMARK minimizedAffinity 18.0101433
REMARK minimizedRMSD -1
REMARK  0 active torsions:
REMARK  status: ('A' for Active; 'I' for Inactive)
ROOT
ATOM      1  N1  IND d   1      -5.700   0.764  -3.027  0.00  0.00    -0.196 N 
ATOM      2  C2  IND d   1      -5.999   1.812  -3.853  0.00  0.00     0.054 A 
ATOM      3  C3  IND d   1      -5.795   2.986  -3.215  0.00  0.00    -0.031 A 
ATOM      4  C4  IND d   1      -4.878   3.425  -0.849  0.00  0.00     0.051 A 
ATOM      5  C5  IND d   1      -4.499   2.782   0.295  0.00  0.00    -0.031 A 
ATOM      6  C6  IND d   1      -4.497   1.406   0.392  0.00  0.00     0.015 A 
ATOM      7  C7  IND d   1      -4.866   0.617  -0.661  0.00  0.00    -0.016 A 
ATOM      8  C8  IND d   1      -5.259   1.267  -1.822  0.00  0.00    -0.047 A 
ATOM      9  C9  IND d   1      -5.303   2.664  -1.913  0.00  0.00    -0.096 A 
ATOM     10  HN1 IND d   1      -5.774  -0.069  -3.226  0.00  0.00     0.298 HD
ENDROOT
TORSDOF 0
ENDMDL
