MODEL 1
REMARK minimizedAffinity 4.12348127
REMARK minimizedRMSD -1
REMARK  0 active torsions:
REMARK  status: ('A' for Active; 'I' for Inactive)
ROOT
ATOM      1  N1  IND d   1      -5.960   5.985   4.861  0.00  0.00    -0.196 N 
ATOM      2  C2  IND d   1      -5.545   5.313   5.977  0.00  0.00     0.054 A 
ATOM      3  C3  IND d   1      -5.076   4.090   5.642  0.00  0.00    -0.031 A 
ATOM      4  C4  IND d   1      -4.800   3.025   3.315  0.00  0.00     0.051 A 
ATOM      5  C5  IND d   1      -5.072   3.240   1.993  0.00  0.00    -0.031 A 
ATOM      6  C6  IND d   1      -5.664   4.405   1.550  0.00  0.00     0.015 A 
ATOM      7  C7  IND d   1      -5.996   5.409   2.415  0.00  0.00    -0.016 A 
ATOM      8  C8  IND d   1      -5.727   5.191   3.759  0.00  0.00    -0.047 A 
ATOM      9  C9  IND d   1      -5.166   3.993   4.220  0.00  0.00    -0.096 A 
ATOM     10  HN1 IND d   1      -6.307   6.772   4.849  0.00  0.00     0.298 HD
ENDROOT
TORSDOF 0
ENDMDL
