MODEL 1
REMARK minimizedAffinity 5.72785902
REMARK minimizedRMSD -1
REMARK  0 active torsions:
REMARK  status: ('A' for Active; 'I' for Inactive)
ROOT
ATOM      1  C   UNL d   1       5.622   2.246   0.974  0.00  0.00     0.078 C 
ATOM      2  C1  UNL d   1       4.570   1.188   0.828  0.00  0.00    -0.077 A 
ATOM      3  C2  UNL d   1       3.516   1.339  -0.082  0.00  0.00    -0.001 A 
ATOM      4  C3  UNL d   1       2.538   0.350  -0.200  0.00  0.00     0.003 A 
ATOM      5  C4  UNL d   1       2.603  -0.796   0.589  0.00  0.00    -0.005 A 
ATOM      6  C5  UNL d   1       3.647  -0.955   1.499  0.00  0.00     0.003 A 
ATOM      7  C6  UNL d   1       4.626   0.033   1.619  0.00  0.00    -0.001 A 
ENDROOT
TORSDOF 0
ENDMDL
