MODEL 1
REMARK minimizedAffinity 1.86288166
REMARK minimizedRMSD -1
REMARK  0 active torsions:
REMARK  status: ('A' for Active; 'I' for Inactive)
ROOT
ATOM      1  C   UNL d   1       4.867   2.710  -1.633  0.00  0.00     0.078 C 
ATOM      2  C1  UNL d   1       4.003   1.543  -1.259  0.00  0.00    -0.077 A 
ATOM      3  C2  UNL d   1       3.351   1.496  -0.021  0.00  0.00    -0.001 A 
ATOM      4  C3  UNL d   1       2.558   0.399   0.318  0.00  0.00     0.003 A 
ATOM      5  C4  UNL d   1       2.411  -0.661  -0.575  0.00  0.00    -0.005 A 
ATOM      6  C5  UNL d   1       3.058  -0.625  -1.808  0.00  0.00     0.003 A 
ATOM      7  C6  UNL d   1       3.852   0.472  -2.149  0.00  0.00    -0.001 A 
ENDROOT
TORSDOF 0
ENDMDL
