MODEL 1
REMARK minimizedAffinity 12.3492155
REMARK minimizedRMSD -1
REMARK  0 active torsions:
REMARK  status: ('A' for Active; 'I' for Inactive)
ROOT
ATOM      1  C   UNL d   1       4.845   3.042  -0.555  0.00  0.00     0.078 C 
ATOM      2  C1  UNL d   1       3.870   2.003  -0.088  0.00  0.00    -0.077 A 
ATOM      3  C2  UNL d   1       2.548   1.995  -0.551  0.00  0.00    -0.001 A 
ATOM      4  C3  UNL d   1       1.648   1.028  -0.101  0.00  0.00     0.003 A 
ATOM      5  C4  UNL d   1       2.059   0.062   0.816  0.00  0.00    -0.005 A 
ATOM      6  C5  UNL d   1       3.372   0.064   1.285  0.00  0.00     0.003 A 
ATOM      7  C6  UNL d   1       4.273   1.030   0.835  0.00  0.00    -0.001 A 
ENDROOT
TORSDOF 0
ENDMDL
