MODEL 1
REMARK minimizedAffinity 8.74681568
REMARK minimizedRMSD -1
REMARK  0 active torsions:
REMARK  status: ('A' for Active; 'I' for Inactive)
ROOT
ATOM      1  C   UNL d   1       2.729   0.005  -0.006  0.00  0.00     0.078 C 
ATOM      2  C1  UNL d   1       3.851   0.976  -0.222  0.00  0.00    -0.077 A 
ATOM      3  C2  UNL d   1       3.831   1.874  -1.296  0.00  0.00    -0.001 A 
ATOM      4  C3  UNL d   1       4.887   2.766  -1.490  0.00  0.00     0.003 A 
ATOM      5  C4  UNL d   1       5.971   2.769  -0.614  0.00  0.00    -0.005 A 
ATOM      6  C5  UNL d   1       6.000   1.877   0.457  0.00  0.00     0.003 A 
ATOM      7  C6  UNL d   1       4.945   0.984   0.652  0.00  0.00    -0.001 A 
ENDROOT
TORSDOF 0
ENDMDL
