MODEL 1
REMARK minimizedAffinity 1.64936721
REMARK minimizedRMSD -1
REMARK  0 active torsions:
REMARK  status: ('A' for Active; 'I' for Inactive)
ROOT
ATOM      1  C   UNL d   1      -0.715   4.500   0.729  0.00  0.00     0.078 C 
ATOM      2  C1  UNL d   1      -2.151   4.835   0.999  0.00  0.00    -0.077 A 
ATOM      3  C2  UNL d   1      -2.534   5.459   2.193  0.00  0.00    -0.001 A 
ATOM      4  C3  UNL d   1      -3.876   5.757   2.435  0.00  0.00     0.003 A 
ATOM      5  C4  UNL d   1      -4.846   5.433   1.488  0.00  0.00    -0.005 A 
ATOM      6  C5  UNL d   1      -4.475   4.810   0.298  0.00  0.00     0.003 A 
ATOM      7  C6  UNL d   1      -3.133   4.512   0.055  0.00  0.00    -0.001 A 
ENDROOT
TORSDOF 0
ENDMDL
