MODEL 1
REMARK minimizedAffinity -0.93716687
REMARK minimizedRMSD -1
REMARK  0 active torsions:
REMARK  status: ('A' for Active; 'I' for Inactive)
ROOT
ATOM      1  C   UNL d   1      -4.874   4.168   2.009  0.00  0.00     0.078 C 
ATOM      2  C1  UNL d   1      -4.879   4.745   3.393  0.00  0.00    -0.077 A 
ATOM      3  C2  UNL d   1      -5.998   4.615   4.224  0.00  0.00    -0.001 A 
ATOM      4  C3  UNL d   1      -5.992   5.166   5.507  0.00  0.00     0.003 A 
ATOM      5  C4  UNL d   1      -4.870   5.851   5.969  0.00  0.00    -0.005 A 
ATOM      6  C5  UNL d   1      -3.753   5.986   5.148  0.00  0.00     0.003 A 
ATOM      7  C6  UNL d   1      -3.757   5.436   3.866  0.00  0.00    -0.001 A 
ENDROOT
TORSDOF 0
ENDMDL
