MODEL 1
REMARK minimizedAffinity -0.254856646
REMARK minimizedRMSD -1
REMARK  0 active torsions:
REMARK  status: ('A' for Active; 'I' for Inactive)
ROOT
ATOM      1  C   UNL d   1       5.306   3.044   2.363  0.00  0.00     0.078 C 
ATOM      2  C1  UNL d   1       4.901   2.563   1.002  0.00  0.00    -0.077 A 
ATOM      3  C2  UNL d   1       3.744   1.796   0.823  0.00  0.00    -0.001 A 
ATOM      4  C3  UNL d   1       3.385   1.346  -0.449  0.00  0.00     0.003 A 
ATOM      5  C4  UNL d   1       4.178   1.659  -1.551  0.00  0.00    -0.005 A 
ATOM      6  C5  UNL d   1       5.332   2.420  -1.383  0.00  0.00     0.003 A 
ATOM      7  C6  UNL d   1       5.693   2.870  -0.112  0.00  0.00    -0.001 A 
ENDROOT
TORSDOF 0
ENDMDL
