MODEL 1
REMARK minimizedAffinity 4.89235353
REMARK minimizedRMSD -1
REMARK  0 active torsions:
REMARK  status: ('A' for Active; 'I' for Inactive)
ROOT
ATOM      1  C   UNL d   1       5.373  -5.962  -5.891  0.00  0.00     0.020 A 
ATOM      2  C1  UNL d   1       5.999  -5.956  -4.645  0.00  0.00     0.020 A 
ATOM      3  C2  UNL d   1       5.275  -5.614  -3.501  0.00  0.00     0.034 A 
ATOM      4  C3  UNL d   1       3.920  -5.277  -3.601  0.00  0.00     0.017 A 
ATOM      5  C4  UNL d   1       3.292  -5.284  -4.852  0.00  0.00     0.017 A 
ATOM      6  C5  UNL d   1       4.023  -5.627  -5.994  0.00  0.00     0.034 A 
ATOM      7 Cl   UNL d   1       1.624  -4.880  -5.054  0.00  0.00    -0.070 Cl
ATOM      8 Cl1  UNL d   1       3.085  -4.866  -2.145  0.00  0.00    -0.070 Cl
ENDROOT
TORSDOF 0
ENDMDL
