MODEL 1
REMARK minimizedAffinity -1.32722771
REMARK minimizedRMSD -1
REMARK  0 active torsions:
REMARK  status: ('A' for Active; 'I' for Inactive)
ROOT
ATOM      1  C   UNL d   1       5.968  -5.826  -4.875  0.00  0.00     0.020 A 
ATOM      2  C1  UNL d   1       5.162  -6.000  -6.000  0.00  0.00     0.020 A 
ATOM      3  C2  UNL d   1       3.781  -5.812  -5.905  0.00  0.00     0.034 A 
ATOM      4  C3  UNL d   1       3.203  -5.450  -4.683  0.00  0.00     0.017 A 
ATOM      5  C4  UNL d   1       4.012  -5.276  -3.555  0.00  0.00     0.017 A 
ATOM      6  C5  UNL d   1       5.394  -5.465  -3.656  0.00  0.00     0.034 A 
ATOM      7 Cl   UNL d   1       3.371  -4.829  -2.013  0.00  0.00    -0.070 Cl
ATOM      8 Cl1  UNL d   1       1.489  -5.234  -4.638  0.00  0.00    -0.070 Cl
ENDROOT
TORSDOF 0
ENDMDL
