MODEL 1
REMARK minimizedAffinity 3.43600917
REMARK minimizedRMSD -1
REMARK  0 active torsions:
REMARK  status: ('A' for Active; 'I' for Inactive)
ROOT
ATOM      1  C   UNL d   1       4.540  -5.822  -2.119  0.00  0.00     0.020 A 
ATOM      2  C1  UNL d   1       3.196  -5.449  -2.119  0.00  0.00     0.020 A 
ATOM      3  C2  UNL d   1       2.529  -5.240  -3.328  0.00  0.00     0.034 A 
ATOM      4  C3  UNL d   1       3.206  -5.403  -4.542  0.00  0.00     0.017 A 
ATOM      5  C4  UNL d   1       4.554  -5.778  -4.541  0.00  0.00     0.017 A 
ATOM      6  C5  UNL d   1       5.217  -5.986  -3.328  0.00  0.00     0.034 A 
ATOM      7 Cl   UNL d   1       5.456  -5.998  -5.999  0.00  0.00    -0.070 Cl
ATOM      8 Cl1  UNL d   1       2.318  -5.129  -5.999  0.00  0.00    -0.070 Cl
ENDROOT
TORSDOF 0
ENDMDL
