MODEL 1
REMARK minimizedAffinity 1.62909997
REMARK minimizedRMSD -1
REMARK  0 active torsions:
REMARK  status: ('A' for Active; 'I' for Inactive)
ROOT
ATOM      1  C   UNL d   1       5.076  -5.985  -5.997  0.00  0.00     0.020 A 
ATOM      2  C1  UNL d   1       5.888  -5.853  -4.871  0.00  0.00     0.020 A 
ATOM      3  C2  UNL d   1       5.311  -5.734  -3.605  0.00  0.00     0.034 A 
ATOM      4  C3  UNL d   1       3.919  -5.748  -3.462  0.00  0.00     0.017 A 
ATOM      5  C4  UNL d   1       3.105  -5.880  -4.593  0.00  0.00     0.017 A 
ATOM      6  C5  UNL d   1       3.688  -5.999  -5.858  0.00  0.00     0.034 A 
ATOM      7 Cl   UNL d   1       1.380  -5.905  -4.496  0.00  0.00    -0.070 Cl
ATOM      8 Cl1  UNL d   1       3.274  -5.597  -1.866  0.00  0.00    -0.070 Cl
ENDROOT
TORSDOF 0
ENDMDL
