MODEL 1
REMARK minimizedAffinity -0.380192012
REMARK minimizedRMSD -1
REMARK  0 active torsions:
REMARK  status: ('A' for Active; 'I' for Inactive)
ROOT
ATOM      1  C   UNL d   1       1.902  -5.349  -4.027  0.00  0.00     0.020 A 
ATOM      2  C1  UNL d   1       2.043  -5.287  -5.413  0.00  0.00     0.020 A 
ATOM      3  C2  UNL d   1       3.313  -5.345  -5.989  0.00  0.00     0.034 A 
ATOM      4  C3  UNL d   1       4.449  -5.466  -5.179  0.00  0.00     0.017 A 
ATOM      5  C4  UNL d   1       4.307  -5.527  -3.788  0.00  0.00     0.017 A 
ATOM      6  C5  UNL d   1       3.032  -5.469  -3.217  0.00  0.00     0.034 A 
ATOM      7 Cl   UNL d   1       5.660  -5.676  -2.724  0.00  0.00    -0.070 Cl
ATOM      8 Cl1  UNL d   1       5.989  -5.532  -5.960  0.00  0.00    -0.070 Cl
ENDROOT
TORSDOF 0
ENDMDL
