MODEL 1
REMARK minimizedAffinity -1.44895756
REMARK minimizedRMSD -1
REMARK  0 active torsions:
REMARK  status: ('A' for Active; 'I' for Inactive)
ROOT
ATOM      1  C   UNL d   1       3.756  -5.852  -2.081  0.00  0.00     0.020 A 
ATOM      2  C1  UNL d   1       5.148  -5.910  -2.115  0.00  0.00     0.020 A 
ATOM      3  C2  UNL d   1       5.821  -5.817  -3.335  0.00  0.00     0.034 A 
ATOM      4  C3  UNL d   1       5.102  -5.665  -4.526  0.00  0.00     0.017 A 
ATOM      5  C4  UNL d   1       3.704  -5.607  -4.491  0.00  0.00     0.017 A 
ATOM      6  C5  UNL d   1       3.035  -5.701  -3.266  0.00  0.00     0.034 A 
ATOM      7 Cl   UNL d   1       2.748  -5.421  -5.918  0.00  0.00    -0.070 Cl
ATOM      8 Cl1  UNL d   1       5.999  -5.556  -5.998  0.00  0.00    -0.070 Cl
ENDROOT
TORSDOF 0
ENDMDL
