MODEL 1
REMARK minimizedAffinity 4.0432415
REMARK minimizedRMSD -1
REMARK  0 active torsions:
REMARK  status: ('A' for Active; 'I' for Inactive)
ROOT
ATOM      1  C   UNL d   1      -2.090   2.208  -4.977  0.00  0.00     0.020 A 
ATOM      2  C1  UNL d   1      -1.997   3.390  -5.711  0.00  0.00     0.020 A 
ATOM      3  C2  UNL d   1      -3.149   4.125  -5.999  0.00  0.00     0.034 A 
ATOM      4  C3  UNL d   1      -4.398   3.679  -5.553  0.00  0.00     0.017 A 
ATOM      5  C4  UNL d   1      -4.491   2.493  -4.816  0.00  0.00     0.017 A 
ATOM      6  C5  UNL d   1      -3.334   1.761  -4.530  0.00  0.00     0.034 A 
ATOM      7 Cl   UNL d   1      -5.997   1.879  -4.232  0.00  0.00    -0.070 Cl
ATOM      8 Cl1  UNL d   1      -5.781   4.639  -5.946  0.00  0.00    -0.070 Cl
ENDROOT
TORSDOF 0
ENDMDL
