MODEL 1
REMARK minimizedAffinity -0.974813223
REMARK minimizedRMSD -1
REMARK  0 active torsions:
REMARK  status: ('A' for Active; 'I' for Inactive)
ROOT
ATOM      1  C   UNL d   1       5.920  -5.568  -4.985  0.00  0.00     0.020 A 
ATOM      2  C1  UNL d   1       4.979  -5.741  -6.000  0.00  0.00     0.020 A 
ATOM      3  C2  UNL d   1       3.625  -5.871  -5.682  0.00  0.00     0.034 A 
ATOM      4  C3  UNL d   1       3.208  -5.829  -4.347  0.00  0.00     0.017 A 
ATOM      5  C4  UNL d   1       4.153  -5.655  -3.329  0.00  0.00     0.017 A 
ATOM      6  C5  UNL d   1       5.507  -5.525  -3.653  0.00  0.00     0.034 A 
ATOM      7 Cl   UNL d   1       3.715  -5.593  -1.658  0.00  0.00    -0.070 Cl
ATOM      8 Cl1  UNL d   1       1.519  -5.997  -4.027  0.00  0.00    -0.070 Cl
ENDROOT
TORSDOF 0
ENDMDL
