MODEL 1
REMARK minimizedAffinity 2.76181388
REMARK minimizedRMSD -1
REMARK  0 active torsions:
REMARK  status: ('A' for Active; 'I' for Inactive)
ROOT
ATOM      1  C   UNL d   1       4.400  -4.710  -5.920  0.00  0.00     0.020 A 
ATOM      2  C1  UNL d   1       3.030  -4.708  -5.661  0.00  0.00     0.020 A 
ATOM      3  C2  UNL d   1       2.556  -5.108  -4.411  0.00  0.00     0.034 A 
ATOM      4  C3  UNL d   1       3.451  -5.513  -3.414  0.00  0.00     0.017 A 
ATOM      5  C4  UNL d   1       4.826  -5.514  -3.675  0.00  0.00     0.017 A 
ATOM      6  C5  UNL d   1       5.296  -5.112  -4.929  0.00  0.00     0.034 A 
ATOM      7 Cl   UNL d   1       5.993  -6.000  -2.496  0.00  0.00    -0.070 Cl
ATOM      8 Cl1  UNL d   1       2.794  -5.995  -1.891  0.00  0.00    -0.070 Cl
ENDROOT
TORSDOF 0
ENDMDL
