MODEL 1
REMARK minimizedAffinity -1.17653084
REMARK minimizedRMSD -1
REMARK  0 active torsions:
REMARK  status: ('A' for Active; 'I' for Inactive)
ROOT
ATOM      1  C   UNL d   1      -5.152   1.881  -6.000  0.00  0.00     0.020 A 
ATOM      2  C1  UNL d   1      -6.000   2.988  -6.000  0.00  0.00     0.020 A 
ATOM      3  C2  UNL d   1      -5.505   4.246  -5.650  0.00  0.00     0.034 A 
ATOM      4  C3  UNL d   1      -4.159   4.401  -5.299  0.00  0.00     0.017 A 
ATOM      5  C4  UNL d   1      -3.309   3.289  -5.300  0.00  0.00     0.017 A 
ATOM      6  C5  UNL d   1      -3.809   2.031  -5.650  0.00  0.00     0.034 A 
ATOM      7 Cl   UNL d   1      -1.636   3.401  -4.878  0.00  0.00    -0.070 Cl
ATOM      8 Cl1  UNL d   1      -3.616   5.986  -4.878  0.00  0.00    -0.070 Cl
ENDROOT
TORSDOF 0
ENDMDL
