MODEL 1
REMARK minimizedAffinity 4.64548922
REMARK minimizedRMSD -1
REMARK  0 active torsions:
REMARK  status: ('A' for Active; 'I' for Inactive)
ROOT
ATOM      1  C   UNL d   1       4.100   2.434   0.798  0.00  0.00     0.020 A 
ATOM      2  C1  UNL d   1       3.079   1.490   0.891  0.00  0.00     0.020 A 
ATOM      3  C2  UNL d   1       1.767   1.845   0.567  0.00  0.00     0.034 A 
ATOM      4  C3  UNL d   1       1.474   3.148   0.149  0.00  0.00     0.017 A 
ATOM      5  C4  UNL d   1       2.500   4.095   0.056  0.00  0.00     0.017 A 
ATOM      6  C5  UNL d   1       3.811   3.734   0.381  0.00  0.00     0.034 A 
ATOM      7 Cl   UNL d   1       2.216   5.723  -0.452  0.00  0.00    -0.070 Cl
ATOM      8 Cl1  UNL d   1      -0.169   3.517  -0.235  0.00  0.00    -0.070 Cl
ENDROOT
TORSDOF 0
ENDMDL
