MODEL 1
REMARK minimizedAffinity 0.209431618
REMARK minimizedRMSD -1
REMARK  0 active torsions:
REMARK  status: ('A' for Active; 'I' for Inactive)
ROOT
ATOM      1  C   UNL d   1       2.640  -5.654  -5.560  0.00  0.00     0.020 A 
ATOM      2  C1  UNL d   1       3.848  -5.116  -6.000  0.00  0.00     0.020 A 
ATOM      3  C2  UNL d   1       4.865  -4.842  -5.083  0.00  0.00     0.034 A 
ATOM      4  C3  UNL d   1       4.675  -5.106  -3.721  0.00  0.00     0.017 A 
ATOM      5  C4  UNL d   1       3.462  -5.647  -3.281  0.00  0.00     0.017 A 
ATOM      6  C5  UNL d   1       2.447  -5.919  -4.204  0.00  0.00     0.034 A 
ATOM      7 Cl   UNL d   1       3.153  -6.000  -1.618  0.00  0.00    -0.070 Cl
ATOM      8 Cl1  UNL d   1       5.976  -4.743  -2.643  0.00  0.00    -0.070 Cl
ENDROOT
TORSDOF 0
ENDMDL
