MODEL 1
REMARK minimizedAffinity 2.02794504
REMARK minimizedRMSD -1
REMARK  0 active torsions:
REMARK  status: ('A' for Active; 'I' for Inactive)
ROOT
ATOM      1  C   UNL d   1      -5.994   2.915  -5.786  0.00  0.00     0.020 A 
ATOM      2  C1  UNL d   1      -5.201   1.873  -5.308  0.00  0.00     0.020 A 
ATOM      3  C2  UNL d   1      -3.849   2.092  -5.035  0.00  0.00     0.034 A 
ATOM      4  C3  UNL d   1      -3.286   3.357  -5.240  0.00  0.00     0.017 A 
ATOM      5  C4  UNL d   1      -4.083   4.403  -5.720  0.00  0.00     0.017 A 
ATOM      6  C5  UNL d   1      -5.436   4.177  -5.992  0.00  0.00     0.034 A 
ATOM      7 Cl   UNL d   1      -3.459   5.990  -5.998  0.00  0.00    -0.070 Cl
ATOM      8 Cl1  UNL d   1      -1.608   3.557  -4.881  0.00  0.00    -0.070 Cl
ENDROOT
TORSDOF 0
ENDMDL
