MODEL 1
REMARK minimizedAffinity 0.752797365
REMARK minimizedRMSD -1
REMARK  0 active torsions:
REMARK  status: ('A' for Active; 'I' for Inactive)
ROOT
ATOM      1  C   UNL d   1      -5.999   2.893  -5.989  0.00  0.00     0.020 A 
ATOM      2  C1  UNL d   1      -5.148   1.789  -5.969  0.00  0.00     0.020 A 
ATOM      3  C2  UNL d   1      -3.764   1.975  -5.957  0.00  0.00     0.034 A 
ATOM      4  C3  UNL d   1      -3.227   3.267  -5.966  0.00  0.00     0.017 A 
ATOM      5  C4  UNL d   1      -4.082   4.375  -5.986  0.00  0.00     0.017 A 
ATOM      6  C5  UNL d   1      -5.467   4.183  -5.998  0.00  0.00     0.034 A 
ATOM      7 Cl   UNL d   1      -3.494   6.000  -5.998  0.00  0.00    -0.070 Cl
ATOM      8 Cl1  UNL d   1      -1.506   3.422  -5.950  0.00  0.00    -0.070 Cl
ENDROOT
TORSDOF 0
ENDMDL
