MODEL 1
REMARK minimizedAffinity -2.33783722
REMARK minimizedRMSD -1
REMARK  0 active torsions:
REMARK  status: ('A' for Active; 'I' for Inactive)
ROOT
ATOM      1  C   UNL d   1       2.714  -5.982  -5.611  0.00  0.00     0.020 A 
ATOM      2  C1  UNL d   1       4.054  -5.998  -5.996  0.00  0.00     0.020 A 
ATOM      3  C2  UNL d   1       5.053  -5.714  -5.062  0.00  0.00     0.034 A 
ATOM      4  C3  UNL d   1       4.713  -5.412  -3.738  0.00  0.00     0.017 A 
ATOM      5  C4  UNL d   1       3.367  -5.396  -3.353  0.00  0.00     0.017 A 
ATOM      6  C5  UNL d   1       2.372  -5.681  -4.292  0.00  0.00     0.034 A 
ATOM      7 Cl   UNL d   1       2.870  -5.032  -1.738  0.00  0.00    -0.070 Cl
ATOM      8 Cl1  UNL d   1       5.999  -5.070  -2.636  0.00  0.00    -0.070 Cl
ENDROOT
TORSDOF 0
ENDMDL
