MODEL 1
REMARK minimizedAffinity -3.78098202
REMARK minimizedRMSD -1
REMARK  0 active torsions:
REMARK  status: ('A' for Active; 'I' for Inactive)
ROOT
ATOM      1  C   UNL d   1       5.981  -5.536  -3.486  0.00  0.00     0.020 A 
ATOM      2  C1  UNL d   1       6.000  -5.787  -4.857  0.00  0.00     0.020 A 
ATOM      3  C2  UNL d   1       4.800  -5.927  -5.558  0.00  0.00     0.034 A 
ATOM      4  C3  UNL d   1       3.576  -5.816  -4.888  0.00  0.00     0.017 A 
ATOM      5  C4  UNL d   1       3.558  -5.564  -3.511  0.00  0.00     0.017 A 
ATOM      6  C5  UNL d   1       4.762  -5.424  -2.814  0.00  0.00     0.034 A 
ATOM      7 Cl   UNL d   1       2.088  -5.413  -2.615  0.00  0.00    -0.070 Cl
ATOM      8 Cl1  UNL d   1       2.131  -5.999  -5.817  0.00  0.00    -0.070 Cl
ENDROOT
TORSDOF 0
ENDMDL
