MODEL 1
REMARK minimizedAffinity 1.71046257
REMARK minimizedRMSD -1
REMARK  0 active torsions:
REMARK  status: ('A' for Active; 'I' for Inactive)
ROOT
ATOM      1  C   UNL d   1      -2.098   3.765  -5.825  0.00  0.00     0.020 A 
ATOM      2  C1  UNL d   1      -2.125   2.496  -5.249  0.00  0.00     0.020 A 
ATOM      3  C2  UNL d   1      -3.340   1.937  -4.848  0.00  0.00     0.034 A 
ATOM      4  C3  UNL d   1      -4.533   2.648  -5.021  0.00  0.00     0.017 A 
ATOM      5  C4  UNL d   1      -4.505   3.922  -5.600  0.00  0.00     0.017 A 
ATOM      6  C5  UNL d   1      -3.286   4.477  -6.000  0.00  0.00     0.034 A 
ATOM      7 Cl   UNL d   1      -5.936   4.859  -5.847  0.00  0.00    -0.070 Cl
ATOM      8 Cl1  UNL d   1      -6.000   1.895  -4.502  0.00  0.00    -0.070 Cl
ENDROOT
TORSDOF 0
ENDMDL
