MODEL 1
REMARK minimizedAffinity 2.72055101
REMARK minimizedRMSD -1
REMARK  0 active torsions:
REMARK  status: ('A' for Active; 'I' for Inactive)
ROOT
ATOM      1  C   UNL d   1      -2.210   3.373  -5.712  0.00  0.00     0.020 A 
ATOM      2  C1  UNL d   1      -2.210   2.359  -4.755  0.00  0.00     0.020 A 
ATOM      3  C2  UNL d   1      -3.390   2.033  -4.085  0.00  0.00     0.034 A 
ATOM      4  C3  UNL d   1      -4.576   2.720  -4.370  0.00  0.00     0.017 A 
ATOM      5  C4  UNL d   1      -4.574   3.738  -5.331  0.00  0.00     0.017 A 
ATOM      6  C5  UNL d   1      -3.389   4.061  -5.999  0.00  0.00     0.034 A 
ATOM      7 Cl   UNL d   1      -5.997   4.631  -5.737  0.00  0.00    -0.070 Cl
ATOM      8 Cl1  UNL d   1      -5.998   2.263  -3.503  0.00  0.00    -0.070 Cl
ENDROOT
TORSDOF 0
ENDMDL
