MODEL 1
REMARK minimizedAffinity 8.47329807
REMARK minimizedRMSD -1
REMARK  1 active torsions:
REMARK  status: ('A' for Active; 'I' for Inactive)
REMARK    1  A    between atoms: C1_2  and  C2_3 
ROOT
ATOM      1  C2  UNL d   1       0.308  -2.512   2.449  0.00  0.00    -0.081 A 
ATOM      2  C3  UNL d   1       1.031  -1.442   1.908  0.00  0.00     0.006 A 
ATOM      3  C4  UNL d   1       2.056  -1.674   0.987  0.00  0.00     0.002 A 
ATOM      4  C5  UNL d   1       2.370  -2.978   0.588  0.00  0.00    -0.080 A 
ATOM      5  C6  UNL d   1       3.447  -3.238  -0.422  0.00  0.00     0.076 C 
ATOM      6  C7  UNL d   1       1.659  -4.047   1.142  0.00  0.00     0.002 A 
ATOM      7  C8  UNL d   1       0.634  -3.816   2.063  0.00  0.00     0.006 A 
ENDROOT
BRANCH   1   8
ATOM      8  C1  UNL d   1      -0.841  -2.260   3.393  0.00  0.00     0.054 C 
ATOM      9  C   UNL d   1      -1.832  -3.415   3.377  0.00  0.00     0.018 C 
ENDBRANCH   1   8
TORSDOF 1
ENDMDL
