MODEL 1
REMARK minimizedAffinity 14.1577206
REMARK minimizedRMSD -1
REMARK  1 active torsions:
REMARK  status: ('A' for Active; 'I' for Inactive)
REMARK    1  A    between atoms: C1_2  and  C2_3 
ROOT
ATOM      1  C2  UNL d   1       5.923   0.127  -0.850  0.00  0.00    -0.081 A 
ATOM      2  C3  UNL d   1       5.952  -0.292   0.486  0.00  0.00     0.006 A 
ATOM      3  C4  UNL d   1       5.989   0.646   1.521  0.00  0.00     0.002 A 
ATOM      4  C5  UNL d   1       5.989   2.016   1.238  0.00  0.00    -0.080 A 
ATOM      5  C6  UNL d   1       5.998   3.033   2.340  0.00  0.00     0.076 C 
ATOM      6  C7  UNL d   1       5.978   2.434  -0.098  0.00  0.00     0.002 A 
ATOM      7  C8  UNL d   1       5.942   1.497  -1.133  0.00  0.00     0.006 A 
ENDROOT
BRANCH   1   8
ATOM      8  C1  UNL d   1       5.818  -0.881  -1.967  0.00  0.00     0.054 C 
ATOM      9  C   UNL d   1       4.584  -0.632  -2.822  0.00  0.00     0.018 C 
ENDBRANCH   1   8
TORSDOF 1
ENDMDL
