MODEL 1
REMARK minimizedAffinity 5.6174984
REMARK minimizedRMSD -1
REMARK  1 active torsions:
REMARK  status: ('A' for Active; 'I' for Inactive)
REMARK    1  A    between atoms: C1_2  and  C2_3 
ROOT
ATOM      1  C2  UNL d   1       5.955  -0.441   0.091  0.00  0.00    -0.081 A 
ATOM      2  C3  UNL d   1       5.972  -0.915   1.409  0.00  0.00     0.006 A 
ATOM      3  C4  UNL d   1       5.998  -0.021   2.482  0.00  0.00     0.002 A 
ATOM      4  C5  UNL d   1       5.999   1.360   2.256  0.00  0.00    -0.080 A 
ATOM      5  C6  UNL d   1       5.996   2.330   3.400  0.00  0.00     0.076 C 
ATOM      6  C7  UNL d   1       5.999   1.833   0.940  0.00  0.00     0.002 A 
ATOM      7  C8  UNL d   1       5.974   0.940  -0.134  0.00  0.00     0.006 A 
ENDROOT
BRANCH   1   8
ATOM      8  C1  UNL d   1       5.862  -1.401  -1.067  0.00  0.00     0.054 C 
ATOM      9  C   UNL d   1       5.974  -0.674  -2.399  0.00  0.00     0.018 C 
ENDBRANCH   1   8
TORSDOF 1
ENDMDL
