MODEL 1
REMARK minimizedAffinity 6.8380065
REMARK minimizedRMSD -1
REMARK  1 active torsions:
REMARK  status: ('A' for Active; 'I' for Inactive)
REMARK    1  A    between atoms: C1_2  and  C2_3 
ROOT
ATOM      1  C2  UNL d   1       0.710  -1.261   2.492  0.00  0.00    -0.081 A 
ATOM      2  C3  UNL d   1       1.150  -2.457   3.073  0.00  0.00     0.006 A 
ATOM      3  C4  UNL d   1       1.882  -3.381   2.325  0.00  0.00     0.002 A 
ATOM      4  C5  UNL d   1       2.193  -3.123   0.986  0.00  0.00    -0.080 A 
ATOM      5  C6  UNL d   1       3.004  -4.093   0.180  0.00  0.00     0.076 C 
ATOM      6  C7  UNL d   1       1.739  -1.937   0.399  0.00  0.00     0.002 A 
ATOM      7  C8  UNL d   1       1.006  -1.012   1.147  0.00  0.00     0.006 A 
ENDROOT
BRANCH   1   8
ATOM      8  C1  UNL d   1      -0.024  -0.233   3.314  0.00  0.00     0.054 C 
ATOM      9  C   UNL d   1      -1.531  -0.381   3.168  0.00  0.00     0.018 C 
ENDBRANCH   1   8
TORSDOF 1
ENDMDL
