MODEL 1
REMARK minimizedAffinity 1.53624272
REMARK minimizedRMSD -1
REMARK  1 active torsions:
REMARK  status: ('A' for Active; 'I' for Inactive)
REMARK    1  A    between atoms: C1_2  and  C2_3 
ROOT
ATOM      1  C2  UNL d   1       5.933  -1.038  -1.017  0.00  0.00    -0.081 A 
ATOM      2  C3  UNL d   1       5.874  -1.572  -2.310  0.00  0.00     0.006 A 
ATOM      3  C4  UNL d   1       5.883  -0.731  -3.425  0.00  0.00     0.002 A 
ATOM      4  C5  UNL d   1       5.958   0.657  -3.267  0.00  0.00    -0.080 A 
ATOM      5  C6  UNL d   1       5.999   1.569  -4.457  0.00  0.00     0.076 C 
ATOM      6  C7  UNL d   1       5.999   1.192  -1.975  0.00  0.00     0.002 A 
ATOM      7  C8  UNL d   1       5.990   0.351  -0.860  0.00  0.00     0.006 A 
ENDROOT
BRANCH   1   8
ATOM      8  C1  UNL d   1       5.989  -1.945   0.185  0.00  0.00     0.054 C 
ATOM      9  C   UNL d   1       4.621  -2.083   0.838  0.00  0.00     0.018 C 
ENDBRANCH   1   8
TORSDOF 1
ENDMDL
