MODEL 1
REMARK minimizedAffinity 2.7198503
REMARK minimizedRMSD -1
REMARK  1 active torsions:
REMARK  status: ('A' for Active; 'I' for Inactive)
REMARK    1  A    between atoms: C1_2  and  C2_3 
ROOT
ATOM      1  C2  UNL d   1      -0.893   2.240  -3.184  0.00  0.00    -0.081 A 
ATOM      2  C3  UNL d   1       0.040   3.282  -3.121  0.00  0.00     0.006 A 
ATOM      3  C4  UNL d   1       1.106   3.335  -4.023  0.00  0.00     0.002 A 
ATOM      4  C5  UNL d   1       1.252   2.351  -5.006  0.00  0.00    -0.080 A 
ATOM      5  C6  UNL d   1       2.375   2.412  -5.999  0.00  0.00     0.076 C 
ATOM      6  C7  UNL d   1       0.331   1.300  -5.059  0.00  0.00     0.002 A 
ATOM      7  C8  UNL d   1      -0.735   1.247  -4.157  0.00  0.00     0.006 A 
ENDROOT
BRANCH   1   8
ATOM      8  C1  UNL d   1      -2.079   2.216  -2.255  0.00  0.00     0.054 C 
ATOM      9  C   UNL d   1      -3.076   3.313  -2.602  0.00  0.00     0.018 C 
ENDBRANCH   1   8
TORSDOF 1
ENDMDL
