MODEL 1
REMARK minimizedAffinity 4.05435085
REMARK minimizedRMSD -1
REMARK  1 active torsions:
REMARK  status: ('A' for Active; 'I' for Inactive)
REMARK    1  A    between atoms: C1_2  and  C2_3 
ROOT
ATOM      1  C2  UNL d   1       0.014  -1.338   2.588  0.00  0.00    -0.081 A 
ATOM      2  C3  UNL d   1      -0.012  -0.008   3.028  0.00  0.00     0.006 A 
ATOM      3  C4  UNL d   1      -1.216   0.697   3.081  0.00  0.00     0.002 A 
ATOM      4  C5  UNL d   1      -2.415   0.083   2.702  0.00  0.00    -0.080 A 
ATOM      5  C6  UNL d   1      -3.720   0.819   2.783  0.00  0.00     0.076 C 
ATOM      6  C7  UNL d   1      -2.387  -1.239   2.246  0.00  0.00     0.002 A 
ATOM      7  C8  UNL d   1      -1.183  -1.945   2.193  0.00  0.00     0.006 A 
ENDROOT
BRANCH   1   8
ATOM      8  C1  UNL d   1       1.302  -2.121   2.592  0.00  0.00     0.054 C 
ATOM      9  C   UNL d   1       1.787  -2.395   1.176  0.00  0.00     0.018 C 
ENDBRANCH   1   8
TORSDOF 1
ENDMDL
