MODEL 1
REMARK minimizedAffinity 15.2937794
REMARK minimizedRMSD -1
REMARK  1 active torsions:
REMARK  status: ('A' for Active; 'I' for Inactive)
REMARK    1  A    between atoms: C1_2  and  C2_3 
ROOT
ATOM      1  C2  UNL d   1       2.772   0.004  -1.102  0.00  0.00    -0.073 A 
ATOM      2  C3  UNL d   1       2.260   0.342  -2.360  0.00  0.00    -0.002 A 
ATOM      3  C4  UNL d   1       1.480  -0.570  -3.072  0.00  0.00     0.004 A 
ATOM      4  C5  UNL d   1       1.199  -1.825  -2.532  0.00  0.00    -0.004 A 
ATOM      5  C6  UNL d   1       1.692  -2.177  -1.272  0.00  0.00    -0.075 A 
ATOM      6  C7  UNL d   1       1.400  -3.524  -0.678  0.00  0.00     0.076 C 
ATOM      7  C8  UNL d   1       2.476  -1.257  -0.564  0.00  0.00     0.001 A 
ENDROOT
BRANCH   1   8
ATOM      8  C1  UNL d   1       3.609   0.988  -0.327  0.00  0.00     0.053 C 
ATOM      9  C   UNL d   1       4.563   1.758  -1.226  0.00  0.00     0.018 C 
ENDBRANCH   1   8
TORSDOF 1
ENDMDL
