MODEL 1
REMARK minimizedAffinity 13.2459288
REMARK minimizedRMSD -1
REMARK  1 active torsions:
REMARK  status: ('A' for Active; 'I' for Inactive)
REMARK    1  A    between atoms: C1_2  and  C2_3 
ROOT
ATOM      1  C2  UNL d   1       1.076  -0.957  -2.398  0.00  0.00    -0.073 A 
ATOM      2  C3  UNL d   1       1.858  -0.851  -1.242  0.00  0.00    -0.002 A 
ATOM      3  C4  UNL d   1       1.728  -1.787  -0.215  0.00  0.00     0.004 A 
ATOM      4  C5  UNL d   1       0.823  -2.841  -0.336  0.00  0.00    -0.004 A 
ATOM      5  C6  UNL d   1       0.042  -2.971  -1.489  0.00  0.00    -0.075 A 
ATOM      6  C7  UNL d   1      -0.938  -4.098  -1.634  0.00  0.00     0.076 C 
ATOM      7  C8  UNL d   1       0.176  -2.026  -2.515  0.00  0.00     0.001 A 
ENDROOT
BRANCH   1   8
ATOM      8  C1  UNL d   1       1.217   0.048  -3.512  0.00  0.00     0.053 C 
ATOM      9  C   UNL d   1       1.613  -0.609  -4.825  0.00  0.00     0.018 C 
ENDBRANCH   1   8
TORSDOF 1
ENDMDL
