MODEL 1
REMARK minimizedAffinity 13.4588137
REMARK minimizedRMSD -1
REMARK  1 active torsions:
REMARK  status: ('A' for Active; 'I' for Inactive)
REMARK    1  A    between atoms: C1_2  and  C2_3 
ROOT
ATOM      1  C2  UNL d   1       2.322  -0.997  -1.668  0.00  0.00    -0.073 A 
ATOM      2  C3  UNL d   1       2.268  -2.132  -0.851  0.00  0.00    -0.002 A 
ATOM      3  C4  UNL d   1       2.559  -3.392  -1.375  0.00  0.00     0.004 A 
ATOM      4  C5  UNL d   1       2.913  -3.530  -2.718  0.00  0.00    -0.004 A 
ATOM      5  C6  UNL d   1       2.984  -2.406  -3.547  0.00  0.00    -0.075 A 
ATOM      6  C7  UNL d   1       3.361  -2.537  -4.993  0.00  0.00     0.076 C 
ATOM      7  C8  UNL d   1       2.688  -1.144  -3.014  0.00  0.00     0.001 A 
ENDROOT
BRANCH   1   8
ATOM      8  C1  UNL d   1       2.016   0.367  -1.105  0.00  0.00     0.053 C 
ATOM      9  C   UNL d   1       3.276   1.106  -0.683  0.00  0.00     0.018 C 
ENDBRANCH   1   8
TORSDOF 1
ENDMDL
