MODEL 1
REMARK minimizedAffinity 16.4157887
REMARK minimizedRMSD -1
REMARK  1 active torsions:
REMARK  status: ('A' for Active; 'I' for Inactive)
REMARK    1  A    between atoms: C1_2  and  C2_3 
ROOT
ATOM      1  C2  UNL d   1      -3.140   0.625   2.743  0.00  0.00    -0.073 A 
ATOM      2  C3  UNL d   1      -3.954  -0.498   2.561  0.00  0.00    -0.002 A 
ATOM      3  C4  UNL d   1      -5.105  -0.667   3.332  0.00  0.00     0.004 A 
ATOM      4  C5  UNL d   1      -5.457   0.288   4.286  0.00  0.00    -0.004 A 
ATOM      5  C6  UNL d   1      -4.663   1.424   4.474  0.00  0.00    -0.075 A 
ATOM      6  C7  UNL d   1      -5.027   2.459   5.497  0.00  0.00     0.076 C 
ATOM      7  C8  UNL d   1      -3.507   1.584   3.698  0.00  0.00     0.001 A 
ENDROOT
BRANCH   1   8
ATOM      8  C1  UNL d   1      -1.899   0.815   1.909  0.00  0.00     0.053 C 
ATOM      9  C   UNL d   1      -0.630   0.672   2.734  0.00  0.00     0.018 C 
ENDBRANCH   1   8
TORSDOF 1
ENDMDL
