MODEL 1
REMARK minimizedAffinity -0.20458135
REMARK minimizedRMSD -1
REMARK  1 active torsions:
REMARK  status: ('A' for Active; 'I' for Inactive)
REMARK    1  A    between atoms: C1_2  and  C2_3 
ROOT
ATOM      1  C2  UNL d   1       1.756  -4.887  -2.499  0.00  0.00    -0.073 A 
ATOM      2  C3  UNL d   1       2.933  -5.473  -2.018  0.00  0.00    -0.002 A 
ATOM      3  C4  UNL d   1       3.832  -4.725  -1.257  0.00  0.00     0.004 A 
ATOM      4  C5  UNL d   1       3.563  -3.388  -0.965  0.00  0.00    -0.004 A 
ATOM      5  C6  UNL d   1       2.387  -2.788  -1.428  0.00  0.00    -0.075 A 
ATOM      6  C7  UNL d   1       2.083  -1.351  -1.124  0.00  0.00     0.076 C 
ATOM      7  C8  UNL d   1       1.490  -3.545  -2.193  0.00  0.00     0.001 A 
ENDROOT
BRANCH   1   8
ATOM      8  C1  UNL d   1       0.779  -5.693  -3.315  0.00  0.00     0.053 C 
ATOM      9  C   UNL d   1      -0.650  -5.205  -3.138  0.00  0.00     0.018 C 
ENDBRANCH   1   8
TORSDOF 1
ENDMDL
