MODEL 1
REMARK minimizedAffinity 4.40857887
REMARK minimizedRMSD -1
REMARK  1 active torsions:
REMARK  status: ('A' for Active; 'I' for Inactive)
REMARK    1  A    between atoms: C1_2  and  C2_3 
ROOT
ATOM      1  C2  UNL d   1      -4.079  -5.043  -4.049  0.00  0.00    -0.073 A 
ATOM      2  C3  UNL d   1      -4.537  -5.972  -4.990  0.00  0.00    -0.002 A 
ATOM      3  C4  UNL d   1      -5.469  -5.595  -5.958  0.00  0.00     0.004 A 
ATOM      4  C5  UNL d   1      -5.947  -4.286  -6.000  0.00  0.00    -0.004 A 
ATOM      5  C6  UNL d   1      -5.493  -3.339  -5.076  0.00  0.00    -0.075 A 
ATOM      6  C7  UNL d   1      -5.999  -1.927  -5.106  0.00  0.00     0.076 C 
ATOM      7  C8  UNL d   1      -4.559  -3.726  -4.105  0.00  0.00     0.001 A 
ENDROOT
BRANCH   1   8
ATOM      8  C1  UNL d   1      -3.068  -5.443  -3.006  0.00  0.00     0.053 C 
ATOM      9  C   UNL d   1      -3.731  -5.909  -1.719  0.00  0.00     0.018 C 
ENDBRANCH   1   8
TORSDOF 1
ENDMDL
