MODEL 1
REMARK minimizedAffinity 23.3064842
REMARK minimizedRMSD -1
REMARK  1 active torsions:
REMARK  status: ('A' for Active; 'I' for Inactive)
REMARK    1  A    between atoms: C1_2  and  C2_3 
ROOT
ATOM      1  C2  UNL d   1      -0.595  -1.816  -2.192  0.00  0.00    -0.073 A 
ATOM      2  C3  UNL d   1      -1.631  -1.051  -2.740  0.00  0.00    -0.002 A 
ATOM      3  C4  UNL d   1      -2.827  -1.657  -3.124  0.00  0.00     0.004 A 
ATOM      4  C5  UNL d   1      -3.004  -3.031  -2.958  0.00  0.00    -0.004 A 
ATOM      5  C6  UNL d   1      -1.985  -3.810  -2.401  0.00  0.00    -0.075 A 
ATOM      6  C7  UNL d   1      -2.157  -5.289  -2.217  0.00  0.00     0.076 C 
ATOM      7  C8  UNL d   1      -0.785  -3.195  -2.020  0.00  0.00     0.001 A 
ENDROOT
BRANCH   1   8
ATOM      8  C1  UNL d   1       0.697  -1.165  -1.770  0.00  0.00     0.053 C 
ATOM      9  C   UNL d   1       1.072  -1.517  -0.340  0.00  0.00     0.018 C 
ENDBRANCH   1   8
TORSDOF 1
ENDMDL
