MODEL 1
REMARK minimizedAffinity 11.1228199
REMARK minimizedRMSD -1
REMARK  1 active torsions:
REMARK  status: ('A' for Active; 'I' for Inactive)
REMARK    1  A    between atoms: C1_2  and  C2_3 
ROOT
ATOM      1  C2  UNL d   1      -0.478  -2.890  -1.921  0.00  0.00    -0.073 A 
ATOM      2  C3  UNL d   1      -1.252  -3.994  -2.295  0.00  0.00    -0.002 A 
ATOM      3  C4  UNL d   1      -2.320  -3.839  -3.180  0.00  0.00     0.004 A 
ATOM      4  C5  UNL d   1      -2.619  -2.582  -3.705  0.00  0.00    -0.004 A 
ATOM      5  C6  UNL d   1      -1.850  -1.469  -3.353  0.00  0.00    -0.075 A 
ATOM      6  C7  UNL d   1      -2.160  -0.110  -3.908  0.00  0.00     0.076 C 
ATOM      7  C8  UNL d   1      -0.781  -1.632  -2.462  0.00  0.00     0.001 A 
ENDROOT
BRANCH   1   8
ATOM      8  C1  UNL d   1       0.680  -3.054  -0.971  0.00  0.00     0.053 C 
ATOM      9  C   UNL d   1       1.315  -1.720  -0.611  0.00  0.00     0.018 C 
ENDBRANCH   1   8
TORSDOF 1
ENDMDL
