MODEL 1
REMARK minimizedAffinity 6.91185188
REMARK minimizedRMSD -1
REMARK  1 active torsions:
REMARK  status: ('A' for Active; 'I' for Inactive)
REMARK    1  A    between atoms: C1_2  and  C2_3 
ROOT
ATOM      1  C2  UNL d   1      -3.611   0.606   3.336  0.00  0.00    -0.073 A 
ATOM      2  C3  UNL d   1      -2.265   0.859   3.050  0.00  0.00    -0.002 A 
ATOM      3  C4  UNL d   1      -1.698   2.095   3.363  0.00  0.00     0.004 A 
ATOM      4  C5  UNL d   1      -2.467   3.087   3.971  0.00  0.00    -0.004 A 
ATOM      5  C6  UNL d   1      -3.811   2.849   4.276  0.00  0.00    -0.075 A 
ATOM      6  C7  UNL d   1      -4.653   3.906   4.928  0.00  0.00     0.076 C 
ATOM      7  C8  UNL d   1      -4.375   1.606   3.955  0.00  0.00     0.001 A 
ENDROOT
BRANCH   1   8
ATOM      8  C1  UNL d   1      -4.227  -0.729   3.005  0.00  0.00     0.053 C 
ATOM      9  C   UNL d   1      -5.621  -0.584   2.415  0.00  0.00     0.018 C 
ENDBRANCH   1   8
TORSDOF 1
ENDMDL
