MODEL 1
REMARK minimizedAffinity 8.64871693
REMARK minimizedRMSD -1
REMARK  1 active torsions:
REMARK  status: ('A' for Active; 'I' for Inactive)
REMARK    1  A    between atoms: C1_2  and  C2_3 
ROOT
ATOM      1  C2  UNL d   1       3.392  -2.760  -3.395  0.00  0.00    -0.073 A 
ATOM      2  C3  UNL d   1       3.282  -3.552  -2.247  0.00  0.00    -0.002 A 
ATOM      3  C4  UNL d   1       2.715  -3.031  -1.083  0.00  0.00     0.004 A 
ATOM      4  C5  UNL d   1       2.247  -1.718  -1.057  0.00  0.00    -0.004 A 
ATOM      5  C6  UNL d   1       2.337  -0.914  -2.198  0.00  0.00    -0.075 A 
ATOM      6  C7  UNL d   1       1.840   0.502  -2.186  0.00  0.00     0.076 C 
ATOM      7  C8  UNL d   1       2.910  -1.443  -3.362  0.00  0.00     0.001 A 
ENDROOT
BRANCH   1   8
ATOM      8  C1  UNL d   1       3.997  -3.320  -4.656  0.00  0.00     0.053 C 
ATOM      9  C   UNL d   1       3.741  -2.424  -5.858  0.00  0.00     0.018 C 
ENDBRANCH   1   8
TORSDOF 1
ENDMDL
