MODEL 1
REMARK minimizedAffinity -1.87926567
REMARK minimizedRMSD -1
REMARK  0 active torsions:
REMARK  status: ('A' for Active; 'I' for Inactive)
ROOT
ATOM      1  C   UNL d   1      -3.372   0.803  -1.699  0.00  0.00     0.077 C 
ATOM      2  C1  UNL d   1      -2.136   0.585  -0.878  0.00  0.00    -0.074 A 
ATOM      3  C2  UNL d   1      -1.162   1.582  -0.765  0.00  0.00    -0.005 A 
ATOM      4  C3  UNL d   1      -0.022   1.368   0.009  0.00  0.00     0.006 A 
ATOM      5  C4  UNL d   1       0.155   0.157   0.679  0.00  0.00    -0.005 A 
ATOM      6  C5  UNL d   1      -0.808  -0.852   0.579  0.00  0.00    -0.074 A 
ATOM      7  C6  UNL d   1      -0.637  -2.156   1.299  0.00  0.00     0.077 C 
ATOM      8  C7  UNL d   1      -1.954  -0.627  -0.196  0.00  0.00    -0.001 A 
ENDROOT
TORSDOF 0
ENDMDL
