MODEL 1
REMARK minimizedAffinity -5.71607256
REMARK minimizedRMSD -1
REMARK  0 active torsions:
REMARK  status: ('A' for Active; 'I' for Inactive)
ROOT
ATOM      1  C   UNL d   1       0.765   2.559  -0.368  0.00  0.00     0.077 C 
ATOM      2  C1  UNL d   1       1.089   1.153   0.043  0.00  0.00    -0.074 A 
ATOM      3  C2  UNL d   1       2.414   0.711   0.108  0.00  0.00    -0.005 A 
ATOM      4  C3  UNL d   1       2.700  -0.597   0.501  0.00  0.00     0.006 A 
ATOM      5  C4  UNL d   1       1.666  -1.473   0.834  0.00  0.00    -0.005 A 
ATOM      6  C5  UNL d   1       0.335  -1.048   0.776  0.00  0.00    -0.074 A 
ATOM      7  C6  UNL d   1      -0.787  -1.974   1.139  0.00  0.00     0.077 C 
ATOM      8  C7  UNL d   1       0.056   0.269   0.386  0.00  0.00    -0.001 A 
ENDROOT
TORSDOF 0
ENDMDL
