MODEL 1
REMARK minimizedAffinity -2.31754827
REMARK minimizedRMSD -1
REMARK  0 active torsions:
REMARK  status: ('A' for Active; 'I' for Inactive)
ROOT
ATOM      1  C   UNL d   1       1.757   1.472   0.370  0.00  0.00     0.077 C 
ATOM      2  C1  UNL d   1       0.418   0.828   0.167  0.00  0.00    -0.074 A 
ATOM      3  C2  UNL d   1       0.119  -0.409   0.747  0.00  0.00    -0.005 A 
ATOM      4  C3  UNL d   1      -1.134  -0.991   0.557  0.00  0.00     0.006 A 
ATOM      5  C4  UNL d   1      -2.099  -0.344  -0.215  0.00  0.00    -0.005 A 
ATOM      6  C5  UNL d   1      -1.819   0.894  -0.803  0.00  0.00    -0.074 A 
ATOM      7  C6  UNL d   1      -2.849   1.608  -1.627  0.00  0.00     0.077 C 
ATOM      8  C7  UNL d   1      -0.560   1.476  -0.601  0.00  0.00    -0.001 A 
ENDROOT
TORSDOF 0
ENDMDL
