MODEL 1
REMARK minimizedAffinity -5.84087944
REMARK minimizedRMSD -1
REMARK  0 active torsions:
REMARK  status: ('A' for Active; 'I' for Inactive)
ROOT
ATOM      1  C   UNL d   1       3.225  -0.315   0.830  0.00  0.00     0.077 C 
ATOM      2  C1  UNL d   1       1.781  -0.720   0.854  0.00  0.00    -0.074 A 
ATOM      3  C2  UNL d   1       1.365  -1.859   1.551  0.00  0.00    -0.005 A 
ATOM      4  C3  UNL d   1       0.018  -2.217   1.572  0.00  0.00     0.006 A 
ATOM      5  C4  UNL d   1      -0.926  -1.442   0.898  0.00  0.00    -0.005 A 
ATOM      6  C5  UNL d   1      -0.530  -0.299   0.197  0.00  0.00    -0.074 A 
ATOM      7  C6  UNL d   1      -1.533   0.551  -0.525  0.00  0.00     0.077 C 
ATOM      8  C7  UNL d   1       0.826   0.059   0.186  0.00  0.00    -0.001 A 
ENDROOT
TORSDOF 0
ENDMDL
