MODEL 1
REMARK minimizedAffinity -4.58495092
REMARK minimizedRMSD -1
REMARK  0 active torsions:
REMARK  status: ('A' for Active; 'I' for Inactive)
ROOT
ATOM      1  C   UNL d   1      -1.442  -0.074  -0.580  0.00  0.00     0.077 C 
ATOM      2  C1  UNL d   1      -0.083   0.067   0.040  0.00  0.00    -0.074 A 
ATOM      3  C2  UNL d   1       0.482   1.329   0.252  0.00  0.00    -0.005 A 
ATOM      4  C3  UNL d   1       1.743   1.445   0.839  0.00  0.00     0.006 A 
ATOM      5  C4  UNL d   1       2.449   0.303   1.219  0.00  0.00    -0.005 A 
ATOM      6  C5  UNL d   1       1.898  -0.967   1.016  0.00  0.00    -0.074 A 
ATOM      7  C6  UNL d   1       2.640  -2.204   1.428  0.00  0.00     0.077 C 
ATOM      8  C7  UNL d   1       0.629  -1.075   0.432  0.00  0.00    -0.001 A 
ENDROOT
TORSDOF 0
ENDMDL
