MODEL 1
REMARK minimizedAffinity -3.60003042
REMARK minimizedRMSD -1
REMARK  0 active torsions:
REMARK  status: ('A' for Active; 'I' for Inactive)
ROOT
ATOM      1  C   UNL d   1       2.382   1.712   0.790  0.00  0.00     0.077 C 
ATOM      2  C1  UNL d   1       1.353   0.625   0.886  0.00  0.00    -0.074 A 
ATOM      3  C2  UNL d   1       1.549  -0.479   1.723  0.00  0.00    -0.005 A 
ATOM      4  C3  UNL d   1       0.579  -1.477   1.810  0.00  0.00     0.006 A 
ATOM      5  C4  UNL d   1      -0.595  -1.382   1.062  0.00  0.00    -0.005 A 
ATOM      6  C5  UNL d   1      -0.809  -0.286   0.220  0.00  0.00    -0.074 A 
ATOM      7  C6  UNL d   1      -2.070  -0.164  -0.583  0.00  0.00     0.077 C 
ATOM      8  C7  UNL d   1       0.167   0.716   0.144  0.00  0.00    -0.001 A 
ENDROOT
TORSDOF 0
ENDMDL
