MODEL 1
REMARK minimizedAffinity -1.31788039
REMARK minimizedRMSD -1
REMARK  0 active torsions:
REMARK  status: ('A' for Active; 'I' for Inactive)
ROOT
ATOM      1  C   UNL d   1       1.068  -2.171   2.295  0.00  0.00     0.077 C 
ATOM      2  C1  UNL d   1       1.004  -0.938   1.443  0.00  0.00    -0.074 A 
ATOM      3  C2  UNL d   1       1.972   0.065   1.556  0.00  0.00    -0.005 A 
ATOM      4  C3  UNL d   1       1.904   1.202   0.751  0.00  0.00     0.006 A 
ATOM      5  C4  UNL d   1       0.870   1.346  -0.175  0.00  0.00    -0.005 A 
ATOM      6  C5  UNL d   1      -0.107   0.353  -0.302  0.00  0.00    -0.074 A 
ATOM      7  C6  UNL d   1      -1.220   0.488  -1.299  0.00  0.00     0.077 C 
ATOM      8  C7  UNL d   1      -0.028  -0.789   0.506  0.00  0.00    -0.001 A 
ENDROOT
TORSDOF 0
ENDMDL
