MODEL 1
REMARK minimizedAffinity -2.95951247
REMARK minimizedRMSD -1
REMARK  0 active torsions:
REMARK  status: ('A' for Active; 'I' for Inactive)
ROOT
ATOM      1  C   UNL d   1       0.093  -2.260   1.638  0.00  0.00     0.077 C 
ATOM      2  C1  UNL d   1       0.002  -1.031   0.785  0.00  0.00    -0.074 A 
ATOM      3  C2  UNL d   1       1.035  -0.088   0.769  0.00  0.00    -0.005 A 
ATOM      4  C3  UNL d   1       0.940   1.046  -0.038  0.00  0.00     0.006 A 
ATOM      5  C4  UNL d   1      -0.187   1.249  -0.835  0.00  0.00    -0.005 A 
ATOM      6  C5  UNL d   1      -1.230   0.317  -0.832  0.00  0.00    -0.074 A 
ATOM      7  C6  UNL d   1      -2.444   0.515  -1.691  0.00  0.00     0.077 C 
ATOM      8  C7  UNL d   1      -1.124  -0.823  -0.025  0.00  0.00    -0.001 A 
ENDROOT
TORSDOF 0
ENDMDL
