MODEL 1
REMARK minimizedAffinity -5.36038971
REMARK minimizedRMSD -1
REMARK  0 active torsions:
REMARK  status: ('A' for Active; 'I' for Inactive)
ROOT
ATOM      1  C   UNL d   1       3.551  -1.230   1.330  0.00  0.00     0.077 C 
ATOM      2  C1  UNL d   1       2.349  -0.392   1.009  0.00  0.00    -0.074 A 
ATOM      3  C2  UNL d   1       2.429   1.004   0.995  0.00  0.00    -0.005 A 
ATOM      4  C3  UNL d   1       1.305   1.770   0.685  0.00  0.00     0.006 A 
ATOM      5  C4  UNL d   1       0.092   1.148   0.385  0.00  0.00    -0.005 A 
ATOM      6  C5  UNL d   1      -0.006  -0.246   0.393  0.00  0.00    -0.074 A 
ATOM      7  C6  UNL d   1      -1.300  -0.931   0.063  0.00  0.00     0.077 C 
ATOM      8  C7  UNL d   1       1.129  -1.009   0.699  0.00  0.00    -0.001 A 
ENDROOT
TORSDOF 0
ENDMDL
