MODEL 1
REMARK minimizedAffinity 2.79904056
REMARK minimizedRMSD -1
REMARK  1 active torsions:
REMARK  status: ('A' for Active; 'I' for Inactive)
REMARK    1  A    between atoms: C3_4  and  O_7 
ROOT
ATOM      1  C   UNL d   1      -0.535   2.688   1.259  0.00  0.00    -0.033 A 
ATOM      2  C1  UNL d   1      -0.679   3.702   0.311  0.00  0.00     0.039 A 
ATOM      3  C2  UNL d   1      -0.619   3.400  -1.051  0.00  0.00    -0.080 A 
ATOM      4  C3  UNL d   1      -0.415   2.082  -1.451  0.00  0.00     0.150 A 
ATOM      5  C4  UNL d   1      -0.274   1.067  -0.511  0.00  0.00    -0.007 A 
ATOM      6  C5  UNL d   1      -0.333   1.370   0.848  0.00  0.00     0.039 A 
ENDROOT
BRANCH   4   7
ATOM      7  O   UNL d   1      -0.344   1.740  -2.769  0.00  0.00    -0.526 OA
ATOM      8  H5  UNL d   1      -0.430   2.548  -3.302  0.00  0.00     0.418 HD
ENDBRANCH   4   7
TORSDOF 1
ENDMDL
