MODEL 1
REMARK minimizedAffinity 2.04095578
REMARK minimizedRMSD -1
REMARK  1 active torsions:
REMARK  status: ('A' for Active; 'I' for Inactive)
REMARK    1  A    between atoms: C3_4  and  O_7 
ROOT
ATOM      1  C   UNL d   1      -0.509   3.485  -1.352  0.00  0.00    -0.033 A 
ATOM      2  C1  UNL d   1       0.054   2.234  -1.090  0.00  0.00     0.039 A 
ATOM      3  C2  UNL d   1      -0.108   1.642   0.164  0.00  0.00    -0.080 A 
ATOM      4  C3  UNL d   1      -0.835   2.310   1.146  0.00  0.00     0.150 A 
ATOM      5  C4  UNL d   1      -1.401   3.555   0.891  0.00  0.00    -0.007 A 
ATOM      6  C5  UNL d   1      -1.237   4.144  -0.362  0.00  0.00     0.039 A 
ENDROOT
BRANCH   4   7
ATOM      7  O   UNL d   1      -1.015   1.775   2.387  0.00  0.00    -0.526 OA
ATOM      8  H5  UNL d   1      -0.544   0.926   2.427  0.00  0.00     0.418 HD
ENDBRANCH   4   7
TORSDOF 1
ENDMDL
