MODEL 1
REMARK minimizedAffinity 4.17550564
REMARK minimizedRMSD -1
REMARK  1 active torsions:
REMARK  status: ('A' for Active; 'I' for Inactive)
REMARK    1  A    between atoms: C3_4  and  O_7 
ROOT
ATOM      1  C   UNL d   1      -0.085   0.461   3.193  0.00  0.00    -0.033 A 
ATOM      2  C1  UNL d   1      -1.402   0.922   3.234  0.00  0.00     0.039 A 
ATOM      3  C2  UNL d   1      -1.772   2.050   2.499  0.00  0.00    -0.080 A 
ATOM      4  C3  UNL d   1      -0.817   2.706   1.727  0.00  0.00     0.150 A 
ATOM      5  C4  UNL d   1       0.496   2.249   1.678  0.00  0.00    -0.007 A 
ATOM      6  C5  UNL d   1       0.864   1.124   2.414  0.00  0.00     0.039 A 
ENDROOT
BRANCH   4   7
ATOM      7  O   UNL d   1      -1.129   3.813   0.996  0.00  0.00    -0.526 OA
ATOM      8  H5  UNL d   1      -2.064   4.029   1.149  0.00  0.00     0.418 HD
ENDBRANCH   4   7
TORSDOF 1
ENDMDL
