MODEL 1
REMARK minimizedAffinity -0.305666208
REMARK minimizedRMSD -1
REMARK  1 active torsions:
REMARK  status: ('A' for Active; 'I' for Inactive)
REMARK    1  A    between atoms: C3_4  and  O_7 
ROOT
ATOM      1  C   UNL d   1      -2.095   3.291  -0.313  0.00  0.00    -0.033 A 
ATOM      2  C1  UNL d   1      -2.388   3.815   0.948  0.00  0.00     0.039 A 
ATOM      3  C2  UNL d   1      -1.411   3.827   1.945  0.00  0.00    -0.080 A 
ATOM      4  C3  UNL d   1      -0.147   3.314   1.669  0.00  0.00     0.150 A 
ATOM      5  C4  UNL d   1       0.153   2.793   0.414  0.00  0.00    -0.007 A 
ATOM      6  C5  UNL d   1      -0.824   2.781  -0.580  0.00  0.00     0.039 A 
ENDROOT
BRANCH   4   7
ATOM      7  O   UNL d   1       0.838   3.300   2.612  0.00  0.00    -0.526 OA
ATOM      8  H5  UNL d   1       0.479   3.664   3.438  0.00  0.00     0.418 HD
ENDBRANCH   4   7
TORSDOF 1
ENDMDL
