MODEL 1
REMARK minimizedAffinity 3.58162761
REMARK minimizedRMSD -1
REMARK  1 active torsions:
REMARK  status: ('A' for Active; 'I' for Inactive)
REMARK    1  A    between atoms: C3_4  and  O_7 
ROOT
ATOM      1  C   UNL d   1       1.775  -1.188   1.582  0.00  0.00    -0.033 A 
ATOM      2  C1  UNL d   1       1.302  -0.214   0.700  0.00  0.00     0.039 A 
ATOM      3  C2  UNL d   1       0.386   0.743   1.140  0.00  0.00    -0.080 A 
ATOM      4  C3  UNL d   1      -0.049   0.716   2.463  0.00  0.00     0.150 A 
ATOM      5  C4  UNL d   1       0.421  -0.249   3.348  0.00  0.00    -0.007 A 
ATOM      6  C5  UNL d   1       1.336  -1.205   2.906  0.00  0.00     0.039 A 
ENDROOT
BRANCH   4   7
ATOM      7  O   UNL d   1      -0.946   1.626   2.937  0.00  0.00    -0.526 OA
ATOM      8  H5  UNL d   1      -1.204   2.213   2.207  0.00  0.00     0.418 HD
ENDBRANCH   4   7
TORSDOF 1
ENDMDL
