MODEL 1
REMARK minimizedAffinity 1.38968563
REMARK minimizedRMSD -1
REMARK  1 active torsions:
REMARK  status: ('A' for Active; 'I' for Inactive)
REMARK    1  A    between atoms: C3_4  and  O_7 
ROOT
ATOM      1  C   UNL d   1      -0.157   1.372   2.348  0.00  0.00    -0.033 A 
ATOM      2  C1  UNL d   1       0.249   2.159   1.268  0.00  0.00     0.039 A 
ATOM      3  C2  UNL d   1       0.675   1.555   0.084  0.00  0.00    -0.080 A 
ATOM      4  C3  UNL d   1       0.689   0.166  -0.009  0.00  0.00     0.150 A 
ATOM      5  C4  UNL d   1       0.281  -0.624   1.061  0.00  0.00    -0.007 A 
ATOM      6  C5  UNL d   1      -0.143  -0.019   2.244  0.00  0.00     0.039 A 
ENDROOT
BRANCH   4   7
ATOM      7  O   UNL d   1       1.100  -0.469  -1.143  0.00  0.00    -0.526 OA
ATOM      8  H5  UNL d   1       1.380   0.203  -1.787  0.00  0.00     0.418 HD
ENDBRANCH   4   7
TORSDOF 1
ENDMDL
