MODEL 1
REMARK minimizedAffinity -2.33880305
REMARK minimizedRMSD -1
REMARK  0 active torsions:
REMARK  status: ('A' for Active; 'I' for Inactive)
ROOT
ATOM      1  C   UNL d   1       0.204  -1.397   0.034  0.00  0.00     0.078 C 
ATOM      2  C1  UNL d   1      -0.261   0.029   0.056  0.00  0.00    -0.077 A 
ATOM      3  C2  UNL d   1      -1.508   0.389  -0.470  0.00  0.00    -0.001 A 
ATOM      4  C3  UNL d   1      -1.924   1.721  -0.452  0.00  0.00     0.003 A 
ATOM      5  C4  UNL d   1      -1.099   2.704   0.090  0.00  0.00    -0.005 A 
ATOM      6  C5  UNL d   1       0.145   2.356   0.614  0.00  0.00     0.003 A 
ATOM      7  C6  UNL d   1       0.562   1.024   0.597  0.00  0.00    -0.001 A 
ENDROOT
TORSDOF 0
ENDMDL
