MODEL 1
REMARK minimizedAffinity -1.44362617
REMARK minimizedRMSD -1
REMARK  0 active torsions:
REMARK  status: ('A' for Active; 'I' for Inactive)
ROOT
ATOM      1  C   UNL d   1       0.134  -1.645   0.285  0.00  0.00     0.078 C 
ATOM      2  C1  UNL d   1      -0.480  -2.406  -0.852  0.00  0.00    -0.077 A 
ATOM      3  C2  UNL d   1      -1.690  -3.091  -0.691  0.00  0.00    -0.001 A 
ATOM      4  C3  UNL d   1      -2.245  -3.803  -1.755  0.00  0.00     0.003 A 
ATOM      5  C4  UNL d   1      -1.596  -3.838  -2.988  0.00  0.00    -0.005 A 
ATOM      6  C5  UNL d   1      -0.390  -3.161  -3.157  0.00  0.00     0.003 A 
ATOM      7  C6  UNL d   1       0.167  -2.449  -2.094  0.00  0.00    -0.001 A 
ENDROOT
TORSDOF 0
ENDMDL
