MODEL 1
REMARK minimizedAffinity -5.03286743
REMARK minimizedRMSD -1
REMARK  0 active torsions:
REMARK  status: ('A' for Active; 'I' for Inactive)
ROOT
ATOM      1  C   UNL d   1       0.013   2.983  -0.003  0.00  0.00     0.078 C 
ATOM      2  C1  UNL d   1      -0.087   1.509  -0.260  0.00  0.00    -0.077 A 
ATOM      3  C2  UNL d   1      -0.926   1.007  -1.262  0.00  0.00    -0.001 A 
ATOM      4  C3  UNL d   1      -1.017  -0.368  -1.483  0.00  0.00     0.003 A 
ATOM      5  C4  UNL d   1      -0.273  -1.252  -0.705  0.00  0.00    -0.005 A 
ATOM      6  C5  UNL d   1       0.562  -0.762   0.297  0.00  0.00     0.003 A 
ATOM      7  C6  UNL d   1       0.655   0.613   0.519  0.00  0.00    -0.001 A 
ENDROOT
TORSDOF 0
ENDMDL
