MODEL 1
REMARK minimizedAffinity -5.46790695
REMARK minimizedRMSD -1
REMARK  0 active torsions:
REMARK  status: ('A' for Active; 'I' for Inactive)
ROOT
ATOM      1  C   UNL d   1       0.073  -0.923  -0.397  0.00  0.00     0.078 C 
ATOM      2  C1  UNL d   1       0.476   0.474  -0.029  0.00  0.00    -0.077 A 
ATOM      3  C2  UNL d   1       1.763   0.752   0.446  0.00  0.00    -0.001 A 
ATOM      4  C3  UNL d   1       2.121   2.056   0.793  0.00  0.00     0.003 A 
ATOM      5  C4  UNL d   1       1.197   3.091   0.671  0.00  0.00    -0.005 A 
ATOM      6  C5  UNL d   1      -0.087   2.824   0.201  0.00  0.00     0.003 A 
ATOM      7  C6  UNL d   1      -0.447   1.521  -0.147  0.00  0.00    -0.001 A 
ENDROOT
TORSDOF 0
ENDMDL
