MODEL 1
REMARK minimizedAffinity -4.17981148
REMARK minimizedRMSD -1
REMARK  0 active torsions:
REMARK  status: ('A' for Active; 'I' for Inactive)
ROOT
ATOM      1  C   UNL d   1      -0.097   3.132   0.156  0.00  0.00     0.078 C 
ATOM      2  C1  UNL d   1      -0.082   1.633   0.187  0.00  0.00    -0.077 A 
ATOM      3  C2  UNL d   1       1.115   0.921   0.041  0.00  0.00    -0.001 A 
ATOM      4  C3  UNL d   1       1.113  -0.475   0.062  0.00  0.00     0.003 A 
ATOM      5  C4  UNL d   1      -0.083  -1.170   0.228  0.00  0.00    -0.005 A 
ATOM      6  C5  UNL d   1      -1.279  -0.470   0.372  0.00  0.00     0.003 A 
ATOM      7  C6  UNL d   1      -1.279   0.926   0.351  0.00  0.00    -0.001 A 
ENDROOT
TORSDOF 0
ENDMDL
