MODEL 1
REMARK minimizedAffinity -3.75979781
REMARK minimizedRMSD -1
REMARK  0 active torsions:
REMARK  status: ('A' for Active; 'I' for Inactive)
ROOT
ATOM      1  C   UNL d   1      -0.490   0.089  -0.548  0.00  0.00     0.078 C 
ATOM      2  C1  UNL d   1      -0.646  -1.205  -1.290  0.00  0.00    -0.077 A 
ATOM      3  C2  UNL d   1      -0.351  -1.293  -2.656  0.00  0.00    -0.001 A 
ATOM      4  C3  UNL d   1      -0.511  -2.502  -3.336  0.00  0.00     0.003 A 
ATOM      5  C4  UNL d   1      -0.965  -3.631  -2.658  0.00  0.00    -0.005 A 
ATOM      6  C5  UNL d   1      -1.263  -3.553  -1.299  0.00  0.00     0.003 A 
ATOM      7  C6  UNL d   1      -1.104  -2.345  -0.617  0.00  0.00    -0.001 A 
ENDROOT
TORSDOF 0
ENDMDL
