MODEL 1
REMARK minimizedAffinity -4.1579895
REMARK minimizedRMSD -1
REMARK  0 active torsions:
REMARK  status: ('A' for Active; 'I' for Inactive)
ROOT
ATOM      1  C   UNL d   1      -0.397   2.850   0.755  0.00  0.00     0.078 C 
ATOM      2  C1  UNL d   1      -0.514   1.381   0.481  0.00  0.00    -0.077 A 
ATOM      3  C2  UNL d   1      -1.749   0.727   0.572  0.00  0.00    -0.001 A 
ATOM      4  C3  UNL d   1      -1.842  -0.643   0.323  0.00  0.00     0.003 A 
ATOM      5  C4  UNL d   1      -0.704  -1.371  -0.018  0.00  0.00    -0.005 A 
ATOM      6  C5  UNL d   1       0.530  -0.730  -0.109  0.00  0.00     0.003 A 
ATOM      7  C6  UNL d   1       0.625   0.641   0.139  0.00  0.00    -0.001 A 
ENDROOT
TORSDOF 0
ENDMDL
