MODEL 1
REMARK minimizedAffinity -4.95407486
REMARK minimizedRMSD -1
REMARK  0 active torsions:
REMARK  status: ('A' for Active; 'I' for Inactive)
ROOT
ATOM      1  C   UNL d   1      -0.429  -0.771   0.043  0.00  0.00     0.078 C 
ATOM      2  C1  UNL d   1      -0.273   0.719   0.112  0.00  0.00    -0.077 A 
ATOM      3  C2  UNL d   1       0.710   1.376  -0.639  0.00  0.00    -0.001 A 
ATOM      4  C3  UNL d   1       0.851   2.763  -0.557  0.00  0.00     0.003 A 
ATOM      5  C4  UNL d   1       0.013   3.503   0.274  0.00  0.00    -0.005 A 
ATOM      6  C5  UNL d   1      -0.966   2.858   1.027  0.00  0.00     0.003 A 
ATOM      7  C6  UNL d   1      -1.108   1.472   0.947  0.00  0.00    -0.001 A 
ENDROOT
TORSDOF 0
ENDMDL
