MODEL 1
REMARK minimizedAffinity -5.2580061
REMARK minimizedRMSD -1
REMARK  0 active torsions:
REMARK  status: ('A' for Active; 'I' for Inactive)
ROOT
ATOM      1  C   UNL d   1      -0.245  -1.132   0.025  0.00  0.00     0.078 C 
ATOM      2  C1  UNL d   1      -0.073   0.358   0.017  0.00  0.00    -0.077 A 
ATOM      3  C2  UNL d   1      -1.108   1.206   0.429  0.00  0.00    -0.001 A 
ATOM      4  C3  UNL d   1      -0.937   2.591   0.407  0.00  0.00     0.003 A 
ATOM      5  C4  UNL d   1       0.267   3.141  -0.027  0.00  0.00    -0.005 A 
ATOM      6  C5  UNL d   1       1.303   2.305  -0.441  0.00  0.00     0.003 A 
ATOM      7  C6  UNL d   1       1.134   0.920  -0.419  0.00  0.00    -0.001 A 
ENDROOT
TORSDOF 0
ENDMDL
