MODEL 1
REMARK minimizedAffinity -5.6726737
REMARK minimizedRMSD -1
REMARK  0 active torsions:
REMARK  status: ('A' for Active; 'I' for Inactive)
ROOT
ATOM      1  C   UNL d   1      -0.431   0.004  -0.555  0.00  0.00     0.078 C 
ATOM      2  C1  UNL d   1       0.481   1.072  -0.029  0.00  0.00    -0.077 A 
ATOM      3  C2  UNL d   1       0.086   2.415  -0.013  0.00  0.00    -0.001 A 
ATOM      4  C3  UNL d   1       0.949   3.400   0.471  0.00  0.00     0.003 A 
ATOM      5  C4  UNL d   1       2.213   3.052   0.941  0.00  0.00    -0.005 A 
ATOM      6  C5  UNL d   1       2.617   1.718   0.928  0.00  0.00     0.003 A 
ATOM      7  C6  UNL d   1       1.755   0.732   0.444  0.00  0.00    -0.001 A 
ENDROOT
TORSDOF 0
ENDMDL
