MODEL 1
REMARK minimizedAffinity 0.213982567
REMARK minimizedRMSD -1
REMARK  0 active torsions:
REMARK  status: ('A' for Active; 'I' for Inactive)
ROOT
ATOM      1  C   UNL d   1       0.043   3.256   0.392  0.00  0.00     0.078 C 
ATOM      2  C1  UNL d   1      -0.160   1.771   0.366  0.00  0.00    -0.077 A 
ATOM      3  C2  UNL d   1      -1.182   1.169   1.110  0.00  0.00    -0.001 A 
ATOM      4  C3  UNL d   1      -1.353  -0.216   1.084  0.00  0.00     0.003 A 
ATOM      5  C4  UNL d   1      -0.505  -1.011   0.316  0.00  0.00    -0.005 A 
ATOM      6  C5  UNL d   1       0.517  -0.422  -0.426  0.00  0.00     0.003 A 
ATOM      7  C6  UNL d   1       0.689   0.963  -0.401  0.00  0.00    -0.001 A 
ENDROOT
TORSDOF 0
ENDMDL
