MODEL 1
REMARK minimizedAffinity -1.3892808
REMARK minimizedRMSD -1
REMARK  0 active torsions:
REMARK  status: ('A' for Active; 'I' for Inactive)
ROOT
ATOM      1  C   UNL d   1      -0.294   2.672   0.597  0.00  0.00     0.078 C 
ATOM      2  C1  UNL d   1       0.070   1.222   0.471  0.00  0.00    -0.077 A 
ATOM      3  C2  UNL d   1       1.409   0.812   0.470  0.00  0.00    -0.001 A 
ATOM      4  C3  UNL d   1       1.733  -0.540   0.342  0.00  0.00     0.003 A 
ATOM      5  C4  UNL d   1       0.723  -1.492   0.213  0.00  0.00    -0.005 A 
ATOM      6  C5  UNL d   1      -0.612  -1.093   0.211  0.00  0.00     0.003 A 
ATOM      7  C6  UNL d   1      -0.937   0.258   0.339  0.00  0.00    -0.001 A 
ENDROOT
TORSDOF 0
ENDMDL
