MODEL 1
REMARK minimizedAffinity 4.44177914
REMARK minimizedRMSD -1
REMARK  0 active torsions:
REMARK  status: ('A' for Active; 'I' for Inactive)
ROOT
ATOM      1  C   UNL d   1       1.370  -1.307  -0.057  0.00  0.00     0.078 C 
ATOM      2  C1  UNL d   1       0.767  -2.258  -1.048  0.00  0.00    -0.077 A 
ATOM      3  C2  UNL d   1      -0.456  -2.888  -0.790  0.00  0.00    -0.001 A 
ATOM      4  C3  UNL d   1      -1.001  -3.778  -1.717  0.00  0.00     0.003 A 
ATOM      5  C4  UNL d   1      -0.329  -4.047  -2.907  0.00  0.00    -0.005 A 
ATOM      6  C5  UNL d   1       0.891  -3.427  -3.171  0.00  0.00     0.003 A 
ATOM      7  C6  UNL d   1       1.437  -2.536  -2.246  0.00  0.00    -0.001 A 
ENDROOT
TORSDOF 0
ENDMDL
