MODEL 1
REMARK minimizedAffinity 2.72965407
REMARK minimizedRMSD -1
REMARK  0 active torsions:
REMARK  status: ('A' for Active; 'I' for Inactive)
ROOT
ATOM      1  C   UNL d   1       2.606   0.976  -0.028  0.00  0.00     0.078 C 
ATOM      2  C1  UNL d   1       1.492   1.968   0.119  0.00  0.00    -0.077 A 
ATOM      3  C2  UNL d   1       0.500   1.800   1.093  0.00  0.00    -0.001 A 
ATOM      4  C3  UNL d   1      -0.537   2.727   1.212  0.00  0.00     0.003 A 
ATOM      5  C4  UNL d   1      -0.593   3.827   0.359  0.00  0.00    -0.005 A 
ATOM      6  C5  UNL d   1       0.388   4.002  -0.615  0.00  0.00     0.003 A 
ATOM      7  C6  UNL d   1       1.426   3.076  -0.735  0.00  0.00    -0.001 A 
ENDROOT
TORSDOF 0
ENDMDL
