MODEL 1
REMARK minimizedAffinity 3.46212196
REMARK minimizedRMSD -1
REMARK  1 active torsions:
REMARK  status: ('A' for Active; 'I' for Inactive)
REMARK    1  A    between atoms: C3_4  and  O_7 
ROOT
ATOM      1  C   UNL d   1       6.000   2.953  -1.118  0.00  0.00    -0.033 A 
ATOM      2  C1  UNL d   1       5.561   2.594   0.158  0.00  0.00     0.039 A 
ATOM      3  C2  UNL d   1       4.354   1.909   0.316  0.00  0.00    -0.080 A 
ATOM      4  C3  UNL d   1       3.598   1.588  -0.808  0.00  0.00     0.150 A 
ATOM      5  C4  UNL d   1       4.032   1.939  -2.083  0.00  0.00    -0.007 A 
ATOM      6  C5  UNL d   1       5.236   2.624  -2.238  0.00  0.00     0.039 A 
ENDROOT
BRANCH   4   7
ATOM      7  O   UNL d   1       2.412   0.925  -0.704  0.00  0.00    -0.526 OA
ATOM      8  H5  UNL d   1       2.226   0.773   0.238  0.00  0.00     0.418 HD
ENDBRANCH   4   7
TORSDOF 1
ENDMDL
