MODEL 1
REMARK minimizedAffinity -2.93914104
REMARK minimizedRMSD -1
REMARK  1 active torsions:
REMARK  status: ('A' for Active; 'I' for Inactive)
REMARK    1  A    between atoms: C3_4  and  O_7 
ROOT
ATOM      1  C   UNL d   1       1.425  -0.150   0.261  0.00  0.00    -0.033 A 
ATOM      2  C1  UNL d   1       1.555   1.238   0.321  0.00  0.00     0.039 A 
ATOM      3  C2  UNL d   1       2.617   1.870  -0.329  0.00  0.00    -0.080 A 
ATOM      4  C3  UNL d   1       3.540   1.103  -1.035  0.00  0.00     0.150 A 
ATOM      5  C4  UNL d   1       3.413  -0.281  -1.102  0.00  0.00    -0.007 A 
ATOM      6  C5  UNL d   1       2.353  -0.910  -0.452  0.00  0.00     0.039 A 
ENDROOT
BRANCH   4   7
ATOM      7  O   UNL d   1       4.595   1.674  -1.681  0.00  0.00    -0.526 OA
ATOM      8  H5  UNL d   1       4.570   2.633  -1.524  0.00  0.00     0.418 HD
ENDBRANCH   4   7
TORSDOF 1
ENDMDL
