MODEL 1
REMARK minimizedAffinity 1.79195249
REMARK minimizedRMSD -1
REMARK  1 active torsions:
REMARK  status: ('A' for Active; 'I' for Inactive)
REMARK    1  A    between atoms: C3_4  and  O_7 
ROOT
ATOM      1  C   UNL d   1       2.179  -1.304  -1.727  0.00  0.00    -0.033 A 
ATOM      2  C1  UNL d   1       2.169  -0.514  -0.576  0.00  0.00     0.039 A 
ATOM      3  C2  UNL d   1       2.853   0.702  -0.556  0.00  0.00    -0.080 A 
ATOM      4  C3  UNL d   1       3.542   1.118  -1.692  0.00  0.00     0.150 A 
ATOM      5  C4  UNL d   1       3.553   0.338  -2.844  0.00  0.00    -0.007 A 
ATOM      6  C5  UNL d   1       2.870  -0.877  -2.862  0.00  0.00     0.039 A 
ENDROOT
BRANCH   4   7
ATOM      7  O   UNL d   1       4.228   2.295  -1.718  0.00  0.00    -0.526 OA
ATOM      8  H5  UNL d   1       4.156   2.714  -0.844  0.00  0.00     0.418 HD
ENDBRANCH   4   7
TORSDOF 1
ENDMDL
