MODEL 1
REMARK minimizedAffinity 3.36210275
REMARK minimizedRMSD -1
REMARK  1 active torsions:
REMARK  status: ('A' for Active; 'I' for Inactive)
REMARK    1  A    between atoms: C3_4  and  O_7 
ROOT
ATOM      1  C   UNL d   1      -1.341  -2.227   0.166  0.00  0.00    -0.033 A 
ATOM      2  C1  UNL d   1      -1.235  -1.848  -1.173  0.00  0.00     0.039 A 
ATOM      3  C2  UNL d   1      -0.047  -1.292  -1.652  0.00  0.00    -0.080 A 
ATOM      4  C3  UNL d   1       1.027  -1.123  -0.782  0.00  0.00     0.150 A 
ATOM      5  C4  UNL d   1       0.930  -1.502   0.553  0.00  0.00    -0.007 A 
ATOM      6  C5  UNL d   1      -0.258  -2.056   1.029  0.00  0.00     0.039 A 
ENDROOT
BRANCH   4   7
ATOM      7  O   UNL d   1       2.205  -0.581  -1.202  0.00  0.00    -0.526 OA
ATOM      8  H5  UNL d   1       2.117  -0.340  -2.139  0.00  0.00     0.418 HD
ENDBRANCH   4   7
TORSDOF 1
ENDMDL
