MODEL 1
REMARK minimizedAffinity 1.66784823
REMARK minimizedRMSD -1
REMARK  1 active torsions:
REMARK  status: ('A' for Active; 'I' for Inactive)
REMARK    1  A    between atoms: C3_4  and  O_7 
ROOT
ATOM      1  C   UNL d   1      -5.016   5.103  -4.142  0.00  0.00    -0.033 A 
ATOM      2  C1  UNL d   1      -3.673   5.054  -3.763  0.00  0.00     0.039 A 
ATOM      3  C2  UNL d   1      -2.880   3.967  -4.135  0.00  0.00    -0.080 A 
ATOM      4  C3  UNL d   1      -3.440   2.938  -4.888  0.00  0.00     0.150 A 
ATOM      5  C4  UNL d   1      -4.775   2.982  -5.273  0.00  0.00    -0.007 A 
ATOM      6  C5  UNL d   1      -5.567   4.068  -4.899  0.00  0.00     0.039 A 
ENDROOT
BRANCH   4   7
ATOM      7  O   UNL d   1      -2.706   1.855  -5.271  0.00  0.00    -0.526 OA
ATOM      8  H5  UNL d   1      -1.809   1.947  -4.909  0.00  0.00     0.418 HD
ENDBRANCH   4   7
TORSDOF 1
ENDMDL
