MODEL 1
REMARK minimizedAffinity 2.02700663
REMARK minimizedRMSD -1
REMARK  1 active torsions:
REMARK  status: ('A' for Active; 'I' for Inactive)
REMARK    1  A    between atoms: C3_4  and  O_7 
ROOT
ATOM      1  C   UNL d   1       1.461   1.222   0.366  0.00  0.00    -0.033 A 
ATOM      2  C1  UNL d   1       1.010  -0.069   0.085  0.00  0.00     0.039 A 
ATOM      3  C2  UNL d   1       1.654  -0.840  -0.885  0.00  0.00    -0.080 A 
ATOM      4  C3  UNL d   1       2.746  -0.309  -1.566  0.00  0.00     0.150 A 
ATOM      5  C4  UNL d   1       3.203   0.976  -1.288  0.00  0.00    -0.007 A 
ATOM      6  C5  UNL d   1       2.559   1.744  -0.319  0.00  0.00     0.039 A 
ENDROOT
BRANCH   4   7
ATOM      7  O   UNL d   1       3.403  -1.021  -2.524  0.00  0.00    -0.526 OA
ATOM      8  H5  UNL d   1       2.959  -1.879  -2.629  0.00  0.00     0.418 HD
ENDBRANCH   4   7
TORSDOF 1
ENDMDL
