MODEL 1
REMARK minimizedAffinity -2.97792506
REMARK minimizedRMSD -1
REMARK  0 active torsions:
REMARK  status: ('A' for Active; 'I' for Inactive)
ROOT
ATOM      1  C   UNL d   1      -4.564   0.110  -5.943  0.00  0.00     0.172 C 
ATOM      2  N   UNL d   1      -4.702   1.545  -5.863  0.00  0.00    -0.070 N 
ATOM      3  C1  UNL d   1      -5.871   2.244  -6.000  0.00  0.00    -0.004 A 
ATOM      4  C2  UNL d   1      -5.581   3.584  -5.858  0.00  0.00    -0.047 A 
ATOM      5  C3  UNL d   1      -4.189   3.694  -5.629  0.00  0.00    -0.047 A 
ATOM      6  C4  UNL d   1      -3.669   2.417  -5.637  0.00  0.00    -0.004 A 
ENDROOT
TORSDOF 0
ENDMDL
