MODEL 1
REMARK minimizedAffinity -2.38948894
REMARK minimizedRMSD -1
REMARK  0 active torsions:
REMARK  status: ('A' for Active; 'I' for Inactive)
ROOT
ATOM      1  C   UNL d   1      -0.254  -0.033   0.524  0.00  0.00     0.172 C 
ATOM      2  N   UNL d   1      -1.551   0.493   0.881  0.00  0.00    -0.070 N 
ATOM      3  C1  UNL d   1      -2.709  -0.231   0.972  0.00  0.00    -0.004 A 
ATOM      4  C2  UNL d   1      -3.719   0.632   1.337  0.00  0.00    -0.047 A 
ATOM      5  C3  UNL d   1      -3.148   1.920   1.470  0.00  0.00    -0.047 A 
ATOM      6  C4  UNL d   1      -1.804   1.805   1.182  0.00  0.00    -0.004 A 
ENDROOT
TORSDOF 0
ENDMDL
