MODEL 1
REMARK minimizedAffinity -3.54808164
REMARK minimizedRMSD -1
REMARK  0 active torsions:
REMARK  status: ('A' for Active; 'I' for Inactive)
ROOT
ATOM      1  C   UNL d   1      -0.676   0.123   0.700  0.00  0.00     0.172 C 
ATOM      2  N   UNL d   1       0.318   0.177  -0.346  0.00  0.00    -0.070 N 
ATOM      3  C1  UNL d   1       1.336   1.088  -0.432  0.00  0.00    -0.004 A 
ATOM      4  C2  UNL d   1       2.062   0.804  -1.568  0.00  0.00    -0.047 A 
ATOM      5  C3  UNL d   1       1.458  -0.317  -2.187  0.00  0.00    -0.047 A 
ATOM      6  C4  UNL d   1       0.381  -0.684  -1.409  0.00  0.00    -0.004 A 
ENDROOT
TORSDOF 0
ENDMDL
