MODEL 1
REMARK minimizedAffinity -2.81772876
REMARK minimizedRMSD -1
REMARK  0 active torsions:
REMARK  status: ('A' for Active; 'I' for Inactive)
ROOT
ATOM      1  C   UNL d   1      -0.299  -0.078   1.162  0.00  0.00     0.172 C 
ATOM      2  N   UNL d   1       0.579   0.127   0.034  0.00  0.00    -0.070 N 
ATOM      3  C1  UNL d   1       0.506  -0.531  -1.165  0.00  0.00    -0.004 A 
ATOM      4  C2  UNL d   1       1.515  -0.052  -1.972  0.00  0.00    -0.047 A 
ATOM      5  C3  UNL d   1       2.220   0.928  -1.232  0.00  0.00    -0.047 A 
ATOM      6  C4  UNL d   1       1.619   1.018   0.005  0.00  0.00    -0.004 A 
ENDROOT
TORSDOF 0
ENDMDL
