MODEL 1
REMARK minimizedAffinity -2.01766706
REMARK minimizedRMSD -1
REMARK  0 active torsions:
REMARK  status: ('A' for Active; 'I' for Inactive)
ROOT
ATOM      1  C   UNL d   1       0.454   0.009  -2.875  0.00  0.00     0.172 C 
ATOM      2  N   UNL d   1       0.406  -0.036  -1.432  0.00  0.00    -0.070 N 
ATOM      3  C1  UNL d   1       1.013   0.853  -0.585  0.00  0.00    -0.004 A 
ATOM      4  C2  UNL d   1       0.729   0.466   0.707  0.00  0.00    -0.047 A 
ATOM      5  C3  UNL d   1      -0.075  -0.697   0.633  0.00  0.00    -0.047 A 
ATOM      6  C4  UNL d   1      -0.259  -0.985  -0.702  0.00  0.00    -0.004 A 
ENDROOT
TORSDOF 0
ENDMDL
