MODEL 1
REMARK minimizedAffinity -1.88149333
REMARK minimizedRMSD -1
REMARK  0 active torsions:
REMARK  status: ('A' for Active; 'I' for Inactive)
ROOT
ATOM      1  C   UNL d   1      -3.862   0.097   1.138  0.00  0.00     0.172 C 
ATOM      2  N   UNL d   1      -2.453  -0.001   0.837  0.00  0.00    -0.070 N 
ATOM      3  C1  UNL d   1      -1.461  -0.273   1.741  0.00  0.00    -0.004 A 
ATOM      4  C2  UNL d   1      -0.261  -0.280   1.062  0.00  0.00    -0.047 A 
ATOM      5  C3  UNL d   1      -0.542  -0.002  -0.297  0.00  0.00    -0.047 A 
ATOM      6  C4  UNL d   1      -1.906   0.166  -0.408  0.00  0.00    -0.004 A 
ENDROOT
TORSDOF 0
ENDMDL
