MODEL 1
REMARK minimizedAffinity -2.69949126
REMARK minimizedRMSD -1
REMARK  0 active torsions:
REMARK  status: ('A' for Active; 'I' for Inactive)
ROOT
ATOM      1  C   UNL d   1      -4.267   4.803  -5.864  0.00  0.00     0.172 C 
ATOM      2  N   UNL d   1      -4.694   3.425  -5.815  0.00  0.00    -0.070 N 
ATOM      3  C1  UNL d   1      -3.877   2.342  -5.625  0.00  0.00    -0.004 A 
ATOM      4  C2  UNL d   1      -4.664   1.211  -5.642  0.00  0.00    -0.047 A 
ATOM      5  C3  UNL d   1      -6.000   1.628  -5.850  0.00  0.00    -0.047 A 
ATOM      6  C4  UNL d   1      -5.990   3.003  -5.954  0.00  0.00    -0.004 A 
ENDROOT
TORSDOF 0
ENDMDL
