MODEL 1
REMARK minimizedAffinity -3.84572816
REMARK minimizedRMSD -1
REMARK  0 active torsions:
REMARK  status: ('A' for Active; 'I' for Inactive)
ROOT
ATOM      1  C   UNL d   1      -0.068   0.223   0.704  0.00  0.00     0.172 C 
ATOM      2  N   UNL d   1       0.653   0.262  -0.546  0.00  0.00    -0.070 N 
ATOM      3  C1  UNL d   1       0.667  -0.729  -1.491  0.00  0.00    -0.004 A 
ATOM      4  C2  UNL d   1       1.468  -0.310  -2.531  0.00  0.00    -0.047 A 
ATOM      5  C3  UNL d   1       1.953   0.977  -2.199  0.00  0.00    -0.047 A 
ATOM      6  C4  UNL d   1       1.434   1.307  -0.966  0.00  0.00    -0.004 A 
ENDROOT
TORSDOF 0
ENDMDL
