MODEL 1
REMARK minimizedAffinity -3.4787364
REMARK minimizedRMSD -1
REMARK  0 active torsions:
REMARK  status: ('A' for Active; 'I' for Inactive)
ROOT
ATOM      1  C   UNL d   1      -0.469  -0.050   0.617  0.00  0.00     0.172 C 
ATOM      2  N   UNL d   1       0.436   0.271  -0.461  0.00  0.00    -0.070 N 
ATOM      3  C1  UNL d   1       1.192   1.408  -0.557  0.00  0.00    -0.004 A 
ATOM      4  C2  UNL d   1       1.918   1.335  -1.727  0.00  0.00    -0.047 A 
ATOM      5  C3  UNL d   1       1.586   0.112  -2.355  0.00  0.00    -0.047 A 
ATOM      6  C4  UNL d   1       0.666  -0.527  -1.551  0.00  0.00    -0.004 A 
ENDROOT
TORSDOF 0
ENDMDL
