MODEL 1
REMARK minimizedAffinity -3.16407824
REMARK minimizedRMSD -1
REMARK  0 active torsions:
REMARK  status: ('A' for Active; 'I' for Inactive)
ROOT
ATOM      1  C   UNL d   1      -0.145  -1.063  -0.051  0.00  0.00     0.172 C 
ATOM      2  N   UNL d   1       0.858  -0.996  -1.088  0.00  0.00    -0.070 N 
ATOM      3  C1  UNL d   1       1.520  -2.066  -1.628  0.00  0.00    -0.004 A 
ATOM      4  C2  UNL d   1       2.391  -1.585  -2.583  0.00  0.00    -0.047 A 
ATOM      5  C3  UNL d   1       2.247  -0.177  -2.616  0.00  0.00    -0.047 A 
ATOM      6  C4  UNL d   1       1.292   0.160  -1.680  0.00  0.00    -0.004 A 
ENDROOT
TORSDOF 0
ENDMDL
