MODEL 1
REMARK minimizedAffinity -3.41346383
REMARK minimizedRMSD -1
REMARK  0 active torsions:
REMARK  status: ('A' for Active; 'I' for Inactive)
ROOT
ATOM      1  C   UNL d   1      -0.358   0.403   0.779  0.00  0.00     0.172 C 
ATOM      2  N   UNL d   1       0.561   0.327  -0.332  0.00  0.00    -0.070 N 
ATOM      3  C1  UNL d   1       0.660  -0.713  -1.217  0.00  0.00    -0.004 A 
ATOM      4  C2  UNL d   1       1.650  -0.403  -2.124  0.00  0.00    -0.047 A 
ATOM      5  C3  UNL d   1       2.165   0.867  -1.771  0.00  0.00    -0.047 A 
ATOM      6  C4  UNL d   1       1.473   1.296  -0.658  0.00  0.00    -0.004 A 
ENDROOT
TORSDOF 0
ENDMDL
