MODEL 1
REMARK minimizedAffinity -3.37573195
REMARK minimizedRMSD -1
REMARK  0 active torsions:
REMARK  status: ('A' for Active; 'I' for Inactive)
ROOT
ATOM      1  C   UNL d   1       1.523  -0.020  -2.534  0.00  0.00     0.172 C 
ATOM      2  N   UNL d   1       0.795   0.071  -1.291  0.00  0.00    -0.070 N 
ATOM      3  C1  UNL d   1       0.790   1.148  -0.445  0.00  0.00    -0.004 A 
ATOM      4  C2  UNL d   1      -0.023   0.841   0.625  0.00  0.00    -0.047 A 
ATOM      5  C3  UNL d   1      -0.524  -0.466   0.415  0.00  0.00    -0.047 A 
ATOM      6  C4  UNL d   1      -0.002  -0.919  -0.778  0.00  0.00    -0.004 A 
ENDROOT
TORSDOF 0
ENDMDL
