MODEL 1
REMARK minimizedAffinity -1.16603208
REMARK minimizedRMSD -1
REMARK  0 active torsions:
REMARK  status: ('A' for Active; 'I' for Inactive)
ROOT
ATOM      1  C   UNL d   1       1.411   0.043  -1.994  0.00  0.00     0.172 C 
ATOM      2  N   UNL d   1       0.603  -0.250  -0.834  0.00  0.00    -0.070 N 
ATOM      3  C1  UNL d   1       0.096   0.675   0.040  0.00  0.00    -0.004 A 
ATOM      4  C2  UNL d   1      -0.616  -0.003   1.006  0.00  0.00    -0.047 A 
ATOM      5  C3  UNL d   1      -0.533  -1.383   0.703  0.00  0.00    -0.047 A 
ATOM      6  C4  UNL d   1       0.227  -1.507  -0.441  0.00  0.00    -0.004 A 
ENDROOT
TORSDOF 0
ENDMDL
