MODEL 1
REMARK minimizedAffinity -1.04069102
REMARK minimizedRMSD -1
REMARK  0 active torsions:
REMARK  status: ('A' for Active; 'I' for Inactive)
ROOT
ATOM      1  C   UNL d   1      -0.368   0.039   0.761  0.00  0.00     0.172 C 
ATOM      2  N   UNL d   1       0.707   0.320  -0.162  0.00  0.00    -0.070 N 
ATOM      3  C1  UNL d   1       1.424  -0.614  -0.861  0.00  0.00    -0.004 A 
ATOM      4  C2  UNL d   1       2.352   0.055  -1.629  0.00  0.00    -0.047 A 
ATOM      5  C3  UNL d   1       2.189   1.439  -1.382  0.00  0.00    -0.047 A 
ATOM      6  C4  UNL d   1       1.163   1.575  -0.470  0.00  0.00    -0.004 A 
ENDROOT
TORSDOF 0
ENDMDL
