MODEL 1
REMARK minimizedAffinity -1.61456275
REMARK minimizedRMSD -1
REMARK  0 active torsions:
REMARK  status: ('A' for Active; 'I' for Inactive)
ROOT
ATOM      1  C   UNL d   1       1.296  -2.983  -1.423  0.00  0.00     0.172 C 
ATOM      2  N   UNL d   1       1.290  -1.540  -1.487  0.00  0.00    -0.070 N 
ATOM      3  C1  UNL d   1       1.943  -0.779  -2.419  0.00  0.00    -0.004 A 
ATOM      4  C2  UNL d   1       1.687   0.545  -2.137  0.00  0.00    -0.047 A 
ATOM      5  C3  UNL d   1       0.852   0.582  -0.995  0.00  0.00    -0.047 A 
ATOM      6  C4  UNL d   1       0.622  -0.723  -0.614  0.00  0.00    -0.004 A 
ENDROOT
TORSDOF 0
ENDMDL
