MODEL 1
REMARK minimizedAffinity -3.29083943
REMARK minimizedRMSD -1
REMARK  0 active torsions:
REMARK  status: ('A' for Active; 'I' for Inactive)
ROOT
ATOM      1  C   UNL d   1      -0.547   0.062   0.713  0.00  0.00     0.172 C 
ATOM      2  N   UNL d   1       0.307   0.156  -0.448  0.00  0.00    -0.070 N 
ATOM      3  C1  UNL d   1       0.764  -0.900  -1.191  0.00  0.00    -0.004 A 
ATOM      4  C2  UNL d   1       1.545  -0.394  -2.207  0.00  0.00    -0.047 A 
ATOM      5  C3  UNL d   1       1.560   1.014  -2.069  0.00  0.00    -0.047 A 
ATOM      6  C4  UNL d   1       0.786   1.327  -0.972  0.00  0.00    -0.004 A 
ENDROOT
TORSDOF 0
ENDMDL
