MODEL 1
REMARK minimizedAffinity -3.13780236
REMARK minimizedRMSD -1
REMARK  0 active torsions:
REMARK  status: ('A' for Active; 'I' for Inactive)
ROOT
ATOM      1  C   UNL d   1      -0.214  -0.743   0.083  0.00  0.00     0.172 C 
ATOM      2  N   UNL d   1       0.562  -0.162  -0.987  0.00  0.00    -0.070 N 
ATOM      3  C1  UNL d   1       0.731  -0.701  -2.235  0.00  0.00    -0.004 A 
ATOM      4  C2  UNL d   1       1.534   0.153  -2.959  0.00  0.00    -0.047 A 
ATOM      5  C3  UNL d   1       1.860   1.243  -2.117  0.00  0.00    -0.047 A 
ATOM      6  C4  UNL d   1       1.245   1.022  -0.903  0.00  0.00    -0.004 A 
ENDROOT
TORSDOF 0
ENDMDL
