MODEL 1
REMARK minimizedAffinity 5.05052328
REMARK minimizedRMSD -1
REMARK  3 active torsions:
REMARK  status: ('A' for Active; 'I' for Inactive)
REMARK    1  A    between atoms: C3'_2  and  C2'_3 
REMARK    2  A    between atoms: C2'_3  and  C1'_4 
REMARK    3  A    between atoms: C1'_4  and  C1_5 
ROOT
ATOM      1  C1  N4B d   1       3.210   3.006   1.278  0.00  0.00    -0.075 A 
ATOM      2  C2  N4B d   1       2.157   2.067   1.351  0.00  0.00     0.002 A 
ATOM      3  C3  N4B d   1       1.987   1.146   0.347  0.00  0.00     0.002 A 
ATOM      4  C4  N4B d   1       2.843   1.156  -0.745  0.00  0.00    -0.004 A 
ATOM      5  C5  N4B d   1       3.872   2.050  -0.796  0.00  0.00     0.002 A 
ATOM      6  C6  N4B d   1       4.057   2.978   0.208  0.00  0.00     0.002 A 
ENDROOT
BRANCH   1   7
ATOM      7  C1' N4B d   1       3.383   4.087   2.309  0.00  0.00     0.057 C 
BRANCH   7   8
ATOM      8  C2' N4B d   1       4.737   3.916   2.992  0.00  0.00     0.009 C 
BRANCH   8   9
ATOM      9  C3' N4B d   1       4.687   2.877   4.100  0.00  0.00     0.004 C 
ATOM     10  C4' N4B d   1       6.000   2.722   4.809  0.00  0.00     0.003 C 
ENDBRANCH   8   9
ENDBRANCH   7   8
ENDBRANCH   1   7
TORSDOF 3
ENDMDL
