MODEL 1
REMARK minimizedAffinity 6.84861374
REMARK minimizedRMSD -1
REMARK  3 active torsions:
REMARK  status: ('A' for Active; 'I' for Inactive)
REMARK    1  A    between atoms: C3'_2  and  C2'_3 
REMARK    2  A    between atoms: C2'_3  and  C1'_4 
REMARK    3  A    between atoms: C1'_4  and  C1_5 
ROOT
ATOM      1  C1  N4B d   1       0.270   0.175  -2.280  0.00  0.00    -0.075 A 
ATOM      2  C2  N4B d   1       1.561   0.363  -1.740  0.00  0.00     0.002 A 
ATOM      3  C3  N4B d   1       1.760   0.261  -0.385  0.00  0.00     0.002 A 
ATOM      4  C4  N4B d   1       0.684  -0.010   0.447  0.00  0.00    -0.004 A 
ATOM      5  C5  N4B d   1      -0.555  -0.215  -0.085  0.00  0.00     0.002 A 
ATOM      6  C6  N4B d   1      -0.769  -0.119  -1.445  0.00  0.00     0.002 A 
ENDROOT
BRANCH   1   7
ATOM      7  C1' N4B d   1      -0.013   0.362  -3.746  0.00  0.00     0.057 C 
BRANCH   7   8
ATOM      8  C2' N4B d   1      -0.396  -0.982  -4.358  0.00  0.00     0.009 C 
BRANCH   8   9
ATOM      9  C3' N4B d   1      -1.244  -0.816  -5.608  0.00  0.00     0.004 C 
ATOM     10  C4' N4B d   1      -2.091  -2.019  -5.899  0.00  0.00     0.003 C 
ENDBRANCH   8   9
ENDBRANCH   7   8
ENDBRANCH   1   7
TORSDOF 3
ENDMDL
