MODEL 1
REMARK minimizedAffinity -3.18430567
REMARK minimizedRMSD -1
REMARK  0 active torsions:
REMARK  status: ('A' for Active; 'I' for Inactive)
ROOT
ATOM      1  C   UNL d   1       1.180  -5.483  -0.487  0.00  0.00     0.078 C 
ATOM      2  C1  UNL d   1       0.970  -4.221  -1.269  0.00  0.00    -0.077 A 
ATOM      3  C2  UNL d   1       0.987  -4.229  -2.669  0.00  0.00    -0.001 A 
ATOM      4  C3  UNL d   1       0.800  -3.045  -3.384  0.00  0.00     0.003 A 
ATOM      5  C4  UNL d   1       0.595  -1.844  -2.708  0.00  0.00    -0.005 A 
ATOM      6  C5  UNL d   1       0.578  -1.826  -1.314  0.00  0.00     0.003 A 
ATOM      7  C6  UNL d   1       0.765  -3.009  -0.598  0.00  0.00    -0.001 A 
ENDROOT
TORSDOF 0
ENDMDL
