MODEL 1
REMARK minimizedAffinity -3.43129396
REMARK minimizedRMSD -1
REMARK  0 active torsions:
REMARK  status: ('A' for Active; 'I' for Inactive)
ROOT
ATOM      1  C   UNL d   1      -0.109   3.631   1.083  0.00  0.00     0.078 C 
ATOM      2  C1  UNL d   1      -0.003   2.135   1.060  0.00  0.00    -0.077 A 
ATOM      3  C2  UNL d   1       0.587   1.471  -0.022  0.00  0.00    -0.001 A 
ATOM      4  C3  UNL d   1       0.670   0.077  -0.035  0.00  0.00     0.003 A 
ATOM      5  C4  UNL d   1       0.164  -0.664   1.031  0.00  0.00    -0.005 A 
ATOM      6  C5  UNL d   1      -0.428  -0.011   2.111  0.00  0.00     0.003 A 
ATOM      7  C6  UNL d   1      -0.512   1.382   2.125  0.00  0.00    -0.001 A 
ENDROOT
TORSDOF 0
ENDMDL
