MODEL 1
REMARK minimizedAffinity -3.41494679
REMARK minimizedRMSD -1
REMARK  0 active torsions:
REMARK  status: ('A' for Active; 'I' for Inactive)
ROOT
ATOM      1  C   UNL d   1       1.109  -1.260  -0.762  0.00  0.00     0.078 C 
ATOM      2  C1  UNL d   1       0.308  -0.452   0.214  0.00  0.00    -0.077 A 
ATOM      3  C2  UNL d   1       0.043  -0.933   1.503  0.00  0.00    -0.001 A 
ATOM      4  C3  UNL d   1      -0.712  -0.174   2.398  0.00  0.00     0.003 A 
ATOM      5  C4  UNL d   1      -1.211   1.070   2.014  0.00  0.00    -0.005 A 
ATOM      6  C5  UNL d   1      -0.955   1.555   0.734  0.00  0.00     0.003 A 
ATOM      7  C6  UNL d   1      -0.199   0.798  -0.163  0.00  0.00    -0.001 A 
ENDROOT
TORSDOF 0
ENDMDL
