MODEL 1
REMARK minimizedAffinity -0.179286897
REMARK minimizedRMSD -1
REMARK  0 active torsions:
REMARK  status: ('A' for Active; 'I' for Inactive)
ROOT
ATOM      1  C   UNL d   1       1.528  -5.412  -0.778  0.00  0.00     0.078 C 
ATOM      2  C1  UNL d   1       1.298  -4.066  -1.397  0.00  0.00    -0.077 A 
ATOM      3  C2  UNL d   1       0.978  -3.941  -2.754  0.00  0.00    -0.001 A 
ATOM      4  C3  UNL d   1       0.776  -2.681  -3.319  0.00  0.00     0.003 A 
ATOM      5  C4  UNL d   1       0.892  -1.536  -2.535  0.00  0.00    -0.005 A 
ATOM      6  C5  UNL d   1       1.212  -1.649  -1.183  0.00  0.00     0.003 A 
ATOM      7  C6  UNL d   1       1.414  -2.909  -0.616  0.00  0.00    -0.001 A 
ENDROOT
TORSDOF 0
ENDMDL
