MODEL 1
REMARK minimizedAffinity -1.13499165
REMARK minimizedRMSD -1
REMARK  0 active torsions:
REMARK  status: ('A' for Active; 'I' for Inactive)
ROOT
ATOM      1  C   UNL d   1      -1.712   1.761   1.861  0.00  0.00     0.078 C 
ATOM      2  C1  UNL d   1      -0.768   0.813   1.183  0.00  0.00    -0.077 A 
ATOM      3  C2  UNL d   1      -0.771  -0.552   1.495  0.00  0.00    -0.001 A 
ATOM      4  C3  UNL d   1       0.120  -1.422   0.863  0.00  0.00     0.003 A 
ATOM      5  C4  UNL d   1       1.020  -0.936  -0.083  0.00  0.00    -0.005 A 
ATOM      6  C5  UNL d   1       1.031   0.421  -0.398  0.00  0.00     0.003 A 
ATOM      7  C6  UNL d   1       0.142   1.292   0.232  0.00  0.00    -0.001 A 
ENDROOT
TORSDOF 0
ENDMDL
