MODEL 1
REMARK minimizedAffinity -3.28241444
REMARK minimizedRMSD -1
REMARK  0 active torsions:
REMARK  status: ('A' for Active; 'I' for Inactive)
ROOT
ATOM      1  C   UNL d   1       0.246  -0.299  -0.371  0.00  0.00     0.078 C 
ATOM      2  C1  UNL d   1      -0.119   0.996   0.291  0.00  0.00    -0.077 A 
ATOM      3  C2  UNL d   1      -0.708   1.015   1.562  0.00  0.00    -0.001 A 
ATOM      4  C3  UNL d   1      -1.052   2.227   2.162  0.00  0.00     0.003 A 
ATOM      5  C4  UNL d   1      -0.812   3.429   1.499  0.00  0.00    -0.005 A 
ATOM      6  C5  UNL d   1      -0.229   3.420   0.234  0.00  0.00     0.003 A 
ATOM      7  C6  UNL d   1       0.116   2.209  -0.368  0.00  0.00    -0.001 A 
ENDROOT
TORSDOF 0
ENDMDL
