MODEL 1
REMARK minimizedAffinity -4.26679611
REMARK minimizedRMSD -1
REMARK  0 active torsions:
REMARK  status: ('A' for Active; 'I' for Inactive)
ROOT
ATOM      1  C   UNL d   1       0.332  -0.419  -0.782  0.00  0.00     0.078 C 
ATOM      2  C1  UNL d   1      -0.150   0.908  -0.277  0.00  0.00    -0.077 A 
ATOM      3  C2  UNL d   1       0.259   2.103  -0.883  0.00  0.00    -0.001 A 
ATOM      4  C3  UNL d   1      -0.190   3.331  -0.395  0.00  0.00     0.003 A 
ATOM      5  C4  UNL d   1      -1.049   3.377   0.701  0.00  0.00    -0.005 A 
ATOM      6  C5  UNL d   1      -1.460   2.194   1.312  0.00  0.00     0.003 A 
ATOM      7  C6  UNL d   1      -1.012   0.965   0.826  0.00  0.00    -0.001 A 
ENDROOT
TORSDOF 0
ENDMDL
