MODEL 1
REMARK minimizedAffinity -4.41418695
REMARK minimizedRMSD -1
REMARK  0 active torsions:
REMARK  status: ('A' for Active; 'I' for Inactive)
ROOT
ATOM      1  C   UNL d   1      -0.198   3.919  -0.871  0.00  0.00     0.078 C 
ATOM      2  C1  UNL d   1      -0.450   2.673  -0.076  0.00  0.00    -0.077 A 
ATOM      3  C2  UNL d   1      -0.136   1.411  -0.595  0.00  0.00    -0.001 A 
ATOM      4  C3  UNL d   1      -0.385   0.258   0.153  0.00  0.00     0.003 A 
ATOM      5  C4  UNL d   1      -0.949   0.357   1.423  0.00  0.00    -0.005 A 
ATOM      6  C5  UNL d   1      -1.266   1.608   1.947  0.00  0.00     0.003 A 
ATOM      7  C6  UNL d   1      -1.019   2.762   1.201  0.00  0.00    -0.001 A 
ENDROOT
TORSDOF 0
ENDMDL
