MODEL 1
REMARK minimizedAffinity -4.61564016
REMARK minimizedRMSD -1
REMARK  0 active torsions:
REMARK  status: ('A' for Active; 'I' for Inactive)
ROOT
ATOM      1  C   UNL d   1      -0.281  -0.884   1.574  0.00  0.00     0.078 C 
ATOM      2  C1  UNL d   1      -0.650   0.537   1.265  0.00  0.00    -0.077 A 
ATOM      3  C2  UNL d   1      -0.121   1.192   0.147  0.00  0.00    -0.001 A 
ATOM      4  C3  UNL d   1      -0.466   2.518  -0.123  0.00  0.00     0.003 A 
ATOM      5  C4  UNL d   1      -1.339   3.200   0.723  0.00  0.00    -0.005 A 
ATOM      6  C5  UNL d   1      -1.868   2.556   1.839  0.00  0.00     0.003 A 
ATOM      7  C6  UNL d   1      -1.525   1.231   2.110  0.00  0.00    -0.001 A 
ENDROOT
TORSDOF 0
ENDMDL
