MODEL 1
REMARK minimizedAffinity -2.36994219
REMARK minimizedRMSD -1
REMARK  0 active torsions:
REMARK  status: ('A' for Active; 'I' for Inactive)
ROOT
ATOM      1  C   UNL d   1      -0.046  -1.058   1.442  0.00  0.00     0.078 C 
ATOM      2  C1  UNL d   1       0.090   0.372   1.011  0.00  0.00    -0.077 A 
ATOM      3  C2  UNL d   1      -0.601   1.394   1.673  0.00  0.00    -0.001 A 
ATOM      4  C3  UNL d   1      -0.473   2.719   1.255  0.00  0.00     0.003 A 
ATOM      5  C4  UNL d   1       0.345   3.035   0.172  0.00  0.00    -0.005 A 
ATOM      6  C5  UNL d   1       1.036   2.025  -0.495  0.00  0.00     0.003 A 
ATOM      7  C6  UNL d   1       0.908   0.699  -0.078  0.00  0.00    -0.001 A 
ENDROOT
TORSDOF 0
ENDMDL
