MODEL 1
REMARK minimizedAffinity -4.84183502
REMARK minimizedRMSD -1
REMARK  0 active torsions:
REMARK  status: ('A' for Active; 'I' for Inactive)
ROOT
ATOM      1  C   UNL d   1       2.638  -5.502   0.459  0.00  0.00     0.078 C 
ATOM      2  C1  UNL d   1       1.932  -4.595  -0.505  0.00  0.00    -0.077 A 
ATOM      3  C2  UNL d   1       0.939  -5.086  -1.361  0.00  0.00    -0.001 A 
ATOM      4  C3  UNL d   1       0.297  -4.232  -2.259  0.00  0.00     0.003 A 
ATOM      5  C4  UNL d   1       0.642  -2.883  -2.312  0.00  0.00    -0.005 A 
ATOM      6  C5  UNL d   1       1.631  -2.386  -1.465  0.00  0.00     0.003 A 
ATOM      7  C6  UNL d   1       2.274  -3.238  -0.566  0.00  0.00    -0.001 A 
ENDROOT
TORSDOF 0
ENDMDL
