MODEL 1
REMARK minimizedAffinity -2.52794194
REMARK minimizedRMSD -1
REMARK  0 active torsions:
REMARK  status: ('A' for Active; 'I' for Inactive)
ROOT
ATOM      1  C   UNL d   1       1.004  -2.038  -1.926  0.00  0.00     0.078 C 
ATOM      2  C1  UNL d   1       0.723  -1.082  -0.805  0.00  0.00    -0.077 A 
ATOM      3  C2  UNL d   1       0.091  -1.513   0.368  0.00  0.00    -0.001 A 
ATOM      4  C3  UNL d   1      -0.174  -0.610   1.399  0.00  0.00     0.003 A 
ATOM      5  C4  UNL d   1       0.189   0.729   1.268  0.00  0.00    -0.005 A 
ATOM      6  C5  UNL d   1       0.816   1.167   0.103  0.00  0.00     0.003 A 
ATOM      7  C6  UNL d   1       1.082   0.266  -0.929  0.00  0.00    -0.001 A 
ENDROOT
TORSDOF 0
ENDMDL
