MODEL 1
REMARK minimizedAffinity -4.71268415
REMARK minimizedRMSD -1
REMARK  0 active torsions:
REMARK  status: ('A' for Active; 'I' for Inactive)
ROOT
ATOM      1  C   UNL d   1       0.436  -0.997  -0.778  0.00  0.00     0.078 C 
ATOM      2  C1  UNL d   1      -0.075   0.128   0.072  0.00  0.00    -0.077 A 
ATOM      3  C2  UNL d   1      -0.913  -0.119   1.167  0.00  0.00    -0.001 A 
ATOM      4  C3  UNL d   1      -1.389   0.938   1.944  0.00  0.00     0.003 A 
ATOM      5  C4  UNL d   1      -1.034   2.249   1.635  0.00  0.00    -0.005 A 
ATOM      6  C5  UNL d   1      -0.202   2.505   0.546  0.00  0.00     0.003 A 
ATOM      7  C6  UNL d   1       0.275   1.449  -0.232  0.00  0.00    -0.001 A 
ENDROOT
TORSDOF 0
ENDMDL
