MODEL 1
REMARK minimizedAffinity 4.06422567
REMARK minimizedRMSD -1
REMARK  1 active torsions:
REMARK  status: ('A' for Active; 'I' for Inactive)
REMARK    1  A    between atoms: C1_2  and  C2_3 
ROOT
ATOM      1  C2  UNL d   1       1.282  -0.352  -1.116  0.00  0.00    -0.081 A 
ATOM      2  C3  UNL d   1       0.888  -0.327   0.228  0.00  0.00     0.006 A 
ATOM      3  C4  UNL d   1       0.942   0.861   0.960  0.00  0.00     0.002 A 
ATOM      4  C5  UNL d   1       1.383   2.045   0.359  0.00  0.00    -0.080 A 
ATOM      5  C6  UNL d   1       1.417   3.334   1.125  0.00  0.00     0.076 C 
ATOM      6  C7  UNL d   1       1.793   2.017  -0.978  0.00  0.00     0.002 A 
ATOM      7  C8  UNL d   1       1.740   0.829  -1.710  0.00  0.00     0.006 A 
ENDROOT
BRANCH   1   8
ATOM      8  C1  UNL d   1       1.163  -1.618  -1.926  0.00  0.00     0.054 C 
ATOM      9  C   UNL d   1       2.273  -1.717  -2.963  0.00  0.00     0.018 C 
ENDBRANCH   1   8
TORSDOF 1
ENDMDL
