MODEL 1
REMARK minimizedAffinity 3.08682251
REMARK minimizedRMSD -1
REMARK  1 active torsions:
REMARK  status: ('A' for Active; 'I' for Inactive)
REMARK    1  A    between atoms: C1_2  and  C2_3 
ROOT
ATOM      1  C2  UNL d   1      -2.535  -2.193   3.852  0.00  0.00    -0.081 A 
ATOM      2  C3  UNL d   1      -1.709  -2.937   3.000  0.00  0.00     0.006 A 
ATOM      3  C4  UNL d   1      -1.045  -2.316   1.939  0.00  0.00     0.002 A 
ATOM      4  C5  UNL d   1      -1.188  -0.943   1.718  0.00  0.00    -0.080 A 
ATOM      5  C6  UNL d   1      -0.457  -0.259   0.601  0.00  0.00     0.076 C 
ATOM      6  C7  UNL d   1      -2.027  -0.203   2.559  0.00  0.00     0.002 A 
ATOM      7  C8  UNL d   1      -2.692  -0.822   3.619  0.00  0.00     0.006 A 
ENDROOT
BRANCH   1   8
ATOM      8  C1  UNL d   1      -3.201  -2.847   5.036  0.00  0.00     0.054 C 
ATOM      9  C   UNL d   1      -4.716  -2.840   4.891  0.00  0.00     0.018 C 
ENDBRANCH   1   8
TORSDOF 1
ENDMDL
