MODEL 1
REMARK minimizedAffinity 7.62796259
REMARK minimizedRMSD -1
REMARK  1 active torsions:
REMARK  status: ('A' for Active; 'I' for Inactive)
REMARK    1  A    between atoms: C1_2  and  C2_3 
ROOT
ATOM      1  C2  UNL d   1       1.734   5.209  -5.626  0.00  0.00    -0.081 A 
ATOM      2  C3  UNL d   1       1.628   4.023  -4.888  0.00  0.00     0.006 A 
ATOM      3  C4  UNL d   1       2.775   3.330  -4.494  0.00  0.00     0.002 A 
ATOM      4  C5  UNL d   1       4.046   3.813  -4.824  0.00  0.00    -0.080 A 
ATOM      5  C6  UNL d   1       5.285   3.094  -4.382  0.00  0.00     0.076 C 
ATOM      6  C7  UNL d   1       4.151   4.987  -5.577  0.00  0.00     0.002 A 
ATOM      7  C8  UNL d   1       3.005   5.681  -5.971  0.00  0.00     0.006 A 
ENDROOT
BRANCH   1   8
ATOM      8  C1  UNL d   1       0.502   5.993  -5.996  0.00  0.00     0.054 C 
ATOM      9  C   UNL d   1      -0.513   5.998  -4.862  0.00  0.00     0.018 C 
ENDBRANCH   1   8
TORSDOF 1
ENDMDL
