MODEL 1
REMARK minimizedAffinity 0.0336533636
REMARK minimizedRMSD -1
REMARK  1 active torsions:
REMARK  status: ('A' for Active; 'I' for Inactive)
REMARK    1  A    between atoms: C1_2  and  C2_3 
ROOT
ATOM      1  C2  UNL d   1      -1.823   5.973  -2.961  0.00  0.00    -0.081 A 
ATOM      2  C3  UNL d   1      -1.957   5.960  -4.355  0.00  0.00     0.006 A 
ATOM      3  C4  UNL d   1      -0.826   5.921  -5.175  0.00  0.00     0.002 A 
ATOM      4  C5  UNL d   1       0.456   5.886  -4.615  0.00  0.00    -0.080 A 
ATOM      5  C6  UNL d   1       1.676   5.813  -5.483  0.00  0.00     0.076 C 
ATOM      6  C7  UNL d   1       0.590   5.917  -3.223  0.00  0.00     0.002 A 
ATOM      7  C8  UNL d   1      -0.540   5.957  -2.403  0.00  0.00     0.006 A 
ENDROOT
BRANCH   1   8
ATOM      8  C1  UNL d   1      -3.041   5.951  -2.074  0.00  0.00     0.054 C 
ATOM      9  C   UNL d   1      -4.323   5.948  -2.894  0.00  0.00     0.018 C 
ENDBRANCH   1   8
TORSDOF 1
ENDMDL
