MODEL 1
REMARK minimizedAffinity 4.26364756
REMARK minimizedRMSD -1
REMARK  1 active torsions:
REMARK  status: ('A' for Active; 'I' for Inactive)
REMARK    1  A    between atoms: C1_2  and  C2_3 
ROOT
ATOM      1  C2  UNL d   1      -0.888   5.909  -2.976  0.00  0.00    -0.081 A 
ATOM      2  C3  UNL d   1      -2.255   5.993  -3.269  0.00  0.00     0.006 A 
ATOM      3  C4  UNL d   1      -3.201   5.999  -2.242  0.00  0.00     0.002 A 
ATOM      4  C5  UNL d   1      -2.797   5.929  -0.904  0.00  0.00    -0.080 A 
ATOM      5  C6  UNL d   1      -3.800   5.965   0.210  0.00  0.00     0.076 C 
ATOM      6  C7  UNL d   1      -1.432   5.827  -0.611  0.00  0.00     0.002 A 
ATOM      7  C8  UNL d   1      -0.486   5.821  -1.639  0.00  0.00     0.006 A 
ENDROOT
BRANCH   1   8
ATOM      8  C1  UNL d   1       0.138   5.968  -4.079  0.00  0.00     0.054 C 
ATOM      9  C   UNL d   1       0.415   4.585  -4.651  0.00  0.00     0.018 C 
ENDBRANCH   1   8
TORSDOF 1
ENDMDL
