MODEL 1
REMARK minimizedAffinity -1.23683369
REMARK minimizedRMSD -1
REMARK  1 active torsions:
REMARK  status: ('A' for Active; 'I' for Inactive)
REMARK    1  A    between atoms: C1_2  and  C2_3 
ROOT
ATOM      1  C2  UNL d   1      -0.050   5.939  -4.045  0.00  0.00    -0.081 A 
ATOM      2  C3  UNL d   1      -1.447   5.989  -4.124  0.00  0.00     0.006 A 
ATOM      3  C4  UNL d   1      -2.223   5.996  -2.963  0.00  0.00     0.002 A 
ATOM      4  C5  UNL d   1      -1.615   5.962  -1.703  0.00  0.00    -0.080 A 
ATOM      5  C6  UNL d   1      -2.435   6.000  -0.448  0.00  0.00     0.076 C 
ATOM      6  C7  UNL d   1      -0.220   5.895  -1.623  0.00  0.00     0.002 A 
ATOM      7  C8  UNL d   1       0.556   5.887  -2.785  0.00  0.00     0.006 A 
ENDROOT
BRANCH   1   8
ATOM      8  C1  UNL d   1       0.792   5.997  -5.294  0.00  0.00     0.054 C 
ATOM      9  C   UNL d   1       1.500   4.673  -5.545  0.00  0.00     0.018 C 
ENDBRANCH   1   8
TORSDOF 1
ENDMDL
