MODEL 1
REMARK minimizedAffinity 2.65228891
REMARK minimizedRMSD -1
REMARK  1 active torsions:
REMARK  status: ('A' for Active; 'I' for Inactive)
REMARK    1  A    between atoms: C1_2  and  C2_3 
ROOT
ATOM      1  C2  UNL d   1       0.792   1.264   1.334  0.00  0.00    -0.081 A 
ATOM      2  C3  UNL d   1       1.188   0.316   0.383  0.00  0.00     0.006 A 
ATOM      3  C4  UNL d   1       0.558  -0.929   0.318  0.00  0.00     0.002 A 
ATOM      4  C5  UNL d   1      -0.484  -1.244   1.198  0.00  0.00    -0.080 A 
ATOM      5  C6  UNL d   1      -1.189  -2.565   1.119  0.00  0.00     0.076 C 
ATOM      6  C7  UNL d   1      -0.868  -0.304   2.160  0.00  0.00     0.002 A 
ATOM      7  C8  UNL d   1      -0.238   0.941   2.225  0.00  0.00     0.006 A 
ENDROOT
BRANCH   1   8
ATOM      8  C1  UNL d   1       1.425   2.631   1.364  0.00  0.00     0.054 C 
ATOM      9  C   UNL d   1       1.457   3.257  -0.023  0.00  0.00     0.018 C 
ENDBRANCH   1   8
TORSDOF 1
ENDMDL
