MODEL 1
REMARK minimizedAffinity 3.28798318
REMARK minimizedRMSD -1
REMARK  1 active torsions:
REMARK  status: ('A' for Active; 'I' for Inactive)
REMARK    1  A    between atoms: C1_2  and  C2_3 
ROOT
ATOM      1  C2  UNL d   1      -1.081   5.981  -4.038  0.00  0.00    -0.081 A 
ATOM      2  C3  UNL d   1      -0.402   5.989  -2.813  0.00  0.00     0.006 A 
ATOM      3  C4  UNL d   1      -1.111   5.998  -1.610  0.00  0.00     0.002 A 
ATOM      4  C5  UNL d   1      -2.510   5.991  -1.611  0.00  0.00    -0.080 A 
ATOM      5  C6  UNL d   1      -3.283   5.969  -0.326  0.00  0.00     0.076 C 
ATOM      6  C7  UNL d   1      -3.189   6.000  -2.834  0.00  0.00     0.002 A 
ATOM      7  C8  UNL d   1      -2.480   5.992  -4.037  0.00  0.00     0.006 A 
ENDROOT
BRANCH   1   8
ATOM      8  C1  UNL d   1      -0.320   5.906  -5.336  0.00  0.00     0.054 C 
ATOM      9  C   UNL d   1       1.183   5.903  -5.097  0.00  0.00     0.018 C 
ENDBRANCH   1   8
TORSDOF 1
ENDMDL
