MODEL 1
REMARK minimizedAffinity 2.94971013
REMARK minimizedRMSD -1
REMARK  1 active torsions:
REMARK  status: ('A' for Active; 'I' for Inactive)
REMARK    1  A    between atoms: C1_2  and  C2_3 
ROOT
ATOM      1  C2  UNL d   1      -0.020   0.451   0.935  0.00  0.00    -0.081 A 
ATOM      2  C3  UNL d   1       0.357  -0.674   0.192  0.00  0.00     0.006 A 
ATOM      3  C4  UNL d   1      -0.594  -1.395  -0.534  0.00  0.00     0.002 A 
ATOM      4  C5  UNL d   1      -1.936  -0.998  -0.536  0.00  0.00    -0.080 A 
ATOM      5  C6  UNL d   1      -2.962  -1.745  -1.335  0.00  0.00     0.076 C 
ATOM      6  C7  UNL d   1      -2.316   0.116   0.220  0.00  0.00     0.002 A 
ATOM      7  C8  UNL d   1      -1.365   0.836   0.947  0.00  0.00     0.006 A 
ENDROOT
BRANCH   1   8
ATOM      8  C1  UNL d   1       1.014   1.268   1.667  0.00  0.00     0.054 C 
ATOM      9  C   UNL d   1       1.333   2.555   0.919  0.00  0.00     0.018 C 
ENDBRANCH   1   8
TORSDOF 1
ENDMDL
