MODEL 1
REMARK minimizedAffinity 6.72465277
REMARK minimizedRMSD -1
REMARK  1 active torsions:
REMARK  status: ('A' for Active; 'I' for Inactive)
REMARK    1  A    between atoms: C1_2  and  C2_3 
ROOT
ATOM      1  C2  UNL d   1      -0.372   0.409   2.472  0.00  0.00    -0.081 A 
ATOM      2  C3  UNL d   1       0.171   0.387   1.182  0.00  0.00     0.006 A 
ATOM      3  C4  UNL d   1       1.555   0.388   0.995  0.00  0.00     0.002 A 
ATOM      4  C5  UNL d   1       2.419   0.403   2.095  0.00  0.00    -0.080 A 
ATOM      5  C6  UNL d   1       3.907   0.374   1.910  0.00  0.00     0.076 C 
ATOM      6  C7  UNL d   1       1.877   0.443   3.384  0.00  0.00     0.002 A 
ATOM      7  C8  UNL d   1       0.493   0.443   3.571  0.00  0.00     0.006 A 
ENDROOT
BRANCH   1   8
ATOM      8  C1  UNL d   1      -1.864   0.342   2.678  0.00  0.00     0.054 C 
ATOM      9  C   UNL d   1      -2.605   1.134   1.610  0.00  0.00     0.018 C 
ENDBRANCH   1   8
TORSDOF 1
ENDMDL
