MODEL 1
REMARK minimizedAffinity 4.5821681
REMARK minimizedRMSD -1
REMARK  1 active torsions:
REMARK  status: ('A' for Active; 'I' for Inactive)
REMARK    1  A    between atoms: C1_2  and  C2_3 
ROOT
ATOM      1  C2  UNL d   1      -1.070   4.792  -3.720  0.00  0.00    -0.081 A 
ATOM      2  C3  UNL d   1      -0.492   3.587  -4.139  0.00  0.00     0.006 A 
ATOM      3  C4  UNL d   1       0.690   3.590  -4.883  0.00  0.00     0.002 A 
ATOM      4  C5  UNL d   1       1.317   4.795  -5.215  0.00  0.00    -0.080 A 
ATOM      5  C6  UNL d   1       2.603   4.811  -5.988  0.00  0.00     0.076 C 
ATOM      6  C7  UNL d   1       0.731   6.000  -4.812  0.00  0.00     0.002 A 
ATOM      7  C8  UNL d   1      -0.451   5.998  -4.068  0.00  0.00     0.006 A 
ENDROOT
BRANCH   1   8
ATOM      8  C1  UNL d   1      -2.309   4.790  -2.862  0.00  0.00     0.054 C 
ATOM      9  C   UNL d   1      -2.231   5.854  -1.776  0.00  0.00     0.018 C 
ENDBRANCH   1   8
TORSDOF 1
ENDMDL
