MODEL 1
REMARK minimizedAffinity 2.55684328
REMARK minimizedRMSD -1
REMARK  1 active torsions:
REMARK  status: ('A' for Active; 'I' for Inactive)
REMARK    1  A    between atoms: C1_2  and  C2_3 
ROOT
ATOM      1  C2  UNL d   1       4.707   4.374  -4.465  0.00  0.00    -0.081 A 
ATOM      2  C3  UNL d   1       4.715   5.423  -5.392  0.00  0.00     0.006 A 
ATOM      3  C4  UNL d   1       3.515   5.942  -5.884  0.00  0.00     0.002 A 
ATOM      4  C5  UNL d   1       2.288   5.427  -5.451  0.00  0.00    -0.080 A 
ATOM      5  C6  UNL d   1       0.993   5.996  -5.948  0.00  0.00     0.076 C 
ATOM      6  C7  UNL d   1       2.281   4.367  -4.538  0.00  0.00     0.002 A 
ATOM      7  C8  UNL d   1       3.480   3.847  -4.047  0.00  0.00     0.006 A 
ENDROOT
BRANCH   1   8
ATOM      8  C1  UNL d   1       5.998   3.855  -3.884  0.00  0.00     0.054 C 
ATOM      9  C   UNL d   1       5.986   2.337  -3.779  0.00  0.00     0.018 C 
ENDBRANCH   1   8
TORSDOF 1
ENDMDL
