MODEL 1
REMARK minimizedAffinity 1.84330595
REMARK minimizedRMSD -1
REMARK  1 active torsions:
REMARK  status: ('A' for Active; 'I' for Inactive)
REMARK    1  A    between atoms: C1_2  and  C2_3 
ROOT
ATOM      1  C2  UNL d   1      -0.523   5.933  -3.494  0.00  0.00    -0.081 A 
ATOM      2  C3  UNL d   1      -1.499   5.878  -4.496  0.00  0.00     0.006 A 
ATOM      3  C4  UNL d   1      -2.856   5.878  -4.164  0.00  0.00     0.002 A 
ATOM      4  C5  UNL d   1      -3.259   5.941  -2.826  0.00  0.00    -0.080 A 
ATOM      5  C6  UNL d   1      -4.713   5.973  -2.457  0.00  0.00     0.076 C 
ATOM      6  C7  UNL d   1      -2.284   5.979  -1.824  0.00  0.00     0.002 A 
ATOM      7  C8  UNL d   1      -0.927   5.978  -2.155  0.00  0.00     0.006 A 
ENDROOT
BRANCH   1   8
ATOM      8  C1  UNL d   1       0.940   5.998  -3.852  0.00  0.00     0.054 C 
ATOM      9  C   UNL d   1       1.193   5.451  -5.249  0.00  0.00     0.018 C 
ENDBRANCH   1   8
TORSDOF 1
ENDMDL
