MODEL 1
REMARK minimizedAffinity 2.33127093
REMARK minimizedRMSD -1
REMARK  1 active torsions:
REMARK  status: ('A' for Active; 'I' for Inactive)
REMARK    1  A    between atoms: C1_2  and  C2_3 
ROOT
ATOM      1  C2  UNL d   1       0.088  -0.270   0.695  0.00  0.00    -0.081 A 
ATOM      2  C3  UNL d   1       0.345   0.810   1.548  0.00  0.00     0.006 A 
ATOM      3  C4  UNL d   1       1.283   1.783   1.197  0.00  0.00     0.002 A 
ATOM      4  C5  UNL d   1       1.974   1.697  -0.017  0.00  0.00    -0.080 A 
ATOM      5  C6  UNL d   1       2.962   2.751  -0.420  0.00  0.00     0.076 C 
ATOM      6  C7  UNL d   1       1.730   0.609  -0.862  0.00  0.00     0.002 A 
ATOM      7  C8  UNL d   1       0.793  -0.365  -0.510  0.00  0.00     0.006 A 
ENDROOT
BRANCH   1   8
ATOM      8  C1  UNL d   1      -0.970  -1.286   1.042  0.00  0.00     0.054 C 
ATOM      9  C   UNL d   1      -2.032  -0.690   1.954  0.00  0.00     0.018 C 
ENDBRANCH   1   8
TORSDOF 1
ENDMDL
