MODEL 1
REMARK minimizedAffinity 8.82962799
REMARK minimizedRMSD -1
REMARK  0 active torsions:
REMARK  status: ('A' for Active; 'I' for Inactive)
ROOT
ATOM      1  C1  DEN d   1      -5.158   1.534  -2.960  0.00  0.00     0.130 A 
ATOM      2  C2  DEN d   1      -3.891   1.368  -2.252  0.00  0.00    -0.031 A 
ATOM      3  C3  DEN d   1      -3.027   2.517  -2.587  0.00  0.00     0.027 A 
ATOM      4  C4  DEN d   1      -3.526   4.531  -4.120  0.00  0.00     0.027 A 
ATOM      5  C5  DEN d   1      -4.464   5.104  -4.950  0.00  0.00    -0.003 A 
ATOM      6  C6  DEN d   1      -5.676   4.516  -5.199  0.00  0.00     0.001 A 
ATOM      7  C7  DEN d   1      -6.000   3.340  -4.577  0.00  0.00     0.017 A 
ATOM      8  C8  DEN d   1      -5.057   2.751  -3.745  0.00  0.00    -0.094 A 
ATOM      9  C9  DEN d   1      -3.842   3.368  -3.496  0.00  0.00    -0.072 A 
ENDROOT
TORSDOF 0
ENDMDL
