MODEL 1
REMARK minimizedAffinity 11.7843323
REMARK minimizedRMSD -1
REMARK  0 active torsions:
REMARK  status: ('A' for Active; 'I' for Inactive)
ROOT
ATOM      1  C1  DEN d   1       2.622   5.056  -1.022  0.00  0.00     0.130 A 
ATOM      2  C2  DEN d   1       2.081   6.000  -1.996  0.00  0.00    -0.031 A 
ATOM      3  C3  DEN d   1       0.608   5.967  -1.895  0.00  0.00     0.027 A 
ATOM      4  C4  DEN d   1      -0.879   4.557  -0.330  0.00  0.00     0.027 A 
ATOM      5  C5  DEN d   1      -0.876   3.603   0.663  0.00  0.00    -0.003 A 
ATOM      6  C6  DEN d   1       0.283   3.046   1.137  0.00  0.00     0.001 A 
ATOM      7  C7  DEN d   1       1.490   3.471   0.648  0.00  0.00     0.017 A 
ATOM      8  C8  DEN d   1       1.494   4.428  -0.358  0.00  0.00    -0.094 A 
ATOM      9  C9  DEN d   1       0.313   4.988  -0.815  0.00  0.00    -0.072 A 
ENDROOT
TORSDOF 0
ENDMDL
