MODEL 1
REMARK minimizedAffinity 10.5170479
REMARK minimizedRMSD -1
REMARK  0 active torsions:
REMARK  status: ('A' for Active; 'I' for Inactive)
ROOT
ATOM      1  C1  DEN d   1       1.874   2.611   0.745  0.00  0.00     0.130 A 
ATOM      2  C2  DEN d   1       0.637   1.853   0.913  0.00  0.00    -0.031 A 
ATOM      3  C3  DEN d   1      -0.466   2.645   0.333  0.00  0.00     0.027 A 
ATOM      4  C4  DEN d   1      -0.379   4.957  -0.807  0.00  0.00     0.027 A 
ATOM      5  C5  DEN d   1       0.446   5.998  -1.173  0.00  0.00    -0.003 A 
ATOM      6  C6  DEN d   1       1.788   5.998  -0.897  0.00  0.00     0.001 A 
ATOM      7  C7  DEN d   1       2.353   4.916  -0.276  0.00  0.00     0.017 A 
ATOM      8  C8  DEN d   1       1.527   3.866   0.102  0.00  0.00    -0.094 A 
ATOM      9  C9  DEN d   1       0.175   3.879  -0.197  0.00  0.00    -0.072 A 
ENDROOT
TORSDOF 0
ENDMDL
