MODEL 1
REMARK minimizedAffinity 14.8542376
REMARK minimizedRMSD -1
REMARK  0 active torsions:
REMARK  status: ('A' for Active; 'I' for Inactive)
ROOT
ATOM      1  C1  DEN d   1       2.255  -2.331   0.621  0.00  0.00     0.130 A 
ATOM      2  C2  DEN d   1       2.145  -1.004   0.022  0.00  0.00    -0.031 A 
ATOM      3  C3  DEN d   1       3.380  -0.745  -0.745  0.00  0.00     0.027 A 
ATOM      4  C4  DEN d   1       5.440  -2.264  -1.064  0.00  0.00     0.027 A 
ATOM      5  C5  DEN d   1       6.000  -3.480  -0.738  0.00  0.00    -0.003 A 
ATOM      6  C6  DEN d   1       5.371  -4.376   0.085  0.00  0.00     0.001 A 
ATOM      7  C7  DEN d   1       4.123  -4.089   0.573  0.00  0.00     0.017 A 
ATOM      8  C8  DEN d   1       3.556  -2.863   0.255  0.00  0.00    -0.094 A 
ATOM      9  C9  DEN d   1       4.203  -1.975  -0.588  0.00  0.00    -0.072 A 
ENDROOT
TORSDOF 0
ENDMDL
