MODEL 1
REMARK minimizedAffinity 6.18225908
REMARK minimizedRMSD -1
REMARK  0 active torsions:
REMARK  status: ('A' for Active; 'I' for Inactive)
ROOT
ATOM      1  C1  DEN d   1       2.811  -0.593  -0.862  0.00  0.00     0.130 A 
ATOM      2  C2  DEN d   1       2.371  -0.499   0.528  0.00  0.00    -0.031 A 
ATOM      3  C3  DEN d   1       3.156  -1.467   1.321  0.00  0.00     0.027 A 
ATOM      4  C4  DEN d   1       5.001  -3.090   0.537  0.00  0.00     0.027 A 
ATOM      5  C5  DEN d   1       5.711  -3.540  -0.554  0.00  0.00    -0.003 A 
ATOM      6  C6  DEN d   1       5.482  -3.067  -1.819  0.00  0.00     0.001 A 
ATOM      7  C7  DEN d   1       4.550  -2.083  -2.018  0.00  0.00     0.017 A 
ATOM      8  C8  DEN d   1       3.825  -1.630  -0.924  0.00  0.00    -0.094 A 
ATOM      9  C9  DEN d   1       4.080  -2.111   0.349  0.00  0.00    -0.072 A 
ENDROOT
TORSDOF 0
ENDMDL
