MODEL 1
REMARK minimizedAffinity 11.5695095
REMARK minimizedRMSD -1
REMARK  0 active torsions:
REMARK  status: ('A' for Active; 'I' for Inactive)
ROOT
ATOM      1  C1  DEN d   1      -0.916   1.206   0.789  0.00  0.00     0.130 A 
ATOM      2  C2  DEN d   1      -0.852   2.101  -0.363  0.00  0.00    -0.031 A 
ATOM      3  C3  DEN d   1       0.282   1.675  -1.209  0.00  0.00     0.027 A 
ATOM      4  C4  DEN d   1       1.930  -0.276  -0.851  0.00  0.00     0.027 A 
ATOM      5  C5  DEN d   1       2.282  -1.309  -0.011  0.00  0.00    -0.003 A 
ATOM      6  C6  DEN d   1       1.619  -1.553   1.163  0.00  0.00     0.001 A 
ATOM      7  C7  DEN d   1       0.540  -0.781   1.506  0.00  0.00     0.017 A 
ATOM      8  C8  DEN d   1       0.184   0.267   0.667  0.00  0.00    -0.094 A 
ATOM      9  C9  DEN d   1       0.860   0.490  -0.521  0.00  0.00    -0.072 A 
ENDROOT
TORSDOF 0
ENDMDL
