MODEL 1
REMARK minimizedAffinity 13.7117367
REMARK minimizedRMSD -1
REMARK  0 active torsions:
REMARK  status: ('A' for Active; 'I' for Inactive)
ROOT
ATOM      1  C1  DEN d   1      -4.521   1.282  -3.001  0.00  0.00     0.130 A 
ATOM      2  C2  DEN d   1      -3.121   1.334  -2.588  0.00  0.00    -0.031 A 
ATOM      3  C3  DEN d   1      -2.551   2.610  -3.066  0.00  0.00     0.027 A 
ATOM      4  C4  DEN d   1      -3.696   4.502  -4.394  0.00  0.00     0.027 A 
ATOM      5  C5  DEN d   1      -4.873   4.906  -4.984  0.00  0.00    -0.003 A 
ATOM      6  C6  DEN d   1      -5.996   4.122  -4.984  0.00  0.00     0.001 A 
ATOM      7  C7  DEN d   1      -5.980   2.912  -4.342  0.00  0.00     0.017 A 
ATOM      8  C8  DEN d   1      -4.794   2.495  -3.751  0.00  0.00    -0.094 A 
ATOM      9  C9  DEN d   1      -3.673   3.307  -3.752  0.00  0.00    -0.072 A 
ENDROOT
TORSDOF 0
ENDMDL
