MODEL 1
REMARK minimizedAffinity 6.26218081
REMARK minimizedRMSD -1
REMARK  0 active torsions:
REMARK  status: ('A' for Active; 'I' for Inactive)
ROOT
ATOM      1  C1  DEN d   1       3.552  -1.537  -0.714  0.00  0.00     0.130 A 
ATOM      2  C2  DEN d   1       2.275  -1.900  -0.105  0.00  0.00    -0.031 A 
ATOM      3  C3  DEN d   1       2.113  -3.363  -0.223  0.00  0.00     0.027 A 
ATOM      4  C4  DEN d   1       3.708  -5.093  -1.280  0.00  0.00     0.027 A 
ATOM      5  C5  DEN d   1       4.908  -5.260  -1.934  0.00  0.00    -0.003 A 
ATOM      6  C6  DEN d   1       5.718  -4.203  -2.256  0.00  0.00     0.001 A 
ATOM      7  C7  DEN d   1       5.359  -2.935  -1.883  0.00  0.00     0.017 A 
ATOM      8  C8  DEN d   1       4.146  -2.757  -1.229  0.00  0.00    -0.094 A 
ATOM      9  C9  DEN d   1       3.348  -3.840  -0.902  0.00  0.00    -0.072 A 
ENDROOT
TORSDOF 0
ENDMDL
