MODEL 1
REMARK minimizedAffinity 9.28497028
REMARK minimizedRMSD -1
REMARK  0 active torsions:
REMARK  status: ('A' for Active; 'I' for Inactive)
ROOT
ATOM      1  C1  DEN d   1       1.738   4.697  -2.062  0.00  0.00     0.130 A 
ATOM      2  C2  DEN d   1       2.182   5.992  -1.553  0.00  0.00    -0.031 A 
ATOM      3  C3  DEN d   1       1.994   5.996  -0.089  0.00  0.00     0.027 A 
ATOM      4  C4  DEN d   1       1.068   4.131   1.433  0.00  0.00     0.027 A 
ATOM      5  C5  DEN d   1       0.551   2.854   1.457  0.00  0.00    -0.003 A 
ATOM      6  C6  DEN d   1       0.363   2.121   0.315  0.00  0.00     0.001 A 
ATOM      7  C7  DEN d   1       0.737   2.643  -0.895  0.00  0.00     0.017 A 
ATOM      8  C8  DEN d   1       1.252   3.932  -0.928  0.00  0.00    -0.094 A 
ATOM      9  C9  DEN d   1       1.446   4.652   0.239  0.00  0.00    -0.072 A 
ENDROOT
TORSDOF 0
ENDMDL
