MODEL 1
REMARK minimizedAffinity 11.025095
REMARK minimizedRMSD -1
REMARK  0 active torsions:
REMARK  status: ('A' for Active; 'I' for Inactive)
ROOT
ATOM      1  C1  DEN d   1       2.772   4.900  -0.203  0.00  0.00     0.130 A 
ATOM      2  C2  DEN d   1       2.545   6.000  -1.137  0.00  0.00    -0.031 A 
ATOM      3  C3  DEN d   1       1.124   5.973  -1.536  0.00  0.00     0.027 A 
ATOM      4  C4  DEN d   1      -0.738   4.348  -0.799  0.00  0.00     0.027 A 
ATOM      5  C5  DEN d   1      -1.024   3.244  -0.027  0.00  0.00    -0.003 A 
ATOM      6  C6  DEN d   1      -0.065   2.599   0.707  0.00  0.00     0.001 A 
ATOM      7  C7  DEN d   1       1.218   3.081   0.722  0.00  0.00     0.017 A 
ATOM      8  C8  DEN d   1       1.515   4.189  -0.060  0.00  0.00    -0.094 A 
ATOM      9  C9  DEN d   1       0.528   4.835  -0.786  0.00  0.00    -0.072 A 
ENDROOT
TORSDOF 0
ENDMDL
