MODEL 1
REMARK minimizedAffinity 11.2025785
REMARK minimizedRMSD -1
REMARK  1 active torsions:
REMARK  status: ('A' for Active; 'I' for Inactive)
REMARK    1  A    between atoms: C1_2  and  C2_3 
ROOT
ATOM      1  C2  UNL d   1      -3.644  -0.942   4.211  0.00  0.00    -0.077 A 
ATOM      2  C3  UNL d   1      -3.383  -0.606   5.547  0.00  0.00     0.002 A 
ATOM      3  C4  UNL d   1      -3.284   0.733   5.932  0.00  0.00     0.002 A 
ATOM      4  C5  UNL d   1      -3.448   1.745   4.988  0.00  0.00    -0.004 A 
ATOM      5  C6  UNL d   1      -3.705   1.420   3.657  0.00  0.00     0.002 A 
ATOM      6  C7  UNL d   1      -3.804   0.083   3.270  0.00  0.00     0.002 A 
ENDROOT
BRANCH   1   7
ATOM      7  C1  UNL d   1      -3.801  -2.384   3.804  0.00  0.00     0.055 C 
ATOM      8  C   UNL d   1      -3.491  -3.323   4.960  0.00  0.00     0.019 C 
ENDBRANCH   1   7
TORSDOF 1
ENDMDL
