MODEL 1
REMARK minimizedAffinity 8.80674934
REMARK minimizedRMSD -1
REMARK  1 active torsions:
REMARK  status: ('A' for Active; 'I' for Inactive)
REMARK    1  A    between atoms: C1_2  and  C2_3 
ROOT
ATOM      1  C2  UNL d   1      -3.862   0.942   3.972  0.00  0.00    -0.077 A 
ATOM      2  C3  UNL d   1      -4.807   1.941   3.699  0.00  0.00     0.002 A 
ATOM      3  C4  UNL d   1      -4.966   3.020   4.570  0.00  0.00     0.002 A 
ATOM      4  C5  UNL d   1      -4.181   3.112   5.718  0.00  0.00    -0.004 A 
ATOM      5  C6  UNL d   1      -3.240   2.123   5.999  0.00  0.00     0.002 A 
ATOM      6  C7  UNL d   1      -3.081   1.043   5.130  0.00  0.00     0.002 A 
ENDROOT
BRANCH   1   7
ATOM      7  C1  UNL d   1      -3.655  -0.197   3.008  0.00  0.00     0.055 C 
ATOM      8  C   UNL d   1      -3.819  -1.543   3.698  0.00  0.00     0.019 C 
ENDBRANCH   1   7
TORSDOF 1
ENDMDL
