MODEL 1
REMARK minimizedAffinity 9.58555889
REMARK minimizedRMSD -1
REMARK  1 active torsions:
REMARK  status: ('A' for Active; 'I' for Inactive)
REMARK    1  A    between atoms: C1_2  and  C2_3 
ROOT
ATOM      1  C2  UNL d   1      -3.558  -0.224   3.495  0.00  0.00    -0.077 A 
ATOM      2  C3  UNL d   1      -3.472   0.166   4.839  0.00  0.00     0.002 A 
ATOM      3  C4  UNL d   1      -3.715  -0.755   5.859  0.00  0.00     0.002 A 
ATOM      4  C5  UNL d   1      -4.042  -2.073   5.547  0.00  0.00    -0.004 A 
ATOM      5  C6  UNL d   1      -4.132  -2.471   4.214  0.00  0.00     0.002 A 
ATOM      6  C7  UNL d   1      -3.890  -1.551   3.192  0.00  0.00     0.002 A 
ENDROOT
BRANCH   1   7
ATOM      7  C1  UNL d   1      -3.247   0.755   2.394  0.00  0.00     0.055 C 
ATOM      8  C   UNL d   1      -1.757   1.056   2.324  0.00  0.00     0.019 C 
ENDBRANCH   1   7
TORSDOF 1
ENDMDL
