MODEL 1
REMARK minimizedAffinity 15.2663431
REMARK minimizedRMSD -1
REMARK  1 active torsions:
REMARK  status: ('A' for Active; 'I' for Inactive)
REMARK    1  A    between atoms: C1_2  and  C2_3 
ROOT
ATOM      1  C2  UNL d   1      -3.440  -0.776   4.412  0.00  0.00    -0.077 A 
ATOM      2  C3  UNL d   1      -3.270  -0.304   5.721  0.00  0.00     0.002 A 
ATOM      3  C4  UNL d   1      -3.376   1.060   6.000  0.00  0.00     0.002 A 
ATOM      4  C5  UNL d   1      -3.656   1.962   4.976  0.00  0.00    -0.004 A 
ATOM      5  C6  UNL d   1      -3.825   1.503   3.670  0.00  0.00     0.002 A 
ATOM      6  C7  UNL d   1      -3.718   0.140   3.389  0.00  0.00     0.002 A 
ENDROOT
BRANCH   1   7
ATOM      7  C1  UNL d   1      -3.375  -2.252   4.118  0.00  0.00     0.055 C 
ATOM      8  C   UNL d   1      -4.126  -3.059   5.166  0.00  0.00     0.019 C 
ENDBRANCH   1   7
TORSDOF 1
ENDMDL
