MODEL 1
REMARK minimizedAffinity 15.685565
REMARK minimizedRMSD -1
REMARK  1 active torsions:
REMARK  status: ('A' for Active; 'I' for Inactive)
REMARK    1  A    between atoms: C1_2  and  C2_3 
ROOT
ATOM      1  C2  UNL d   1      -3.381   1.627   3.579  0.00  0.00    -0.077 A 
ATOM      2  C3  UNL d   1      -4.385   2.603   3.528  0.00  0.00     0.002 A 
ATOM      3  C4  UNL d   1      -4.971   3.076   4.704  0.00  0.00     0.002 A 
ATOM      4  C5  UNL d   1      -4.556   2.582   5.938  0.00  0.00    -0.004 A 
ATOM      5  C6  UNL d   1      -3.559   1.609   5.999  0.00  0.00     0.002 A 
ATOM      6  C7  UNL d   1      -2.973   1.134   4.825  0.00  0.00     0.002 A 
ENDROOT
BRANCH   1   7
ATOM      7  C1  UNL d   1      -2.713   1.151   2.315  0.00  0.00     0.055 C 
ATOM      8  C   UNL d   1      -1.249   1.564   2.272  0.00  0.00     0.019 C 
ENDBRANCH   1   7
TORSDOF 1
ENDMDL
