MODEL 1
REMARK minimizedAffinity 4.49656725
REMARK minimizedRMSD -1
REMARK  1 active torsions:
REMARK  status: ('A' for Active; 'I' for Inactive)
REMARK    1  A    between atoms: C1_2  and  C2_3 
ROOT
ATOM      1  C2  UNL d   1      -3.314   2.027   3.622  0.00  0.00    -0.077 A 
ATOM      2  C3  UNL d   1      -4.389   2.895   3.381  0.00  0.00     0.002 A 
ATOM      3  C4  UNL d   1      -5.156   3.381   4.442  0.00  0.00     0.002 A 
ATOM      4  C5  UNL d   1      -4.854   3.008   5.750  0.00  0.00    -0.004 A 
ATOM      5  C6  UNL d   1      -3.789   2.144   6.000  0.00  0.00     0.002 A 
ATOM      6  C7  UNL d   1      -3.022   1.656   4.940  0.00  0.00     0.002 A 
ENDROOT
BRANCH   1   7
ATOM      7  C1  UNL d   1      -2.456   1.541   2.484  0.00  0.00     0.055 C 
ATOM      8  C   UNL d   1      -0.997   1.926   2.688  0.00  0.00     0.019 C 
ENDBRANCH   1   7
TORSDOF 1
ENDMDL
