MODEL 1
REMARK minimizedAffinity 6.31689167
REMARK minimizedRMSD -1
REMARK  1 active torsions:
REMARK  status: ('A' for Active; 'I' for Inactive)
REMARK    1  A    between atoms: C1_2  and  C2_3 
ROOT
ATOM      1  C2  UNL d   1       1.943  -1.998  -1.484  0.00  0.00    -0.077 A 
ATOM      2  C3  UNL d   1       1.148  -2.441  -2.551  0.00  0.00     0.002 A 
ATOM      3  C4  UNL d   1       0.765  -3.780  -2.638  0.00  0.00     0.002 A 
ATOM      4  C5  UNL d   1       1.167  -4.687  -1.659  0.00  0.00    -0.004 A 
ATOM      5  C6  UNL d   1       1.959  -4.256  -0.595  0.00  0.00     0.002 A 
ATOM      6  C7  UNL d   1       2.344  -2.918  -0.507  0.00  0.00     0.002 A 
ENDROOT
BRANCH   1   7
ATOM      7  C1  UNL d   1       2.316  -0.544  -1.363  0.00  0.00     0.055 C 
ATOM      8  C   UNL d   1       2.930  -0.241  -0.003  0.00  0.00     0.019 C 
ENDBRANCH   1   7
TORSDOF 1
ENDMDL
