MODEL 1
REMARK minimizedAffinity 16.3099232
REMARK minimizedRMSD -1
REMARK  1 active torsions:
REMARK  status: ('A' for Active; 'I' for Inactive)
REMARK    1  A    between atoms: C1_2  and  C2_3 
ROOT
ATOM      1  C2  UNL d   1      -2.389  -3.729  -4.018  0.00  0.00    -0.077 A 
ATOM      2  C3  UNL d   1      -2.031  -2.828  -5.031  0.00  0.00     0.002 A 
ATOM      3  C4  UNL d   1      -2.962  -2.449  -6.000  0.00  0.00     0.002 A 
ATOM      4  C5  UNL d   1      -4.257  -2.961  -5.963  0.00  0.00    -0.004 A 
ATOM      5  C6  UNL d   1      -4.622  -3.860  -4.961  0.00  0.00     0.002 A 
ATOM      6  C7  UNL d   1      -3.693  -4.241  -3.993  0.00  0.00     0.002 A 
ENDROOT
BRANCH   1   7
ATOM      7  C1  UNL d   1      -1.401  -4.102  -2.943  0.00  0.00     0.055 C 
ATOM      8  C   UNL d   1      -0.029  -3.507  -3.222  0.00  0.00     0.019 C 
ENDBRANCH   1   7
TORSDOF 1
ENDMDL
