MODEL 1
REMARK minimizedAffinity 10.0086126
REMARK minimizedRMSD -1
REMARK  1 active torsions:
REMARK  status: ('A' for Active; 'I' for Inactive)
REMARK    1  A    between atoms: C1_2  and  C2_3 
ROOT
ATOM      1  C2  UNL d   1       1.331  -3.044  -2.106  0.00  0.00    -0.077 A 
ATOM      2  C3  UNL d   1       1.976  -3.609  -0.996  0.00  0.00     0.002 A 
ATOM      3  C4  UNL d   1       2.616  -2.793  -0.061  0.00  0.00     0.002 A 
ATOM      4  C5  UNL d   1       2.615  -1.410  -0.223  0.00  0.00    -0.004 A 
ATOM      5  C6  UNL d   1       1.978  -0.839  -1.325  0.00  0.00     0.002 A 
ATOM      6  C7  UNL d   1       1.339  -1.652  -2.261  0.00  0.00     0.002 A 
ENDROOT
BRANCH   1   7
ATOM      7  C1  UNL d   1       0.598  -3.918  -3.090  0.00  0.00     0.055 C 
ATOM      8  C   UNL d   1      -0.895  -3.945  -2.800  0.00  0.00     0.019 C 
ENDBRANCH   1   7
TORSDOF 1
ENDMDL
