MODEL 1
REMARK minimizedAffinity 8.06483173
REMARK minimizedRMSD -1
REMARK  1 active torsions:
REMARK  status: ('A' for Active; 'I' for Inactive)
REMARK    1  A    between atoms: C1_2  and  C2_3 
ROOT
ATOM      1  C2  UNL d   1      -1.864   3.563  -4.900  0.00  0.00    -0.077 A 
ATOM      2  C3  UNL d   1      -1.782   4.424  -3.796  0.00  0.00     0.002 A 
ATOM      3  C4  UNL d   1      -2.472   5.638  -3.796  0.00  0.00     0.002 A 
ATOM      4  C5  UNL d   1      -3.251   6.000  -4.893  0.00  0.00    -0.004 A 
ATOM      5  C6  UNL d   1      -3.336   5.151  -5.996  0.00  0.00     0.002 A 
ATOM      6  C7  UNL d   1      -2.646   3.938  -5.999  0.00  0.00     0.002 A 
ENDROOT
BRANCH   1   7
ATOM      7  C1  UNL d   1      -1.160   2.231  -4.882  0.00  0.00     0.055 C 
ATOM      8  C   UNL d   1      -1.645   1.364  -3.729  0.00  0.00     0.019 C 
ENDBRANCH   1   7
TORSDOF 1
ENDMDL
