MODEL 1
REMARK minimizedAffinity 16.6355419
REMARK minimizedRMSD -1
REMARK  1 active torsions:
REMARK  status: ('A' for Active; 'I' for Inactive)
REMARK    1  A    between atoms: C1_2  and  C2_3 
ROOT
ATOM      1  C2  UNL d   1      -4.120  -0.844   2.641  0.00  0.00    -0.077 A 
ATOM      2  C3  UNL d   1      -3.514  -0.492   1.427  0.00  0.00     0.002 A 
ATOM      3  C4  UNL d   1      -2.570   0.536   1.381  0.00  0.00     0.002 A 
ATOM      4  C5  UNL d   1      -2.221   1.216   2.546  0.00  0.00    -0.004 A 
ATOM      5  C6  UNL d   1      -2.819   0.874   3.758  0.00  0.00     0.002 A 
ATOM      6  C7  UNL d   1      -3.764  -0.152   3.806  0.00  0.00     0.002 A 
ENDROOT
BRANCH   1   7
ATOM      7  C1  UNL d   1      -5.102  -1.985   2.701  0.00  0.00     0.055 C 
ATOM      8  C   UNL d   1      -5.990  -2.017   1.466  0.00  0.00     0.019 C 
ENDBRANCH   1   7
TORSDOF 1
ENDMDL
