MODEL 1
REMARK minimizedAffinity 16.9112225
REMARK minimizedRMSD -1
REMARK  1 active torsions:
REMARK  status: ('A' for Active; 'I' for Inactive)
REMARK    1  A    between atoms: C1_2  and  C2_3 
ROOT
ATOM      1  C2  UNL d   1      -4.092  -0.567   3.332  0.00  0.00    -0.077 A 
ATOM      2  C3  UNL d   1      -5.065  -1.278   2.616  0.00  0.00     0.002 A 
ATOM      3  C4  UNL d   1      -5.497  -2.528   3.061  0.00  0.00     0.002 A 
ATOM      4  C5  UNL d   1      -4.966  -3.077   4.226  0.00  0.00    -0.004 A 
ATOM      5  C6  UNL d   1      -3.996  -2.379   4.945  0.00  0.00     0.002 A 
ATOM      6  C7  UNL d   1      -3.562  -1.129   4.500  0.00  0.00     0.002 A 
ENDROOT
BRANCH   1   7
ATOM      7  C1  UNL d   1      -3.661   0.804   2.881  0.00  0.00     0.055 C 
ATOM      8  C   UNL d   1      -2.347   0.746   2.114  0.00  0.00     0.019 C 
ENDBRANCH   1   7
TORSDOF 1
ENDMDL
