MODEL 1
REMARK minimizedAffinity 14.0961819
REMARK minimizedRMSD -1
REMARK  1 active torsions:
REMARK  status: ('A' for Active; 'I' for Inactive)
REMARK    1  A    between atoms: C1_2  and  C2_3 
ROOT
ATOM      1  C2  UNL d   1      -1.295   1.040   2.280  0.00  0.00    -0.077 A 
ATOM      2  C3  UNL d   1      -0.368   0.077   1.859  0.00  0.00     0.002 A 
ATOM      3  C4  UNL d   1       0.993   0.384   1.805  0.00  0.00     0.002 A 
ATOM      4  C5  UNL d   1       1.439   1.651   2.174  0.00  0.00    -0.004 A 
ATOM      5  C6  UNL d   1       0.524   2.616   2.593  0.00  0.00     0.002 A 
ATOM      6  C7  UNL d   1      -0.837   2.311   2.647  0.00  0.00     0.002 A 
ENDROOT
BRANCH   1   7
ATOM      7  C1  UNL d   1      -2.758   0.695   2.386  0.00  0.00     0.055 C 
ATOM      8  C   UNL d   1      -3.014  -0.291   3.517  0.00  0.00     0.019 C 
ENDBRANCH   1   7
TORSDOF 1
ENDMDL
