MODEL 1
REMARK minimizedAffinity -4.63433218
REMARK minimizedRMSD -1
REMARK  1 active torsions:
REMARK  status: ('A' for Active; 'I' for Inactive)
REMARK    1  A    between atoms: C1_2  and  C2_3 
ROOT
ATOM      1  C2  UNL d   1       0.969  -4.014  -0.777  0.00  0.00    -0.076 A 
ATOM      2  C3  UNL d   1       2.221  -4.033  -0.138  0.00  0.00     0.004 A 
ATOM      3  C4  UNL d   1       2.532  -5.014   0.802  0.00  0.00    -0.003 A 
ATOM      4  C5  UNL d   1       1.596  -5.993   1.117  0.00  0.00     0.000 A 
ATOM      5  C6  UNL d   1       0.356  -6.000   0.480  0.00  0.00     0.000 A 
ATOM      6  C7  UNL d   1       0.033  -5.027  -0.482  0.00  0.00    -0.073 A 
ATOM      7  C8  UNL d   1      -1.322  -5.079  -1.133  0.00  0.00     0.078 C 
ENDROOT
BRANCH   1   8
ATOM      8  C1  UNL d   1       0.679  -2.909  -1.768  0.00  0.00     0.053 C 
ATOM      9  C   UNL d   1       0.734  -1.528  -1.133  0.00  0.00     0.018 C 
ENDBRANCH   1   8
TORSDOF 1
ENDMDL
