MODEL 1
REMARK minimizedAffinity -5.13593435
REMARK minimizedRMSD -1
REMARK  1 active torsions:
REMARK  status: ('A' for Active; 'I' for Inactive)
REMARK    1  A    between atoms: C1_2  and  C2_3 
ROOT
ATOM      1  C2  UNL d   1      -0.359   1.270  -0.273  0.00  0.00    -0.076 A 
ATOM      2  C3  UNL d   1      -0.400   1.119   1.124  0.00  0.00     0.004 A 
ATOM      3  C4  UNL d   1      -0.875   2.142   1.943  0.00  0.00    -0.003 A 
ATOM      4  C5  UNL d   1      -1.316   3.333   1.378  0.00  0.00     0.000 A 
ATOM      5  C6  UNL d   1      -1.299   3.494  -0.007  0.00  0.00     0.000 A 
ATOM      6  C7  UNL d   1      -0.838   2.466  -0.848  0.00  0.00    -0.073 A 
ATOM      7  C8  UNL d   1      -0.836   2.696  -2.334  0.00  0.00     0.078 C 
ENDROOT
BRANCH   1   8
ATOM      8  C1  UNL d   1       0.192   0.136  -1.108  0.00  0.00     0.053 C 
ATOM      9  C   UNL d   1       1.313  -0.614  -0.405  0.00  0.00     0.018 C 
ENDBRANCH   1   8
TORSDOF 1
ENDMDL
