MODEL 1
REMARK minimizedAffinity -2.7010715
REMARK minimizedRMSD -1
REMARK  1 active torsions:
REMARK  status: ('A' for Active; 'I' for Inactive)
REMARK    1  A    between atoms: C1_2  and  C2_3 
ROOT
ATOM      1  C2  UNL d   1       0.559  -0.302  -0.654  0.00  0.00    -0.076 A 
ATOM      2  C3  UNL d   1       0.325  -0.434   0.726  0.00  0.00     0.004 A 
ATOM      3  C4  UNL d   1      -0.303   0.580   1.447  0.00  0.00    -0.003 A 
ATOM      4  C5  UNL d   1      -0.707   1.743   0.800  0.00  0.00     0.000 A 
ATOM      5  C6  UNL d   1      -0.498   1.884  -0.572  0.00  0.00     0.000 A 
ATOM      6  C7  UNL d   1       0.119   0.864  -1.317  0.00  0.00    -0.073 A 
ATOM      7  C8  UNL d   1       0.325   1.071  -2.792  0.00  0.00     0.078 C 
ENDROOT
BRANCH   1   8
ATOM      8  C1  UNL d   1       1.269  -1.423  -1.379  0.00  0.00     0.053 C 
ATOM      9  C   UNL d   1       0.620  -2.777  -1.134  0.00  0.00     0.018 C 
ENDBRANCH   1   8
TORSDOF 1
ENDMDL
