MODEL 1
REMARK minimizedAffinity -2.92030907
REMARK minimizedRMSD -1
REMARK  1 active torsions:
REMARK  status: ('A' for Active; 'I' for Inactive)
REMARK    1  A    between atoms: C1_2  and  C2_3 
ROOT
ATOM      1  C2  UNL d   1      -0.069   1.192  -0.354  0.00  0.00    -0.076 A 
ATOM      2  C3  UNL d   1      -0.123   0.793   0.993  0.00  0.00     0.004 A 
ATOM      3  C4  UNL d   1      -0.600   1.656   1.979  0.00  0.00    -0.003 A 
ATOM      4  C5  UNL d   1      -1.031   2.932   1.633  0.00  0.00     0.000 A 
ATOM      5  C6  UNL d   1      -1.001   3.338   0.299  0.00  0.00     0.000 A 
ATOM      6  C7  UNL d   1      -0.539   2.474  -0.709  0.00  0.00    -0.073 A 
ATOM      7  C8  UNL d   1      -0.523   2.966  -2.130  0.00  0.00     0.078 C 
ENDROOT
BRANCH   1   8
ATOM      8  C1  UNL d   1       0.483   0.222  -1.374  0.00  0.00     0.053 C 
ATOM      9  C   UNL d   1       0.464  -1.216  -0.882  0.00  0.00     0.018 C 
ENDBRANCH   1   8
TORSDOF 1
ENDMDL
