MODEL 1
REMARK minimizedAffinity -2.44227147
REMARK minimizedRMSD -1
REMARK  1 active torsions:
REMARK  status: ('A' for Active; 'I' for Inactive)
REMARK    1  A    between atoms: C1_2  and  C2_3 
ROOT
ATOM      1  C2  UNL d   1       0.342  -2.817  -1.014  0.00  0.00    -0.076 A 
ATOM      2  C3  UNL d   1       1.139  -3.483  -0.067  0.00  0.00     0.004 A 
ATOM      3  C4  UNL d   1       0.782  -4.742   0.413  0.00  0.00    -0.003 A 
ATOM      4  C5  UNL d   1      -0.379  -5.355  -0.047  0.00  0.00     0.000 A 
ATOM      5  C6  UNL d   1      -1.172  -4.717  -0.999  0.00  0.00     0.000 A 
ATOM      6  C7  UNL d   1      -0.817  -3.455  -1.506  0.00  0.00    -0.073 A 
ATOM      7  C8  UNL d   1      -1.713  -2.810  -2.528  0.00  0.00     0.078 C 
ENDROOT
BRANCH   1   8
ATOM      8  C1  UNL d   1       0.765  -1.442  -1.479  0.00  0.00     0.053 C 
ATOM      9  C   UNL d   1       0.232  -0.335  -0.583  0.00  0.00     0.018 C 
ENDBRANCH   1   8
TORSDOF 1
ENDMDL
