MODEL 1
REMARK minimizedAffinity -2.18362665
REMARK minimizedRMSD -1
REMARK  1 active torsions:
REMARK  status: ('A' for Active; 'I' for Inactive)
REMARK    1  A    between atoms: C1_2  and  C2_3 
ROOT
ATOM      1  C2  UNL d   1       0.334   0.017  -0.411  0.00  0.00    -0.076 A 
ATOM      2  C3  UNL d   1       0.141  -0.337   0.935  0.00  0.00     0.004 A 
ATOM      3  C4  UNL d   1      -0.197   0.622   1.888  0.00  0.00    -0.003 A 
ATOM      4  C5  UNL d   1      -0.347   1.952   1.510  0.00  0.00     0.000 A 
ATOM      5  C6  UNL d   1      -0.176   2.318   0.176  0.00  0.00     0.000 A 
ATOM      6  C7  UNL d   1       0.149   1.361  -0.801  0.00  0.00    -0.073 A 
ATOM      7  C8  UNL d   1       0.327   1.814  -2.224  0.00  0.00     0.078 C 
ENDROOT
BRANCH   1   8
ATOM      8  C1  UNL d   1       0.726  -1.062  -1.396  0.00  0.00     0.053 C 
ATOM      9  C   UNL d   1       0.168  -2.425  -1.018  0.00  0.00     0.018 C 
ENDBRANCH   1   8
TORSDOF 1
ENDMDL
