MODEL 1
REMARK minimizedAffinity 14.7503347
REMARK minimizedRMSD -1
REMARK  0 active torsions:
REMARK  status: ('A' for Active; 'I' for Inactive)
ROOT
ATOM      1  C   UNL d   1       2.056   3.122   1.154  0.00  0.00     0.124 A 
ATOM      2  C1  UNL d   1       0.805   2.619   1.485  0.00  0.00     0.062 A 
ATOM      3  C2  UNL d   1      -0.287   2.856   0.656  0.00  0.00     0.162 A 
ATOM      4  C3  UNL d   1      -0.133   3.599  -0.515  0.00  0.00    -0.034 A 
ATOM      5  C4  UNL d   1       1.128   4.102  -0.841  0.00  0.00     0.162 A 
ATOM      6  C5  UNL d   1       2.216   3.862  -0.009  0.00  0.00     0.062 A 
ATOM      7  F   UNL d   1       3.424   4.349  -0.330  0.00  0.00    -0.097 F 
ATOM      8  F1  UNL d   1       1.311   4.820  -1.959  0.00  0.00    -0.096 F 
ATOM      9  I   UNL d   1      -1.763   3.956  -1.759  0.00  0.00    -0.060 I 
ATOM     10  F2  UNL d   1      -1.484   2.359   1.001  0.00  0.00    -0.096 F 
ATOM     11  F3  UNL d   1       0.648   1.904   2.609  0.00  0.00    -0.097 F 
ATOM     12  F4  UNL d   1       3.105   2.893   1.955  0.00  0.00    -0.092 F 
ENDROOT
TORSDOF 0
ENDMDL
