MODEL 1
REMARK minimizedAffinity 12.7351627
REMARK minimizedRMSD -1
REMARK  0 active torsions:
REMARK  status: ('A' for Active; 'I' for Inactive)
ROOT
ATOM      1  C   UNL d   1       2.066   3.411   0.529  0.00  0.00     0.124 A 
ATOM      2  C1  UNL d   1       0.790   2.868   0.588  0.00  0.00     0.062 A 
ATOM      3  C2  UNL d   1      -0.226   3.379  -0.215  0.00  0.00     0.162 A 
ATOM      4  C3  UNL d   1       0.030   4.438  -1.085  0.00  0.00    -0.034 A 
ATOM      5  C4  UNL d   1       1.316   4.980  -1.138  0.00  0.00     0.162 A 
ATOM      6  C5  UNL d   1       2.328   4.466  -0.333  0.00  0.00     0.062 A 
ATOM      7  F   UNL d   1       3.560   4.992  -0.391  0.00  0.00    -0.097 F 
ATOM      8  F1  UNL d   1       1.597   6.000  -1.963  0.00  0.00    -0.096 F 
ATOM      9  I   UNL d   1      -1.486   5.205  -2.288  0.00  0.00    -0.060 I 
ATOM     10  F2  UNL d   1      -1.449   2.834  -0.138  0.00  0.00    -0.096 F 
ATOM     11  F3  UNL d   1       0.534   1.849   1.421  0.00  0.00    -0.097 F 
ATOM     12  F4  UNL d   1       3.041   2.919   1.304  0.00  0.00    -0.092 F 
ENDROOT
TORSDOF 0
ENDMDL
