MODEL 1
REMARK minimizedAffinity 17.0518818
REMARK minimizedRMSD -1
REMARK  0 active torsions:
REMARK  status: ('A' for Active; 'I' for Inactive)
ROOT
ATOM      1  C   UNL d   1      -0.637   1.774   2.490  0.00  0.00     0.124 A 
ATOM      2  C1  UNL d   1       0.711   1.518   2.278  0.00  0.00     0.062 A 
ATOM      3  C2  UNL d   1       1.355   0.516   2.998  0.00  0.00     0.162 A 
ATOM      4  C3  UNL d   1       0.652  -0.240   3.936  0.00  0.00    -0.034 A 
ATOM      5  C4  UNL d   1      -0.703   0.024   4.144  0.00  0.00     0.162 A 
ATOM      6  C5  UNL d   1      -1.342   1.027   3.422  0.00  0.00     0.062 A 
ATOM      7  F   UNL d   1      -2.644   1.272   3.628  0.00  0.00    -0.097 F 
ATOM      8  F1  UNL d   1      -1.410  -0.684   5.038  0.00  0.00    -0.096 F 
ATOM      9  I   UNL d   1       1.611  -1.740   5.014  0.00  0.00    -0.060 I 
ATOM     10  F2  UNL d   1       2.658   0.291   2.772  0.00  0.00    -0.096 F 
ATOM     11  F3  UNL d   1       1.396   2.239   1.378  0.00  0.00    -0.097 F 
ATOM     12  F4  UNL d   1      -1.253   2.740   1.797  0.00  0.00    -0.092 F 
ENDROOT
TORSDOF 0
ENDMDL
