MODEL 1
REMARK minimizedAffinity 15.4484472
REMARK minimizedRMSD -1
REMARK  0 active torsions:
REMARK  status: ('A' for Active; 'I' for Inactive)
ROOT
ATOM      1  C   UNL d   1       0.430   2.640   0.886  0.00  0.00     0.124 A 
ATOM      2  C1  UNL d   1      -0.740   2.728   0.143  0.00  0.00     0.062 A 
ATOM      3  C2  UNL d   1      -0.863   3.687  -0.858  0.00  0.00     0.162 A 
ATOM      4  C3  UNL d   1       0.187   4.565  -1.125  0.00  0.00    -0.034 A 
ATOM      5  C4  UNL d   1       1.360   4.472  -0.373  0.00  0.00     0.162 A 
ATOM      6  C5  UNL d   1       1.478   3.512   0.627  0.00  0.00     0.062 A 
ATOM      7  F   UNL d   1       2.609   3.429   1.342  0.00  0.00    -0.097 F 
ATOM      8  F1  UNL d   1       2.389   5.301  -0.603  0.00  0.00    -0.096 F 
ATOM      9  I   UNL d   1       0.006   6.000  -2.621  0.00  0.00    -0.060 I 
ATOM     10  F2  UNL d   1      -2.005   3.748  -1.560  0.00  0.00    -0.096 F 
ATOM     11  F3  UNL d   1      -1.755   1.888   0.392  0.00  0.00    -0.097 F 
ATOM     12  F4  UNL d   1       0.545   1.718   1.849  0.00  0.00    -0.092 F 
ENDROOT
TORSDOF 0
ENDMDL
