MODEL 1
REMARK minimizedAffinity 18.5505447
REMARK minimizedRMSD -1
REMARK  0 active torsions:
REMARK  status: ('A' for Active; 'I' for Inactive)
ROOT
ATOM      1  C   UNL d   1       1.170   4.902  -0.859  0.00  0.00     0.124 A 
ATOM      2  C1  UNL d   1       2.246   4.660  -0.016  0.00  0.00     0.062 A 
ATOM      3  C2  UNL d   1       2.147   3.700   0.987  0.00  0.00     0.162 A 
ATOM      4  C3  UNL d   1       0.968   2.975   1.154  0.00  0.00    -0.034 A 
ATOM      5  C4  UNL d   1      -0.111   3.225   0.303  0.00  0.00     0.162 A 
ATOM      6  C5  UNL d   1      -0.007   4.184  -0.698  0.00  0.00     0.062 A 
ATOM      7  F   UNL d   1      -1.048   4.417  -1.511  0.00  0.00    -0.097 F 
ATOM      8  F1  UNL d   1      -1.260   2.545   0.436  0.00  0.00    -0.096 F 
ATOM      9  I   UNL d   1       0.816   1.539   2.653  0.00  0.00    -0.060 I 
ATOM     10  F2  UNL d   1       3.203   3.487   1.786  0.00  0.00    -0.096 F 
ATOM     11  F3  UNL d   1       3.384   5.352  -0.169  0.00  0.00    -0.097 F 
ATOM     12  F4  UNL d   1       1.267   5.826  -1.823  0.00  0.00    -0.092 F 
ENDROOT
TORSDOF 0
ENDMDL
