MODEL 1
REMARK minimizedAffinity 19.2401085
REMARK minimizedRMSD -1
REMARK  0 active torsions:
REMARK  status: ('A' for Active; 'I' for Inactive)
ROOT
ATOM      1  C   UNL d   1       1.769  -1.769   0.473  0.00  0.00     0.124 A 
ATOM      2  C1  UNL d   1       0.943  -1.118  -0.434  0.00  0.00     0.062 A 
ATOM      3  C2  UNL d   1       0.130  -1.853  -1.291  0.00  0.00     0.162 A 
ATOM      4  C3  UNL d   1       0.137  -3.247  -1.246  0.00  0.00    -0.034 A 
ATOM      5  C4  UNL d   1       0.970  -3.894  -0.332  0.00  0.00     0.162 A 
ATOM      6  C5  UNL d   1       1.782  -3.155   0.523  0.00  0.00     0.062 A 
ATOM      7  F   UNL d   1       2.579  -3.785   1.398  0.00  0.00    -0.097 F 
ATOM      8  F1  UNL d   1       1.002  -5.233  -0.261  0.00  0.00    -0.096 F 
ATOM      9  I   UNL d   1      -1.079  -4.349  -2.526  0.00  0.00    -0.060 I 
ATOM     10  F2  UNL d   1      -0.658  -1.198  -2.157  0.00  0.00    -0.096 F 
ATOM     11  F3  UNL d   1       0.930   0.221  -0.485  0.00  0.00    -0.097 F 
ATOM     12  F4  UNL d   1       2.552  -1.059   1.296  0.00  0.00    -0.092 F 
ENDROOT
TORSDOF 0
ENDMDL
