MODEL 1
REMARK minimizedAffinity 14.4009743
REMARK minimizedRMSD -1
REMARK  0 active torsions:
REMARK  status: ('A' for Active; 'I' for Inactive)
ROOT
ATOM      1  C   UNL d   1       0.632   3.012   0.485  0.00  0.00     0.124 A 
ATOM      2  C1  UNL d   1      -0.351   2.781  -0.469  0.00  0.00     0.062 A 
ATOM      3  C2  UNL d   1      -0.479   3.633  -1.562  0.00  0.00     0.162 A 
ATOM      4  C3  UNL d   1       0.378   4.723  -1.709  0.00  0.00    -0.034 A 
ATOM      5  C4  UNL d   1       1.363   4.949  -0.745  0.00  0.00     0.162 A 
ATOM      6  C5  UNL d   1       1.487   4.095   0.345  0.00  0.00     0.062 A 
ATOM      7  F   UNL d   1       2.437   4.320   1.265  0.00  0.00    -0.097 F 
ATOM      8  F1  UNL d   1       2.204   5.988  -0.856  0.00  0.00    -0.096 F 
ATOM      9  I   UNL d   1       0.190   5.999  -3.342  0.00  0.00    -0.060 I 
ATOM     10  F2  UNL d   1      -1.437   3.386  -2.468  0.00  0.00    -0.096 F 
ATOM     11  F3  UNL d   1      -1.179   1.735  -0.336  0.00  0.00    -0.097 F 
ATOM     12  F4  UNL d   1       0.752   2.191   1.536  0.00  0.00    -0.092 F 
ENDROOT
TORSDOF 0
ENDMDL
