MODEL 1
REMARK minimizedAffinity 21.3614368
REMARK minimizedRMSD -1
REMARK  0 active torsions:
REMARK  status: ('A' for Active; 'I' for Inactive)
ROOT
ATOM      1  C   UNL d   1       4.829  -2.624  -0.581  0.00  0.00     0.124 A 
ATOM      2  C1  UNL d   1       3.637  -1.956  -0.336  0.00  0.00     0.062 A 
ATOM      3  C2  UNL d   1       2.420  -2.590  -0.567  0.00  0.00     0.162 A 
ATOM      4  C3  UNL d   1       2.387  -3.900  -1.044  0.00  0.00    -0.034 A 
ATOM      5  C4  UNL d   1       3.590  -4.565  -1.288  0.00  0.00     0.162 A 
ATOM      6  C5  UNL d   1       4.804  -3.928  -1.057  0.00  0.00     0.062 A 
ATOM      7  F   UNL d   1       5.954  -4.575  -1.294  0.00  0.00    -0.097 F 
ATOM      8  F1  UNL d   1       3.594  -5.826  -1.747  0.00  0.00    -0.096 F 
ATOM      9  I   UNL d   1       0.568  -4.851  -1.389  0.00  0.00    -0.060 I 
ATOM     10  F2  UNL d   1       1.284  -1.920  -0.321  0.00  0.00    -0.096 F 
ATOM     11  F3  UNL d   1       3.659  -0.696   0.122  0.00  0.00    -0.097 F 
ATOM     12  F4  UNL d   1       5.999  -2.012  -0.360  0.00  0.00    -0.092 F 
ENDROOT
TORSDOF 0
ENDMDL
