MODEL 1
REMARK minimizedAffinity 15.4945068
REMARK minimizedRMSD -1
REMARK  0 active torsions:
REMARK  status: ('A' for Active; 'I' for Inactive)
ROOT
ATOM      1  C   UNL d   1       0.366   1.081   3.001  0.00  0.00     0.124 A 
ATOM      2  C1  UNL d   1       1.717   0.877   3.247  0.00  0.00     0.062 A 
ATOM      3  C2  UNL d   1       2.127  -0.141   4.103  0.00  0.00     0.162 A 
ATOM      4  C3  UNL d   1       1.185  -0.965   4.719  0.00  0.00    -0.034 A 
ATOM      5  C4  UNL d   1      -0.172  -0.753   4.468  0.00  0.00     0.162 A 
ATOM      6  C5  UNL d   1      -0.577   0.266   3.612  0.00  0.00     0.062 A 
ATOM      7  F   UNL d   1      -1.882   0.461   3.376  0.00  0.00    -0.097 F 
ATOM      8  F1  UNL d   1      -1.104  -1.527   5.043  0.00  0.00    -0.096 F 
ATOM      9  I   UNL d   1       1.794  -2.489   5.999  0.00  0.00    -0.060 I 
ATOM     10  F2  UNL d   1       3.439  -0.315   4.322  0.00  0.00    -0.096 F 
ATOM     11  F3  UNL d   1       2.630   1.664   2.659  0.00  0.00    -0.097 F 
ATOM     12  F4  UNL d   1      -0.026   2.062   2.178  0.00  0.00    -0.092 F 
ENDROOT
TORSDOF 0
ENDMDL
