MODEL 1
REMARK minimizedAffinity 15.9906969
REMARK minimizedRMSD -1
REMARK  0 active torsions:
REMARK  status: ('A' for Active; 'I' for Inactive)
ROOT
ATOM      1  C   UNL d   1       0.953   2.644   2.264  0.00  0.00     0.124 A 
ATOM      2  C1  UNL d   1      -0.256   2.234   1.718  0.00  0.00     0.062 A 
ATOM      3  C2  UNL d   1      -0.718   2.802   0.535  0.00  0.00     0.162 A 
ATOM      4  C3  UNL d   1       0.029   3.787  -0.112  0.00  0.00    -0.034 A 
ATOM      5  C4  UNL d   1       1.243   4.195   0.444  0.00  0.00     0.162 A 
ATOM      6  C5  UNL d   1       1.701   3.624   1.627  0.00  0.00     0.062 A 
ATOM      7  F   UNL d   1       2.869   4.021   2.153  0.00  0.00    -0.097 F 
ATOM      8  F1  UNL d   1       1.987   5.139  -0.152  0.00  0.00    -0.096 F 
ATOM      9  I   UNL d   1      -0.658   4.639  -1.882  0.00  0.00    -0.060 I 
ATOM     10  F2  UNL d   1      -1.889   2.387   0.030  0.00  0.00    -0.096 F 
ATOM     11  F3  UNL d   1      -0.981   1.288   2.333  0.00  0.00    -0.097 F 
ATOM     12  F4  UNL d   1       1.394   2.096   3.404  0.00  0.00    -0.092 F 
ENDROOT
TORSDOF 0
ENDMDL
