MODEL 1
REMARK minimizedAffinity -1.65731812
REMARK minimizedRMSD -1
REMARK  1 active torsions:
REMARK  status: ('A' for Active; 'I' for Inactive)
REMARK    1  A    between atoms: N_2  and  C1_3 
ROOT
ATOM      1  C1  UNL d   1       5.095   0.800   3.783  0.00  0.00     0.143 A 
ATOM      2  C2  UNL d   1       5.998   0.958   4.840  0.00  0.00    -0.057 A 
ATOM      3  C3  UNL d   1       5.998   0.082   5.932  0.00  0.00     0.033 A 
ATOM      4  C4  UNL d   1       5.072  -0.955   6.000  0.00  0.00    -0.042 A 
ATOM      5  C5  UNL d   1       4.149  -1.116   4.973  0.00  0.00     0.033 A 
ATOM      6  C6  UNL d   1       4.159  -0.242   3.881  0.00  0.00    -0.057 A 
ENDROOT
BRANCH   1   7
ATOM      7  N   UNL d   1       4.980   1.696   2.717  0.00  0.00    -0.732 N 
ATOM      8  C   UNL d   1       4.863   3.118   2.960  0.00  0.00     0.284 C 
ATOM      9  H3  UNL d   1       5.591   1.455   1.940  0.00  0.00     0.395 HD
ENDBRANCH   1   7
TORSDOF 1
ENDMDL
