MODEL 1
REMARK minimizedAffinity 0.505484104
REMARK minimizedRMSD -1
REMARK  1 active torsions:
REMARK  status: ('A' for Active; 'I' for Inactive)
REMARK    1  A    between atoms: N_2  and  C1_3 
ROOT
ATOM      1  C1  UNL d   1       5.468   2.839   3.714  0.00  0.00     0.143 A 
ATOM      2  C2  UNL d   1       4.538   2.258   2.846  0.00  0.00    -0.057 A 
ATOM      3  C3  UNL d   1       4.117   0.933   3.013  0.00  0.00     0.033 A 
ATOM      4  C4  UNL d   1       4.644   0.154   4.037  0.00  0.00    -0.042 A 
ATOM      5  C5  UNL d   1       5.589   0.702   4.897  0.00  0.00     0.033 A 
ATOM      6  C6  UNL d   1       6.000   2.028   4.729  0.00  0.00    -0.057 A 
ENDROOT
BRANCH   1   7
ATOM      7  N   UNL d   1       6.000   4.119   3.542  0.00  0.00    -0.732 N 
ATOM      8  C   UNL d   1       6.000   5.070   4.633  0.00  0.00     0.284 C 
ATOM      9  H3  UNL d   1       6.858   4.113   2.996  0.00  0.00     0.395 HD
ENDBRANCH   1   7
TORSDOF 1
ENDMDL
