MODEL 1
REMARK minimizedAffinity 3.33928967
REMARK minimizedRMSD -1
REMARK  1 active torsions:
REMARK  status: ('A' for Active; 'I' for Inactive)
REMARK    1  A    between atoms: N_2  and  C1_3 
ROOT
ATOM      1  C1  UNL d   1       4.906   1.995   3.577  0.00  0.00     0.143 A 
ATOM      2  C2  UNL d   1       4.940   0.807   2.839  0.00  0.00    -0.057 A 
ATOM      3  C3  UNL d   1       5.468  -0.370   3.383  0.00  0.00     0.033 A 
ATOM      4  C4  UNL d   1       6.000  -0.373   4.668  0.00  0.00    -0.042 A 
ATOM      5  C5  UNL d   1       6.000   0.803   5.411  0.00  0.00     0.033 A 
ATOM      6  C6  UNL d   1       5.465   1.974   4.865  0.00  0.00    -0.057 A 
ENDROOT
BRANCH   1   7
ATOM      7  N   UNL d   1       4.485   3.222   3.058  0.00  0.00    -0.732 N 
ATOM      8  C   UNL d   1       3.708   3.278   1.838  0.00  0.00     0.284 C 
ATOM      9  H3  UNL d   1       4.167   3.862   3.783  0.00  0.00     0.395 HD
ENDBRANCH   1   7
TORSDOF 1
ENDMDL
