MODEL 1
REMARK minimizedAffinity 3.84566641
REMARK minimizedRMSD -1
REMARK  1 active torsions:
REMARK  status: ('A' for Active; 'I' for Inactive)
REMARK    1  A    between atoms: N_2  and  C1_3 
ROOT
ATOM      1  C1  UNL d   1       1.510   3.804  -1.738  0.00  0.00     0.143 A 
ATOM      2  C2  UNL d   1       0.750   3.770  -0.564  0.00  0.00    -0.057 A 
ATOM      3  C3  UNL d   1      -0.252   2.810  -0.374  0.00  0.00     0.033 A 
ATOM      4  C4  UNL d   1      -0.531   1.882  -1.372  0.00  0.00    -0.042 A 
ATOM      5  C5  UNL d   1       0.195   1.912  -2.557  0.00  0.00     0.033 A 
ATOM      6  C6  UNL d   1       1.198   2.869  -2.738  0.00  0.00    -0.057 A 
ENDROOT
BRANCH   1   7
ATOM      7  N   UNL d   1       2.452   4.794  -2.026  0.00  0.00    -0.732 N 
ATOM      8  C   UNL d   1       3.024   4.903  -3.351  0.00  0.00     0.284 C 
ATOM      9  H3  UNL d   1       2.220   5.687  -1.598  0.00  0.00     0.395 HD
ENDBRANCH   1   7
TORSDOF 1
ENDMDL
