MODEL 1
REMARK minimizedAffinity 4.11187553
REMARK minimizedRMSD -1
REMARK  1 active torsions:
REMARK  status: ('A' for Active; 'I' for Inactive)
REMARK    1  A    between atoms: N_2  and  C1_3 
ROOT
ATOM      1  C1  UNL d   1       4.959   3.817  -5.333  0.00  0.00     0.143 A 
ATOM      2  C2  UNL d   1       3.672   4.081  -5.811  0.00  0.00    -0.057 A 
ATOM      3  C3  UNL d   1       2.749   4.809  -5.050  0.00  0.00     0.033 A 
ATOM      4  C4  UNL d   1       3.090   5.263  -3.781  0.00  0.00    -0.042 A 
ATOM      5  C5  UNL d   1       4.356   4.991  -3.274  0.00  0.00     0.033 A 
ATOM      6  C6  UNL d   1       5.275   4.269  -4.042  0.00  0.00    -0.057 A 
ENDROOT
BRANCH   1   7
ATOM      7  N   UNL d   1       5.888   3.015  -6.000  0.00  0.00    -0.732 N 
ATOM      8  C   UNL d   1       5.991   1.603  -5.702  0.00  0.00     0.284 C 
ATOM      9  H3  UNL d   1       5.952   3.237  -6.991  0.00  0.00     0.395 HD
ENDBRANCH   1   7
TORSDOF 1
ENDMDL
