MODEL 1
REMARK minimizedAffinity 0.960714698
REMARK minimizedRMSD -1
REMARK  1 active torsions:
REMARK  status: ('A' for Active; 'I' for Inactive)
REMARK    1  A    between atoms: N_2  and  C1_3 
ROOT
ATOM      1  C1  UNL d   1      -3.294   1.178   1.246  0.00  0.00     0.143 A 
ATOM      2  C2  UNL d   1      -3.762  -0.132   1.096  0.00  0.00    -0.057 A 
ATOM      3  C3  UNL d   1      -3.753  -1.033   2.167  0.00  0.00     0.033 A 
ATOM      4  C4  UNL d   1      -3.245  -0.648   3.404  0.00  0.00    -0.042 A 
ATOM      5  C5  UNL d   1      -2.751   0.641   3.569  0.00  0.00     0.033 A 
ATOM      6  C6  UNL d   1      -2.769   1.539   2.497  0.00  0.00    -0.057 A 
ENDROOT
BRANCH   1   7
ATOM      7  N   UNL d   1      -3.186   2.091   0.194  0.00  0.00    -0.732 N 
ATOM      8  C   UNL d   1      -3.215   3.515   0.447  0.00  0.00     0.284 C 
ATOM      9  H3  UNL d   1      -2.497   1.806  -0.499  0.00  0.00     0.395 HD
ENDBRANCH   1   7
TORSDOF 1
ENDMDL
