MODEL 1
REMARK minimizedAffinity -0.870613754
REMARK minimizedRMSD -1
REMARK  1 active torsions:
REMARK  status: ('A' for Active; 'I' for Inactive)
REMARK    1  A    between atoms: N_2  and  C1_3 
ROOT
ATOM      1  C1  UNL d   1      -2.602   1.774   0.948  0.00  0.00     0.143 A 
ATOM      2  C2  UNL d   1      -2.824   0.840  -0.070  0.00  0.00    -0.057 A 
ATOM      3  C3  UNL d   1      -3.023  -0.516   0.219  0.00  0.00     0.033 A 
ATOM      4  C4  UNL d   1      -2.974  -0.967   1.534  0.00  0.00    -0.042 A 
ATOM      5  C5  UNL d   1      -2.730  -0.061   2.560  0.00  0.00     0.033 A 
ATOM      6  C6  UNL d   1      -2.539   1.293   2.265  0.00  0.00    -0.057 A 
ENDROOT
BRANCH   1   7
ATOM      7  N   UNL d   1      -2.299   3.118   0.717  0.00  0.00    -0.732 N 
ATOM      8  C   UNL d   1      -3.337   4.053   0.339  0.00  0.00     0.284 C 
ATOM      9  H3  UNL d   1      -1.633   3.487   1.391  0.00  0.00     0.395 HD
ENDBRANCH   1   7
TORSDOF 1
ENDMDL
