MODEL 1
REMARK minimizedAffinity -3.23921514
REMARK minimizedRMSD -1
REMARK  1 active torsions:
REMARK  status: ('A' for Active; 'I' for Inactive)
REMARK    1  A    between atoms: N_2  and  C1_3 
ROOT
ATOM      1  C1  UNL d   1       3.679  -0.346   2.714  0.00  0.00     0.143 A 
ATOM      2  C2  UNL d   1       3.931  -1.127   3.847  0.00  0.00    -0.057 A 
ATOM      3  C3  UNL d   1       4.551  -0.584   4.980  0.00  0.00     0.033 A 
ATOM      4  C4  UNL d   1       4.957   0.746   4.987  0.00  0.00    -0.042 A 
ATOM      5  C5  UNL d   1       4.739   1.534   3.863  0.00  0.00     0.033 A 
ATOM      6  C6  UNL d   1       4.114   0.989   2.738  0.00  0.00    -0.057 A 
ENDROOT
BRANCH   1   7
ATOM      7  N   UNL d   1       3.156  -0.852   1.522  0.00  0.00    -0.732 N 
ATOM      8  C   UNL d   1       2.757  -2.240   1.422  0.00  0.00     0.284 C 
ATOM      9  H3  UNL d   1       2.516  -0.202   1.072  0.00  0.00     0.395 HD
ENDBRANCH   1   7
TORSDOF 1
ENDMDL
