MODEL 1
REMARK minimizedAffinity 1.41869795
REMARK minimizedRMSD -1
REMARK  1 active torsions:
REMARK  status: ('A' for Active; 'I' for Inactive)
REMARK    1  A    between atoms: N_2  and  C1_3 
ROOT
ATOM      1  C1  UNL d   1      -4.953  -0.854   2.986  0.00  0.00     0.143 A 
ATOM      2  C2  UNL d   1      -4.534  -0.538   4.283  0.00  0.00    -0.057 A 
ATOM      3  C3  UNL d   1      -3.415   0.273   4.507  0.00  0.00     0.033 A 
ATOM      4  C4  UNL d   1      -2.676   0.760   3.434  0.00  0.00    -0.042 A 
ATOM      5  C5  UNL d   1      -3.059   0.439   2.137  0.00  0.00     0.033 A 
ATOM      6  C6  UNL d   1      -4.181  -0.366   1.920  0.00  0.00    -0.057 A 
ENDROOT
BRANCH   1   7
ATOM      7  N   UNL d   1      -5.999  -1.735   2.699  0.00  0.00    -0.732 N 
ATOM      8  C   UNL d   1      -5.965  -3.100   3.181  0.00  0.00     0.284 C 
ATOM      9  H3  UNL d   1      -6.911  -1.291   2.770  0.00  0.00     0.395 HD
ENDBRANCH   1   7
TORSDOF 1
ENDMDL
