MODEL 1
REMARK minimizedAffinity -3.3620832
REMARK minimizedRMSD -1
REMARK  1 active torsions:
REMARK  status: ('A' for Active; 'I' for Inactive)
REMARK    1  A    between atoms: N_2  and  C1_3 
ROOT
ATOM      1  C1  UNL d   1       2.278  -2.021   1.406  0.00  0.00     0.143 A 
ATOM      2  C2  UNL d   1       1.906  -3.369   1.393  0.00  0.00    -0.057 A 
ATOM      3  C3  UNL d   1       0.743  -3.795   0.741  0.00  0.00     0.033 A 
ATOM      4  C4  UNL d   1      -0.087  -2.873   0.111  0.00  0.00    -0.042 A 
ATOM      5  C5  UNL d   1       0.250  -1.524   0.132  0.00  0.00     0.033 A 
ATOM      6  C6  UNL d   1       1.417  -1.106   0.780  0.00  0.00    -0.057 A 
ENDROOT
BRANCH   1   7
ATOM      7  N   UNL d   1       3.370  -1.521   2.120  0.00  0.00    -0.732 N 
ATOM      8  C   UNL d   1       3.268  -0.272   2.844  0.00  0.00     0.284 C 
ATOM      9  H3  UNL d   1       3.874  -2.251   2.619  0.00  0.00     0.395 HD
ENDBRANCH   1   7
TORSDOF 1
ENDMDL
