MODEL 1
REMARK minimizedAffinity -1.20750999
REMARK minimizedRMSD -1
REMARK  1 active torsions:
REMARK  status: ('A' for Active; 'I' for Inactive)
REMARK    1  A    between atoms: N_2  and  C1_3 
ROOT
ATOM      1  C1  UNL d   1       3.436  -0.352   3.094  0.00  0.00     0.143 A 
ATOM      2  C2  UNL d   1       4.233  -0.547   4.227  0.00  0.00    -0.057 A 
ATOM      3  C3  UNL d   1       5.104   0.450   4.682  0.00  0.00     0.033 A 
ATOM      4  C4  UNL d   1       5.217   1.652   3.991  0.00  0.00    -0.042 A 
ATOM      5  C5  UNL d   1       4.454   1.857   2.847  0.00  0.00     0.033 A 
ATOM      6  C6  UNL d   1       3.580   0.861   2.402  0.00  0.00    -0.057 A 
ENDROOT
BRANCH   1   7
ATOM      7  N   UNL d   1       2.623  -1.342   2.535  0.00  0.00    -0.732 N 
ATOM      8  C   UNL d   1       2.611  -1.566   1.106  0.00  0.00     0.284 C 
ATOM      9  H3  UNL d   1       2.613  -2.195   3.090  0.00  0.00     0.395 HD
ENDBRANCH   1   7
TORSDOF 1
ENDMDL
