MODEL 1
REMARK minimizedAffinity 2.91088152
REMARK minimizedRMSD -1
REMARK  1 active torsions:
REMARK  status: ('A' for Active; 'I' for Inactive)
REMARK    1  A    between atoms: N_2  and  C1_3 
ROOT
ATOM      1  C1  UNL d   1       4.392   0.486   3.641  0.00  0.00     0.143 A 
ATOM      2  C2  UNL d   1       4.521  -0.092   2.374  0.00  0.00    -0.057 A 
ATOM      3  C3  UNL d   1       3.699  -1.152   1.972  0.00  0.00     0.033 A 
ATOM      4  C4  UNL d   1       2.750  -1.674   2.844  0.00  0.00    -0.042 A 
ATOM      5  C5  UNL d   1       2.621  -1.131   4.118  0.00  0.00     0.033 A 
ATOM      6  C6  UNL d   1       3.440  -0.069   4.511  0.00  0.00    -0.057 A 
ENDROOT
BRANCH   1   7
ATOM      7  N   UNL d   1       5.244   1.476   4.135  0.00  0.00    -0.732 N 
ATOM      8  C   UNL d   1       5.999   1.260   5.351  0.00  0.00     0.284 C 
ATOM      9  H3  UNL d   1       5.769   1.940   3.397  0.00  0.00     0.395 HD
ENDBRANCH   1   7
TORSDOF 1
ENDMDL
