MODEL 1
REMARK minimizedAffinity -3.8630619
REMARK minimizedRMSD -1
REMARK  1 active torsions:
REMARK  status: ('A' for Active; 'I' for Inactive)
REMARK    1  A    between atoms: N_2  and  C1_3 
ROOT
ATOM      1  C1  UNL d   1      -2.881   1.800   1.679  0.00  0.00     0.143 A 
ATOM      2  C2  UNL d   1      -3.562   1.625   0.470  0.00  0.00    -0.057 A 
ATOM      3  C3  UNL d   1      -3.993   0.359   0.055  0.00  0.00     0.033 A 
ATOM      4  C4  UNL d   1      -3.722  -0.763   0.832  0.00  0.00    -0.042 A 
ATOM      5  C5  UNL d   1      -3.023  -0.617   2.025  0.00  0.00     0.033 A 
ATOM      6  C6  UNL d   1      -2.602   0.652   2.437  0.00  0.00    -0.057 A 
ENDROOT
BRANCH   1   7
ATOM      7  N   UNL d   1      -2.341   3.018   2.098  0.00  0.00    -0.732 N 
ATOM      8  C   UNL d   1      -3.120   4.235   2.021  0.00  0.00     0.284 C 
ATOM      9  H3  UNL d   1      -1.795   2.928   2.952  0.00  0.00     0.395 HD
ENDBRANCH   1   7
TORSDOF 1
ENDMDL
