MODEL 1
REMARK minimizedAffinity 10.2960396
REMARK minimizedRMSD -1
REMARK  0 active torsions:
REMARK  status: ('A' for Active; 'I' for Inactive)
ROOT
ATOM      1  C1  BNZ d   1       2.268   0.180   2.757  0.00  0.00     0.000 A 
ATOM      2  C2  BNZ d   1       1.369  -0.582   2.061  0.00  0.00     0.000 A 
ATOM      3  C3  BNZ d   1       0.077  -0.708   2.491  0.00  0.00     0.000 A 
ATOM      4  C4  BNZ d   1      -0.302  -0.105   3.636  0.00  0.00     0.000 A 
ATOM      5  C5  BNZ d   1       0.596   0.660   4.354  0.00  0.00     0.000 A 
ATOM      6  C6  BNZ d   1       1.885   0.816   3.897  0.00  0.00     0.000 A 
ENDROOT
TORSDOF 0
ENDMDL
