MODEL 1
REMARK minimizedAffinity 6.431252
REMARK minimizedRMSD -1
REMARK  0 active torsions:
REMARK  status: ('A' for Active; 'I' for Inactive)
ROOT
ATOM      1  C1  BNZ d   1       4.128   3.979   1.219  0.00  0.00     0.000 A 
ATOM      2  C2  BNZ d   1       4.177   2.646   1.529  0.00  0.00     0.000 A 
ATOM      3  C3  BNZ d   1       4.303   2.232   2.825  0.00  0.00     0.000 A 
ATOM      4  C4  BNZ d   1       4.420   3.151   3.806  0.00  0.00     0.000 A 
ATOM      5  C5  BNZ d   1       4.382   4.499   3.509  0.00  0.00     0.000 A 
ATOM      6  C6  BNZ d   1       4.216   4.911   2.207  0.00  0.00     0.000 A 
ENDROOT
TORSDOF 0
ENDMDL
