MODEL 1
REMARK minimizedAffinity 9.53462887
REMARK minimizedRMSD -1
REMARK  0 active torsions:
REMARK  status: ('A' for Active; 'I' for Inactive)
ROOT
ATOM      1  C1  BNZ d   1       5.989   5.618   3.904  0.00  0.00     0.000 A 
ATOM      2  C2  BNZ d   1       5.957   5.759   2.543  0.00  0.00     0.000 A 
ATOM      3  C3  BNZ d   1       4.775   5.966   1.888  0.00  0.00     0.000 A 
ATOM      4  C4  BNZ d   1       3.624   5.992   2.590  0.00  0.00     0.000 A 
ATOM      5  C5  BNZ d   1       3.639   5.843   3.962  0.00  0.00     0.000 A 
ATOM      6  C6  BNZ d   1       4.834   5.673   4.622  0.00  0.00     0.000 A 
ENDROOT
TORSDOF 0
ENDMDL
