MODEL 1
REMARK minimizedAffinity 1.31150389
REMARK minimizedRMSD -1
REMARK  0 active torsions:
REMARK  status: ('A' for Active; 'I' for Inactive)
ROOT
ATOM      1  C1  BNZ d   1       4.129   2.113   2.231  0.00  0.00     0.000 A 
ATOM      2  C2  BNZ d   1       4.008   3.105   1.295  0.00  0.00     0.000 A 
ATOM      3  C3  BNZ d   1       4.006   4.421   1.666  0.00  0.00     0.000 A 
ATOM      4  C4  BNZ d   1       4.085   4.741   2.974  0.00  0.00     0.000 A 
ATOM      5  C5  BNZ d   1       4.199   3.751   3.930  0.00  0.00     0.000 A 
ATOM      6  C6  BNZ d   1       4.240   2.429   3.549  0.00  0.00     0.000 A 
ENDROOT
TORSDOF 0
ENDMDL
