MODEL 1
REMARK minimizedAffinity 8.50905609
REMARK minimizedRMSD -1
REMARK  0 active torsions:
REMARK  status: ('A' for Active; 'I' for Inactive)
ROOT
ATOM      1  C1  BNZ d   1       2.690  -0.593  -4.677  0.00  0.00     0.000 A 
ATOM      2  C2  BNZ d   1       1.543   0.006  -5.126  0.00  0.00     0.000 A 
ATOM      3  C3  BNZ d   1       0.465  -0.743  -5.506  0.00  0.00     0.000 A 
ATOM      4  C4  BNZ d   1       0.549  -2.089  -5.476  0.00  0.00     0.000 A 
ATOM      5  C5  BNZ d   1       1.701  -2.708  -5.035  0.00  0.00     0.000 A 
ATOM      6  C6  BNZ d   1       2.771  -1.950  -4.616  0.00  0.00     0.000 A 
ENDROOT
TORSDOF 0
ENDMDL
