MODEL 1
REMARK minimizedAffinity 9.00575829
REMARK minimizedRMSD -1
REMARK  0 active torsions:
REMARK  status: ('A' for Active; 'I' for Inactive)
ROOT
ATOM      1  C1  BNZ d   1       0.301  -0.764  -4.841  0.00  0.00     0.000 A 
ATOM      2  C2  BNZ d   1       1.412  -0.281  -4.203  0.00  0.00     0.000 A 
ATOM      3  C3  BNZ d   1       2.637  -0.853  -4.401  0.00  0.00     0.000 A 
ATOM      4  C4  BNZ d   1       2.743  -1.932  -5.203  0.00  0.00     0.000 A 
ATOM      5  C5  BNZ d   1       1.631  -2.437  -5.846  0.00  0.00     0.000 A 
ATOM      6  C6  BNZ d   1       0.406  -1.834  -5.675  0.00  0.00     0.000 A 
ENDROOT
TORSDOF 0
ENDMDL
