MODEL 1
REMARK minimizedAffinity 4.12680435
REMARK minimizedRMSD -1
REMARK  0 active torsions:
REMARK  status: ('A' for Active; 'I' for Inactive)
ROOT
ATOM      1  C1  BNZ d   1      -0.231  -2.263   3.590  0.00  0.00     0.000 A 
ATOM      2  C2  BNZ d   1      -0.704  -1.203   2.863  0.00  0.00     0.000 A 
ATOM      3  C3  BNZ d   1       0.145  -0.236   2.402  0.00  0.00     0.000 A 
ATOM      4  C4  BNZ d   1       1.458  -0.309   2.701  0.00  0.00     0.000 A 
ATOM      5  C5  BNZ d   1       1.949  -1.366   3.441  0.00  0.00     0.000 A 
ATOM      6  C6  BNZ d   1       1.097  -2.358   3.871  0.00  0.00     0.000 A 
ENDROOT
TORSDOF 0
ENDMDL
