MODEL 1
REMARK minimizedAffinity 0.189763427
REMARK minimizedRMSD -1
REMARK  0 active torsions:
REMARK  status: ('A' for Active; 'I' for Inactive)
ROOT
ATOM      1  C1  BNZ d   1      -0.163  -0.087   2.540  0.00  0.00     0.000 A 
ATOM      2  C2  BNZ d   1       0.081  -1.423   2.716  0.00  0.00     0.000 A 
ATOM      3  C3  BNZ d   1       0.988  -1.853   3.643  0.00  0.00     0.000 A 
ATOM      4  C4  BNZ d   1       1.679  -0.947   4.365  0.00  0.00     0.000 A 
ATOM      5  C5  BNZ d   1       1.451   0.404   4.193  0.00  0.00     0.000 A 
ATOM      6  C6  BNZ d   1       0.509   0.832   3.286  0.00  0.00     0.000 A 
ENDROOT
TORSDOF 0
ENDMDL
