MODEL 1
REMARK minimizedAffinity 2.33647752
REMARK minimizedRMSD -1
REMARK  1 active torsions:
REMARK  status: ('A' for Active; 'I' for Inactive)
REMARK    1  A    between atoms: C1_2  and  C2_3 
ROOT
ATOM      1  C2  UNL d   1      -1.981  -0.603   1.585  0.00  0.00    -0.076 A 
ATOM      2  C3  UNL d   1      -2.388   0.573   2.239  0.00  0.00     0.004 A 
ATOM      3  C4  UNL d   1      -3.241   1.482   1.616  0.00  0.00    -0.003 A 
ATOM      4  C5  UNL d   1      -3.700   1.230   0.328  0.00  0.00     0.000 A 
ATOM      5  C6  UNL d   1      -3.321   0.060  -0.329  0.00  0.00     0.000 A 
ATOM      6  C7  UNL d   1      -2.475  -0.875   0.291  0.00  0.00    -0.073 A 
ATOM      7  C8  UNL d   1      -2.093  -2.117  -0.466  0.00  0.00     0.078 C 
ENDROOT
BRANCH   1   8
ATOM      8  C1  UNL d   1      -1.034  -1.539   2.301  0.00  0.00     0.053 C 
ATOM      9  C   UNL d   1      -0.070  -0.803   3.218  0.00  0.00     0.018 C 
ENDBRANCH   1   8
TORSDOF 1
ENDMDL
