MODEL 1
REMARK minimizedAffinity -3.65844345
REMARK minimizedRMSD -1
REMARK  1 active torsions:
REMARK  status: ('A' for Active; 'I' for Inactive)
REMARK    1  A    between atoms: C1_2  and  C2_3 
ROOT
ATOM      1  C2  UNL d   1      -1.540  -0.405   0.618  0.00  0.00    -0.076 A 
ATOM      2  C3  UNL d   1      -0.178  -0.112   0.810  0.00  0.00     0.004 A 
ATOM      3  C4  UNL d   1       0.800  -0.687   0.000  0.00  0.00    -0.003 A 
ATOM      4  C5  UNL d   1       0.433  -1.563  -1.015  0.00  0.00     0.000 A 
ATOM      5  C6  UNL d   1      -0.914  -1.851  -1.231  0.00  0.00     0.000 A 
ATOM      6  C7  UNL d   1      -1.914  -1.268  -0.435  0.00  0.00    -0.073 A 
ATOM      7  C8  UNL d   1      -3.351  -1.619  -0.708  0.00  0.00     0.078 C 
ENDROOT
BRANCH   1   8
ATOM      8  C1  UNL d   1      -2.554   0.227   1.544  0.00  0.00     0.053 C 
ATOM      9  C   UNL d   1      -2.198   1.660   1.908  0.00  0.00     0.018 C 
ENDBRANCH   1   8
TORSDOF 1
ENDMDL
