MODEL 1
REMARK minimizedAffinity 5.57610989
REMARK minimizedRMSD -1
REMARK  1 active torsions:
REMARK  status: ('A' for Active; 'I' for Inactive)
REMARK    1  A    between atoms: C1_2  and  C2_3 
ROOT
ATOM      1  C2  UNL d   1       0.471  -1.467   2.616  0.00  0.00    -0.076 A 
ATOM      2  C3  UNL d   1      -0.662  -2.286   2.763  0.00  0.00     0.004 A 
ATOM      3  C4  UNL d   1      -1.899  -1.898   2.253  0.00  0.00    -0.003 A 
ATOM      4  C5  UNL d   1      -2.024  -0.685   1.585  0.00  0.00     0.000 A 
ATOM      5  C6  UNL d   1      -0.907   0.133   1.414  0.00  0.00     0.000 A 
ATOM      6  C7  UNL d   1       0.351  -0.251   1.909  0.00  0.00    -0.073 A 
ATOM      7  C8  UNL d   1       1.521   0.672   1.701  0.00  0.00     0.078 C 
ENDROOT
BRANCH   1   8
ATOM      8  C1  UNL d   1       1.781  -1.927   3.214  0.00  0.00     0.053 C 
ATOM      9  C   UNL d   1       1.955  -1.474   4.655  0.00  0.00     0.018 C 
ENDBRANCH   1   8
TORSDOF 1
ENDMDL
