MODEL 1
REMARK minimizedAffinity 6.48000002
REMARK minimizedRMSD -1
REMARK  1 active torsions:
REMARK  status: ('A' for Active; 'I' for Inactive)
REMARK    1  A    between atoms: C1_2  and  C2_3 
ROOT
ATOM      1  C2  UNL d   1       0.870  -0.716  -4.592  0.00  0.00    -0.076 A 
ATOM      2  C3  UNL d   1       0.326  -0.075  -5.718  0.00  0.00     0.004 A 
ATOM      3  C4  UNL d   1      -1.038  -0.147  -5.996  0.00  0.00    -0.003 A 
ATOM      4  C5  UNL d   1      -1.880  -0.861  -5.150  0.00  0.00     0.000 A 
ATOM      5  C6  UNL d   1      -1.361  -1.488  -4.019  0.00  0.00     0.000 A 
ATOM      6  C7  UNL d   1       0.010  -1.412  -3.715  0.00  0.00    -0.073 A 
ATOM      7  C8  UNL d   1       0.517  -2.112  -2.485  0.00  0.00     0.078 C 
ENDROOT
BRANCH   1   8
ATOM      8  C1  UNL d   1       2.361  -0.626  -4.356  0.00  0.00     0.053 C 
ATOM      9  C   UNL d   1       3.132  -0.296  -5.625  0.00  0.00     0.018 C 
ENDBRANCH   1   8
TORSDOF 1
ENDMDL
