MODEL 1
REMARK minimizedAffinity 7.64602423
REMARK minimizedRMSD -1
REMARK  1 active torsions:
REMARK  status: ('A' for Active; 'I' for Inactive)
REMARK    1  A    between atoms: C1_2  and  C2_3 
ROOT
ATOM      1  C2  UNL d   1       0.890  -1.041   2.518  0.00  0.00    -0.076 A 
ATOM      2  C3  UNL d   1       1.095   0.334   2.307  0.00  0.00     0.004 A 
ATOM      3  C4  UNL d   1       0.083   1.138   1.784  0.00  0.00    -0.003 A 
ATOM      4  C5  UNL d   1      -1.150   0.580   1.464  0.00  0.00     0.000 A 
ATOM      5  C6  UNL d   1      -1.376  -0.778   1.683  0.00  0.00     0.000 A 
ATOM      6  C7  UNL d   1      -0.372  -1.600   2.224  0.00  0.00    -0.073 A 
ATOM      7  C8  UNL d   1      -0.668  -3.059   2.434  0.00  0.00     0.078 C 
ENDROOT
BRANCH   1   8
ATOM      8  C1  UNL d   1       2.033  -1.868   3.062  0.00  0.00     0.053 C 
ATOM      9  C   UNL d   1       2.333  -1.559   4.520  0.00  0.00     0.018 C 
ENDBRANCH   1   8
TORSDOF 1
ENDMDL
