MODEL 1
REMARK minimizedAffinity 8.02198696
REMARK minimizedRMSD -1
REMARK  1 active torsions:
REMARK  status: ('A' for Active; 'I' for Inactive)
REMARK    1  A    between atoms: C1_2  and  C2_3 
ROOT
ATOM      1  C2  UNL d   1       0.296  -1.069  -3.436  0.00  0.00    -0.076 A 
ATOM      2  C3  UNL d   1       1.492  -0.608  -4.014  0.00  0.00     0.004 A 
ATOM      3  C4  UNL d   1       2.731  -1.017  -3.524  0.00  0.00    -0.003 A 
ATOM      4  C5  UNL d   1       2.794  -1.895  -2.447  0.00  0.00     0.000 A 
ATOM      5  C6  UNL d   1       1.618  -2.376  -1.872  0.00  0.00     0.000 A 
ATOM      6  C7  UNL d   1       0.361  -1.986  -2.366  0.00  0.00    -0.073 A 
ATOM      7  C8  UNL d   1      -0.875  -2.532  -1.704  0.00  0.00     0.078 C 
ENDROOT
BRANCH   1   8
ATOM      8  C1  UNL d   1      -1.017  -0.570  -3.994  0.00  0.00     0.053 C 
ATOM      9  C   UNL d   1      -1.588  -1.494  -5.058  0.00  0.00     0.018 C 
ENDBRANCH   1   8
TORSDOF 1
ENDMDL
