MODEL 1
REMARK minimizedAffinity 2.67663813
REMARK minimizedRMSD -1
REMARK  1 active torsions:
REMARK  status: ('A' for Active; 'I' for Inactive)
REMARK    1  A    between atoms: C1_2  and  C2_3 
ROOT
ATOM      1  C2  UNL d   1      -0.817   2.537  -2.394  0.00  0.00    -0.081 A 
ATOM      2  C3  UNL d   1      -0.434   2.870  -1.089  0.00  0.00     0.006 A 
ATOM      3  C4  UNL d   1      -1.076   2.289   0.007  0.00  0.00     0.002 A 
ATOM      4  C5  UNL d   1      -2.104   1.360  -0.183  0.00  0.00    -0.080 A 
ATOM      5  C6  UNL d   1      -2.781   0.705   0.985  0.00  0.00     0.076 C 
ATOM      6  C7  UNL d   1      -2.499   1.040  -1.487  0.00  0.00     0.002 A 
ATOM      7  C8  UNL d   1      -1.858   1.622  -2.583  0.00  0.00     0.006 A 
ENDROOT
BRANCH   1   8
ATOM      8  C1  UNL d   1      -0.083   3.113  -3.579  0.00  0.00     0.054 C 
ATOM      9  C   UNL d   1       1.421   2.931  -3.440  0.00  0.00     0.018 C 
ENDBRANCH   1   8
TORSDOF 1
ENDMDL
