MODEL 1
REMARK minimizedAffinity 2.36855459
REMARK minimizedRMSD -1
REMARK  1 active torsions:
REMARK  status: ('A' for Active; 'I' for Inactive)
REMARK    1  A    between atoms: C1_2  and  C2_3 
ROOT
ATOM      1  C2  UNL d   1       1.821  -1.124   0.412  0.00  0.00    -0.081 A 
ATOM      2  C3  UNL d   1       1.338  -2.206  -0.334  0.00  0.00     0.006 A 
ATOM      3  C4  UNL d   1       0.001  -2.595  -0.235  0.00  0.00     0.002 A 
ATOM      4  C5  UNL d   1      -0.879  -1.905   0.607  0.00  0.00    -0.080 A 
ATOM      5  C6  UNL d   1      -2.324  -2.293   0.700  0.00  0.00     0.076 C 
ATOM      6  C7  UNL d   1      -0.393  -0.835   1.366  0.00  0.00     0.002 A 
ATOM      7  C8  UNL d   1       0.945  -0.446   1.267  0.00  0.00     0.006 A 
ENDROOT
BRANCH   1   8
ATOM      8  C1  UNL d   1       3.247  -0.661   0.258  0.00  0.00     0.054 C 
ATOM      9  C   UNL d   1       4.141  -1.784  -0.248  0.00  0.00     0.018 C 
ENDBRANCH   1   8
TORSDOF 1
ENDMDL
