MODEL 1
REMARK minimizedAffinity 5.22029066
REMARK minimizedRMSD -1
REMARK  1 active torsions:
REMARK  status: ('A' for Active; 'I' for Inactive)
REMARK    1  A    between atoms: C1_2  and  C2_3 
ROOT
ATOM      1  C2  UNL d   1       0.989  -2.835  -0.372  0.00  0.00    -0.081 A 
ATOM      2  C3  UNL d   1       1.712  -1.636  -0.421  0.00  0.00     0.006 A 
ATOM      3  C4  UNL d   1       1.304  -0.533   0.332  0.00  0.00     0.002 A 
ATOM      4  C5  UNL d   1       0.173  -0.611   1.151  0.00  0.00    -0.080 A 
ATOM      5  C6  UNL d   1      -0.258   0.557   1.988  0.00  0.00     0.076 C 
ATOM      6  C7  UNL d   1      -0.559  -1.803   1.186  0.00  0.00     0.002 A 
ATOM      7  C8  UNL d   1      -0.153  -2.906   0.433  0.00  0.00     0.006 A 
ENDROOT
BRANCH   1   8
ATOM      8  C1  UNL d   1       1.463  -4.047  -1.133  0.00  0.00     0.054 C 
ATOM      9  C   UNL d   1       2.860  -4.464  -0.695  0.00  0.00     0.018 C 
ENDBRANCH   1   8
TORSDOF 1
ENDMDL
