MODEL 1
REMARK minimizedAffinity 0.578789771
REMARK minimizedRMSD -1
REMARK  1 active torsions:
REMARK  status: ('A' for Active; 'I' for Inactive)
REMARK    1  A    between atoms: C1_2  and  C2_3 
ROOT
ATOM      1  C2  UNL d   1       0.623  -3.405  -0.510  0.00  0.00    -0.081 A 
ATOM      2  C3  UNL d   1      -0.206  -2.610   0.291  0.00  0.00     0.006 A 
ATOM      3  C4  UNL d   1       0.338  -1.610   1.100  0.00  0.00     0.002 A 
ATOM      4  C5  UNL d   1       1.719  -1.384   1.117  0.00  0.00    -0.080 A 
ATOM      5  C6  UNL d   1       2.313  -0.294   1.958  0.00  0.00     0.076 C 
ATOM      6  C7  UNL d   1       2.549  -2.190   0.330  0.00  0.00     0.002 A 
ATOM      7  C8  UNL d   1       2.005  -3.190  -0.479  0.00  0.00     0.006 A 
ENDROOT
BRANCH   1   8
ATOM      8  C1  UNL d   1       0.032  -4.440  -1.433  0.00  0.00     0.054 C 
ATOM      9  C   UNL d   1       0.461  -4.205  -2.874  0.00  0.00     0.018 C 
ENDBRANCH   1   8
TORSDOF 1
ENDMDL
