MODEL 1
REMARK minimizedAffinity -2.27252245
REMARK minimizedRMSD -1
REMARK  1 active torsions:
REMARK  status: ('A' for Active; 'I' for Inactive)
REMARK    1  A    between atoms: C1_2  and  C2_3 
ROOT
ATOM      1  C2  UNL d   1      -0.275  -1.512   0.828  0.00  0.00    -0.081 A 
ATOM      2  C3  UNL d   1      -0.130  -2.730   0.153  0.00  0.00     0.006 A 
ATOM      3  C4  UNL d   1       1.131  -3.162  -0.266  0.00  0.00     0.002 A 
ATOM      4  C5  UNL d   1       2.268  -2.389  -0.009  0.00  0.00    -0.080 A 
ATOM      5  C6  UNL d   1       3.631  -2.856  -0.426  0.00  0.00     0.076 C 
ATOM      6  C7  UNL d   1       2.121  -1.164   0.651  0.00  0.00     0.002 A 
ATOM      7  C8  UNL d   1       0.861  -0.730   1.069  0.00  0.00     0.006 A 
ENDROOT
BRANCH   1   8
ATOM      8  C1  UNL d   1      -1.624  -1.074   1.338  0.00  0.00     0.054 C 
ATOM      9  C   UNL d   1      -1.706   0.442   1.455  0.00  0.00     0.018 C 
ENDBRANCH   1   8
TORSDOF 1
ENDMDL
