MODEL 1
REMARK minimizedAffinity 2.13119698
REMARK minimizedRMSD -1
REMARK  1 active torsions:
REMARK  status: ('A' for Active; 'I' for Inactive)
REMARK    1  A    between atoms: C1_2  and  C2_3 
ROOT
ATOM      1  C2  UNL d   1       0.811  -2.222   0.110  0.00  0.00    -0.081 A 
ATOM      2  C3  UNL d   1       1.550  -1.327   0.893  0.00  0.00     0.006 A 
ATOM      3  C4  UNL d   1       0.912  -0.285   1.570  0.00  0.00     0.002 A 
ATOM      4  C5  UNL d   1      -0.475  -0.125   1.482  0.00  0.00    -0.080 A 
ATOM      5  C6  UNL d   1      -1.175   0.971   2.228  0.00  0.00     0.076 C 
ATOM      6  C7  UNL d   1      -1.211  -1.008   0.686  0.00  0.00     0.002 A 
ATOM      7  C8  UNL d   1      -0.574  -2.050   0.008  0.00  0.00     0.006 A 
ENDROOT
BRANCH   1   8
ATOM      8  C1  UNL d   1       1.487  -3.385  -0.570  0.00  0.00     0.054 C 
ATOM      9  C   UNL d   1       0.503  -4.179  -1.418  0.00  0.00     0.018 C 
ENDBRANCH   1   8
TORSDOF 1
ENDMDL
