MODEL 1
REMARK minimizedAffinity 3.65081763
REMARK minimizedRMSD -1
REMARK  1 active torsions:
REMARK  status: ('A' for Active; 'I' for Inactive)
REMARK    1  A    between atoms: C1_2  and  C2_3 
ROOT
ATOM      1  C2  UNL d   1       2.684  -0.275   1.927  0.00  0.00    -0.081 A 
ATOM      2  C3  UNL d   1       2.415  -0.475   0.567  0.00  0.00     0.006 A 
ATOM      3  C4  UNL d   1       1.100  -0.614   0.119  0.00  0.00     0.002 A 
ATOM      4  C5  UNL d   1       0.032  -0.548   1.020  0.00  0.00    -0.080 A 
ATOM      5  C6  UNL d   1      -1.387  -0.665   0.547  0.00  0.00     0.076 C 
ATOM      6  C7  UNL d   1       0.301  -0.365   2.380  0.00  0.00     0.002 A 
ATOM      7  C8  UNL d   1       1.616  -0.227   2.830  0.00  0.00     0.006 A 
ENDROOT
BRANCH   1   8
ATOM      8  C1  UNL d   1       4.097  -0.060   2.405  0.00  0.00     0.054 C 
ATOM      9  C   UNL d   1       4.892  -1.358   2.385  0.00  0.00     0.018 C 
ENDBRANCH   1   8
TORSDOF 1
ENDMDL
