MODEL 1
REMARK minimizedAffinity 2.14020705
REMARK minimizedRMSD -1
REMARK  1 active torsions:
REMARK  status: ('A' for Active; 'I' for Inactive)
REMARK    1  A    between atoms: C1_2  and  C2_3 
ROOT
ATOM      1  C2  UNL d   1      -0.016  -1.072   0.597  0.00  0.00    -0.081 A 
ATOM      2  C3  UNL d   1       1.371  -0.887   0.575  0.00  0.00     0.006 A 
ATOM      3  C4  UNL d   1       2.227  -1.971   0.362  0.00  0.00     0.002 A 
ATOM      4  C5  UNL d   1       1.709  -3.255   0.161  0.00  0.00    -0.080 A 
ATOM      5  C6  UNL d   1       2.615  -4.422  -0.098  0.00  0.00     0.076 C 
ATOM      6  C7  UNL d   1       0.323  -3.442   0.201  0.00  0.00     0.002 A 
ATOM      7  C8  UNL d   1      -0.532  -2.359   0.414  0.00  0.00     0.006 A 
ENDROOT
BRANCH   1   8
ATOM      8  C1  UNL d   1      -0.944   0.105   0.761  0.00  0.00     0.054 C 
ATOM      9  C   UNL d   1      -2.374  -0.262   0.393  0.00  0.00     0.018 C 
ENDBRANCH   1   8
TORSDOF 1
ENDMDL
