MODEL 1
REMARK minimizedAffinity 1.48927498
REMARK minimizedRMSD -1
REMARK  1 active torsions:
REMARK  status: ('A' for Active; 'I' for Inactive)
REMARK    1  A    between atoms: C1_2  and  C2_3 
ROOT
ATOM      1  C2  UNL d   1       2.621  -2.863  -0.525  0.00  0.00    -0.081 A 
ATOM      2  C3  UNL d   1       2.615  -1.494  -0.232  0.00  0.00     0.006 A 
ATOM      3  C4  UNL d   1       1.431  -0.856   0.145  0.00  0.00     0.002 A 
ATOM      4  C5  UNL d   1       0.237  -1.577   0.244  0.00  0.00    -0.080 A 
ATOM      5  C6  UNL d   1      -1.035  -0.910   0.678  0.00  0.00     0.076 C 
ATOM      6  C7  UNL d   1       0.239  -2.941  -0.065  0.00  0.00     0.002 A 
ATOM      7  C8  UNL d   1       1.422  -3.580  -0.443  0.00  0.00     0.006 A 
ENDROOT
BRANCH   1   8
ATOM      8  C1  UNL d   1       3.908  -3.568  -0.870  0.00  0.00     0.054 C 
ATOM      9  C   UNL d   1       3.819  -5.059  -0.577  0.00  0.00     0.018 C 
ENDBRANCH   1   8
TORSDOF 1
ENDMDL
