MODEL 1
REMARK minimizedAffinity 11.3762884
REMARK minimizedRMSD -1
REMARK  1 active torsions:
REMARK  status: ('A' for Active; 'I' for Inactive)
REMARK    1  A    between atoms: C1_2  and  C2_3 
ROOT
ATOM      1  C2  UNL d   1       2.759   2.523  -3.262  0.00  0.00    -0.081 A 
ATOM      2  C3  UNL d   1       3.859   1.978  -2.590  0.00  0.00     0.006 A 
ATOM      3  C4  UNL d   1       4.560   2.735  -1.648  0.00  0.00     0.002 A 
ATOM      4  C5  UNL d   1       4.167   4.046  -1.356  0.00  0.00    -0.080 A 
ATOM      5  C6  UNL d   1       4.892   4.858  -0.325  0.00  0.00     0.076 C 
ATOM      6  C7  UNL d   1       3.078   4.597  -2.041  0.00  0.00     0.002 A 
ATOM      7  C8  UNL d   1       2.378   3.841  -2.983  0.00  0.00     0.006 A 
ENDROOT
BRANCH   1   8
ATOM      8  C1  UNL d   1       1.961   1.688  -4.231  0.00  0.00     0.054 C 
ATOM      9  C   UNL d   1       2.190   0.202  -3.999  0.00  0.00     0.018 C 
ENDBRANCH   1   8
TORSDOF 1
ENDMDL
