MODEL 1
REMARK minimizedAffinity -2.41097856
REMARK minimizedRMSD -1
REMARK  1 active torsions:
REMARK  status: ('A' for Active; 'I' for Inactive)
REMARK    1  A    between atoms: C1_2  and  C2_3 
ROOT
ATOM      1  C2  UNL d   1       1.990  -3.012  -0.368  0.00  0.00    -0.081 A 
ATOM      2  C3  UNL d   1       2.427  -1.704  -0.129  0.00  0.00     0.006 A 
ATOM      3  C4  UNL d   1       1.544  -0.742   0.368  0.00  0.00     0.002 A 
ATOM      4  C5  UNL d   1       0.213  -1.074   0.640  0.00  0.00    -0.080 A 
ATOM      5  C6  UNL d   1      -0.737  -0.058   1.201  0.00  0.00     0.076 C 
ATOM      6  C7  UNL d   1      -0.228  -2.376   0.384  0.00  0.00     0.002 A 
ATOM      7  C8  UNL d   1       0.654  -3.338  -0.113  0.00  0.00     0.006 A 
ENDROOT
BRANCH   1   8
ATOM      8  C1  UNL d   1       2.956  -4.068  -0.842  0.00  0.00     0.054 C 
ATOM      9  C   UNL d   1       4.363  -3.803  -0.326  0.00  0.00     0.018 C 
ENDBRANCH   1   8
TORSDOF 1
ENDMDL
