MODEL 1
REMARK minimizedAffinity 1.87960243
REMARK minimizedRMSD -1
REMARK  1 active torsions:
REMARK  status: ('A' for Active; 'I' for Inactive)
REMARK    1  A    between atoms: C1_2  and  C2_3 
ROOT
ATOM      1  C2  UNL d   1       0.836  -1.219   1.887  0.00  0.00    -0.081 A 
ATOM      2  C3  UNL d   1      -0.117  -2.200   1.587  0.00  0.00     0.006 A 
ATOM      3  C4  UNL d   1      -0.345  -2.585   0.264  0.00  0.00     0.002 A 
ATOM      4  C5  UNL d   1       0.380  -2.001  -0.780  0.00  0.00    -0.080 A 
ATOM      5  C6  UNL d   1       0.166  -2.427  -2.202  0.00  0.00     0.076 C 
ATOM      6  C7  UNL d   1       1.320  -1.009  -0.482  0.00  0.00     0.002 A 
ATOM      7  C8  UNL d   1       1.548  -0.623   0.840  0.00  0.00     0.006 A 
ENDROOT
BRANCH   1   8
ATOM      8  C1  UNL d   1       1.130  -0.848   3.318  0.00  0.00     0.054 C 
ATOM      9  C   UNL d   1       1.717  -2.025   4.085  0.00  0.00     0.018 C 
ENDBRANCH   1   8
TORSDOF 1
ENDMDL
