MODEL 1
REMARK minimizedAffinity 1.3239789
REMARK minimizedRMSD -1
REMARK  1 active torsions:
REMARK  status: ('A' for Active; 'I' for Inactive)
REMARK    1  A    between atoms: C1_2  and  C2_3 
ROOT
ATOM      1  C2  UNL d   1      -0.128  -0.419   1.049  0.00  0.00    -0.081 A 
ATOM      2  C3  UNL d   1       1.157  -0.308   0.504  0.00  0.00     0.006 A 
ATOM      3  C4  UNL d   1       1.854  -1.448   0.096  0.00  0.00     0.002 A 
ATOM      4  C5  UNL d   1       1.275  -2.716   0.218  0.00  0.00    -0.080 A 
ATOM      5  C6  UNL d   1       2.000  -3.944  -0.244  0.00  0.00     0.076 C 
ATOM      6  C7  UNL d   1      -0.002  -2.828   0.779  0.00  0.00     0.002 A 
ATOM      7  C8  UNL d   1      -0.699  -1.689   1.188  0.00  0.00     0.006 A 
ENDROOT
BRANCH   1   8
ATOM      8  C1  UNL d   1      -0.908   0.814   1.429  0.00  0.00     0.054 C 
ATOM      9  C   UNL d   1      -2.070   1.050   0.475  0.00  0.00     0.018 C 
ENDBRANCH   1   8
TORSDOF 1
ENDMDL
