MODEL 1
REMARK minimizedAffinity 4.67025566
REMARK minimizedRMSD -1
REMARK  0 active torsions:
REMARK  status: ('A' for Active; 'I' for Inactive)
ROOT
ATOM      1  C   UNL d   1      -1.369  -1.166   5.977  0.00  0.00     0.020 A 
ATOM      2  C1  UNL d   1      -2.368  -2.138   5.986  0.00  0.00     0.020 A 
ATOM      3  C2  UNL d   1      -3.712  -1.758   5.990  0.00  0.00     0.034 A 
ATOM      4  C3  UNL d   1      -4.060  -0.403   5.984  0.00  0.00     0.017 A 
ATOM      5  C4  UNL d   1      -3.057   0.573   5.975  0.00  0.00     0.017 A 
ATOM      6  C5  UNL d   1      -1.713   0.187   5.971  0.00  0.00     0.034 A 
ATOM      7 Cl   UNL d   1      -3.408   2.265   5.967  0.00  0.00    -0.070 Cl
ATOM      8 Cl1  UNL d   1      -5.742  -0.005   5.988  0.00  0.00    -0.070 Cl
ENDROOT
TORSDOF 0
ENDMDL
