MODEL 1
REMARK minimizedAffinity 2.17170906
REMARK minimizedRMSD -1
REMARK  0 active torsions:
REMARK  status: ('A' for Active; 'I' for Inactive)
ROOT
ATOM      1  C   UNL d   1      -0.519  -2.718  -0.343  0.00  0.00     0.020 A 
ATOM      2  C1  UNL d   1      -0.098  -3.511   0.724  0.00  0.00     0.020 A 
ATOM      3  C2  UNL d   1      -0.511  -3.208   2.023  0.00  0.00     0.034 A 
ATOM      4  C3  UNL d   1      -1.346  -2.110   2.259  0.00  0.00     0.017 A 
ATOM      5  C4  UNL d   1      -1.768  -1.315   1.187  0.00  0.00     0.017 A 
ATOM      6  C5  UNL d   1      -1.352  -1.623  -0.112  0.00  0.00     0.034 A 
ATOM      7 Cl   UNL d   1      -2.799   0.056   1.399  0.00  0.00    -0.070 Cl
ATOM      8 Cl1  UNL d   1      -1.817  -1.795   3.891  0.00  0.00    -0.070 Cl
ENDROOT
TORSDOF 0
ENDMDL
