MODEL 1
REMARK minimizedAffinity 11.2604961
REMARK minimizedRMSD -1
REMARK  0 active torsions:
REMARK  status: ('A' for Active; 'I' for Inactive)
ROOT
ATOM      1  C   UNL d   1      -1.147  -2.589   1.899  0.00  0.00     0.020 A 
ATOM      2  C1  UNL d   1      -1.471  -1.499   1.093  0.00  0.00     0.020 A 
ATOM      3  C2  UNL d   1      -1.266  -1.564  -0.287  0.00  0.00     0.034 A 
ATOM      4  C3  UNL d   1      -0.736  -2.723  -0.865  0.00  0.00     0.017 A 
ATOM      5  C4  UNL d   1      -0.410  -3.818  -0.056  0.00  0.00     0.017 A 
ATOM      6  C5  UNL d   1      -0.617  -3.746   1.325  0.00  0.00     0.034 A 
ATOM      7 Cl   UNL d   1       0.248  -5.281  -0.697  0.00  0.00    -0.070 Cl
ATOM      8 Cl1  UNL d   1      -0.509  -2.735  -2.578  0.00  0.00    -0.070 Cl
ENDROOT
TORSDOF 0
ENDMDL
