MODEL 1
REMARK minimizedAffinity 7.88501406
REMARK minimizedRMSD -1
REMARK  0 active torsions:
REMARK  status: ('A' for Active; 'I' for Inactive)
ROOT
ATOM      1  C   UNL d   1       3.993  -5.424   4.877  0.00  0.00     0.020 A 
ATOM      2  C1  UNL d   1       5.146  -5.282   5.648  0.00  0.00     0.020 A 
ATOM      3  C2  UNL d   1       5.618  -4.008   5.970  0.00  0.00     0.034 A 
ATOM      4  C3  UNL d   1       4.937  -2.870   5.521  0.00  0.00     0.017 A 
ATOM      5  C4  UNL d   1       3.780  -3.014   4.746  0.00  0.00     0.017 A 
ATOM      6  C5  UNL d   1       3.312  -4.292   4.427  0.00  0.00     0.034 A 
ATOM      7 Cl   UNL d   1       2.886  -1.658   4.156  0.00  0.00    -0.070 Cl
ATOM      8 Cl1  UNL d   1       5.577  -1.326   5.957  0.00  0.00    -0.070 Cl
ENDROOT
TORSDOF 0
ENDMDL
