MODEL 1
REMARK minimizedAffinity 11.6311064
REMARK minimizedRMSD -1
REMARK  0 active torsions:
REMARK  status: ('A' for Active; 'I' for Inactive)
ROOT
ATOM      1  C   UNL d   1       0.104  -2.510  -1.637  0.00  0.00     0.020 A 
ATOM      2  C1  UNL d   1      -1.071  -2.413  -2.382  0.00  0.00     0.020 A 
ATOM      3  C2  UNL d   1      -1.080  -2.803  -3.723  0.00  0.00     0.034 A 
ATOM      4  C3  UNL d   1       0.088  -3.290  -4.323  0.00  0.00     0.017 A 
ATOM      5  C4  UNL d   1       1.266  -3.386  -3.573  0.00  0.00     0.017 A 
ATOM      6  C5  UNL d   1       1.269  -2.995  -2.231  0.00  0.00     0.034 A 
ATOM      7 Cl   UNL d   1       2.745  -3.978  -4.243  0.00  0.00    -0.070 Cl
ATOM      8 Cl1  UNL d   1       0.004  -3.754  -5.985  0.00  0.00    -0.070 Cl
ENDROOT
TORSDOF 0
ENDMDL
