MODEL 1
REMARK minimizedAffinity 15.810648
REMARK minimizedRMSD -1
REMARK  0 active torsions:
REMARK  status: ('A' for Active; 'I' for Inactive)
ROOT
ATOM      1  C   UNL d   1      -0.416  -2.163  -1.484  0.00  0.00     0.020 A 
ATOM      2  C1  UNL d   1      -0.782  -2.916  -2.599  0.00  0.00     0.020 A 
ATOM      3  C2  UNL d   1       0.199  -3.415  -3.458  0.00  0.00     0.034 A 
ATOM      4  C3  UNL d   1       1.552  -3.162  -3.204  0.00  0.00     0.017 A 
ATOM      5  C4  UNL d   1       1.919  -2.406  -2.084  0.00  0.00     0.017 A 
ATOM      6  C5  UNL d   1       0.932  -1.909  -1.228  0.00  0.00     0.034 A 
ATOM      7 Cl   UNL d   1       3.568  -2.051  -1.705  0.00  0.00    -0.070 Cl
ATOM      8 Cl1  UNL d   1       2.712  -3.810  -4.308  0.00  0.00    -0.070 Cl
ENDROOT
TORSDOF 0
ENDMDL
