MODEL 1
REMARK minimizedAffinity 7.36527491
REMARK minimizedRMSD -1
REMARK  0 active torsions:
REMARK  status: ('A' for Active; 'I' for Inactive)
ROOT
ATOM      1  C   UNL d   1      -4.028   1.643   0.355  0.00  0.00     0.020 A 
ATOM      2  C1  UNL d   1      -2.826   2.013   0.957  0.00  0.00     0.020 A 
ATOM      3  C2  UNL d   1      -2.537   3.363   1.168  0.00  0.00     0.034 A 
ATOM      4  C3  UNL d   1      -3.451   4.348   0.776  0.00  0.00     0.017 A 
ATOM      5  C4  UNL d   1      -4.658   3.976   0.171  0.00  0.00     0.017 A 
ATOM      6  C5  UNL d   1      -4.942   2.622  -0.037  0.00  0.00     0.034 A 
ATOM      7 Cl   UNL d   1      -5.835   5.133  -0.339  0.00  0.00    -0.070 Cl
ATOM      8 Cl1  UNL d   1      -3.029   5.998   1.067  0.00  0.00    -0.070 Cl
ENDROOT
TORSDOF 0
ENDMDL
