MODEL 1
REMARK minimizedAffinity 6.64725018
REMARK minimizedRMSD -1
REMARK  0 active torsions:
REMARK  status: ('A' for Active; 'I' for Inactive)
ROOT
ATOM      1  C   UNL d   1       0.447  -2.247  -0.553  0.00  0.00     0.020 A 
ATOM      2  C1  UNL d   1       0.389  -2.424  -1.935  0.00  0.00     0.020 A 
ATOM      3  C2  UNL d   1      -0.839  -2.650  -2.560  0.00  0.00     0.034 A 
ATOM      4  C3  UNL d   1      -2.015  -2.701  -1.802  0.00  0.00     0.017 A 
ATOM      5  C4  UNL d   1      -1.956  -2.523  -0.415  0.00  0.00     0.017 A 
ATOM      6  C5  UNL d   1      -0.724  -2.297   0.205  0.00  0.00     0.034 A 
ATOM      7 Cl   UNL d   1      -3.364  -2.572   0.586  0.00  0.00    -0.070 Cl
ATOM      8 Cl1  UNL d   1      -3.499  -2.984  -2.641  0.00  0.00    -0.070 Cl
ENDROOT
TORSDOF 0
ENDMDL
