MODEL 1
REMARK minimizedAffinity 10.4143715
REMARK minimizedRMSD -1
REMARK  0 active torsions:
REMARK  status: ('A' for Active; 'I' for Inactive)
ROOT
ATOM      1  C   UNL d   1      -0.496  -3.121  -3.389  0.00  0.00     0.020 A 
ATOM      2  C1  UNL d   1      -1.819  -3.349  -3.015  0.00  0.00     0.020 A 
ATOM      3  C2  UNL d   1      -2.226  -3.106  -1.701  0.00  0.00     0.034 A 
ATOM      4  C3  UNL d   1      -1.307  -2.633  -0.757  0.00  0.00     0.017 A 
ATOM      5  C4  UNL d   1       0.021  -2.404  -1.133  0.00  0.00     0.017 A 
ATOM      6  C5  UNL d   1       0.422  -2.649  -2.450  0.00  0.00     0.034 A 
ATOM      7 Cl   UNL d   1       1.212  -1.822  -0.024  0.00  0.00    -0.070 Cl
ATOM      8 Cl1  UNL d   1      -1.879  -2.354   0.850  0.00  0.00    -0.070 Cl
ENDROOT
TORSDOF 0
ENDMDL
