MODEL 1
REMARK minimizedAffinity 4.64734364
REMARK minimizedRMSD -1
REMARK  0 active torsions:
REMARK  status: ('A' for Active; 'I' for Inactive)
ROOT
ATOM      1  C   UNL d   1      -1.460  -2.645  -2.447  0.00  0.00     0.020 A 
ATOM      2  C1  UNL d   1      -0.258  -2.561  -1.746  0.00  0.00     0.020 A 
ATOM      3  C2  UNL d   1       0.935  -2.954  -2.356  0.00  0.00     0.034 A 
ATOM      4  C3  UNL d   1       0.928  -3.433  -3.671  0.00  0.00     0.017 A 
ATOM      5  C4  UNL d   1      -0.279  -3.517  -4.374  0.00  0.00     0.017 A 
ATOM      6  C5  UNL d   1      -1.471  -3.122  -3.758  0.00  0.00     0.034 A 
ATOM      7 Cl   UNL d   1      -0.367  -4.098  -6.000  0.00  0.00    -0.070 Cl
ATOM      8 Cl1  UNL d   1       2.441  -3.900  -4.364  0.00  0.00    -0.070 Cl
ENDROOT
TORSDOF 0
ENDMDL
