MODEL 1
REMARK minimizedAffinity 9.42269993
REMARK minimizedRMSD -1
REMARK  0 active torsions:
REMARK  status: ('A' for Active; 'I' for Inactive)
ROOT
ATOM      1  C   UNL d   1      -0.149  -2.761  -1.673  0.00  0.00     0.020 A 
ATOM      2  C1  UNL d   1      -1.209  -2.831  -2.577  0.00  0.00     0.020 A 
ATOM      3  C2  UNL d   1      -0.970  -3.185  -3.907  0.00  0.00     0.034 A 
ATOM      4  C3  UNL d   1       0.331  -3.471  -4.336  0.00  0.00     0.017 A 
ATOM      5  C4  UNL d   1       1.394  -3.401  -3.428  0.00  0.00     0.017 A 
ATOM      6  C5  UNL d   1       1.149  -3.046  -2.098  0.00  0.00     0.034 A 
ATOM      7 Cl   UNL d   1       3.026  -3.739  -3.883  0.00  0.00    -0.070 Cl
ATOM      8 Cl1  UNL d   1       0.554  -3.902  -5.994  0.00  0.00    -0.070 Cl
ENDROOT
TORSDOF 0
ENDMDL
