MODEL 1
REMARK minimizedAffinity 13.3015385
REMARK minimizedRMSD -1
REMARK  0 active torsions:
REMARK  status: ('A' for Active; 'I' for Inactive)
ROOT
ATOM      1  C   UNL d   1      -1.034  -0.222   5.991  0.00  0.00     0.020 A 
ATOM      2  C1  UNL d   1      -1.693   1.007   5.994  0.00  0.00     0.020 A 
ATOM      3  C2  UNL d   1      -3.089   1.050   5.993  0.00  0.00     0.034 A 
ATOM      4  C3  UNL d   1      -3.830  -0.137   5.989  0.00  0.00     0.017 A 
ATOM      5  C4  UNL d   1      -3.168  -1.370   5.987  0.00  0.00     0.017 A 
ATOM      6  C5  UNL d   1      -1.770  -1.408   5.988  0.00  0.00     0.034 A 
ATOM      7 Cl   UNL d   1      -4.014  -2.877   5.983  0.00  0.00    -0.070 Cl
ATOM      8 Cl1  UNL d   1      -5.553  -0.009   5.989  0.00  0.00    -0.070 Cl
ENDROOT
TORSDOF 0
ENDMDL
