MODEL 1
REMARK minimizedAffinity 6.10450935
REMARK minimizedRMSD -1
REMARK  0 active torsions:
REMARK  status: ('A' for Active; 'I' for Inactive)
ROOT
ATOM      1  C   UNL d   1      -1.173  -2.066  -2.101  0.00  0.00     0.020 A 
ATOM      2  C1  UNL d   1       0.115  -2.293  -1.617  0.00  0.00     0.020 A 
ATOM      3  C2  UNL d   1       1.109  -2.769  -2.475  0.00  0.00     0.034 A 
ATOM      4  C3  UNL d   1       0.817  -3.020  -3.821  0.00  0.00     0.017 A 
ATOM      5  C4  UNL d   1      -0.476  -2.792  -4.305  0.00  0.00     0.017 A 
ATOM      6  C5  UNL d   1      -1.468  -2.315  -3.443  0.00  0.00     0.034 A 
ATOM      7 Cl   UNL d   1      -0.911  -3.077  -5.954  0.00  0.00    -0.070 Cl
ATOM      8 Cl1  UNL d   1       2.096  -3.607  -4.824  0.00  0.00    -0.070 Cl
ENDROOT
TORSDOF 0
ENDMDL
