MODEL 1
REMARK minimizedAffinity 13.5033684
REMARK minimizedRMSD -1
REMARK  0 active torsions:
REMARK  status: ('A' for Active; 'I' for Inactive)
ROOT
ATOM      1  C   UNL d   1       0.908   4.229   1.128  0.00  0.00     0.020 A 
ATOM      2  C1  UNL d   1       0.591   5.581   1.255  0.00  0.00     0.020 A 
ATOM      3  C2  UNL d   1      -0.736   6.000   1.146  0.00  0.00     0.034 A 
ATOM      4  C3  UNL d   1      -1.752   5.066   0.911  0.00  0.00     0.017 A 
ATOM      5  C4  UNL d   1      -1.433   3.709   0.784  0.00  0.00     0.017 A 
ATOM      6  C5  UNL d   1      -0.102   3.295   0.894  0.00  0.00     0.034 A 
ATOM      7 Cl   UNL d   1      -2.631   2.498   0.493  0.00  0.00    -0.070 Cl
ATOM      8 Cl1  UNL d   1      -3.372   5.655   0.788  0.00  0.00    -0.070 Cl
ENDROOT
TORSDOF 0
ENDMDL
