MODEL 1
REMARK minimizedAffinity 18.9183617
REMARK minimizedRMSD -1
REMARK  0 active torsions:
REMARK  status: ('A' for Active; 'I' for Inactive)
ROOT
ATOM      1  C   UNL d   1      -0.676  -2.244  -2.325  0.00  0.00     0.020 A 
ATOM      2  C1  UNL d   1      -0.768  -1.297  -1.306  0.00  0.00     0.020 A 
ATOM      3  C2  UNL d   1      -0.393  -1.633  -0.003  0.00  0.00     0.034 A 
ATOM      4  C3  UNL d   1       0.076  -2.920   0.284  0.00  0.00     0.017 A 
ATOM      5  C4  UNL d   1       0.168  -3.871  -0.740  0.00  0.00     0.017 A 
ATOM      6  C5  UNL d   1      -0.209  -3.528  -2.042  0.00  0.00     0.034 A 
ATOM      7 Cl   UNL d   1       0.737  -5.479  -0.463  0.00  0.00    -0.070 Cl
ATOM      8 Cl1  UNL d   1       0.523  -3.267   1.916  0.00  0.00    -0.070 Cl
ENDROOT
TORSDOF 0
ENDMDL
