MODEL 1
REMARK minimizedAffinity 12.018527
REMARK minimizedRMSD -1
REMARK  0 active torsions:
REMARK  status: ('A' for Active; 'I' for Inactive)
ROOT
ATOM      1  C   UNL d   1       0.549  -2.594  -1.380  0.00  0.00     0.020 A 
ATOM      2  C1  UNL d   1      -0.524  -2.374  -0.517  0.00  0.00     0.020 A 
ATOM      3  C2  UNL d   1      -1.834  -2.481  -0.989  0.00  0.00     0.034 A 
ATOM      4  C3  UNL d   1      -2.074  -2.810  -2.328  0.00  0.00     0.017 A 
ATOM      5  C4  UNL d   1      -0.997  -3.031  -3.194  0.00  0.00     0.017 A 
ATOM      6  C5  UNL d   1       0.312  -2.922  -2.716  0.00  0.00     0.034 A 
ATOM      7 Cl   UNL d   1      -1.215  -3.440  -4.859  0.00  0.00    -0.070 Cl
ATOM      8 Cl1  UNL d   1      -3.719  -2.926  -2.844  0.00  0.00    -0.070 Cl
ENDROOT
TORSDOF 0
ENDMDL
