MODEL 1
REMARK minimizedAffinity 6.39761209
REMARK minimizedRMSD -1
REMARK  0 active torsions:
REMARK  status: ('A' for Active; 'I' for Inactive)
ROOT
ATOM      1  C   UNL d   1      -0.819  -2.673  -3.344  0.00  0.00     0.020 A 
ATOM      2  C1  UNL d   1      -2.193  -2.902  -3.286  0.00  0.00     0.020 A 
ATOM      3  C2  UNL d   1      -2.877  -2.740  -2.079  0.00  0.00     0.034 A 
ATOM      4  C3  UNL d   1      -2.188  -2.348  -0.926  0.00  0.00     0.017 A 
ATOM      5  C4  UNL d   1      -0.809  -2.118  -0.985  0.00  0.00     0.017 A 
ATOM      6  C5  UNL d   1      -0.128  -2.282  -2.196  0.00  0.00     0.034 A 
ATOM      7 Cl   UNL d   1       0.111  -1.632   0.395  0.00  0.00    -0.070 Cl
ATOM      8 Cl1  UNL d   1      -3.098  -2.167   0.532  0.00  0.00    -0.070 Cl
ENDROOT
TORSDOF 0
ENDMDL
