MODEL 1
REMARK minimizedAffinity 12.0184364
REMARK minimizedRMSD -1
REMARK  0 active torsions:
REMARK  status: ('A' for Active; 'I' for Inactive)
ROOT
ATOM      1  C   UNL d   1      -2.020  -1.262   5.450  0.00  0.00     0.020 A 
ATOM      2  C1  UNL d   1      -3.260  -1.745   5.867  0.00  0.00     0.020 A 
ATOM      3  C2  UNL d   1      -4.341  -0.871   6.000  0.00  0.00     0.034 A 
ATOM      4  C3  UNL d   1      -4.185   0.490   5.714  0.00  0.00     0.017 A 
ATOM      5  C4  UNL d   1      -2.941   0.974   5.295  0.00  0.00     0.017 A 
ATOM      6  C5  UNL d   1      -1.861   0.094   5.164  0.00  0.00     0.034 A 
ATOM      7 Cl   UNL d   1      -2.671   2.640   4.925  0.00  0.00    -0.070 Cl
ATOM      8 Cl1  UNL d   1      -5.565   1.513   5.899  0.00  0.00    -0.070 Cl
ENDROOT
TORSDOF 0
ENDMDL
