MODEL 1
REMARK minimizedAffinity 7.93575096
REMARK minimizedRMSD -1
REMARK  1 active torsions:
REMARK  status: ('A' for Active; 'I' for Inactive)
REMARK    1  A    between atoms: C3_4  and  O_7 
ROOT
ATOM      1  C   UNL d   1       3.185  -1.789   0.423  0.00  0.00    -0.033 A 
ATOM      2  C1  UNL d   1       2.169  -1.878  -0.530  0.00  0.00     0.039 A 
ATOM      3  C2  UNL d   1       1.249  -0.838  -0.671  0.00  0.00    -0.080 A 
ATOM      4  C3  UNL d   1       1.357   0.285   0.145  0.00  0.00     0.150 A 
ATOM      5  C4  UNL d   1       2.370   0.382   1.094  0.00  0.00    -0.007 A 
ATOM      6  C5  UNL d   1       3.287  -0.658   1.234  0.00  0.00     0.039 A 
ENDROOT
BRANCH   4   7
ATOM      7  O   UNL d   1       0.480   1.324   0.047  0.00  0.00    -0.526 OA
ATOM      8  H5  UNL d   1      -0.182   1.105  -0.629  0.00  0.00     0.418 HD
ENDBRANCH   4   7
TORSDOF 1
ENDMDL
