MODEL 1
REMARK minimizedAffinity 0.36190176
REMARK minimizedRMSD -1
REMARK  1 active torsions:
REMARK  status: ('A' for Active; 'I' for Inactive)
REMARK    1  A    between atoms: C3_4  and  O_7 
ROOT
ATOM      1  C   UNL d   1       3.361  -1.233   0.765  0.00  0.00    -0.033 A 
ATOM      2  C1  UNL d   1       2.401  -0.977  -0.216  0.00  0.00     0.039 A 
ATOM      3  C2  UNL d   1       1.363  -1.885  -0.434  0.00  0.00    -0.080 A 
ATOM      4  C3  UNL d   1       1.296  -3.043   0.335  0.00  0.00     0.150 A 
ATOM      5  C4  UNL d   1       2.246  -3.303   1.317  0.00  0.00    -0.007 A 
ATOM      6  C5  UNL d   1       3.283  -2.396   1.532  0.00  0.00     0.039 A 
ENDROOT
BRANCH   4   7
ATOM      7  O   UNL d   1       0.304  -3.961   0.156  0.00  0.00    -0.526 OA
ATOM      8  H5  UNL d   1      -0.263  -3.663  -0.574  0.00  0.00     0.418 HD
ENDBRANCH   4   7
TORSDOF 1
ENDMDL
