MODEL 1
REMARK minimizedAffinity 4.74503946
REMARK minimizedRMSD -1
REMARK  1 active torsions:
REMARK  status: ('A' for Active; 'I' for Inactive)
REMARK    1  A    between atoms: C3_4  and  O_7 
ROOT
ATOM      1  C   UNL d   1       2.876  -1.239  -0.232  0.00  0.00    -0.033 A 
ATOM      2  C1  UNL d   1       2.197  -1.091  -1.443  0.00  0.00     0.039 A 
ATOM      3  C2  UNL d   1       1.022  -1.809  -1.679  0.00  0.00    -0.080 A 
ATOM      4  C3  UNL d   1       0.538  -2.668  -0.697  0.00  0.00     0.150 A 
ATOM      5  C4  UNL d   1       1.207  -2.817   0.514  0.00  0.00    -0.007 A 
ATOM      6  C5  UNL d   1       2.380  -2.101   0.747  0.00  0.00     0.039 A 
ENDROOT
BRANCH   4   7
ATOM      7  O   UNL d   1      -0.602  -3.393  -0.883  0.00  0.00    -0.526 OA
ATOM      8  H5  UNL d   1      -0.940  -3.210  -1.776  0.00  0.00     0.418 HD
ENDBRANCH   4   7
TORSDOF 1
ENDMDL
