MODEL 1
REMARK minimizedAffinity -0.168214291
REMARK minimizedRMSD -1
REMARK  1 active torsions:
REMARK  status: ('A' for Active; 'I' for Inactive)
REMARK    1  A    between atoms: C3_4  and  O_7 
ROOT
ATOM      1  C   UNL d   1      -4.551   1.360  -2.213  0.00  0.00    -0.033 A 
ATOM      2  C1  UNL d   1      -4.081   1.670  -3.490  0.00  0.00     0.039 A 
ATOM      3  C2  UNL d   1      -2.831   1.209  -3.908  0.00  0.00    -0.080 A 
ATOM      4  C3  UNL d   1      -2.063   0.438  -3.040  0.00  0.00     0.150 A 
ATOM      5  C4  UNL d   1      -2.526   0.122  -1.767  0.00  0.00    -0.007 A 
ATOM      6  C5  UNL d   1      -3.774   0.584  -1.351  0.00  0.00     0.039 A 
ENDROOT
BRANCH   4   7
ATOM      7  O   UNL d   1      -0.835  -0.031  -3.400  0.00  0.00    -0.526 OA
ATOM      8  H5  UNL d   1      -0.633   0.290  -4.295  0.00  0.00     0.418 HD
ENDBRANCH   4   7
TORSDOF 1
ENDMDL
