MODEL 1
REMARK minimizedAffinity 3.02715302
REMARK minimizedRMSD -1
REMARK  1 active torsions:
REMARK  status: ('A' for Active; 'I' for Inactive)
REMARK    1  A    between atoms: C3_4  and  O_7 
ROOT
ATOM      1  C   UNL d   1       3.419  -1.976   0.756  0.00  0.00    -0.033 A 
ATOM      2  C1  UNL d   1       3.005  -1.693  -0.547  0.00  0.00     0.039 A 
ATOM      3  C2  UNL d   1       2.401  -0.468  -0.839  0.00  0.00    -0.080 A 
ATOM      4  C3  UNL d   1       2.220   0.464   0.179  0.00  0.00     0.150 A 
ATOM      5  C4  UNL d   1       2.634   0.190   1.479  0.00  0.00    -0.007 A 
ATOM      6  C5  UNL d   1       3.236  -1.034   1.768  0.00  0.00     0.039 A 
ENDROOT
BRANCH   4   7
ATOM      7  O   UNL d   1       1.632   1.671  -0.056  0.00  0.00    -0.526 OA
ATOM      8  H5  UNL d   1       1.371   1.710  -0.991  0.00  0.00     0.418 HD
ENDBRANCH   4   7
TORSDOF 1
ENDMDL
