MODEL 1
REMARK minimizedAffinity 0.37436378
REMARK minimizedRMSD -1
REMARK  1 active torsions:
REMARK  status: ('A' for Active; 'I' for Inactive)
REMARK    1  A    between atoms: C3_4  and  O_7 
ROOT
ATOM      1  C   UNL d   1       4.111   1.013   0.706  0.00  0.00    -0.033 A 
ATOM      2  C1  UNL d   1       3.043   0.164   0.410  0.00  0.00     0.039 A 
ATOM      3  C2  UNL d   1       1.732   0.641   0.471  0.00  0.00    -0.080 A 
ATOM      4  C3  UNL d   1       1.504   1.967   0.828  0.00  0.00     0.150 A 
ATOM      5  C4  UNL d   1       2.563   2.819   1.120  0.00  0.00    -0.007 A 
ATOM      6  C5  UNL d   1       3.872   2.341   1.060  0.00  0.00     0.039 A 
ENDROOT
BRANCH   4   7
ATOM      7  O   UNL d   1       0.242   2.476   0.906  0.00  0.00    -0.526 OA
ATOM      8  H5  UNL d   1      -0.390   1.766   0.706  0.00  0.00     0.418 HD
ENDBRANCH   4   7
TORSDOF 1
ENDMDL
