MODEL 1
REMARK minimizedAffinity 5.96090889
REMARK minimizedRMSD -1
REMARK  1 active torsions:
REMARK  status: ('A' for Active; 'I' for Inactive)
REMARK    1  A    between atoms: C3_4  and  O_7 
ROOT
ATOM      1  C   UNL d   1       2.110   0.297   0.384  0.00  0.00    -0.033 A 
ATOM      2  C1  UNL d   1       1.063   1.203   0.202  0.00  0.00     0.039 A 
ATOM      3  C2  UNL d   1       0.259   1.124  -0.936  0.00  0.00    -0.080 A 
ATOM      4  C3  UNL d   1       0.511   0.136  -1.884  0.00  0.00     0.150 A 
ATOM      5  C4  UNL d   1       1.550  -0.772  -1.708  0.00  0.00    -0.007 A 
ATOM      6  C5  UNL d   1       2.352  -0.692  -0.570  0.00  0.00     0.039 A 
ENDROOT
BRANCH   4   7
ATOM      7  O   UNL d   1      -0.243   0.023  -3.014  0.00  0.00    -0.526 OA
ATOM      8  H5  UNL d   1      -0.905   0.735  -3.014  0.00  0.00     0.418 HD
ENDBRANCH   4   7
TORSDOF 1
ENDMDL
