MODEL 1
REMARK minimizedAffinity 6.73380995
REMARK minimizedRMSD -1
REMARK  0 active torsions:
REMARK  status: ('A' for Active; 'I' for Inactive)
ROOT
ATOM      1  C   UNL d   1       2.331  -1.060   3.686  0.00  0.00     0.124 A 
ATOM      2  C1  UNL d   1       1.953  -1.321   2.377  0.00  0.00     0.062 A 
ATOM      3  C2  UNL d   1       1.834  -0.278   1.462  0.00  0.00     0.162 A 
ATOM      4  C3  UNL d   1       2.095   1.035   1.854  0.00  0.00    -0.034 A 
ATOM      5  C4  UNL d   1       2.474   1.289   3.173  0.00  0.00     0.162 A 
ATOM      6  C5  UNL d   1       2.591   0.244   4.083  0.00  0.00     0.062 A 
ATOM      7  F   UNL d   1       2.957   0.497   5.348  0.00  0.00    -0.097 F 
ATOM      8  F1  UNL d   1       2.732   2.540   3.583  0.00  0.00    -0.096 F 
ATOM      9  I   UNL d   1       1.918   2.596   0.489  0.00  0.00    -0.060 I 
ATOM     10  F2  UNL d   1       1.467  -0.559   0.203  0.00  0.00    -0.096 F 
ATOM     11  F3  UNL d   1       1.701  -2.580   1.991  0.00  0.00    -0.097 F 
ATOM     12  F4  UNL d   1       2.444  -2.065   4.565  0.00  0.00    -0.092 F 
ENDROOT
TORSDOF 0
ENDMDL
