MODEL 1
REMARK minimizedAffinity 11.2642603
REMARK minimizedRMSD -1
REMARK  0 active torsions:
REMARK  status: ('A' for Active; 'I' for Inactive)
ROOT
ATOM      1  C   UNL d   1       2.321   1.920   1.526  0.00  0.00     0.124 A 
ATOM      2  C1  UNL d   1       1.420   2.155   0.498  0.00  0.00     0.062 A 
ATOM      3  C2  UNL d   1       0.467   1.195   0.169  0.00  0.00     0.162 A 
ATOM      4  C3  UNL d   1       0.411  -0.009   0.870  0.00  0.00    -0.034 A 
ATOM      5  C4  UNL d   1       1.321  -0.239   1.903  0.00  0.00     0.162 A 
ATOM      6  C5  UNL d   1       2.271   0.724   2.228  0.00  0.00     0.062 A 
ATOM      7  F   UNL d   1       3.142   0.495   3.222  0.00  0.00    -0.097 F 
ATOM      8  F1  UNL d   1       1.295  -1.386   2.598  0.00  0.00    -0.096 F 
ATOM      9  I   UNL d   1      -1.012  -1.447   0.381  0.00  0.00    -0.060 I 
ATOM     10  F2  UNL d   1      -0.391   1.449  -0.830  0.00  0.00    -0.096 F 
ATOM     11  F3  UNL d   1       1.467   3.310  -0.182  0.00  0.00    -0.097 F 
ATOM     12  F4  UNL d   1       3.237   2.845   1.840  0.00  0.00    -0.092 F 
ENDROOT
TORSDOF 0
ENDMDL
