MODEL 1
REMARK minimizedAffinity 20.319622
REMARK minimizedRMSD -1
REMARK  0 active torsions:
REMARK  status: ('A' for Active; 'I' for Inactive)
ROOT
ATOM      1  C   UNL d   1       0.235  -3.220  -1.252  0.00  0.00     0.124 A 
ATOM      2  C1  UNL d   1      -0.177  -2.544  -0.112  0.00  0.00     0.062 A 
ATOM      3  C2  UNL d   1       0.482  -1.387   0.293  0.00  0.00     0.162 A 
ATOM      4  C3  UNL d   1       1.560  -0.896  -0.444  0.00  0.00    -0.034 A 
ATOM      5  C4  UNL d   1       1.970  -1.582  -1.589  0.00  0.00     0.162 A 
ATOM      6  C5  UNL d   1       1.308  -2.738  -1.989  0.00  0.00     0.062 A 
ATOM      7  F   UNL d   1       1.708  -3.390  -3.091  0.00  0.00    -0.097 F 
ATOM      8  F1  UNL d   1       3.003  -1.138  -2.321  0.00  0.00    -0.096 F 
ATOM      9  I   UNL d   1       2.548   0.834   0.158  0.00  0.00    -0.060 I 
ATOM     10  F2  UNL d   1       0.062  -0.754   1.399  0.00  0.00    -0.096 F 
ATOM     11  F3  UNL d   1      -1.212  -3.008   0.603  0.00  0.00    -0.097 F 
ATOM     12  F4  UNL d   1      -0.400  -4.333  -1.638  0.00  0.00    -0.092 F 
ENDROOT
TORSDOF 0
ENDMDL
