MODEL 1
REMARK minimizedAffinity 18.5035725
REMARK minimizedRMSD -1
REMARK  0 active torsions:
REMARK  status: ('A' for Active; 'I' for Inactive)
ROOT
ATOM      1  C   UNL d   1       3.509  -3.620   4.609  0.00  0.00     0.124 A 
ATOM      2  C1  UNL d   1       4.547  -3.080   3.863  0.00  0.00     0.062 A 
ATOM      3  C2  UNL d   1       4.291  -2.081   2.927  0.00  0.00     0.162 A 
ATOM      4  C3  UNL d   1       2.991  -1.615   2.734  0.00  0.00    -0.034 A 
ATOM      5  C4  UNL d   1       1.952  -2.163   3.488  0.00  0.00     0.162 A 
ATOM      6  C5  UNL d   1       2.213  -3.161   4.422  0.00  0.00     0.062 A 
ATOM      7  F   UNL d   1       1.209  -3.682   5.142  0.00  0.00    -0.097 F 
ATOM      8  F1  UNL d   1       0.690  -1.738   3.328  0.00  0.00    -0.096 F 
ATOM      9  I   UNL d   1       2.604  -0.122   1.337  0.00  0.00    -0.060 I 
ATOM     10  F2  UNL d   1       5.313  -1.577   2.220  0.00  0.00    -0.096 F 
ATOM     11  F3  UNL d   1       5.801  -3.521   4.041  0.00  0.00    -0.097 F 
ATOM     12  F4  UNL d   1       3.759  -4.581   5.508  0.00  0.00    -0.092 F 
ENDROOT
TORSDOF 0
ENDMDL
