MODEL 1
REMARK minimizedAffinity 7.01964474
REMARK minimizedRMSD -1
REMARK  0 active torsions:
REMARK  status: ('A' for Active; 'I' for Inactive)
ROOT
ATOM      1  C   UNL d   1       1.790   0.354   1.758  0.00  0.00     0.124 A 
ATOM      2  C1  UNL d   1       0.845  -0.619   1.465  0.00  0.00     0.062 A 
ATOM      3  C2  UNL d   1      -0.138  -0.375   0.510  0.00  0.00     0.162 A 
ATOM      4  C3  UNL d   1      -0.181   0.848  -0.159  0.00  0.00    -0.034 A 
ATOM      5  C4  UNL d   1       0.772   1.822   0.141  0.00  0.00     0.162 A 
ATOM      6  C5  UNL d   1       1.753   1.574   1.096  0.00  0.00     0.062 A 
ATOM      7  F   UNL d   1       2.665   2.515   1.378  0.00  0.00    -0.097 F 
ATOM      8  F1  UNL d   1       0.760   3.009  -0.484  0.00  0.00    -0.096 F 
ATOM      9  I   UNL d   1      -1.649   1.217  -1.587  0.00  0.00    -0.060 I 
ATOM     10  F2  UNL d   1      -1.039  -1.334   0.247  0.00  0.00    -0.096 F 
ATOM     11  F3  UNL d   1       0.878  -1.797   2.104  0.00  0.00    -0.097 F 
ATOM     12  F4  UNL d   1       2.734   0.118   2.678  0.00  0.00    -0.092 F 
ENDROOT
TORSDOF 0
ENDMDL
