MODEL 1
REMARK minimizedAffinity 12.2101259
REMARK minimizedRMSD -1
REMARK  0 active torsions:
REMARK  status: ('A' for Active; 'I' for Inactive)
ROOT
ATOM      1  C   UNL d   1      -0.146   2.172   0.480  0.00  0.00     0.124 A 
ATOM      2  C1  UNL d   1       1.154   1.783   0.184  0.00  0.00     0.062 A 
ATOM      3  C2  UNL d   1       1.466   0.434   0.046  0.00  0.00     0.162 A 
ATOM      4  C3  UNL d   1       0.476  -0.537   0.202  0.00  0.00    -0.034 A 
ATOM      5  C4  UNL d   1      -0.828  -0.138   0.500  0.00  0.00     0.162 A 
ATOM      6  C5  UNL d   1      -1.135   1.212   0.637  0.00  0.00     0.062 A 
ATOM      7  F   UNL d   1      -2.390   1.586   0.922  0.00  0.00    -0.097 F 
ATOM      8  F1  UNL d   1      -1.803  -1.045   0.656  0.00  0.00    -0.096 F 
ATOM      9  I   UNL d   1       0.939  -2.556  -0.004  0.00  0.00    -0.060 I 
ATOM     10  F2  UNL d   1       2.730   0.086  -0.240  0.00  0.00    -0.096 F 
ATOM     11  F3  UNL d   1       2.111   2.709   0.033  0.00  0.00    -0.097 F 
ATOM     12  F4  UNL d   1      -0.443   3.471   0.613  0.00  0.00    -0.092 F 
ENDROOT
TORSDOF 0
ENDMDL
