MODEL 1
REMARK minimizedAffinity 10.0398378
REMARK minimizedRMSD -1
REMARK  0 active torsions:
REMARK  status: ('A' for Active; 'I' for Inactive)
ROOT
ATOM      1  C   UNL d   1       1.007  -0.816   1.496  0.00  0.00     0.124 A 
ATOM      2  C1  UNL d   1      -0.114  -0.379   0.804  0.00  0.00     0.062 A 
ATOM      3  C2  UNL d   1      -0.138   0.894   0.242  0.00  0.00     0.162 A 
ATOM      4  C3  UNL d   1       0.964   1.740   0.369  0.00  0.00    -0.034 A 
ATOM      5  C4  UNL d   1       2.088   1.294   1.067  0.00  0.00     0.162 A 
ATOM      6  C5  UNL d   1       2.107   0.020   1.627  0.00  0.00     0.062 A 
ATOM      7  F   UNL d   1       3.191  -0.400   2.295  0.00  0.00    -0.097 F 
ATOM      8  F1  UNL d   1       3.165   2.081   1.207  0.00  0.00    -0.096 F 
ATOM      9  I   UNL d   1       0.933   3.644  -0.471  0.00  0.00    -0.060 I 
ATOM     10  F2  UNL d   1      -1.234   1.290  -0.421  0.00  0.00    -0.096 F 
ATOM     11  F3  UNL d   1      -1.178  -1.185   0.677  0.00  0.00    -0.097 F 
ATOM     12  F4  UNL d   1       1.027  -2.041   2.037  0.00  0.00    -0.092 F 
ENDROOT
TORSDOF 0
ENDMDL
