MODEL 1
REMARK minimizedAffinity 3.79778671
REMARK minimizedRMSD -1
REMARK  0 active torsions:
REMARK  status: ('A' for Active; 'I' for Inactive)
ROOT
ATOM      1  C   UNL d   1      -0.971  -1.478   1.523  0.00  0.00     0.077 C 
ATOM      2  C1  UNL d   1      -1.439  -2.609   2.390  0.00  0.00    -0.074 A 
ATOM      3  C2  UNL d   1      -1.166  -3.937   2.048  0.00  0.00    -0.005 A 
ATOM      4  C3  UNL d   1      -1.600  -4.978   2.869  0.00  0.00     0.006 A 
ATOM      5  C4  UNL d   1      -2.310  -4.702   4.038  0.00  0.00    -0.005 A 
ATOM      6  C5  UNL d   1      -2.591  -3.379   4.397  0.00  0.00    -0.074 A 
ATOM      7  C6  UNL d   1      -3.345  -3.064   5.655  0.00  0.00     0.077 C 
ATOM      8  C7  UNL d   1      -2.146  -2.339   3.571  0.00  0.00    -0.001 A 
ENDROOT
TORSDOF 0
ENDMDL
