MODEL 1
REMARK minimizedAffinity 8.74786663
REMARK minimizedRMSD -1
REMARK  0 active torsions:
REMARK  status: ('A' for Active; 'I' for Inactive)
ROOT
ATOM      1  C   UNL d   1      -3.013   1.217   0.861  0.00  0.00     0.077 C 
ATOM      2  C1  UNL d   1      -2.434  -0.166   0.881  0.00  0.00    -0.074 A 
ATOM      3  C2  UNL d   1      -1.493  -0.565  -0.074  0.00  0.00    -0.005 A 
ATOM      4  C3  UNL d   1      -0.956  -1.852  -0.037  0.00  0.00     0.006 A 
ATOM      5  C4  UNL d   1      -1.354  -2.751   0.952  0.00  0.00    -0.005 A 
ATOM      6  C5  UNL d   1      -2.294  -2.370   1.916  0.00  0.00    -0.074 A 
ATOM      7  C6  UNL d   1      -2.725  -3.322   2.992  0.00  0.00     0.077 C 
ATOM      8  C7  UNL d   1      -2.823  -1.073   1.876  0.00  0.00    -0.001 A 
ENDROOT
TORSDOF 0
ENDMDL
