MODEL 1
REMARK minimizedAffinity 9.52113056
REMARK minimizedRMSD -1
REMARK  0 active torsions:
REMARK  status: ('A' for Active; 'I' for Inactive)
ROOT
ATOM      1  C   UNL d   1       4.302   4.479   1.217  0.00  0.00     0.077 C 
ATOM      2  C1  UNL d   1       4.778   4.676   2.626  0.00  0.00    -0.074 A 
ATOM      3  C2  UNL d   1       5.570   5.776   2.969  0.00  0.00    -0.005 A 
ATOM      4  C3  UNL d   1       5.998   5.952   4.285  0.00  0.00     0.006 A 
ATOM      5  C4  UNL d   1       5.639   5.030   5.270  0.00  0.00    -0.005 A 
ATOM      6  C5  UNL d   1       4.846   3.924   4.945  0.00  0.00    -0.074 A 
ATOM      7  C6  UNL d   1       4.443   2.930   5.993  0.00  0.00     0.077 C 
ATOM      8  C7  UNL d   1       4.415   3.759   3.622  0.00  0.00    -0.001 A 
ENDROOT
TORSDOF 0
ENDMDL
