MODEL 1
REMARK minimizedAffinity -4.37999105
REMARK minimizedRMSD -1
REMARK  0 active torsions:
REMARK  status: ('A' for Active; 'I' for Inactive)
ROOT
ATOM      1  C   UNL d   1      -0.791  -0.609  -0.048  0.00  0.00     0.077 C 
ATOM      2  C1  UNL d   1       0.134  -0.128   1.031  0.00  0.00    -0.074 A 
ATOM      3  C2  UNL d   1       1.520  -0.256   0.899  0.00  0.00    -0.005 A 
ATOM      4  C3  UNL d   1       2.368   0.205   1.906  0.00  0.00     0.006 A 
ATOM      5  C4  UNL d   1       1.839   0.796   3.054  0.00  0.00    -0.005 A 
ATOM      6  C5  UNL d   1       0.455   0.932   3.204  0.00  0.00    -0.074 A 
ATOM      7  C6  UNL d   1      -0.130   1.574   4.427  0.00  0.00     0.077 C 
ATOM      8  C7  UNL d   1      -0.390   0.474   2.184  0.00  0.00    -0.001 A 
ENDROOT
TORSDOF 0
ENDMDL
