MODEL 1
REMARK minimizedAffinity 8.79947186
REMARK minimizedRMSD -1
REMARK  0 active torsions:
REMARK  status: ('A' for Active; 'I' for Inactive)
ROOT
ATOM      1  C   UNL d   1       5.999   1.824  -1.859  0.00  0.00     0.077 C 
ATOM      2  C1  UNL d   1       4.593   2.322  -1.703  0.00  0.00    -0.074 A 
ATOM      3  C2  UNL d   1       4.316   3.467  -0.949  0.00  0.00    -0.005 A 
ATOM      4  C3  UNL d   1       3.004   3.924  -0.821  0.00  0.00     0.006 A 
ATOM      5  C4  UNL d   1       1.959   3.242  -1.444  0.00  0.00    -0.005 A 
ATOM      6  C5  UNL d   1       2.217   2.096  -2.203  0.00  0.00    -0.074 A 
ATOM      7  C6  UNL d   1       1.106   1.357  -2.887  0.00  0.00     0.077 C 
ATOM      8  C7  UNL d   1       3.538   1.647  -2.333  0.00  0.00    -0.001 A 
ENDROOT
TORSDOF 0
ENDMDL
