MODEL 1
REMARK minimizedAffinity -3.67248392
REMARK minimizedRMSD -1
REMARK  0 active torsions:
REMARK  status: ('A' for Active; 'I' for Inactive)
ROOT
ATOM      1  C   UNL d   1      -4.609   6.000  -2.260  0.00  0.00     0.077 C 
ATOM      2  C1  UNL d   1      -4.587   5.253  -3.560  0.00  0.00    -0.074 A 
ATOM      3  C2  UNL d   1      -5.775   4.894  -4.204  0.00  0.00    -0.005 A 
ATOM      4  C3  UNL d   1      -5.738   4.208  -5.418  0.00  0.00     0.006 A 
ATOM      5  C4  UNL d   1      -4.515   3.875  -6.000  0.00  0.00    -0.005 A 
ATOM      6  C5  UNL d   1      -3.316   4.227  -5.372  0.00  0.00    -0.074 A 
ATOM      7  C6  UNL d   1      -1.992   3.886  -5.988  0.00  0.00     0.077 C 
ATOM      8  C7  UNL d   1      -3.361   4.922  -4.155  0.00  0.00    -0.001 A 
ENDROOT
TORSDOF 0
ENDMDL
