MODEL 1
REMARK minimizedAffinity 21.4777489
REMARK minimizedRMSD -1
REMARK  0 active torsions:
REMARK  status: ('A' for Active; 'I' for Inactive)
ROOT
ATOM      1  C   UNL d   1      -1.120   0.996   5.167  0.00  0.00     0.077 C 
ATOM      2  C1  UNL d   1      -1.625   1.333   3.796  0.00  0.00    -0.074 A 
ATOM      3  C2  UNL d   1      -1.663   2.658   3.349  0.00  0.00    -0.005 A 
ATOM      4  C3  UNL d   1      -2.127   2.955   2.068  0.00  0.00     0.006 A 
ATOM      5  C4  UNL d   1      -2.558   1.932   1.222  0.00  0.00    -0.005 A 
ATOM      6  C5  UNL d   1      -2.527   0.601   1.651  0.00  0.00    -0.074 A 
ATOM      7  C6  UNL d   1      -2.977  -0.511   0.751  0.00  0.00     0.077 C 
ATOM      8  C7  UNL d   1      -2.052   0.310   2.937  0.00  0.00    -0.001 A 
ENDROOT
TORSDOF 0
ENDMDL
