MODEL 1
REMARK minimizedAffinity 12.7388391
REMARK minimizedRMSD -1
REMARK  0 active torsions:
REMARK  status: ('A' for Active; 'I' for Inactive)
ROOT
ATOM      1  C   UNL d   1      -1.485  -1.323  -1.898  0.00  0.00     0.077 C 
ATOM      2  C1  UNL d   1      -1.246  -1.526  -0.431  0.00  0.00    -0.074 A 
ATOM      3  C2  UNL d   1      -0.912  -0.451   0.399  0.00  0.00    -0.005 A 
ATOM      4  C3  UNL d   1      -0.702  -0.654   1.762  0.00  0.00     0.006 A 
ATOM      5  C4  UNL d   1      -0.823  -1.931   2.310  0.00  0.00    -0.005 A 
ATOM      6  C5  UNL d   1      -1.157  -3.019   1.496  0.00  0.00    -0.074 A 
ATOM      7  C6  UNL d   1      -1.300  -4.397   2.070  0.00  0.00     0.077 C 
ATOM      8  C7  UNL d   1      -1.373  -2.806   0.128  0.00  0.00    -0.001 A 
ENDROOT
TORSDOF 0
ENDMDL
