MODEL 1
REMARK minimizedAffinity 4.11390495
REMARK minimizedRMSD -1
REMARK  0 active torsions:
REMARK  status: ('A' for Active; 'I' for Inactive)
ROOT
ATOM      1  C   UNL d   1      -2.216  -2.569   1.670  0.00  0.00     0.077 C 
ATOM      2  C1  UNL d   1      -1.684  -1.486   0.779  0.00  0.00    -0.074 A 
ATOM      3  C2  UNL d   1      -0.882  -1.793  -0.325  0.00  0.00    -0.005 A 
ATOM      4  C3  UNL d   1      -0.403  -0.776  -1.151  0.00  0.00     0.006 A 
ATOM      5  C4  UNL d   1      -0.721   0.556  -0.881  0.00  0.00    -0.005 A 
ATOM      6  C5  UNL d   1      -1.522   0.882   0.218  0.00  0.00    -0.074 A 
ATOM      7  C6  UNL d   1      -1.881   2.307   0.516  0.00  0.00     0.077 C 
ATOM      8  C7  UNL d   1      -2.005  -0.147   1.039  0.00  0.00    -0.001 A 
ENDROOT
TORSDOF 0
ENDMDL
