MODEL 1
REMARK minimizedAffinity 6.03734064
REMARK minimizedRMSD -1
REMARK  0 active torsions:
REMARK  status: ('A' for Active; 'I' for Inactive)
ROOT
ATOM      1  C   UNL d   1      -5.889   5.990   3.324  0.00  0.00     0.077 C 
ATOM      2  C1  UNL d   1      -5.100   4.721   3.456  0.00  0.00    -0.074 A 
ATOM      3  C2  UNL d   1      -4.220   4.314   2.448  0.00  0.00    -0.005 A 
ATOM      4  C3  UNL d   1      -3.486   3.136   2.589  0.00  0.00     0.006 A 
ATOM      5  C4  UNL d   1      -3.624   2.355   3.737  0.00  0.00    -0.005 A 
ATOM      6  C5  UNL d   1      -4.499   2.746   4.755  0.00  0.00    -0.074 A 
ATOM      7  C6  UNL d   1      -4.652   1.924   6.000  0.00  0.00     0.077 C 
ATOM      8  C7  UNL d   1      -5.228   3.935   4.609  0.00  0.00    -0.001 A 
ENDROOT
TORSDOF 0
ENDMDL
