MODEL 1
REMARK minimizedAffinity 1.53404379
REMARK minimizedRMSD -1
REMARK  0 active torsions:
REMARK  status: ('A' for Active; 'I' for Inactive)
ROOT
ATOM      1  C   UNL d   1      -6.000   4.502   5.710  0.00  0.00     0.077 C 
ATOM      2  C1  UNL d   1      -4.930   4.160   4.716  0.00  0.00    -0.074 A 
ATOM      3  C2  UNL d   1      -3.597   4.515   4.944  0.00  0.00    -0.005 A 
ATOM      4  C3  UNL d   1      -2.611   4.182   4.015  0.00  0.00     0.006 A 
ATOM      5  C4  UNL d   1      -2.948   3.490   2.851  0.00  0.00    -0.005 A 
ATOM      6  C5  UNL d   1      -4.276   3.126   2.606  0.00  0.00    -0.074 A 
ATOM      7  C6  UNL d   1      -4.653   2.374   1.365  0.00  0.00     0.077 C 
ATOM      8  C7  UNL d   1      -5.259   3.459   3.548  0.00  0.00    -0.001 A 
ENDROOT
TORSDOF 0
ENDMDL
