MODEL 1
REMARK minimizedAffinity 0.407953471
REMARK minimizedRMSD -1
REMARK  0 active torsions:
REMARK  status: ('A' for Active; 'I' for Inactive)
ROOT
ATOM      1  C   UNL d   1      -4.100   5.998  -2.713  0.00  0.00     0.077 C 
ATOM      2  C1  UNL d   1      -3.428   5.104  -3.713  0.00  0.00    -0.074 A 
ATOM      3  C2  UNL d   1      -3.682   5.237  -5.082  0.00  0.00    -0.005 A 
ATOM      4  C3  UNL d   1      -3.041   4.406  -6.000  0.00  0.00     0.006 A 
ATOM      5  C4  UNL d   1      -2.142   3.434  -5.559  0.00  0.00    -0.005 A 
ATOM      6  C5  UNL d   1      -1.874   3.287  -4.195  0.00  0.00    -0.074 A 
ATOM      7  C6  UNL d   1      -0.903   2.254  -3.705  0.00  0.00     0.077 C 
ATOM      8  C7  UNL d   1      -2.517   4.131  -3.279  0.00  0.00    -0.001 A 
ENDROOT
TORSDOF 0
ENDMDL
