MODEL 1
REMARK minimizedAffinity -1.65006769
REMARK minimizedRMSD -1
REMARK  0 active torsions:
REMARK  status: ('A' for Active; 'I' for Inactive)
ROOT
ATOM      1  C   UNL d   1      -2.129   3.527  -4.870  0.00  0.00     0.077 C 
ATOM      2  C1  UNL d   1      -3.383   4.349  -4.839  0.00  0.00    -0.074 A 
ATOM      3  C2  UNL d   1      -3.875   4.954  -6.000  0.00  0.00    -0.005 A 
ATOM      4  C3  UNL d   1      -5.048   5.707  -5.957  0.00  0.00     0.006 A 
ATOM      5  C4  UNL d   1      -5.740   5.863  -4.755  0.00  0.00    -0.005 A 
ATOM      6  C5  UNL d   1      -5.263   5.265  -3.584  0.00  0.00    -0.074 A 
ATOM      7  C6  UNL d   1      -6.000   5.414  -2.286  0.00  0.00     0.077 C 
ATOM      8  C7  UNL d   1      -4.088   4.503  -3.637  0.00  0.00    -0.001 A 
ENDROOT
TORSDOF 0
ENDMDL
