MODEL 1
REMARK minimizedAffinity 10.8801117
REMARK minimizedRMSD -1
REMARK  0 active torsions:
REMARK  status: ('A' for Active; 'I' for Inactive)
ROOT
ATOM      1  C   UNL d   1      -0.290   0.000  -2.181  0.00  0.00     0.077 C 
ATOM      2  C1  UNL d   1      -0.750  -0.375  -0.804  0.00  0.00    -0.074 A 
ATOM      3  C2  UNL d   1      -1.744   0.362  -0.152  0.00  0.00    -0.005 A 
ATOM      4  C3  UNL d   1      -2.168  -0.005   1.125  0.00  0.00     0.006 A 
ATOM      5  C4  UNL d   1      -1.604  -1.111   1.762  0.00  0.00    -0.005 A 
ATOM      6  C5  UNL d   1      -0.610  -1.861   1.126  0.00  0.00    -0.074 A 
ATOM      7  C6  UNL d   1      -0.001  -3.058   1.792  0.00  0.00     0.077 C 
ATOM      8  C7  UNL d   1      -0.194  -1.490  -0.160  0.00  0.00    -0.001 A 
ENDROOT
TORSDOF 0
ENDMDL
