MODEL 1
REMARK minimizedAffinity 11.0973263
REMARK minimizedRMSD -1
REMARK  0 active torsions:
REMARK  status: ('A' for Active; 'I' for Inactive)
ROOT
ATOM      1  C   UNL d   1      -1.620  -2.175  -2.780  0.00  0.00     0.077 C 
ATOM      2  C1  UNL d   1      -1.338  -2.099  -1.309  0.00  0.00    -0.074 A 
ATOM      3  C2  UNL d   1      -0.874  -0.916  -0.726  0.00  0.00    -0.005 A 
ATOM      4  C3  UNL d   1      -0.625  -0.858   0.645  0.00  0.00     0.006 A 
ATOM      5  C4  UNL d   1      -0.837  -1.981   1.446  0.00  0.00    -0.005 A 
ATOM      6  C5  UNL d   1      -1.302  -3.173   0.881  0.00  0.00    -0.074 A 
ATOM      7  C6  UNL d   1      -1.545  -4.386   1.729  0.00  0.00     0.077 C 
ATOM      8  C7  UNL d   1      -1.557  -3.221  -0.497  0.00  0.00    -0.001 A 
ENDROOT
TORSDOF 0
ENDMDL
