MODEL 1
REMARK minimizedAffinity 4.62813044
REMARK minimizedRMSD -1
REMARK  0 active torsions:
REMARK  status: ('A' for Active; 'I' for Inactive)
ROOT
ATOM      1  C   UNL d   1       2.394   0.757  -1.935  0.00  0.00     0.077 C 
ATOM      2  C1  UNL d   1       1.050   0.809  -2.599  0.00  0.00    -0.074 A 
ATOM      3  C2  UNL d   1       0.015  -0.041  -2.196  0.00  0.00    -0.005 A 
ATOM      4  C3  UNL d   1      -1.232   0.026  -2.817  0.00  0.00     0.006 A 
ATOM      5  C4  UNL d   1      -1.457   0.943  -3.845  0.00  0.00    -0.005 A 
ATOM      6  C5  UNL d   1      -0.435   1.801  -4.261  0.00  0.00    -0.074 A 
ATOM      7  C6  UNL d   1      -0.662   2.799  -5.358  0.00  0.00     0.077 C 
ATOM      8  C7  UNL d   1       0.814   1.733  -3.628  0.00  0.00    -0.001 A 
ENDROOT
TORSDOF 0
ENDMDL
