MODEL 1
REMARK minimizedAffinity -1.46004426
REMARK minimizedRMSD -1
REMARK  0 active torsions:
REMARK  status: ('A' for Active; 'I' for Inactive)
ROOT
ATOM      1  C   UNL d   1      -4.964   5.917   5.930  0.00  0.00     0.077 C 
ATOM      2  C1  UNL d   1      -4.865   4.422   5.854  0.00  0.00    -0.074 A 
ATOM      3  C2  UNL d   1      -6.000   3.618   5.999  0.00  0.00    -0.005 A 
ATOM      4  C3  UNL d   1      -5.894   2.230   5.916  0.00  0.00     0.006 A 
ATOM      5  C4  UNL d   1      -4.653   1.632   5.689  0.00  0.00    -0.005 A 
ATOM      6  C5  UNL d   1      -3.507   2.420   5.541  0.00  0.00    -0.074 A 
ATOM      7  C6  UNL d   1      -2.168   1.795   5.286  0.00  0.00     0.077 C 
ATOM      8  C7  UNL d   1      -3.623   3.815   5.618  0.00  0.00    -0.001 A 
ENDROOT
TORSDOF 0
ENDMDL
