MODEL 1
REMARK minimizedAffinity 8.22349834
REMARK minimizedRMSD -1
REMARK  0 active torsions:
REMARK  status: ('A' for Active; 'I' for Inactive)
ROOT
ATOM      1  C   UNL d   1       5.996   1.793  -1.823  0.00  0.00     0.077 C 
ATOM      2  C1  UNL d   1       4.983   2.716  -1.215  0.00  0.00    -0.074 A 
ATOM      3  C2  UNL d   1       3.877   3.154  -1.951  0.00  0.00    -0.005 A 
ATOM      4  C3  UNL d   1       2.937   4.006  -1.369  0.00  0.00     0.006 A 
ATOM      5  C4  UNL d   1       3.094   4.427  -0.047  0.00  0.00    -0.005 A 
ATOM      6  C5  UNL d   1       4.193   3.998   0.704  0.00  0.00    -0.074 A 
ATOM      7  C6  UNL d   1       4.371   4.434   2.128  0.00  0.00     0.077 C 
ATOM      8  C7  UNL d   1       5.129   3.138   0.114  0.00  0.00    -0.001 A 
ENDROOT
TORSDOF 0
ENDMDL
