MODEL 1
REMARK minimizedAffinity -5.85235882
REMARK minimizedRMSD -1
REMARK  1 active torsions:
REMARK  status: ('A' for Active; 'I' for Inactive)
REMARK    1  A    between atoms: C1_2  and  C2_3 
ROOT
ATOM      1  C2  UNL d   1      -1.105   0.194   0.547  0.00  0.00    -0.077 A 
ATOM      2  C3  UNL d   1      -2.389   0.270   1.105  0.00  0.00     0.002 A 
ATOM      3  C4  UNL d   1      -3.034  -0.885   1.552  0.00  0.00     0.002 A 
ATOM      4  C5  UNL d   1      -2.403  -2.122   1.449  0.00  0.00    -0.004 A 
ATOM      5  C6  UNL d   1      -1.127  -2.209   0.893  0.00  0.00     0.002 A 
ATOM      6  C7  UNL d   1      -0.481  -1.056   0.445  0.00  0.00     0.002 A 
ENDROOT
BRANCH   1   7
ATOM      7  C1  UNL d   1      -0.388   1.444   0.109  0.00  0.00     0.055 C 
ATOM      8  C   UNL d   1       0.846   1.114  -0.718  0.00  0.00     0.019 C 
ENDBRANCH   1   7
TORSDOF 1
ENDMDL
