MODEL 1
REMARK minimizedAffinity -5.4230504
REMARK minimizedRMSD -1
REMARK  1 active torsions:
REMARK  status: ('A' for Active; 'I' for Inactive)
REMARK    1  A    between atoms: C1_2  and  C2_3 
ROOT
ATOM      1  C2  UNL d   1      -0.478  -0.005   0.318  0.00  0.00    -0.077 A 
ATOM      2  C3  UNL d   1      -1.726  -0.273   0.897  0.00  0.00     0.002 A 
ATOM      3  C4  UNL d   1      -2.052  -1.567   1.307  0.00  0.00     0.002 A 
ATOM      4  C5  UNL d   1      -1.133  -2.602   1.147  0.00  0.00    -0.004 A 
ATOM      5  C6  UNL d   1       0.110  -2.347   0.570  0.00  0.00     0.002 A 
ATOM      6  C7  UNL d   1       0.437  -1.054   0.158  0.00  0.00     0.002 A 
ENDROOT
BRANCH   1   7
ATOM      7  C1  UNL d   1      -0.106   1.399  -0.080  0.00  0.00     0.055 C 
ATOM      8  C   UNL d   1       0.640   1.419  -1.407  0.00  0.00     0.019 C 
ENDBRANCH   1   7
TORSDOF 1
ENDMDL
