MODEL 1
REMARK minimizedAffinity -0.658898413
REMARK minimizedRMSD -1
REMARK  1 active torsions:
REMARK  status: ('A' for Active; 'I' for Inactive)
REMARK    1  A    between atoms: C1_2  and  C2_3 
ROOT
ATOM      1  C2  UNL d   1      -1.319  -0.609   0.150  0.00  0.00    -0.077 A 
ATOM      2  C3  UNL d   1      -2.204  -1.668   0.395  0.00  0.00     0.002 A 
ATOM      3  C4  UNL d   1      -1.750  -2.844   0.996  0.00  0.00     0.002 A 
ATOM      4  C5  UNL d   1      -0.412  -2.970   1.361  0.00  0.00    -0.004 A 
ATOM      5  C6  UNL d   1       0.477  -1.923   1.119  0.00  0.00     0.002 A 
ATOM      6  C7  UNL d   1       0.026  -0.748   0.517  0.00  0.00     0.002 A 
ENDROOT
BRANCH   1   7
ATOM      7  C1  UNL d   1      -1.817   0.678  -0.453  0.00  0.00     0.055 C 
ATOM      8  C   UNL d   1      -2.515   1.543   0.586  0.00  0.00     0.019 C 
ENDBRANCH   1   7
TORSDOF 1
ENDMDL
