MODEL 1
REMARK minimizedAffinity -4.49455595
REMARK minimizedRMSD -1
REMARK  1 active torsions:
REMARK  status: ('A' for Active; 'I' for Inactive)
REMARK    1  A    between atoms: C1_2  and  C2_3 
ROOT
ATOM      1  C2  UNL d   1      -0.506  -1.611   0.375  0.00  0.00    -0.077 A 
ATOM      2  C3  UNL d   1      -1.556  -0.690   0.257  0.00  0.00     0.002 A 
ATOM      3  C4  UNL d   1      -1.327   0.578  -0.282  0.00  0.00     0.002 A 
ATOM      4  C5  UNL d   1      -0.050   0.934  -0.711  0.00  0.00    -0.004 A 
ATOM      5  C6  UNL d   1       1.001   0.026  -0.596  0.00  0.00     0.002 A 
ATOM      6  C7  UNL d   1       0.775  -1.241  -0.057  0.00  0.00     0.002 A 
ENDROOT
BRANCH   1   7
ATOM      7  C1  UNL d   1      -0.761  -2.996   0.910  0.00  0.00     0.055 C 
ATOM      8  C   UNL d   1      -2.127  -3.090   1.573  0.00  0.00     0.019 C 
ENDBRANCH   1   7
TORSDOF 1
ENDMDL
