MODEL 1
REMARK minimizedAffinity -2.95596886
REMARK minimizedRMSD -1
REMARK  1 active torsions:
REMARK  status: ('A' for Active; 'I' for Inactive)
REMARK    1  A    between atoms: C1_2  and  C2_3 
ROOT
ATOM      1  C2  UNL d   1      -0.559  -1.222   0.953  0.00  0.00    -0.077 A 
ATOM      2  C3  UNL d   1       0.683  -0.807   0.452  0.00  0.00     0.002 A 
ATOM      3  C4  UNL d   1       0.919   0.542   0.180  0.00  0.00     0.002 A 
ATOM      4  C5  UNL d   1      -0.079   1.486   0.409  0.00  0.00    -0.004 A 
ATOM      5  C6  UNL d   1      -1.319   1.083   0.904  0.00  0.00     0.002 A 
ATOM      6  C7  UNL d   1      -1.557  -0.265   1.176  0.00  0.00     0.002 A 
ENDROOT
BRANCH   1   7
ATOM      7  C1  UNL d   1      -0.800  -2.670   1.293  0.00  0.00     0.055 C 
ATOM      8  C   UNL d   1      -2.280  -3.016   1.225  0.00  0.00     0.019 C 
ENDBRANCH   1   7
TORSDOF 1
ENDMDL
