MODEL 1
REMARK minimizedAffinity -6.23078823
REMARK minimizedRMSD -1
REMARK  1 active torsions:
REMARK  status: ('A' for Active; 'I' for Inactive)
REMARK    1  A    between atoms: C1_2  and  C2_3 
ROOT
ATOM      1  C2  UNL d   1      -0.022   0.085   0.028  0.00  0.00    -0.077 A 
ATOM      2  C3  UNL d   1      -1.306  -0.349   0.389  0.00  0.00     0.002 A 
ATOM      3  C4  UNL d   1      -1.520  -1.671   0.781  0.00  0.00     0.002 A 
ATOM      4  C5  UNL d   1      -0.456  -2.569   0.821  0.00  0.00    -0.004 A 
ATOM      5  C6  UNL d   1       0.824  -2.148   0.462  0.00  0.00     0.002 A 
ATOM      6  C7  UNL d   1       1.040  -0.827   0.068  0.00  0.00     0.002 A 
ENDROOT
BRANCH   1   7
ATOM      7  C1  UNL d   1       0.220   1.523  -0.349  0.00  0.00     0.055 C 
ATOM      8  C   UNL d   1       0.568   1.658  -1.824  0.00  0.00     0.019 C 
ENDBRANCH   1   7
TORSDOF 1
ENDMDL
