MODEL 1
REMARK minimizedAffinity -5.38222885
REMARK minimizedRMSD -1
REMARK  1 active torsions:
REMARK  status: ('A' for Active; 'I' for Inactive)
REMARK    1  A    between atoms: C1_2  and  C2_3 
ROOT
ATOM      1  C2  UNL d   1       0.564   0.435  -0.025  0.00  0.00    -0.077 A 
ATOM      2  C3  UNL d   1       1.144  -0.836   0.093  0.00  0.00     0.002 A 
ATOM      3  C4  UNL d   1       0.417  -1.896   0.638  0.00  0.00     0.002 A 
ATOM      4  C5  UNL d   1      -0.895  -1.697   1.064  0.00  0.00    -0.004 A 
ATOM      5  C6  UNL d   1      -1.480  -0.437   0.952  0.00  0.00     0.002 A 
ATOM      6  C7  UNL d   1      -0.754   0.624   0.409  0.00  0.00     0.002 A 
ENDROOT
BRANCH   1   7
ATOM      7  C1  UNL d   1       1.330   1.567  -0.658  0.00  0.00     0.055 C 
ATOM      8  C   UNL d   1       1.014   1.689  -2.141  0.00  0.00     0.019 C 
ENDBRANCH   1   7
TORSDOF 1
ENDMDL
