MODEL 1
REMARK minimizedAffinity -4.61139822
REMARK minimizedRMSD -1
REMARK  1 active torsions:
REMARK  status: ('A' for Active; 'I' for Inactive)
REMARK    1  A    between atoms: C1_2  and  C2_3 
ROOT
ATOM      1  C2  UNL d   1      -0.771  -0.840   0.481  0.00  0.00    -0.077 A 
ATOM      2  C3  UNL d   1       0.442  -0.316   0.011  0.00  0.00     0.002 A 
ATOM      3  C4  UNL d   1       0.659   1.063   0.005  0.00  0.00     0.002 A 
ATOM      4  C5  UNL d   1      -0.328   1.929   0.470  0.00  0.00    -0.004 A 
ATOM      5  C6  UNL d   1      -1.538   1.417   0.938  0.00  0.00     0.002 A 
ATOM      6  C7  UNL d   1      -1.758   0.039   0.944  0.00  0.00     0.002 A 
ENDROOT
BRANCH   1   7
ATOM      7  C1  UNL d   1      -0.989  -2.329   0.535  0.00  0.00     0.055 C 
ATOM      8  C   UNL d   1      -2.208  -2.680   1.375  0.00  0.00     0.019 C 
ENDBRANCH   1   7
TORSDOF 1
ENDMDL
