MODEL 1
REMARK minimizedAffinity -0.825072646
REMARK minimizedRMSD -1
REMARK  1 active torsions:
REMARK  status: ('A' for Active; 'I' for Inactive)
REMARK    1  A    between atoms: N_2  and  C1_3 
ROOT
ATOM      1  C1  UNL d   1       3.073   6.000   3.480  0.00  0.00     0.143 A 
ATOM      2  C2  UNL d   1       1.674   5.975   3.446  0.00  0.00    -0.057 A 
ATOM      3  C3  UNL d   1       0.918   5.989   4.624  0.00  0.00     0.033 A 
ATOM      4  C4  UNL d   1       1.551   6.000   5.863  0.00  0.00    -0.042 A 
ATOM      5  C5  UNL d   1       2.940   6.000   5.922  0.00  0.00     0.033 A 
ATOM      6  C6  UNL d   1       3.689   5.992   4.742  0.00  0.00    -0.057 A 
ENDROOT
BRANCH   1   7
ATOM      7  N   UNL d   1       3.881   5.887   2.347  0.00  0.00    -0.732 N 
ATOM      8  C   UNL d   1       4.910   4.872   2.272  0.00  0.00     0.284 C 
ATOM      9  H3  UNL d   1       3.358   6.013   1.483  0.00  0.00     0.395 HD
ENDBRANCH   1   7
TORSDOF 1
ENDMDL
