MODEL 1
REMARK minimizedAffinity -3.89484262
REMARK minimizedRMSD -1
REMARK  1 active torsions:
REMARK  status: ('A' for Active; 'I' for Inactive)
REMARK    1  A    between atoms: N_2  and  C1_3 
ROOT
ATOM      1  C1  UNL d   1       0.122  -0.025  -0.063  0.00  0.00     0.143 A 
ATOM      2  C2  UNL d   1      -0.577   0.033   1.147  0.00  0.00    -0.057 A 
ATOM      3  C3  UNL d   1      -0.073  -0.568   2.307  0.00  0.00     0.033 A 
ATOM      4  C4  UNL d   1       1.130  -1.265   2.270  0.00  0.00    -0.042 A 
ATOM      5  C5  UNL d   1       1.830  -1.357   1.072  0.00  0.00     0.033 A 
ATOM      6  C6  UNL d   1       1.325  -0.749  -0.081  0.00  0.00    -0.057 A 
ENDROOT
BRANCH   1   7
ATOM      7  N   UNL d   1      -0.373   0.468  -1.273  0.00  0.00    -0.732 N 
ATOM      8  C   UNL d   1      -0.363   1.888  -1.550  0.00  0.00     0.284 C 
ATOM      9  H3  UNL d   1      -0.109  -0.112  -2.066  0.00  0.00     0.395 HD
ENDBRANCH   1   7
TORSDOF 1
ENDMDL
