MODEL 1
REMARK minimizedAffinity -4.8643384
REMARK minimizedRMSD -1
REMARK  1 active torsions:
REMARK  status: ('A' for Active; 'I' for Inactive)
REMARK    1  A    between atoms: N_2  and  C1_3 
ROOT
ATOM      1  C1  UNL d   1       0.846  -0.747   0.070  0.00  0.00     0.143 A 
ATOM      2  C2  UNL d   1       0.249  -0.373   1.278  0.00  0.00    -0.057 A 
ATOM      3  C3  UNL d   1       0.742  -0.834   2.505  0.00  0.00     0.033 A 
ATOM      4  C4  UNL d   1       1.828  -1.702   2.544  0.00  0.00    -0.042 A 
ATOM      5  C5  UNL d   1       2.422  -2.107   1.354  0.00  0.00     0.033 A 
ATOM      6  C6  UNL d   1       1.929  -1.638   0.132  0.00  0.00    -0.057 A 
ENDROOT
BRANCH   1   7
ATOM      7  N   UNL d   1       0.343  -0.402  -1.186  0.00  0.00    -0.732 N 
ATOM      8  C   UNL d   1      -0.974   0.184  -1.317  0.00  0.00     0.284 C 
ATOM      9  H3  UNL d   1       1.048   0.023  -1.784  0.00  0.00     0.395 HD
ENDBRANCH   1   7
TORSDOF 1
ENDMDL
