MODEL 1
REMARK minimizedAffinity -4.04549789
REMARK minimizedRMSD -1
REMARK  1 active torsions:
REMARK  status: ('A' for Active; 'I' for Inactive)
REMARK    1  A    between atoms: N_2  and  C1_3 
ROOT
ATOM      1  C1  UNL d   1      -0.196  -0.356  -0.113  0.00  0.00     0.143 A 
ATOM      2  C2  UNL d   1      -0.807   0.002   1.093  0.00  0.00    -0.057 A 
ATOM      3  C3  UNL d   1      -0.300  -0.436   2.323  0.00  0.00     0.033 A 
ATOM      4  C4  UNL d   1       0.815  -1.267   2.365  0.00  0.00    -0.042 A 
ATOM      5  C5  UNL d   1       1.424  -1.655   1.177  0.00  0.00     0.033 A 
ATOM      6  C6  UNL d   1       0.917  -1.209  -0.047  0.00  0.00    -0.057 A 
ENDROOT
BRANCH   1   7
ATOM      7  N   UNL d   1      -0.710  -0.033  -1.371  0.00  0.00    -0.732 N 
ATOM      8  C   UNL d   1      -0.527   1.291  -1.925  0.00  0.00     0.284 C 
ATOM      9  H3  UNL d   1      -0.589  -0.786  -2.045  0.00  0.00     0.395 HD
ENDBRANCH   1   7
TORSDOF 1
ENDMDL
