MODEL 1
REMARK minimizedAffinity -4.69798326
REMARK minimizedRMSD -1
REMARK  1 active torsions:
REMARK  status: ('A' for Active; 'I' for Inactive)
REMARK    1  A    between atoms: N_2  and  C1_3 
ROOT
ATOM      1  C1  UNL d   1       0.091  -0.623   0.126  0.00  0.00     0.143 A 
ATOM      2  C2  UNL d   1      -0.481  -0.963   1.357  0.00  0.00    -0.057 A 
ATOM      3  C3  UNL d   1       0.276  -0.957   2.535  0.00  0.00     0.033 A 
ATOM      4  C4  UNL d   1       1.629  -0.637   2.498  0.00  0.00    -0.042 A 
ATOM      5  C5  UNL d   1       2.224  -0.320   1.282  0.00  0.00     0.033 A 
ATOM      6  C6  UNL d   1       1.461  -0.322   0.110  0.00  0.00    -0.057 A 
ENDROOT
BRANCH   1   7
ATOM      7  N   UNL d   1      -0.584  -0.706  -1.095  0.00  0.00    -0.732 N 
ATOM      8  C   UNL d   1      -0.438  -1.872  -1.940  0.00  0.00     0.284 C 
ATOM      9  H3  UNL d   1      -1.536  -0.351  -1.037  0.00  0.00     0.395 HD
ENDBRANCH   1   7
TORSDOF 1
ENDMDL
