MODEL 1
REMARK minimizedAffinity 19.6675777
REMARK minimizedRMSD -1
REMARK  0 active torsions:
REMARK  status: ('A' for Active; 'I' for Inactive)
ROOT
ATOM      1  C   UNL d   1       5.219   5.362   5.209  0.00  0.00    -0.002 A 
ATOM      2  C1  UNL d   1       5.236   5.183   3.833  0.00  0.00     0.010 A 
ATOM      3  C2  UNL d   1       4.317   4.331   3.217  0.00  0.00     0.041 A 
ATOM      4  C3  UNL d   1       3.370   3.658   4.014  0.00  0.00    -0.075 A 
ATOM      5  S   UNL d   1       2.148   2.567   3.478  0.00  0.00     0.015 SA
ATOM      6  C4  UNL d   1       1.573   2.314   5.062  0.00  0.00     0.022 A 
ATOM      7  C5  UNL d   1       2.285   3.037   5.990  0.00  0.00     0.026 A 
ATOM      8  C6  UNL d   1       3.332   3.824   5.401  0.00  0.00    -0.082 A 
ATOM      9  C7  UNL d   1       4.278   4.693   5.997  0.00  0.00     0.045 A 
ENDROOT
TORSDOF 0
ENDMDL
