MODEL 1
REMARK minimizedAffinity 15.6446114
REMARK minimizedRMSD -1
REMARK  0 active torsions:
REMARK  status: ('A' for Active; 'I' for Inactive)
ROOT
ATOM      1  C   UNL d   1       5.845   5.737   2.901  0.00  0.00    -0.002 A 
ATOM      2  C1  UNL d   1       5.148   4.991   1.961  0.00  0.00     0.010 A 
ATOM      3  C2  UNL d   1       4.095   4.161   2.352  0.00  0.00     0.041 A 
ATOM      4  C3  UNL d   1       3.751   4.094   3.717  0.00  0.00    -0.075 A 
ATOM      5  S   UNL d   1       2.497   3.147   4.427  0.00  0.00     0.015 SA
ATOM      6  C4  UNL d   1       2.857   3.711   5.994  0.00  0.00     0.022 A 
ATOM      7  C5  UNL d   1       3.905   4.601   5.994  0.00  0.00     0.026 A 
ATOM      8  C6  UNL d   1       4.437   4.836   4.681  0.00  0.00    -0.082 A 
ATOM      9  C7  UNL d   1       5.500   5.668   4.253  0.00  0.00     0.045 A 
ENDROOT
TORSDOF 0
ENDMDL
