MODEL 1
REMARK minimizedAffinity 9.8190527
REMARK minimizedRMSD -1
REMARK  0 active torsions:
REMARK  status: ('A' for Active; 'I' for Inactive)
ROOT
ATOM      1  C   UNL d   1      -0.610  -2.569  -2.893  0.00  0.00    -0.002 A 
ATOM      2  C1  UNL d   1      -0.827  -1.258  -3.292  0.00  0.00     0.010 A 
ATOM      3  C2  UNL d   1      -0.667  -0.206  -2.388  0.00  0.00     0.041 A 
ATOM      4  C3  UNL d   1      -0.280  -0.496  -1.065  0.00  0.00    -0.075 A 
ATOM      5  S   UNL d   1      -0.023   0.630   0.215  0.00  0.00     0.015 SA
ATOM      6  C4  UNL d   1       0.381  -0.603   1.320  0.00  0.00     0.022 A 
ATOM      7  C5  UNL d   1       0.326  -1.850   0.743  0.00  0.00     0.026 A 
ATOM      8  C6  UNL d   1      -0.055  -1.809  -0.640  0.00  0.00    -0.082 A 
ATOM      9  C7  UNL d   1      -0.227  -2.854  -1.580  0.00  0.00     0.045 A 
ENDROOT
TORSDOF 0
ENDMDL
