MODEL 1
REMARK minimizedAffinity 5.44403744
REMARK minimizedRMSD -1
REMARK  0 active torsions:
REMARK  status: ('A' for Active; 'I' for Inactive)
ROOT
ATOM      1  C   UNL d   1       0.970   2.835   0.713  0.00  0.00    -0.002 A 
ATOM      2  C1  UNL d   1       0.277   2.485   1.863  0.00  0.00     0.010 A 
ATOM      3  C2  UNL d   1      -0.381   1.257   1.949  0.00  0.00     0.041 A 
ATOM      4  C3  UNL d   1      -0.330   0.377   0.850  0.00  0.00    -0.075 A 
ATOM      5  S   UNL d   1      -1.060  -1.180   0.729  0.00  0.00     0.015 SA
ATOM      6  C4  UNL d   1      -0.469  -1.416  -0.852  0.00  0.00     0.022 A 
ATOM      7  C5  UNL d   1       0.269  -0.344  -1.293  0.00  0.00     0.026 A 
ATOM      8  C6  UNL d   1       0.362   0.708  -0.319  0.00  0.00    -0.082 A 
ATOM      9  C7  UNL d   1       1.019   1.961  -0.376  0.00  0.00     0.045 A 
ENDROOT
TORSDOF 0
ENDMDL
