MODEL 1
REMARK minimizedAffinity 4.67496824
REMARK minimizedRMSD -1
REMARK  1 active torsions:
REMARK  status: ('A' for Active; 'I' for Inactive)
REMARK    1  A    between atoms: C3_4  and  O_7 
ROOT
ATOM      1  C   UNL d   1       5.241  -4.172  -0.087  0.00  0.00    -0.033 A 
ATOM      2  C1  UNL d   1       5.822  -3.102  -0.771  0.00  0.00     0.039 A 
ATOM      3  C2  UNL d   1       5.038  -2.017  -1.170  0.00  0.00    -0.080 A 
ATOM      4  C3  UNL d   1       3.677  -2.014  -0.878  0.00  0.00     0.150 A 
ATOM      5  C4  UNL d   1       3.092  -3.075  -0.193  0.00  0.00    -0.007 A 
ATOM      6  C5  UNL d   1       3.876  -4.157   0.203  0.00  0.00     0.039 A 
ENDROOT
BRANCH   4   7
ATOM      7  O   UNL d   1       2.870  -0.980  -1.250  0.00  0.00    -0.526 OA
ATOM      8  H5  UNL d   1       3.405  -0.334  -1.740  0.00  0.00     0.418 HD
ENDBRANCH   4   7
TORSDOF 1
ENDMDL
