MODEL 1
REMARK minimizedAffinity 6.11330271
REMARK minimizedRMSD -1
REMARK  1 active torsions:
REMARK  status: ('A' for Active; 'I' for Inactive)
REMARK    1  A    between atoms: C3_4  and  O_7 
ROOT
ATOM      1  C   UNL d   1       0.390   1.633   3.433  0.00  0.00    -0.033 A 
ATOM      2  C1  UNL d   1       1.476   2.439   3.086  0.00  0.00     0.039 A 
ATOM      3  C2  UNL d   1       1.446   3.183   1.905  0.00  0.00    -0.080 A 
ATOM      4  C3  UNL d   1       0.326   3.114   1.082  0.00  0.00     0.150 A 
ATOM      5  C4  UNL d   1      -0.762   2.317   1.423  0.00  0.00    -0.007 A 
ATOM      6  C5  UNL d   1      -0.730   1.573   2.602  0.00  0.00     0.039 A 
ENDROOT
BRANCH   4   7
ATOM      7  O   UNL d   1       0.253   3.819  -0.083  0.00  0.00    -0.526 OA
ATOM      8  H5  UNL d   1       1.087   4.302  -0.203  0.00  0.00     0.418 HD
ENDBRANCH   4   7
TORSDOF 1
ENDMDL
