MODEL 1
REMARK minimizedAffinity 8.73244095
REMARK minimizedRMSD -1
REMARK  1 active torsions:
REMARK  status: ('A' for Active; 'I' for Inactive)
REMARK    1  A    between atoms: C3_4  and  O_7 
ROOT
ATOM      1  C   UNL d   1      -1.367  -1.143  -1.985  0.00  0.00    -0.033 A 
ATOM      2  C1  UNL d   1      -1.288   0.214  -1.663  0.00  0.00     0.039 A 
ATOM      3  C2  UNL d   1      -2.431   0.903  -1.252  0.00  0.00    -0.080 A 
ATOM      4  C3  UNL d   1      -3.644   0.225  -1.165  0.00  0.00     0.150 A 
ATOM      5  C4  UNL d   1      -3.729  -1.127  -1.481  0.00  0.00    -0.007 A 
ATOM      6  C5  UNL d   1      -2.587  -1.813  -1.892  0.00  0.00     0.039 A 
ENDROOT
BRANCH   4   7
ATOM      7  O   UNL d   1      -4.787   0.856  -0.773  0.00  0.00    -0.526 OA
ATOM      8  H5  UNL d   1      -4.582   1.793  -0.615  0.00  0.00     0.418 HD
ENDBRANCH   4   7
TORSDOF 1
ENDMDL
