MODEL 1
REMARK minimizedAffinity 6.22433853
REMARK minimizedRMSD -1
REMARK  1 active torsions:
REMARK  status: ('A' for Active; 'I' for Inactive)
REMARK    1  A    between atoms: C3_4  and  O_7 
ROOT
ATOM      1  C   UNL d   1       0.171   2.491   3.319  0.00  0.00    -0.033 A 
ATOM      2  C1  UNL d   1       1.348   2.948   2.722  0.00  0.00     0.039 A 
ATOM      3  C2  UNL d   1       1.328   3.418   1.407  0.00  0.00    -0.080 A 
ATOM      4  C3  UNL d   1       0.128   3.427   0.702  0.00  0.00     0.150 A 
ATOM      5  C4  UNL d   1      -1.049   2.977   1.293  0.00  0.00    -0.007 A 
ATOM      6  C5  UNL d   1      -1.027   2.507   2.605  0.00  0.00     0.039 A 
ENDROOT
BRANCH   4   7
ATOM      7  O   UNL d   1       0.060   3.872  -0.585  0.00  0.00    -0.526 OA
ATOM      8  H5  UNL d   1       0.954   4.125  -0.870  0.00  0.00     0.418 HD
ENDBRANCH   4   7
TORSDOF 1
ENDMDL
