MODEL 1
REMARK minimizedAffinity -1.0317235
REMARK minimizedRMSD -1
REMARK  1 active torsions:
REMARK  status: ('A' for Active; 'I' for Inactive)
REMARK    1  A    between atoms: C3_4  and  O_7 
ROOT
ATOM      1  C   UNL d   1      -0.689   4.159  -1.528  0.00  0.00    -0.033 A 
ATOM      2  C1  UNL d   1      -0.803   2.770  -1.444  0.00  0.00     0.039 A 
ATOM      3  C2  UNL d   1      -0.856   2.147  -0.196  0.00  0.00    -0.080 A 
ATOM      4  C3  UNL d   1      -0.795   2.922   0.958  0.00  0.00     0.150 A 
ATOM      5  C4  UNL d   1      -0.685   4.307   0.882  0.00  0.00    -0.007 A 
ATOM      6  C5  UNL d   1      -0.631   4.928  -0.365  0.00  0.00     0.039 A 
ENDROOT
BRANCH   4   7
ATOM      7  O   UNL d   1      -0.839   2.358   2.199  0.00  0.00    -0.526 OA
ATOM      8  H5  UNL d   1      -0.886   1.393   2.096  0.00  0.00     0.418 HD
ENDBRANCH   4   7
TORSDOF 1
ENDMDL
