MODEL 1
REMARK minimizedAffinity 14.4266205
REMARK minimizedRMSD -1
REMARK  2 active torsions:
REMARK  status: ('A' for Active; 'I' for Inactive)
REMARK    1  A    between atoms: C2'_3  and  C1'_4 
REMARK    2  A    between atoms: C1'_4  and  C1_5 
ROOT
ATOM      1  C1  I4B d   1      -0.772   2.358  -1.227  0.00  0.00    -0.075 A 
ATOM      2  C2  I4B d   1       0.437   1.873  -0.793  0.00  0.00     0.003 A 
ATOM      3  C3  I4B d   1       0.792   1.962   0.575  0.00  0.00     0.002 A 
ATOM      4  C4  I4B d   1      -0.065   2.585   1.459  0.00  0.00    -0.004 A 
ATOM      5  C5  I4B d   1      -1.300   3.055   1.022  0.00  0.00     0.002 A 
ATOM      6  C6  I4B d   1      -1.661   2.930  -0.327  0.00  0.00     0.003 A 
ENDROOT
BRANCH   1   7
ATOM      7  C1' I4B d   1      -1.100   2.277  -2.684  0.00  0.00     0.060 C 
BRANCH   7   8
ATOM      8  C2' I4B d   1      -2.569   2.609  -2.851  0.00  0.00    -0.013 C 
ATOM      9  C4' I4B d   1      -2.769   3.703  -3.865  0.00  0.00     0.013 C 
ATOM     10  C3' I4B d   1      -3.283   1.355  -3.259  0.00  0.00     0.013 C 
ENDBRANCH   7   8
ENDBRANCH   1   7
TORSDOF 2
ENDMDL
