MODEL 1
REMARK minimizedAffinity -0.355098397
REMARK minimizedRMSD -1
REMARK  2 active torsions:
REMARK  status: ('A' for Active; 'I' for Inactive)
REMARK    1  A    between atoms: C2'_3  and  C1'_4 
REMARK    2  A    between atoms: C1'_4  and  C1_5 
ROOT
ATOM      1  C1  I4B d   1      -2.329   2.652  -1.131  0.00  0.00    -0.075 A 
ATOM      2  C2  I4B d   1      -2.402   1.310  -0.848  0.00  0.00     0.003 A 
ATOM      3  C3  I4B d   1      -3.291   0.477  -1.568  0.00  0.00     0.002 A 
ATOM      4  C4  I4B d   1      -4.121   1.031  -2.521  0.00  0.00    -0.004 A 
ATOM      5  C5  I4B d   1      -4.030   2.387  -2.823  0.00  0.00     0.002 A 
ATOM      6  C6  I4B d   1      -3.120   3.201  -2.132  0.00  0.00     0.003 A 
ENDROOT
BRANCH   1   7
ATOM      7  C1' I4B d   1      -1.402   3.509  -0.329  0.00  0.00     0.060 C 
BRANCH   7   8
ATOM      8  C2' I4B d   1      -0.026   2.877  -0.373  0.00  0.00    -0.013 C 
ATOM      9  C4' I4B d   1       0.949   3.746  -1.122  0.00  0.00     0.013 C 
ATOM     10  C3' I4B d   1       0.425   2.649   1.039  0.00  0.00     0.013 C 
ENDBRANCH   7   8
ENDBRANCH   1   7
TORSDOF 2
ENDMDL
