MODEL 1
REMARK minimizedAffinity 9.32899189
REMARK minimizedRMSD -1
REMARK  2 active torsions:
REMARK  status: ('A' for Active; 'I' for Inactive)
REMARK    1  A    between atoms: C2'_3  and  C1'_4 
REMARK    2  A    between atoms: C1'_4  and  C1_5 
ROOT
ATOM      1  C1  I4B d   1      -1.205   1.365  -1.764  0.00  0.00    -0.075 A 
ATOM      2  C2  I4B d   1      -0.326   0.311  -1.809  0.00  0.00     0.003 A 
ATOM      3  C3  I4B d   1      -0.785  -1.010  -1.586  0.00  0.00     0.002 A 
ATOM      4  C4  I4B d   1      -2.112  -1.225  -1.275  0.00  0.00    -0.004 A 
ATOM      5  C5  I4B d   1      -3.006  -0.158  -1.253  0.00  0.00     0.002 A 
ATOM      6  C6  I4B d   1      -2.552   1.143  -1.511  0.00  0.00     0.003 A 
ENDROOT
BRANCH   1   7
ATOM      7  C1' I4B d   1      -0.680   2.750  -1.972  0.00  0.00     0.060 C 
BRANCH   7   8
ATOM      8  C2' I4B d   1      -0.519   3.397  -0.611  0.00  0.00    -0.013 C 
ATOM      9  C4' I4B d   1      -0.117   2.385   0.429  0.00  0.00     0.013 C 
ATOM     10  C3' I4B d   1       0.506   4.484  -0.734  0.00  0.00     0.013 C 
ENDBRANCH   7   8
ENDBRANCH   1   7
TORSDOF 2
ENDMDL
