MODEL 1
REMARK minimizedAffinity 2.6048553
REMARK minimizedRMSD -1
REMARK  2 active torsions:
REMARK  status: ('A' for Active; 'I' for Inactive)
REMARK    1  A    between atoms: C2'_3  and  C1'_4 
REMARK    2  A    between atoms: C1'_4  and  C1_5 
ROOT
ATOM      1  C1  I4B d   1       2.851   0.749  -4.654  0.00  0.00    -0.075 A 
ATOM      2  C2  I4B d   1       2.894   1.765  -5.575  0.00  0.00     0.003 A 
ATOM      3  C3  I4B d   1       4.137   2.321  -5.964  0.00  0.00     0.002 A 
ATOM      4  C4  I4B d   1       5.299   1.869  -5.373  0.00  0.00    -0.004 A 
ATOM      5  C5  I4B d   1       5.255   0.823  -4.456  0.00  0.00     0.002 A 
ATOM      6  C6  I4B d   1       4.024   0.251  -4.103  0.00  0.00     0.003 A 
ENDROOT
BRANCH   1   7
ATOM      7  C1' I4B d   1       1.519   0.207  -4.241  0.00  0.00     0.060 C 
BRANCH   7   8
ATOM      8  C2' I4B d   1       1.671  -0.409  -2.866  0.00  0.00    -0.013 C 
ATOM      9  C4' I4B d   1       0.737   0.232  -1.874  0.00  0.00     0.013 C 
ATOM     10  C3' I4B d   1       1.407  -1.880  -2.986  0.00  0.00     0.013 C 
ENDBRANCH   7   8
ENDBRANCH   1   7
TORSDOF 2
ENDMDL
