MODEL 1
REMARK minimizedAffinity 6.40324259
REMARK minimizedRMSD -1
REMARK  2 active torsions:
REMARK  status: ('A' for Active; 'I' for Inactive)
REMARK    1  A    between atoms: C2'_3  and  C1'_4 
REMARK    2  A    between atoms: C1'_4  and  C1_5 
ROOT
ATOM      1  C1  I4B d   1       3.522   1.146  -5.862  0.00  0.00    -0.075 A 
ATOM      2  C2  I4B d   1       3.583   2.518  -5.880  0.00  0.00     0.003 A 
ATOM      3  C3  I4B d   1       4.834   3.174  -5.968  0.00  0.00     0.002 A 
ATOM      4  C4  I4B d   1       5.994   2.427  -5.986  0.00  0.00    -0.004 A 
ATOM      5  C5  I4B d   1       5.929   1.036  -5.991  0.00  0.00     0.002 A 
ATOM      6  C6  I4B d   1       4.685   0.392  -5.941  0.00  0.00     0.003 A 
ENDROOT
BRANCH   1   7
ATOM      7  C1' I4B d   1       2.186   0.486  -5.735  0.00  0.00     0.060 C 
BRANCH   7   8
ATOM      8  C2' I4B d   1       1.875   0.343  -4.259  0.00  0.00    -0.013 C 
ATOM      9  C4' I4B d   1       1.040   1.494  -3.763  0.00  0.00     0.013 C 
ATOM     10  C3' I4B d   1       1.167  -0.965  -4.060  0.00  0.00     0.013 C 
ENDBRANCH   7   8
ENDBRANCH   1   7
TORSDOF 2
ENDMDL
