MODEL 1
REMARK minimizedAffinity 2.7510612
REMARK minimizedRMSD -1
REMARK  2 active torsions:
REMARK  status: ('A' for Active; 'I' for Inactive)
REMARK    1  A    between atoms: C2'_3  and  C1'_4 
REMARK    2  A    between atoms: C1'_4  and  C1_5 
ROOT
ATOM      1  C1  I4B d   1       3.177   0.363  -4.107  0.00  0.00    -0.075 A 
ATOM      2  C2  I4B d   1       3.374   0.669  -5.431  0.00  0.00     0.003 A 
ATOM      3  C3  I4B d   1       4.678   0.641  -5.983  0.00  0.00     0.002 A 
ATOM      4  C4  I4B d   1       5.754   0.352  -5.169  0.00  0.00    -0.004 A 
ATOM      5  C5  I4B d   1       5.550   0.019  -3.833  0.00  0.00     0.002 A 
ATOM      6  C6  I4B d   1       4.253   0.012  -3.301  0.00  0.00     0.003 A 
ENDROOT
BRANCH   1   7
ATOM      7  C1' I4B d   1       1.791   0.434  -3.549  0.00  0.00     0.060 C 
BRANCH   7   8
ATOM      8  C2' I4B d   1       1.768  -0.353  -2.255  0.00  0.00    -0.013 C 
ATOM      9  C4' I4B d   1       1.205   0.470  -1.126  0.00  0.00     0.013 C 
ATOM     10  C3' I4B d   1       0.953  -1.591  -2.481  0.00  0.00     0.013 C 
ENDBRANCH   7   8
ENDBRANCH   1   7
TORSDOF 2
ENDMDL
