MODEL 1
REMARK minimizedAffinity -0.182851359
REMARK minimizedRMSD -1
REMARK  2 active torsions:
REMARK  status: ('A' for Active; 'I' for Inactive)
REMARK    1  A    between atoms: C2'_3  and  C1'_4 
REMARK    2  A    between atoms: C1'_4  and  C1_5 
ROOT
ATOM      1  C1  I4B d   1      -3.360   3.426   4.965  0.00  0.00    -0.075 A 
ATOM      2  C2  I4B d   1      -4.291   3.724   5.929  0.00  0.00     0.003 A 
ATOM      3  C3  I4B d   1      -4.853   5.022   6.000  0.00  0.00     0.002 A 
ATOM      4  C4  I4B d   1      -4.421   5.999   5.126  0.00  0.00    -0.004 A 
ATOM      5  C5  I4B d   1      -3.493   5.688   4.135  0.00  0.00     0.002 A 
ATOM      6  C6  I4B d   1      -2.968   4.391   4.046  0.00  0.00     0.003 A 
ENDROOT
BRANCH   1   7
ATOM      7  C1' I4B d   1      -2.763   2.055   4.940  0.00  0.00     0.060 C 
BRANCH   7   8
ATOM      8  C2' I4B d   1      -3.889   1.059   4.753  0.00  0.00    -0.013 C 
ATOM      9  C4' I4B d   1      -3.355  -0.320   4.469  0.00  0.00     0.013 C 
ATOM     10  C3' I4B d   1      -4.728   1.070   5.997  0.00  0.00     0.013 C 
ENDBRANCH   7   8
ENDBRANCH   1   7
TORSDOF 2
ENDMDL
