MODEL 1
REMARK minimizedAffinity -3.34840918
REMARK minimizedRMSD -1
REMARK  2 active torsions:
REMARK  status: ('A' for Active; 'I' for Inactive)
REMARK    1  A    between atoms: C2'_3  and  C1'_4 
REMARK    2  A    between atoms: C1'_4  and  C1_5 
ROOT
ATOM      1  C1  I4B d   1      -3.910   3.248   5.215  0.00  0.00    -0.075 A 
ATOM      2  C2  I4B d   1      -4.883   3.818   5.998  0.00  0.00     0.003 A 
ATOM      3  C3  I4B d   1      -5.380   5.107   5.691  0.00  0.00     0.002 A 
ATOM      4  C4  I4B d   1      -4.845   5.808   4.630  0.00  0.00    -0.004 A 
ATOM      5  C5  I4B d   1      -3.874   5.220   3.824  0.00  0.00     0.002 A 
ATOM      6  C6  I4B d   1      -3.413   3.927   4.110  0.00  0.00     0.003 A 
ENDROOT
BRANCH   1   7
ATOM      7  C1' I4B d   1      -3.384   1.898   5.587  0.00  0.00     0.060 C 
BRANCH   7   8
ATOM      8  C2' I4B d   1      -4.317   0.857   5.003  0.00  0.00    -0.013 C 
ATOM      9  C4' I4B d   1      -3.593  -0.436   4.736  0.00  0.00     0.013 C 
ATOM     10  C3' I4B d   1      -5.447   0.654   5.969  0.00  0.00     0.013 C 
ENDBRANCH   7   8
ENDBRANCH   1   7
TORSDOF 2
ENDMDL
