MODEL 1
REMARK minimizedAffinity 4.03912497
REMARK minimizedRMSD -1
REMARK  2 active torsions:
REMARK  status: ('A' for Active; 'I' for Inactive)
REMARK    1  A    between atoms: C2'_3  and  C1'_4 
REMARK    2  A    between atoms: C1'_4  and  C1_5 
ROOT
ATOM      1  C1  I4B d   1       3.413   0.094  -4.450  0.00  0.00    -0.075 A 
ATOM      2  C2  I4B d   1       3.619   0.809  -5.604  0.00  0.00     0.003 A 
ATOM      3  C3  I4B d   1       4.932   1.162  -5.998  0.00  0.00     0.002 A 
ATOM      4  C4  I4B d   1       5.998   0.827  -5.189  0.00  0.00    -0.004 A 
ATOM      5  C5  I4B d   1       5.789   0.082  -4.032  0.00  0.00     0.002 A 
ATOM      6  C6  I4B d   1       4.490  -0.297  -3.666  0.00  0.00     0.003 A 
ENDROOT
BRANCH   1   7
ATOM      7  C1' I4B d   1       2.010  -0.233  -4.047  0.00  0.00     0.060 C 
BRANCH   7   8
ATOM      8  C2' I4B d   1       2.073  -1.122  -2.821  0.00  0.00    -0.013 C 
ATOM      9  C4' I4B d   1       1.394  -0.475  -1.643  0.00  0.00     0.013 C 
ATOM     10  C3' I4B d   1       1.427  -2.431  -3.165  0.00  0.00     0.013 C 
ENDBRANCH   7   8
ENDBRANCH   1   7
TORSDOF 2
ENDMDL
