MODEL 1
REMARK minimizedAffinity 8.11786079
REMARK minimizedRMSD -1
REMARK  2 active torsions:
REMARK  status: ('A' for Active; 'I' for Inactive)
REMARK    1  A    between atoms: C2'_3  and  C1'_4 
REMARK    2  A    between atoms: C1'_4  and  C1_5 
ROOT
ATOM      1  C1  I4B d   1       1.151  -1.606  -1.219  0.00  0.00    -0.075 A 
ATOM      2  C2  I4B d   1       0.842  -0.346  -1.669  0.00  0.00     0.003 A 
ATOM      3  C3  I4B d   1       0.791  -0.079  -3.059  0.00  0.00     0.002 A 
ATOM      4  C4  I4B d   1       1.103  -1.080  -3.955  0.00  0.00    -0.004 A 
ATOM      5  C5  I4B d   1       1.394  -2.362  -3.498  0.00  0.00     0.002 A 
ATOM      6  C6  I4B d   1       1.406  -2.630  -2.121  0.00  0.00     0.003 A 
ENDROOT
BRANCH   1   7
ATOM      7  C1' I4B d   1       1.228  -1.845   0.256  0.00  0.00     0.060 C 
BRANCH   7   8
ATOM      8  C2' I4B d   1       0.350  -3.036   0.582  0.00  0.00    -0.013 C 
ATOM      9  C4' I4B d   1       0.881  -3.795   1.769  0.00  0.00     0.013 C 
ATOM     10  C3' I4B d   1      -1.038  -2.531   0.839  0.00  0.00     0.013 C 
ENDBRANCH   7   8
ENDBRANCH   1   7
TORSDOF 2
ENDMDL
