MODEL 1
REMARK minimizedAffinity 2.45363164
REMARK minimizedRMSD -1
REMARK  2 active torsions:
REMARK  status: ('A' for Active; 'I' for Inactive)
REMARK    1  A    between atoms: C2'_3  and  C1'_4 
REMARK    2  A    between atoms: C1'_4  and  C1_5 
ROOT
ATOM      1  C1  I4B d   1       5.066   2.691  -4.837  0.00  0.00    -0.075 A 
ATOM      2  C2  I4B d   1       5.034   1.954  -5.995  0.00  0.00     0.003 A 
ATOM      3  C3  I4B d   1       5.478   0.609  -5.997  0.00  0.00     0.002 A 
ATOM      4  C4  I4B d   1       5.989   0.061  -4.838  0.00  0.00    -0.004 A 
ATOM      5  C5  I4B d   1       6.000   0.802  -3.660  0.00  0.00     0.002 A 
ATOM      6  C6  I4B d   1       5.524   2.121  -3.656  0.00  0.00     0.003 A 
ENDROOT
BRANCH   1   7
ATOM      7  C1' I4B d   1       4.621   4.118  -4.878  0.00  0.00     0.060 C 
BRANCH   7   8
ATOM      8  C2' I4B d   1       3.283   4.210  -4.173  0.00  0.00    -0.013 C 
ATOM      9  C4' I4B d   1       3.335   5.193  -3.032  0.00  0.00     0.013 C 
ATOM     10  C3' I4B d   1       2.252   4.610  -5.186  0.00  0.00     0.013 C 
ENDBRANCH   7   8
ENDBRANCH   1   7
TORSDOF 2
ENDMDL
