MODEL 1
REMARK minimizedAffinity 7.85671186
REMARK minimizedRMSD -1
REMARK  2 active torsions:
REMARK  status: ('A' for Active; 'I' for Inactive)
REMARK    1  A    between atoms: C2'_3  and  C1'_4 
REMARK    2  A    between atoms: C1'_4  and  C1_5 
ROOT
ATOM      1  C1  I4B d   1       0.889  -0.522  -1.103  0.00  0.00    -0.075 A 
ATOM      2  C2  I4B d   1       1.314  -1.576  -1.871  0.00  0.00     0.003 A 
ATOM      3  C3  I4B d   1       1.496  -1.414  -3.266  0.00  0.00     0.002 A 
ATOM      4  C4  I4B d   1       1.193  -0.203  -3.854  0.00  0.00    -0.004 A 
ATOM      5  C5  I4B d   1       0.784   0.872  -3.070  0.00  0.00     0.002 A 
ATOM      6  C6  I4B d   1       0.642   0.715  -1.684  0.00  0.00     0.003 A 
ENDROOT
BRANCH   1   7
ATOM      7  C1' I4B d   1       0.676  -0.737   0.362  0.00  0.00     0.060 C 
BRANCH   7   8
ATOM      8  C2' I4B d   1      -0.263  -1.914   0.530  0.00  0.00    -0.013 C 
ATOM      9  C4' I4B d   1      -0.580  -2.157   1.982  0.00  0.00     0.013 C 
ATOM     10  C3' I4B d   1      -1.508  -1.629  -0.256  0.00  0.00     0.013 C 
ENDBRANCH   7   8
ENDBRANCH   1   7
TORSDOF 2
ENDMDL
