MODEL 1
REMARK minimizedAffinity 3.87557125
REMARK minimizedRMSD -1
REMARK  2 active torsions:
REMARK  status: ('A' for Active; 'I' for Inactive)
REMARK    1  A    between atoms: C2'_3  and  C1'_4 
REMARK    2  A    between atoms: C1'_4  and  C1_5 
ROOT
ATOM      1  C1  I4B d   1       1.695   0.504  -0.139  0.00  0.00    -0.075 A 
ATOM      2  C2  I4B d   1       1.273   1.537  -0.937  0.00  0.00     0.003 A 
ATOM      3  C3  I4B d   1       0.711   1.271  -2.209  0.00  0.00     0.002 A 
ATOM      4  C4  I4B d   1       0.638  -0.030  -2.662  0.00  0.00    -0.004 A 
ATOM      5  C5  I4B d   1       1.046  -1.078  -1.841  0.00  0.00     0.002 A 
ATOM      6  C6  I4B d   1       1.566  -0.811  -0.567  0.00  0.00     0.003 A 
ENDROOT
BRANCH   1   7
ATOM      7  C1' I4B d   1       2.314   0.823   1.186  0.00  0.00     0.060 C 
BRANCH   7   8
ATOM      8  C2' I4B d   1       3.235   2.010   0.997  0.00  0.00    -0.013 C 
ATOM      9  C4' I4B d   1       2.458   3.299   0.935  0.00  0.00     0.013 C 
ATOM     10  C3' I4B d   1       4.214   2.022   2.132  0.00  0.00     0.013 C 
ENDBRANCH   7   8
ENDBRANCH   1   7
TORSDOF 2
ENDMDL
