MODEL 1
REMARK minimizedAffinity 0.0543923602
REMARK minimizedRMSD -1
REMARK  2 active torsions:
REMARK  status: ('A' for Active; 'I' for Inactive)
REMARK    1  A    between atoms: C2'_3  and  C1'_4 
REMARK    2  A    between atoms: C1'_4  and  C1_5 
ROOT
ATOM      1  C1  I4B d   1       1.503  -0.129  -3.119  0.00  0.00    -0.075 A 
ATOM      2  C2  I4B d   1       1.477  -1.247  -2.323  0.00  0.00     0.003 A 
ATOM      3  C3  I4B d   1       1.025  -1.157  -0.984  0.00  0.00     0.002 A 
ATOM      4  C4  I4B d   1       0.658   0.070  -0.471  0.00  0.00    -0.004 A 
ATOM      5  C5  I4B d   1       0.664   1.198  -1.287  0.00  0.00     0.002 A 
ATOM      6  C6  I4B d   1       1.077   1.096  -2.623  0.00  0.00     0.003 A 
ENDROOT
BRANCH   1   7
ATOM      7  C1' I4B d   1       2.018  -0.253  -4.518  0.00  0.00     0.060 C 
BRANCH   7   8
ATOM      8  C2' I4B d   1       3.338   0.486  -4.598  0.00  0.00    -0.013 C 
ATOM      9  C4' I4B d   1       4.326  -0.054  -3.598  0.00  0.00     0.013 C 
ATOM     10  C3' I4B d   1       3.858   0.356  -5.998  0.00  0.00     0.013 C 
ENDBRANCH   7   8
ENDBRANCH   1   7
TORSDOF 2
ENDMDL
