MODEL 1
REMARK minimizedAffinity 7.72477055
REMARK minimizedRMSD -1
REMARK  2 active torsions:
REMARK  status: ('A' for Active; 'I' for Inactive)
REMARK    1  A    between atoms: C2'_3  and  C1'_4 
REMARK    2  A    between atoms: C1'_4  and  C1_5 
ROOT
ATOM      1  C1  I4B d   1       3.176   1.254  -4.890  0.00  0.00    -0.075 A 
ATOM      2  C2  I4B d   1       4.343   0.584  -4.617  0.00  0.00     0.003 A 
ATOM      3  C3  I4B d   1       5.577   1.279  -4.606  0.00  0.00     0.002 A 
ATOM      4  C4  I4B d   1       5.604   2.622  -4.921  0.00  0.00    -0.004 A 
ATOM      5  C5  I4B d   1       4.417   3.304  -5.175  0.00  0.00     0.002 A 
ATOM      6  C6  I4B d   1       3.194   2.618  -5.147  0.00  0.00     0.003 A 
ENDROOT
BRANCH   1   7
ATOM      7  C1' I4B d   1       1.894   0.483  -4.925  0.00  0.00     0.060 C 
BRANCH   7   8
ATOM      8  C2' I4B d   1       1.544   0.094  -3.503  0.00  0.00    -0.013 C 
ATOM      9  C4' I4B d   1       0.525   1.035  -2.916  0.00  0.00     0.013 C 
ATOM     10  C3' I4B d   1       1.032  -1.315  -3.522  0.00  0.00     0.013 C 
ENDBRANCH   7   8
ENDBRANCH   1   7
TORSDOF 2
ENDMDL
