MODEL 1
REMARK minimizedAffinity 2.59332967
REMARK minimizedRMSD -1
REMARK  2 active torsions:
REMARK  status: ('A' for Active; 'I' for Inactive)
REMARK    1  A    between atoms: C2'_3  and  C1'_4 
REMARK    2  A    between atoms: C1'_4  and  C1_5 
ROOT
ATOM      1  C1  I4B d   1      -3.580   2.632   5.262  0.00  0.00    -0.075 A 
ATOM      2  C2  I4B d   1      -4.225   3.632   5.945  0.00  0.00     0.003 A 
ATOM      3  C3  I4B d   1      -4.303   4.935   5.396  0.00  0.00     0.002 A 
ATOM      4  C4  I4B d   1      -3.682   5.204   4.193  0.00  0.00    -0.004 A 
ATOM      5  C5  I4B d   1      -3.047   4.183   3.491  0.00  0.00     0.002 A 
ATOM      6  C6  I4B d   1      -3.006   2.886   4.023  0.00  0.00     0.003 A 
ENDROOT
BRANCH   1   7
ATOM      7  C1' I4B d   1      -3.488   1.276   5.886  0.00  0.00     0.060 C 
BRANCH   7   8
ATOM      8  C2' I4B d   1      -3.079   0.292   4.808  0.00  0.00    -0.013 C 
ATOM      9  C4' I4B d   1      -1.912  -0.550   5.253  0.00  0.00     0.013 C 
ATOM     10  C3' I4B d   1      -4.269  -0.560   4.484  0.00  0.00     0.013 C 
ENDBRANCH   7   8
ENDBRANCH   1   7
TORSDOF 2
ENDMDL
