MODEL 1
REMARK minimizedAffinity 0.0289616007
REMARK minimizedRMSD -1
REMARK  2 active torsions:
REMARK  status: ('A' for Active; 'I' for Inactive)
REMARK    1  A    between atoms: C2'_3  and  C1'_4 
REMARK    2  A    between atoms: C1'_4  and  C1_5 
ROOT
ATOM      1  C1  I4B d   1       3.257  -0.055  -4.506  0.00  0.00    -0.075 A 
ATOM      2  C2  I4B d   1       4.123  -0.448  -3.517  0.00  0.00     0.003 A 
ATOM      3  C3  I4B d   1       5.519  -0.454  -3.754  0.00  0.00     0.002 A 
ATOM      4  C4  I4B d   1       5.999  -0.110  -5.001  0.00  0.00    -0.004 A 
ATOM      5  C5  I4B d   1       5.120   0.311  -5.995  0.00  0.00     0.002 A 
ATOM      6  C6  I4B d   1       3.741   0.351  -5.743  0.00  0.00     0.003 A 
ENDROOT
BRANCH   1   7
ATOM      7  C1' I4B d   1       1.786  -0.092  -4.232  0.00  0.00     0.060 C 
BRANCH   7   8
ATOM      8  C2' I4B d   1       1.579  -0.749  -2.882  0.00  0.00    -0.013 C 
ATOM      9  C4' I4B d   1       0.727   0.108  -1.984  0.00  0.00     0.013 C 
ATOM     10  C3' I4B d   1       0.946  -2.089  -3.112  0.00  0.00     0.013 C 
ENDBRANCH   7   8
ENDBRANCH   1   7
TORSDOF 2
ENDMDL
