MODEL 1
REMARK minimizedAffinity 1.91377401
REMARK minimizedRMSD -1
REMARK  2 active torsions:
REMARK  status: ('A' for Active; 'I' for Inactive)
REMARK    1  A    between atoms: C2'_3  and  C1'_4 
REMARK    2  A    between atoms: C1'_4  and  C1_5 
ROOT
ATOM      1  C1  I4B d   1       0.903   0.576  -1.685  0.00  0.00    -0.075 A 
ATOM      2  C2  I4B d   1       1.294   0.831  -2.976  0.00  0.00     0.003 A 
ATOM      3  C3  I4B d   1       1.544  -0.239  -3.869  0.00  0.00     0.002 A 
ATOM      4  C4  I4B d   1       1.440  -1.539  -3.418  0.00  0.00    -0.004 A 
ATOM      5  C5  I4B d   1       1.021  -1.795  -2.116  0.00  0.00     0.002 A 
ATOM      6  C6  I4B d   1       0.739  -0.731  -1.247  0.00  0.00     0.003 A 
ENDROOT
BRANCH   1   7
ATOM      7  C1' I4B d   1       0.680   1.729  -0.759  0.00  0.00     0.060 C 
BRANCH   7   8
ATOM      8  C2' I4B d   1       2.035   2.291  -0.378  0.00  0.00    -0.013 C 
ATOM      9  C4' I4B d   1       2.256   3.647  -0.996  0.00  0.00     0.013 C 
ATOM     10  C3' I4B d   1       2.103   2.361   1.119  0.00  0.00     0.013 C 
ENDBRANCH   7   8
ENDBRANCH   1   7
TORSDOF 2
ENDMDL
