MODEL 1
REMARK minimizedAffinity 14.0181503
REMARK minimizedRMSD -1
REMARK  1 active torsions:
REMARK  status: ('A' for Active; 'I' for Inactive)
REMARK    1  A    between atoms: C1_2  and  C2_3 
ROOT
ATOM      1  C2  UNL d   1      -3.462  -3.387   3.940  0.00  0.00    -0.077 A 
ATOM      2  C3  UNL d   1      -3.345  -2.289   4.804  0.00  0.00     0.002 A 
ATOM      3  C4  UNL d   1      -2.117  -1.980   5.391  0.00  0.00     0.002 A 
ATOM      4  C5  UNL d   1      -0.996  -2.760   5.117  0.00  0.00    -0.004 A 
ATOM      5  C6  UNL d   1      -1.102  -3.854   4.260  0.00  0.00     0.002 A 
ATOM      6  C7  UNL d   1      -2.329  -4.166   3.673  0.00  0.00     0.002 A 
ENDROOT
BRANCH   1   7
ATOM      7  C1  UNL d   1      -4.775  -3.693   3.267  0.00  0.00     0.055 C 
ATOM      8  C   UNL d   1      -5.664  -4.551   4.155  0.00  0.00     0.019 C 
ENDBRANCH   1   7
TORSDOF 1
ENDMDL
