MODEL 1
REMARK minimizedAffinity 9.09213924
REMARK minimizedRMSD -1
REMARK  1 active torsions:
REMARK  status: ('A' for Active; 'I' for Inactive)
REMARK    1  A    between atoms: C1_2  and  C2_3 
ROOT
ATOM      1  C2  UNL d   1      -3.843   5.255  -1.647  0.00  0.00    -0.077 A 
ATOM      2  C3  UNL d   1      -5.108   5.631  -1.174  0.00  0.00     0.002 A 
ATOM      3  C4  UNL d   1      -5.282   5.999   0.161  0.00  0.00     0.002 A 
ATOM      4  C5  UNL d   1      -4.195   5.999   1.033  0.00  0.00    -0.004 A 
ATOM      5  C6  UNL d   1      -2.933   5.625   0.573  0.00  0.00     0.002 A 
ATOM      6  C7  UNL d   1      -2.758   5.255  -0.762  0.00  0.00     0.002 A 
ENDROOT
BRANCH   1   7
ATOM      7  C1  UNL d   1      -3.644   4.904  -3.099  0.00  0.00     0.055 C 
ATOM      8  C   UNL d   1      -2.566   3.844  -3.269  0.00  0.00     0.019 C 
ENDBRANCH   1   7
TORSDOF 1
ENDMDL
