MODEL 1
REMARK minimizedAffinity 9.75752354
REMARK minimizedRMSD -1
REMARK  1 active torsions:
REMARK  status: ('A' for Active; 'I' for Inactive)
REMARK    1  A    between atoms: C1_2  and  C2_3 
ROOT
ATOM      1  C2  UNL d   1       2.106  -3.679  -3.812  0.00  0.00    -0.077 A 
ATOM      2  C3  UNL d   1       3.312  -2.982  -3.970  0.00  0.00     0.002 A 
ATOM      3  C4  UNL d   1       3.497  -2.131  -5.061  0.00  0.00     0.002 A 
ATOM      4  C5  UNL d   1       2.480  -1.966  -5.999  0.00  0.00    -0.004 A 
ATOM      5  C6  UNL d   1       1.278  -2.657  -5.852  0.00  0.00     0.002 A 
ATOM      6  C7  UNL d   1       1.092  -3.509  -4.762  0.00  0.00     0.002 A 
ENDROOT
BRANCH   1   7
ATOM      7  C1  UNL d   1       1.886  -4.560  -2.609  0.00  0.00     0.055 C 
ATOM      8  C   UNL d   1       1.572  -3.735  -1.369  0.00  0.00     0.019 C 
ENDBRANCH   1   7
TORSDOF 1
ENDMDL
