MODEL 1
REMARK minimizedAffinity 16.1340313
REMARK minimizedRMSD -1
REMARK  1 active torsions:
REMARK  status: ('A' for Active; 'I' for Inactive)
REMARK    1  A    between atoms: C1_2  and  C2_3 
ROOT
ATOM      1  C2  UNL d   1      -3.597  -3.279   4.950  0.00  0.00    -0.077 A 
ATOM      2  C3  UNL d   1      -3.851  -4.352   4.084  0.00  0.00     0.002 A 
ATOM      3  C4  UNL d   1      -5.045  -5.069   4.177  0.00  0.00     0.002 A 
ATOM      4  C5  UNL d   1      -5.997  -4.718   5.132  0.00  0.00    -0.004 A 
ATOM      5  C6  UNL d   1      -5.754  -3.653   6.000  0.00  0.00     0.002 A 
ATOM      6  C7  UNL d   1      -4.560  -2.937   5.908  0.00  0.00     0.002 A 
ENDROOT
BRANCH   1   7
ATOM      7  C1  UNL d   1      -2.331  -2.474   4.818  0.00  0.00     0.055 C 
ATOM      8  C   UNL d   1      -1.148  -3.359   4.453  0.00  0.00     0.019 C 
ENDBRANCH   1   7
TORSDOF 1
ENDMDL
