MODEL 1
REMARK minimizedAffinity 10.5833387
REMARK minimizedRMSD -1
REMARK  1 active torsions:
REMARK  status: ('A' for Active; 'I' for Inactive)
REMARK    1  A    between atoms: C1_2  and  C2_3 
ROOT
ATOM      1  C2  UNL d   1      -5.099   5.905   2.385  0.00  0.00    -0.077 A 
ATOM      2  C3  UNL d   1      -5.998   5.679   1.332  0.00  0.00     0.002 A 
ATOM      3  C4  UNL d   1      -5.533   5.550   0.022  0.00  0.00     0.002 A 
ATOM      4  C5  UNL d   1      -4.169   5.641  -0.247  0.00  0.00    -0.004 A 
ATOM      5  C6  UNL d   1      -3.268   5.868   0.792  0.00  0.00     0.002 A 
ATOM      6  C7  UNL d   1      -3.730   5.998   2.102  0.00  0.00     0.002 A 
ENDROOT
BRANCH   1   7
ATOM      7  C1  UNL d   1      -5.594   5.995   3.805  0.00  0.00     0.055 C 
ATOM      8  C   UNL d   1      -4.438   6.000   4.794  0.00  0.00     0.019 C 
ENDBRANCH   1   7
TORSDOF 1
ENDMDL
