MODEL 1
REMARK minimizedAffinity 15.9938278
REMARK minimizedRMSD -1
REMARK  1 active torsions:
REMARK  status: ('A' for Active; 'I' for Inactive)
REMARK    1  A    between atoms: C1_2  and  C2_3 
ROOT
ATOM      1  C2  UNL d   1      -2.021   3.031  -3.496  0.00  0.00    -0.077 A 
ATOM      2  C3  UNL d   1      -2.726   1.867  -3.834  0.00  0.00     0.002 A 
ATOM      3  C4  UNL d   1      -4.122   1.867  -3.853  0.00  0.00     0.002 A 
ATOM      4  C5  UNL d   1      -4.825   3.028  -3.538  0.00  0.00    -0.004 A 
ATOM      5  C6  UNL d   1      -4.133   4.190  -3.198  0.00  0.00     0.002 A 
ATOM      6  C7  UNL d   1      -2.738   4.192  -3.177  0.00  0.00     0.002 A 
ENDROOT
BRANCH   1   7
ATOM      7  C1  UNL d   1      -0.515   3.047  -3.523  0.00  0.00     0.055 C 
ATOM      8  C   UNL d   1       0.066   2.868  -2.128  0.00  0.00     0.019 C 
ENDBRANCH   1   7
TORSDOF 1
ENDMDL
