MODEL 1
REMARK minimizedAffinity 14.4778404
REMARK minimizedRMSD -1
REMARK  1 active torsions:
REMARK  status: ('A' for Active; 'I' for Inactive)
REMARK    1  A    between atoms: C1_2  and  C2_3 
ROOT
ATOM      1  C2  UNL d   1       0.285   3.212  -1.352  0.00  0.00    -0.077 A 
ATOM      2  C3  UNL d   1       1.253   4.164  -1.700  0.00  0.00     0.002 A 
ATOM      3  C4  UNL d   1       1.131   4.895  -2.883  0.00  0.00     0.002 A 
ATOM      4  C5  UNL d   1       0.041   4.686  -3.725  0.00  0.00    -0.004 A 
ATOM      5  C6  UNL d   1      -0.927   3.740  -3.388  0.00  0.00     0.002 A 
ATOM      6  C7  UNL d   1      -0.806   3.007  -2.207  0.00  0.00     0.002 A 
ENDROOT
BRANCH   1   7
ATOM      7  C1  UNL d   1       0.389   2.457  -0.053  0.00  0.00     0.055 C 
ATOM      8  C   UNL d   1      -0.940   1.818   0.324  0.00  0.00     0.019 C 
ENDBRANCH   1   7
TORSDOF 1
ENDMDL
