MODEL 1
REMARK minimizedAffinity 3.74246144
REMARK minimizedRMSD -1
REMARK  1 active torsions:
REMARK  status: ('A' for Active; 'I' for Inactive)
REMARK    1  A    between atoms: C1_2  and  C2_3 
ROOT
ATOM      1  C2  UNL d   1      -0.759   2.929  -0.162  0.00  0.00    -0.077 A 
ATOM      2  C3  UNL d   1      -0.066   4.058   0.296  0.00  0.00     0.002 A 
ATOM      3  C4  UNL d   1       0.315   5.063  -0.595  0.00  0.00     0.002 A 
ATOM      4  C5  UNL d   1       0.003   4.951  -1.948  0.00  0.00    -0.004 A 
ATOM      5  C6  UNL d   1      -0.685   3.831  -2.414  0.00  0.00     0.002 A 
ATOM      6  C7  UNL d   1      -1.065   2.826  -1.525  0.00  0.00     0.002 A 
ENDROOT
BRANCH   1   7
ATOM      7  C1  UNL d   1      -1.214   1.868   0.806  0.00  0.00     0.055 C 
ATOM      8  C   UNL d   1      -0.048   1.321   1.616  0.00  0.00     0.019 C 
ENDBRANCH   1   7
TORSDOF 1
ENDMDL
