MODEL 1
REMARK minimizedAffinity 6.62871885
REMARK minimizedRMSD -1
REMARK  1 active torsions:
REMARK  status: ('A' for Active; 'I' for Inactive)
REMARK    1  A    between atoms: C1_2  and  C2_3 
ROOT
ATOM      1  C2  UNL d   1      -0.477   2.822   0.316  0.00  0.00    -0.077 A 
ATOM      2  C3  UNL d   1       0.274   3.894   0.817  0.00  0.00     0.002 A 
ATOM      3  C4  UNL d   1       0.650   4.946  -0.021  0.00  0.00     0.002 A 
ATOM      4  C5  UNL d   1       0.276   4.938  -1.363  0.00  0.00    -0.004 A 
ATOM      5  C6  UNL d   1      -0.469   3.875  -1.871  0.00  0.00     0.002 A 
ATOM      6  C7  UNL d   1      -0.845   2.822  -1.035  0.00  0.00     0.002 A 
ENDROOT
BRANCH   1   7
ATOM      7  C1  UNL d   1      -0.925   1.711   1.229  0.00  0.00     0.055 C 
ATOM      8  C   UNL d   1      -2.443   1.612   1.278  0.00  0.00     0.019 C 
ENDBRANCH   1   7
TORSDOF 1
ENDMDL
