MODEL 1
REMARK minimizedAffinity 1.9886626
REMARK minimizedRMSD -1
REMARK  1 active torsions:
REMARK  status: ('A' for Active; 'I' for Inactive)
REMARK    1  A    between atoms: C1_2  and  C2_3 
ROOT
ATOM      1  C2  UNL d   1      -0.658   2.306  -1.527  0.00  0.00    -0.077 A 
ATOM      2  C3  UNL d   1      -0.867   3.559  -2.120  0.00  0.00     0.002 A 
ATOM      3  C4  UNL d   1      -0.515   4.728  -1.442  0.00  0.00     0.002 A 
ATOM      4  C5  UNL d   1       0.050   4.655  -0.171  0.00  0.00    -0.004 A 
ATOM      5  C6  UNL d   1       0.260   3.414   0.428  0.00  0.00     0.002 A 
ATOM      6  C7  UNL d   1      -0.092   2.244  -0.247  0.00  0.00     0.002 A 
ENDROOT
BRANCH   1   7
ATOM      7  C1  UNL d   1      -0.991   1.042  -2.275  0.00  0.00     0.055 C 
ATOM      8  C   UNL d   1      -2.495   0.817  -2.341  0.00  0.00     0.019 C 
ENDBRANCH   1   7
TORSDOF 1
ENDMDL
