MODEL 1
REMARK minimizedAffinity 0.365295202
REMARK minimizedRMSD -1
REMARK  1 active torsions:
REMARK  status: ('A' for Active; 'I' for Inactive)
REMARK    1  A    between atoms: C1_2  and  C2_3 
ROOT
ATOM      1  C2  UNL d   1       0.127   3.430   0.561  0.00  0.00    -0.077 A 
ATOM      2  C3  UNL d   1       0.702   4.287   1.510  0.00  0.00     0.002 A 
ATOM      3  C4  UNL d   1       1.125   5.566   1.142  0.00  0.00     0.002 A 
ATOM      4  C5  UNL d   1       0.975   6.000  -0.173  0.00  0.00    -0.004 A 
ATOM      5  C6  UNL d   1       0.407   5.154  -1.125  0.00  0.00     0.002 A 
ATOM      6  C7  UNL d   1      -0.016   3.875  -0.760  0.00  0.00     0.002 A 
ENDROOT
BRANCH   1   7
ATOM      7  C1  UNL d   1      -0.375   2.069   0.966  0.00  0.00     0.055 C 
ATOM      8  C   UNL d   1      -1.500   2.175   1.985  0.00  0.00     0.019 C 
ENDBRANCH   1   7
TORSDOF 1
ENDMDL
