MODEL 1
REMARK minimizedAffinity 10.1237841
REMARK minimizedRMSD -1
REMARK  1 active torsions:
REMARK  status: ('A' for Active; 'I' for Inactive)
REMARK    1  A    between atoms: C1_2  and  C2_3 
ROOT
ATOM      1  C2  UNL d   1      -0.740   5.058  -0.361  0.00  0.00    -0.077 A 
ATOM      2  C3  UNL d   1       0.381   4.223  -0.251  0.00  0.00     0.002 A 
ATOM      3  C4  UNL d   1       0.744   3.386  -1.307  0.00  0.00     0.002 A 
ATOM      4  C5  UNL d   1      -0.005   3.378  -2.482  0.00  0.00    -0.004 A 
ATOM      5  C6  UNL d   1      -1.122   4.203  -2.601  0.00  0.00     0.002 A 
ATOM      6  C7  UNL d   1      -1.488   5.040  -1.546  0.00  0.00     0.002 A 
ENDROOT
BRANCH   1   7
ATOM      7  C1  UNL d   1      -1.105   5.998   0.758  0.00  0.00     0.055 C 
ATOM      8  C   UNL d   1      -2.605   6.000   1.012  0.00  0.00     0.019 C 
ENDBRANCH   1   7
TORSDOF 1
ENDMDL
