MODEL 1
REMARK minimizedAffinity 2.77704525
REMARK minimizedRMSD -1
REMARK  1 active torsions:
REMARK  status: ('A' for Active; 'I' for Inactive)
REMARK    1  A    between atoms: C1_2  and  C2_3 
ROOT
ATOM      1  C2  UNL d   1      -5.372  -4.481   3.519  0.00  0.00    -0.077 A 
ATOM      2  C3  UNL d   1      -6.000  -4.869   4.711  0.00  0.00     0.002 A 
ATOM      3  C4  UNL d   1      -5.458  -4.507   5.945  0.00  0.00     0.002 A 
ATOM      4  C5  UNL d   1      -4.288  -3.752   6.000  0.00  0.00    -0.004 A 
ATOM      5  C6  UNL d   1      -3.655  -3.363   4.820  0.00  0.00     0.002 A 
ATOM      6  C7  UNL d   1      -4.195  -3.725   3.585  0.00  0.00     0.002 A 
ENDROOT
BRANCH   1   7
ATOM      7  C1  UNL d   1      -5.982  -4.829   2.186  0.00  0.00     0.055 C 
ATOM      8  C   UNL d   1      -5.728  -3.735   1.159  0.00  0.00     0.019 C 
ENDBRANCH   1   7
TORSDOF 1
ENDMDL
