MODEL 1
REMARK minimizedAffinity -4.50070429
REMARK minimizedRMSD -1
REMARK  0 active torsions:
REMARK  status: ('A' for Active; 'I' for Inactive)
ROOT
ATOM      1  C   UNL d   1       2.501  -1.673   1.059  0.00  0.00     0.078 C 
ATOM      2  C1  UNL d   1       1.563  -0.643   0.504  0.00  0.00    -0.077 A 
ATOM      3  C2  UNL d   1       1.807   0.724   0.680  0.00  0.00    -0.001 A 
ATOM      4  C3  UNL d   1       0.920   1.672   0.167  0.00  0.00     0.003 A 
ATOM      5  C4  UNL d   1      -0.218   1.262  -0.524  0.00  0.00    -0.005 A 
ATOM      6  C5  UNL d   1      -0.472  -0.096  -0.702  0.00  0.00     0.003 A 
ATOM      7  C6  UNL d   1       0.414  -1.045  -0.189  0.00  0.00    -0.001 A 
ENDROOT
TORSDOF 0
ENDMDL
