MODEL 1
REMARK minimizedAffinity -5.3439374
REMARK minimizedRMSD -1
REMARK  0 active torsions:
REMARK  status: ('A' for Active; 'I' for Inactive)
ROOT
ATOM      1  C   UNL d   1      -1.173   0.356  -0.054  0.00  0.00     0.078 C 
ATOM      2  C1  UNL d   1       0.205  -0.222   0.077  0.00  0.00    -0.077 A 
ATOM      3  C2  UNL d   1       1.289   0.578   0.461  0.00  0.00    -0.001 A 
ATOM      4  C3  UNL d   1       2.568   0.029   0.569  0.00  0.00     0.003 A 
ATOM      5  C4  UNL d   1       2.775  -1.321   0.294  0.00  0.00    -0.005 A 
ATOM      6  C5  UNL d   1       1.703  -2.124  -0.090  0.00  0.00     0.003 A 
ATOM      7  C6  UNL d   1       0.424  -1.577  -0.199  0.00  0.00    -0.001 A 
ENDROOT
TORSDOF 0
ENDMDL
