MODEL 1
REMARK minimizedAffinity -4.44461823
REMARK minimizedRMSD -1
REMARK  0 active torsions:
REMARK  status: ('A' for Active; 'I' for Inactive)
ROOT
ATOM      1  C   UNL d   1       2.526  -1.416   1.447  0.00  0.00     0.078 C 
ATOM      2  C1  UNL d   1       1.386  -0.820   0.676  0.00  0.00    -0.077 A 
ATOM      3  C2  UNL d   1       0.872   0.440   1.007  0.00  0.00    -0.001 A 
ATOM      4  C3  UNL d   1      -0.195   0.979   0.287  0.00  0.00     0.003 A 
ATOM      5  C4  UNL d   1      -0.760   0.263  -0.768  0.00  0.00    -0.005 A 
ATOM      6  C5  UNL d   1      -0.257  -0.992  -1.103  0.00  0.00     0.003 A 
ATOM      7  C6  UNL d   1       0.811  -1.532  -0.384  0.00  0.00    -0.001 A 
ENDROOT
TORSDOF 0
ENDMDL
