MODEL 1
REMARK minimizedAffinity -5.42541838
REMARK minimizedRMSD -1
REMARK  0 active torsions:
REMARK  status: ('A' for Active; 'I' for Inactive)
ROOT
ATOM      1  C   UNL d   1      -1.197   0.308  -0.225  0.00  0.00     0.078 C 
ATOM      2  C1  UNL d   1       0.206  -0.158   0.029  0.00  0.00    -0.077 A 
ATOM      3  C2  UNL d   1       0.578  -1.487  -0.207  0.00  0.00    -0.001 A 
ATOM      4  C3  UNL d   1       1.885  -1.909   0.043  0.00  0.00     0.003 A 
ATOM      5  C4  UNL d   1       2.830  -1.009   0.531  0.00  0.00    -0.005 A 
ATOM      6  C5  UNL d   1       2.468   0.315   0.771  0.00  0.00     0.003 A 
ATOM      7  C6  UNL d   1       1.162   0.739   0.522  0.00  0.00    -0.001 A 
ENDROOT
TORSDOF 0
ENDMDL
