MODEL 1
REMARK minimizedAffinity -0.862996042
REMARK minimizedRMSD -1
REMARK  0 active torsions:
REMARK  status: ('A' for Active; 'I' for Inactive)
ROOT
ATOM      1  C   UNL d   1      -0.365   0.302  -0.121  0.00  0.00     0.078 C 
ATOM      2  C1  UNL d   1       1.018  -0.264  -0.250  0.00  0.00    -0.077 A 
ATOM      3  C2  UNL d   1       2.138   0.575  -0.306  0.00  0.00    -0.001 A 
ATOM      4  C3  UNL d   1       3.418   0.035  -0.437  0.00  0.00     0.003 A 
ATOM      5  C4  UNL d   1       3.591  -1.346  -0.513  0.00  0.00    -0.005 A 
ATOM      6  C5  UNL d   1       2.482  -2.188  -0.460  0.00  0.00     0.003 A 
ATOM      7  C6  UNL d   1       1.201  -1.650  -0.330  0.00  0.00    -0.001 A 
ENDROOT
TORSDOF 0
ENDMDL
