MODEL 1
REMARK minimizedAffinity -3.87765598
REMARK minimizedRMSD -1
REMARK  0 active torsions:
REMARK  status: ('A' for Active; 'I' for Inactive)
ROOT
ATOM      1  C   UNL d   1      -0.959   0.869  -0.590  0.00  0.00     0.078 C 
ATOM      2  C1  UNL d   1       0.332   0.113  -0.498  0.00  0.00    -0.077 A 
ATOM      3  C2  UNL d   1       1.561   0.784  -0.475  0.00  0.00    -0.001 A 
ATOM      4  C3  UNL d   1       2.756   0.066  -0.398  0.00  0.00     0.003 A 
ATOM      5  C4  UNL d   1       2.734  -1.326  -0.345  0.00  0.00    -0.005 A 
ATOM      6  C5  UNL d   1       1.516  -2.002  -0.370  0.00  0.00     0.003 A 
ATOM      7  C6  UNL d   1       0.320  -1.287  -0.446  0.00  0.00    -0.001 A 
ENDROOT
TORSDOF 0
ENDMDL
