MODEL 1
REMARK minimizedAffinity -3.81654572
REMARK minimizedRMSD -1
REMARK  0 active torsions:
REMARK  status: ('A' for Active; 'I' for Inactive)
ROOT
ATOM      1  C   UNL d   1      -2.571   1.430   1.285  0.00  0.00     0.078 C 
ATOM      2  C1  UNL d   1      -1.549   0.470   0.755  0.00  0.00    -0.077 A 
ATOM      3  C2  UNL d   1      -0.978   0.652  -0.511  0.00  0.00    -0.001 A 
ATOM      4  C3  UNL d   1      -0.035  -0.256  -0.996  0.00  0.00     0.003 A 
ATOM      5  C4  UNL d   1       0.344  -1.352  -0.223  0.00  0.00    -0.005 A 
ATOM      6  C5  UNL d   1      -0.221  -1.542   1.036  0.00  0.00     0.003 A 
ATOM      7  C6  UNL d   1      -1.164  -0.636   1.523  0.00  0.00    -0.001 A 
ENDROOT
TORSDOF 0
ENDMDL
