MODEL 1
REMARK minimizedAffinity 1.4677093
REMARK minimizedRMSD -1
REMARK  0 active torsions:
REMARK  status: ('A' for Active; 'I' for Inactive)
ROOT
ATOM      1  C   UNL d   1       2.767  -1.805  -0.026  0.00  0.00     0.078 C 
ATOM      2  C1  UNL d   1       1.526  -2.441  -0.576  0.00  0.00    -0.077 A 
ATOM      3  C2  UNL d   1       0.756  -1.795  -1.551  0.00  0.00    -0.001 A 
ATOM      4  C3  UNL d   1      -0.403  -2.395  -2.048  0.00  0.00     0.003 A 
ATOM      5  C4  UNL d   1      -0.803  -3.642  -1.573  0.00  0.00    -0.005 A 
ATOM      6  C5  UNL d   1      -0.045  -4.292  -0.601  0.00  0.00     0.003 A 
ATOM      7  C6  UNL d   1       1.114  -3.694  -0.104  0.00  0.00    -0.001 A 
ENDROOT
TORSDOF 0
ENDMDL
