MODEL 1
REMARK minimizedAffinity -4.16781521
REMARK minimizedRMSD -1
REMARK  0 active torsions:
REMARK  status: ('A' for Active; 'I' for Inactive)
ROOT
ATOM      1  N1  IND d   1      -0.902   0.501  -5.273  0.00  0.00    -0.196 N 
ATOM      2  C2  IND d   1      -1.922  -0.338  -4.918  0.00  0.00     0.054 A 
ATOM      3  C3  IND d   1      -1.564  -1.089  -3.852  0.00  0.00    -0.031 A 
ATOM      4  C4  IND d   1       0.607  -1.036  -2.469  0.00  0.00     0.051 A 
ATOM      5  C5  IND d   1       1.846  -0.461  -2.431  0.00  0.00    -0.031 A 
ATOM      6  C6  IND d   1       2.239   0.486  -3.355  0.00  0.00     0.015 A 
ATOM      7  C7  IND d   1       1.400   0.902  -4.349  0.00  0.00    -0.016 A 
ATOM      8  C8  IND d   1       0.144   0.315  -4.396  0.00  0.00    -0.047 A 
ATOM      9  C9  IND d   1      -0.246  -0.677  -3.486  0.00  0.00    -0.096 A 
ATOM     10  HN1 IND d   1      -0.912   1.052  -5.933  0.00  0.00     0.298 HD
ENDROOT
TORSDOF 0
ENDMDL
