MODEL 1
REMARK minimizedAffinity -3.8908987
REMARK minimizedRMSD -1
REMARK  0 active torsions:
REMARK  status: ('A' for Active; 'I' for Inactive)
ROOT
ATOM      1  N1  IND d   1      -0.885  -0.270  -1.171  0.00  0.00    -0.196 N 
ATOM      2  C2  IND d   1       0.463  -0.465  -1.286  0.00  0.00     0.054 A 
ATOM      3  C3  IND d   1       1.079  -0.199  -0.112  0.00  0.00    -0.031 A 
ATOM      4  C4  IND d   1       0.059   0.473   2.154  0.00  0.00     0.051 A 
ATOM      5  C5  IND d   1      -1.127   0.809   2.745  0.00  0.00    -0.031 A 
ATOM      6  C6  IND d   1      -2.317   0.801   2.046  0.00  0.00     0.015 A 
ATOM      7  C7  IND d   1      -2.368   0.442   0.729  0.00  0.00    -0.016 A 
ATOM      8  C8  IND d   1      -1.165   0.107   0.125  0.00  0.00    -0.047 A 
ATOM      9  C9  IND d   1       0.052   0.155   0.817  0.00  0.00    -0.096 A 
ATOM     10  HN1 IND d   1      -1.462  -0.366  -1.801  0.00  0.00     0.298 HD
ENDROOT
TORSDOF 0
ENDMDL
