MODEL 1
REMARK minimizedAffinity -3.41612673
REMARK minimizedRMSD -1
REMARK  0 active torsions:
REMARK  status: ('A' for Active; 'I' for Inactive)
ROOT
ATOM      1  N1  IND d   1      -1.099  -1.125  -0.358  0.00  0.00    -0.196 N 
ATOM      2  C2  IND d   1       0.113  -1.118  -0.991  0.00  0.00     0.054 A 
ATOM      3  C3  IND d   1       0.979  -0.310  -0.339  0.00  0.00    -0.031 A 
ATOM      4  C4  IND d   1       0.653   1.015   1.844  0.00  0.00     0.051 A 
ATOM      5  C5  IND d   1      -0.295   1.349   2.770  0.00  0.00    -0.031 A 
ATOM      6  C6  IND d   1      -1.585   0.864   2.701  0.00  0.00     0.015 A 
ATOM      7  C7  IND d   1      -1.974   0.013   1.705  0.00  0.00    -0.016 A 
ATOM      8  C8  IND d   1      -1.015  -0.323   0.759  0.00  0.00    -0.047 A 
ATOM      9  C9  IND d   1       0.284   0.200   0.800  0.00  0.00    -0.096 A 
ATOM     10  HN1 IND d   1      -1.796  -1.559  -0.614  0.00  0.00     0.298 HD
ENDROOT
TORSDOF 0
ENDMDL
