MODEL 1
REMARK minimizedAffinity -3.01838493
REMARK minimizedRMSD -1
REMARK  0 active torsions:
REMARK  status: ('A' for Active; 'I' for Inactive)
ROOT
ATOM      1  N1  IND d   1      -0.564  -0.980  -0.138  0.00  0.00    -0.196 N 
ATOM      2  C2  IND d   1       0.751  -1.067  -0.499  0.00  0.00     0.054 A 
ATOM      3  C3  IND d   1       1.496  -0.201   0.224  0.00  0.00    -0.031 A 
ATOM      4  C4  IND d   1       0.779   1.379   2.126  0.00  0.00     0.051 A 
ATOM      5  C5  IND d   1      -0.326   1.836   2.788  0.00  0.00    -0.031 A 
ATOM      6  C6  IND d   1      -1.592   1.366   2.505  0.00  0.00     0.015 A 
ATOM      7  C7  IND d   1      -1.800   0.409   1.553  0.00  0.00    -0.016 A 
ATOM      8  C8  IND d   1      -0.681  -0.052   0.873  0.00  0.00    -0.047 A 
ATOM      9  C9  IND d   1       0.601   0.452   1.127  0.00  0.00    -0.096 A 
ATOM     10  HN1 IND d   1      -1.210  -1.430  -0.484  0.00  0.00     0.298 HD
ENDROOT
TORSDOF 0
ENDMDL
