MODEL 1
REMARK minimizedAffinity -4.48028231
REMARK minimizedRMSD -1
REMARK  0 active torsions:
REMARK  status: ('A' for Active; 'I' for Inactive)
ROOT
ATOM      1  N1  IND d   1      -0.674  -0.710  -0.446  0.00  0.00    -0.196 N 
ATOM      2  C2  IND d   1       0.632  -0.652  -0.845  0.00  0.00     0.054 A 
ATOM      3  C3  IND d   1       1.342   0.143  -0.014  0.00  0.00    -0.031 A 
ATOM      4  C4  IND d   1       0.586   1.368   2.121  0.00  0.00     0.051 A 
ATOM      5  C5  IND d   1      -0.525   1.645   2.868  0.00  0.00    -0.031 A 
ATOM      6  C6  IND d   1      -1.766   1.138   2.543  0.00  0.00     0.015 A 
ATOM      7  C7  IND d   1      -1.943   0.323   1.461  0.00  0.00    -0.016 A 
ATOM      8  C8  IND d   1      -0.818   0.045   0.696  0.00  0.00    -0.047 A 
ATOM      9  C9  IND d   1       0.436   0.591   0.996  0.00  0.00    -0.096 A 
ATOM     10  HN1 IND d   1      -1.301  -1.146  -0.843  0.00  0.00     0.298 HD
ENDROOT
TORSDOF 0
ENDMDL
