MODEL 1
REMARK minimizedAffinity -4.10407066
REMARK minimizedRMSD -1
REMARK  0 active torsions:
REMARK  status: ('A' for Active; 'I' for Inactive)
ROOT
ATOM      1  N1  IND d   1       1.103  -0.472  -0.446  0.00  0.00    -0.196 N 
ATOM      2  C2  IND d   1       0.214  -1.208  -1.178  0.00  0.00     0.054 A 
ATOM      3  C3  IND d   1      -1.023  -1.123  -0.639  0.00  0.00    -0.031 A 
ATOM      4  C4  IND d   1      -1.837   0.248   1.382  0.00  0.00     0.051 A 
ATOM      5  C5  IND d   1      -1.384   1.049   2.392  0.00  0.00    -0.031 A 
ATOM      6  C6  IND d   1      -0.053   1.394   2.509  0.00  0.00     0.015 A 
ATOM      7  C7  IND d   1       0.877   0.957   1.609  0.00  0.00    -0.016 A 
ATOM      8  C8  IND d   1       0.423   0.137   0.586  0.00  0.00    -0.047 A 
ATOM      9  C9  IND d   1      -0.920  -0.250   0.487  0.00  0.00    -0.096 A 
ATOM     10  HN1 IND d   1       1.945  -0.401  -0.603  0.00  0.00     0.298 HD
ENDROOT
TORSDOF 0
ENDMDL
