MODEL 1
REMARK minimizedAffinity -3.74514723
REMARK minimizedRMSD -1
REMARK  0 active torsions:
REMARK  status: ('A' for Active; 'I' for Inactive)
ROOT
ATOM      1  N1  IND d   1      -0.665  -0.912  -0.761  0.00  0.00    -0.196 N 
ATOM      2  C2  IND d   1       0.650  -1.051  -1.110  0.00  0.00     0.054 A 
ATOM      3  C3  IND d   1       1.439  -0.365  -0.253  0.00  0.00    -0.031 A 
ATOM      4  C4  IND d   1       0.794   0.970   1.852  0.00  0.00     0.051 A 
ATOM      5  C5  IND d   1      -0.290   1.413   2.557  0.00  0.00    -0.031 A 
ATOM      6  C6  IND d   1      -1.580   1.095   2.186  0.00  0.00     0.015 A 
ATOM      7  C7  IND d   1      -1.835   0.309   1.097  0.00  0.00    -0.016 A 
ATOM      8  C8  IND d   1      -0.737  -0.137   0.375  0.00  0.00    -0.047 A 
ATOM      9  C9  IND d   1       0.573   0.218   0.722  0.00  0.00    -0.096 A 
ATOM     10  HN1 IND d   1      -1.334  -1.251  -1.181  0.00  0.00     0.298 HD
ENDROOT
TORSDOF 0
ENDMDL
