MODEL 1
REMARK minimizedAffinity -4.13103724
REMARK minimizedRMSD -1
REMARK  0 active torsions:
REMARK  status: ('A' for Active; 'I' for Inactive)
ROOT
ATOM      1  N1  IND d   1      -0.843  -0.386  -0.912  0.00  0.00    -0.196 N 
ATOM      2  C2  IND d   1       0.503  -0.534  -1.101  0.00  0.00     0.054 A 
ATOM      3  C3  IND d   1       1.179  -0.136  -0.000  0.00  0.00    -0.031 A 
ATOM      4  C4  IND d   1       0.275   0.697   2.262  0.00  0.00     0.051 A 
ATOM      5  C5  IND d   1      -0.885   1.036   2.900  0.00  0.00    -0.031 A 
ATOM      6  C6  IND d   1      -2.116   0.913   2.288  0.00  0.00     0.015 A 
ATOM      7  C7  IND d   1      -2.234   0.434   1.014  0.00  0.00    -0.016 A 
ATOM      8  C8  IND d   1      -1.057   0.095   0.361  0.00  0.00    -0.047 A 
ATOM      9  C9  IND d   1       0.198   0.258   0.961  0.00  0.00    -0.096 A 
ATOM     10  HN1 IND d   1      -1.454  -0.563  -1.491  0.00  0.00     0.298 HD
ENDROOT
TORSDOF 0
ENDMDL
