MODEL 1
REMARK minimizedAffinity -2.64841628
REMARK minimizedRMSD -1
REMARK  0 active torsions:
REMARK  status: ('A' for Active; 'I' for Inactive)
ROOT
ATOM      1  N1  IND d   1      -0.710  -0.125  -0.804  0.00  0.00    -0.196 N 
ATOM      2  C2  IND d   1       0.511  -0.395  -1.356  0.00  0.00     0.054 A 
ATOM      3  C3  IND d   1       1.499  -0.093  -0.484  0.00  0.00    -0.031 A 
ATOM      4  C4  IND d   1       1.336   0.760   1.939  0.00  0.00     0.051 A 
ATOM      5  C5  IND d   1       0.434   1.191   2.871  0.00  0.00    -0.031 A 
ATOM      6  C6  IND d   1      -0.923   1.202   2.622  0.00  0.00     0.015 A 
ATOM      7  C7  IND d   1      -1.432   0.771   1.430  0.00  0.00    -0.016 A 
ATOM      8  C8  IND d   1      -0.518   0.340   0.478  0.00  0.00    -0.047 A 
ATOM      9  C9  IND d   1       0.863   0.366   0.710  0.00  0.00    -0.096 A 
ATOM     10  HN1 IND d   1      -1.470  -0.228  -1.193  0.00  0.00     0.298 HD
ENDROOT
TORSDOF 0
ENDMDL
