MODEL 1
REMARK minimizedAffinity -2.71640778
REMARK minimizedRMSD -1
REMARK  0 active torsions:
REMARK  status: ('A' for Active; 'I' for Inactive)
ROOT
ATOM      1  C   UNL d   1       0.466   0.348   1.780  0.00  0.00     0.020 A 
ATOM      2  C1  UNL d   1      -0.386   0.976   0.872  0.00  0.00     0.020 A 
ATOM      3  C2  UNL d   1      -0.173   0.832  -0.500  0.00  0.00     0.034 A 
ATOM      4  C3  UNL d   1       0.895   0.058  -0.969  0.00  0.00     0.017 A 
ATOM      5  C4  UNL d   1       1.750  -0.572  -0.058  0.00  0.00     0.017 A 
ATOM      6  C5  UNL d   1       1.532  -0.424   1.316  0.00  0.00     0.034 A 
ATOM      7 Cl   UNL d   1       3.089  -1.543  -0.560  0.00  0.00    -0.070 Cl
ATOM      8 Cl1  UNL d   1       1.100  -0.077  -2.680  0.00  0.00    -0.070 Cl
ENDROOT
TORSDOF 0
ENDMDL
