MODEL 1
REMARK minimizedAffinity -2.91868877
REMARK minimizedRMSD -1
REMARK  0 active torsions:
REMARK  status: ('A' for Active; 'I' for Inactive)
ROOT
ATOM      1  C   UNL d   1      -0.254  -0.117  -1.114  0.00  0.00     0.020 A 
ATOM      2  C1  UNL d   1      -1.579  -0.133  -0.680  0.00  0.00     0.020 A 
ATOM      3  C2  UNL d   1      -1.888   0.229   0.633  0.00  0.00     0.034 A 
ATOM      4  C3  UNL d   1      -0.871   0.609   1.517  0.00  0.00     0.017 A 
ATOM      5  C4  UNL d   1       0.458   0.624   1.080  0.00  0.00     0.017 A 
ATOM      6  C5  UNL d   1       0.762   0.261  -0.236  0.00  0.00     0.034 A 
ATOM      7 Cl   UNL d   1       1.767   1.081   2.112  0.00  0.00    -0.070 Cl
ATOM      8 Cl1  UNL d   1      -1.326   1.045   3.126  0.00  0.00    -0.070 Cl
ENDROOT
TORSDOF 0
ENDMDL
