MODEL 1
REMARK minimizedAffinity -3.13999963
REMARK minimizedRMSD -1
REMARK  0 active torsions:
REMARK  status: ('A' for Active; 'I' for Inactive)
ROOT
ATOM      1  C   UNL d   1      -1.144   0.652   0.331  0.00  0.00     0.020 A 
ATOM      2  C1  UNL d   1      -1.142   1.525  -0.756  0.00  0.00     0.020 A 
ATOM      3  C2  UNL d   1      -0.235   1.336  -1.802  0.00  0.00     0.034 A 
ATOM      4  C3  UNL d   1       0.674   0.272  -1.762  0.00  0.00     0.017 A 
ATOM      5  C4  UNL d   1       0.671  -0.604  -0.670  0.00  0.00     0.017 A 
ATOM      6  C5  UNL d   1      -0.240  -0.410   0.374  0.00  0.00     0.034 A 
ATOM      7 Cl   UNL d   1       1.761  -1.939  -0.551  0.00  0.00    -0.070 Cl
ATOM      8 Cl1  UNL d   1       1.766   0.099  -3.089  0.00  0.00    -0.070 Cl
ENDROOT
TORSDOF 0
ENDMDL
