MODEL 1
REMARK minimizedAffinity -3.91830587
REMARK minimizedRMSD -1
REMARK  0 active torsions:
REMARK  status: ('A' for Active; 'I' for Inactive)
ROOT
ATOM      1  C   UNL d   1       1.130  -1.439  -0.482  0.00  0.00     0.020 A 
ATOM      2  C1  UNL d   1       1.626  -1.035   0.756  0.00  0.00     0.020 A 
ATOM      3  C2  UNL d   1       0.802  -0.346   1.648  0.00  0.00     0.034 A 
ATOM      4  C3  UNL d   1      -0.524  -0.058   1.302  0.00  0.00     0.017 A 
ATOM      5  C4  UNL d   1      -1.021  -0.464   0.058  0.00  0.00     0.017 A 
ATOM      6  C5  UNL d   1      -0.191  -1.154  -0.831  0.00  0.00     0.034 A 
ATOM      7 Cl   UNL d   1      -2.645  -0.145  -0.440  0.00  0.00    -0.070 Cl
ATOM      8 Cl1  UNL d   1      -1.487   0.798   2.453  0.00  0.00    -0.070 Cl
ENDROOT
TORSDOF 0
ENDMDL
