MODEL 1
REMARK minimizedAffinity -3.34617233
REMARK minimizedRMSD -1
REMARK  0 active torsions:
REMARK  status: ('A' for Active; 'I' for Inactive)
ROOT
ATOM      1  C   UNL d   1       0.069   0.003  -1.300  0.00  0.00     0.020 A 
ATOM      2  C1  UNL d   1      -1.105   0.692  -0.997  0.00  0.00     0.020 A 
ATOM      3  C2  UNL d   1      -1.326   1.157   0.301  0.00  0.00     0.034 A 
ATOM      4  C3  UNL d   1      -0.372   0.935   1.301  0.00  0.00     0.017 A 
ATOM      5  C4  UNL d   1       0.806   0.244   0.996  0.00  0.00     0.017 A 
ATOM      6  C5  UNL d   1       1.022  -0.220  -0.306  0.00  0.00     0.034 A 
ATOM      7 Cl   UNL d   1       2.029  -0.069   2.176  0.00  0.00    -0.070 Cl
ATOM      8 Cl1  UNL d   1      -0.711   1.539   2.884  0.00  0.00    -0.070 Cl
ENDROOT
TORSDOF 0
ENDMDL
