MODEL 1
REMARK minimizedAffinity 0.150389731
REMARK minimizedRMSD -1
REMARK  0 active torsions:
REMARK  status: ('A' for Active; 'I' for Inactive)
ROOT
ATOM      1  C   UNL d   1      -1.919   1.025   1.783  0.00  0.00     0.020 A 
ATOM      2  C1  UNL d   1      -2.099   0.821   0.416  0.00  0.00     0.020 A 
ATOM      3  C2  UNL d   1      -1.122   0.155  -0.326  0.00  0.00     0.034 A 
ATOM      4  C3  UNL d   1       0.041  -0.309   0.299  0.00  0.00     0.017 A 
ATOM      5  C4  UNL d   1       0.222  -0.104   1.672  0.00  0.00     0.017 A 
ATOM      6  C5  UNL d   1      -0.760   0.563   2.410  0.00  0.00     0.034 A 
ATOM      7 Cl   UNL d   1       1.630  -0.649   2.513  0.00  0.00    -0.070 Cl
ATOM      8 Cl1  UNL d   1       1.209  -1.125  -0.680  0.00  0.00    -0.070 Cl
ENDROOT
TORSDOF 0
ENDMDL
