MODEL 1
REMARK minimizedAffinity -0.950254202
REMARK minimizedRMSD -1
REMARK  0 active torsions:
REMARK  status: ('A' for Active; 'I' for Inactive)
ROOT
ATOM      1  C   UNL d   1       0.181  -0.108  -0.595  0.00  0.00     0.020 A 
ATOM      2  C1  UNL d   1      -1.084   0.445  -0.399  0.00  0.00     0.020 A 
ATOM      3  C2  UNL d   1      -1.495   0.809   0.885  0.00  0.00     0.034 A 
ATOM      4  C3  UNL d   1      -0.642   0.619   1.978  0.00  0.00     0.017 A 
ATOM      5  C4  UNL d   1       0.628   0.063   1.780  0.00  0.00     0.017 A 
ATOM      6  C5  UNL d   1       1.034  -0.299   0.492  0.00  0.00     0.034 A 
ATOM      7 Cl   UNL d   1       1.737  -0.201   3.079  0.00  0.00    -0.070 Cl
ATOM      8 Cl1  UNL d   1      -1.216   1.092   3.538  0.00  0.00    -0.070 Cl
ENDROOT
TORSDOF 0
ENDMDL
