MODEL 1
REMARK minimizedAffinity -4.592309
REMARK minimizedRMSD -1
REMARK  0 active torsions:
REMARK  status: ('A' for Active; 'I' for Inactive)
ROOT
ATOM      1  C   UNL d   1       0.455  -0.181   3.913  0.00  0.00     0.020 A 
ATOM      2  C1  UNL d   1      -0.616   0.711   3.906  0.00  0.00     0.020 A 
ATOM      3  C2  UNL d   1      -1.238   1.046   2.702  0.00  0.00     0.034 A 
ATOM      4  C3  UNL d   1      -0.788   0.490   1.499  0.00  0.00     0.017 A 
ATOM      5  C4  UNL d   1       0.288  -0.405   1.507  0.00  0.00     0.017 A 
ATOM      6  C5  UNL d   1       0.906  -0.738   2.716  0.00  0.00     0.034 A 
ATOM      7 Cl   UNL d   1       0.899  -1.133   0.063  0.00  0.00    -0.070 Cl
ATOM      8 Cl1  UNL d   1      -1.604   0.949   0.046  0.00  0.00    -0.070 Cl
ENDROOT
TORSDOF 0
ENDMDL
