MODEL 1
REMARK minimizedAffinity -4.23334312
REMARK minimizedRMSD -1
REMARK  0 active torsions:
REMARK  status: ('A' for Active; 'I' for Inactive)
ROOT
ATOM      1  C   UNL d   1      -0.628  -0.395  -0.092  0.00  0.00     0.020 A 
ATOM      2  C1  UNL d   1      -1.700   0.172   0.596  0.00  0.00     0.020 A 
ATOM      3  C2  UNL d   1      -1.519   0.653   1.895  0.00  0.00     0.034 A 
ATOM      4  C3  UNL d   1      -0.264   0.568   2.509  0.00  0.00     0.017 A 
ATOM      5  C4  UNL d   1       0.811  -0.002   1.817  0.00  0.00     0.017 A 
ATOM      6  C5  UNL d   1       0.625  -0.482   0.517  0.00  0.00     0.034 A 
ATOM      7 Cl   UNL d   1       2.389  -0.141   2.508  0.00  0.00    -0.070 Cl
ATOM      8 Cl1  UNL d   1      -0.113   1.183   4.116  0.00  0.00    -0.070 Cl
ENDROOT
TORSDOF 0
ENDMDL
