MODEL 1
REMARK minimizedAffinity 15.0934229
REMARK minimizedRMSD -1
REMARK  2 active torsions:
REMARK  status: ('A' for Active; 'I' for Inactive)
REMARK    1  A    between atoms: C2'_3  and  C1'_4 
REMARK    2  A    between atoms: C1'_4  and  C1_5 
ROOT
ATOM      1  C1  I4B d   1      -1.994   3.687   0.292  0.00  0.00    -0.075 A 
ATOM      2  C2  I4B d   1      -1.129   3.207  -0.660  0.00  0.00     0.003 A 
ATOM      3  C3  I4B d   1      -0.421   2.002  -0.437  0.00  0.00     0.002 A 
ATOM      4  C4  I4B d   1      -0.567   1.340   0.765  0.00  0.00    -0.004 A 
ATOM      5  C5  I4B d   1      -1.461   1.816   1.720  0.00  0.00     0.002 A 
ATOM      6  C6  I4B d   1      -2.189   2.990   1.477  0.00  0.00     0.003 A 
ENDROOT
BRANCH   1   7
ATOM      7  C1' I4B d   1      -2.701   4.980   0.037  0.00  0.00     0.060 C 
BRANCH   7   8
ATOM      8  C2' I4B d   1      -3.669   5.216   1.179  0.00  0.00    -0.013 C 
ATOM      9  C4' I4B d   1      -3.020   5.998   2.291  0.00  0.00     0.013 C 
ATOM     10  C3' I4B d   1      -4.862   5.940   0.632  0.00  0.00     0.013 C 
ENDBRANCH   7   8
ENDBRANCH   1   7
TORSDOF 2
ENDMDL
