MODEL 1
REMARK minimizedAffinity 9.92529011
REMARK minimizedRMSD -1
REMARK  2 active torsions:
REMARK  status: ('A' for Active; 'I' for Inactive)
REMARK    1  A    between atoms: C2'_3  and  C1'_4 
REMARK    2  A    between atoms: C1'_4  and  C1_5 
ROOT
ATOM      1  C1  I4B d   1       2.873  -4.279  -0.690  0.00  0.00    -0.075 A 
ATOM      2  C2  I4B d   1       2.186  -5.455  -0.521  0.00  0.00     0.003 A 
ATOM      3  C3  I4B d   1       0.784  -5.495  -0.715  0.00  0.00     0.002 A 
ATOM      4  C4  I4B d   1       0.107  -4.334  -1.026  0.00  0.00    -0.004 A 
ATOM      5  C5  I4B d   1       0.808  -3.147  -1.219  0.00  0.00     0.002 A 
ATOM      6  C6  I4B d   1       2.202  -3.122  -1.063  0.00  0.00     0.003 A 
ENDROOT
BRANCH   1   7
ATOM      7  C1' I4B d   1       4.349  -4.265  -0.445  0.00  0.00     0.060 C 
BRANCH   7   8
ATOM      8  C2' I4B d   1       4.897  -5.627  -0.821  0.00  0.00    -0.013 C 
ATOM      9  C4' I4B d   1       5.462  -5.621  -2.217  0.00  0.00     0.013 C 
ATOM     10  C3' I4B d   1       5.945  -5.998   0.186  0.00  0.00     0.013 C 
ENDBRANCH   7   8
ENDBRANCH   1   7
TORSDOF 2
ENDMDL
