MODEL 1
REMARK minimizedAffinity 20.5893097
REMARK minimizedRMSD -1
REMARK  2 active torsions:
REMARK  status: ('A' for Active; 'I' for Inactive)
REMARK    1  A    between atoms: C2'_3  and  C1'_4 
REMARK    2  A    between atoms: C1'_4  and  C1_5 
ROOT
ATOM      1  C1  I4B d   1       3.343  -5.575  -2.045  0.00  0.00    -0.075 A 
ATOM      2  C2  I4B d   1       4.323  -5.870  -1.131  0.00  0.00     0.003 A 
ATOM      3  C3  I4B d   1       5.672  -5.987  -1.546  0.00  0.00     0.002 A 
ATOM      4  C4  I4B d   1       5.986  -5.853  -2.883  0.00  0.00    -0.004 A 
ATOM      5  C5  I4B d   1       4.994  -5.532  -3.804  0.00  0.00     0.002 A 
ATOM      6  C6  I4B d   1       3.665  -5.380  -3.381  0.00  0.00     0.003 A 
ENDROOT
BRANCH   1   7
ATOM      7  C1' I4B d   1       1.924  -5.491  -1.578  0.00  0.00     0.060 C 
BRANCH   7   8
ATOM      8  C2' I4B d   1       1.301  -4.256  -2.196  0.00  0.00    -0.013 C 
ATOM      9  C4' I4B d   1       0.031  -4.595  -2.931  0.00  0.00     0.013 C 
ATOM     10  C3' I4B d   1       1.044  -3.268  -1.098  0.00  0.00     0.013 C 
ENDBRANCH   7   8
ENDBRANCH   1   7
TORSDOF 2
ENDMDL
