MODEL 1
REMARK minimizedAffinity 13.6978617
REMARK minimizedRMSD -1
REMARK  2 active torsions:
REMARK  status: ('A' for Active; 'I' for Inactive)
REMARK    1  A    between atoms: C2'_3  and  C1'_4 
REMARK    2  A    between atoms: C1'_4  and  C1_5 
ROOT
ATOM      1  C1  I4B d   1       1.576   2.581   0.509  0.00  0.00    -0.075 A 
ATOM      2  C2  I4B d   1       0.607   2.199  -0.385  0.00  0.00     0.003 A 
ATOM      3  C3  I4B d   1       0.569   2.770  -1.681  0.00  0.00     0.002 A 
ATOM      4  C4  I4B d   1       1.480   3.749  -2.019  0.00  0.00    -0.004 A 
ATOM      5  C5  I4B d   1       2.475   4.119  -1.119  0.00  0.00     0.002 A 
ATOM      6  C6  I4B d   1       2.531   3.522   0.149  0.00  0.00     0.003 A 
ENDROOT
BRANCH   1   7
ATOM      7  C1' I4B d   1       1.567   1.982   1.880  0.00  0.00     0.060 C 
BRANCH   7   8
ATOM      8  C2' I4B d   1       2.989   1.996   2.404  0.00  0.00    -0.013 C 
ATOM      9  C4' I4B d   1       3.072   2.700   3.733  0.00  0.00     0.013 C 
ATOM     10  C3' I4B d   1       3.456   0.576   2.514  0.00  0.00     0.013 C 
ENDBRANCH   7   8
ENDBRANCH   1   7
TORSDOF 2
ENDMDL
