MODEL 1
REMARK minimizedAffinity 9.02002811
REMARK minimizedRMSD -1
REMARK  2 active torsions:
REMARK  status: ('A' for Active; 'I' for Inactive)
REMARK    1  A    between atoms: C2'_3  and  C1'_4 
REMARK    2  A    between atoms: C1'_4  and  C1_5 
ROOT
ATOM      1  C1  I4B d   1      -4.535   0.928   0.834  0.00  0.00    -0.075 A 
ATOM      2  C2  I4B d   1      -5.416   1.524   1.701  0.00  0.00     0.003 A 
ATOM      3  C3  I4B d   1      -5.996   0.777   2.755  0.00  0.00     0.002 A 
ATOM      4  C4  I4B d   1      -5.708  -0.567   2.873  0.00  0.00    -0.004 A 
ATOM      5  C5  I4B d   1      -4.796  -1.165   2.007  0.00  0.00     0.002 A 
ATOM      6  C6  I4B d   1      -4.197  -0.410   0.989  0.00  0.00     0.003 A 
ENDROOT
BRANCH   1   7
ATOM      7  C1' I4B d   1      -3.966   1.739  -0.287  0.00  0.00     0.060 C 
BRANCH   7   8
ATOM      8  C2' I4B d   1      -3.351   0.783  -1.288  0.00  0.00    -0.013 C 
ATOM      9  C4' I4B d   1      -4.334   0.417  -2.368  0.00  0.00     0.013 C 
ATOM     10  C3' I4B d   1      -2.132   1.440  -1.866  0.00  0.00     0.013 C 
ENDBRANCH   7   8
ENDBRANCH   1   7
TORSDOF 2
ENDMDL
