MODEL 1
REMARK minimizedAffinity 13.3278027
REMARK minimizedRMSD -1
REMARK  2 active torsions:
REMARK  status: ('A' for Active; 'I' for Inactive)
REMARK    1  A    between atoms: C2'_3  and  C1'_4 
REMARK    2  A    between atoms: C1'_4  and  C1_5 
ROOT
ATOM      1  C1  I4B d   1       0.228   3.227  -0.375  0.00  0.00    -0.075 A 
ATOM      2  C2  I4B d   1      -0.962   3.750   0.066  0.00  0.00     0.003 A 
ATOM      3  C3  I4B d   1      -1.499   3.347   1.312  0.00  0.00     0.002 A 
ATOM      4  C4  I4B d   1      -0.843   2.387   2.057  0.00  0.00    -0.004 A 
ATOM      5  C5  I4B d   1       0.375   1.875   1.619  0.00  0.00     0.002 A 
ATOM      6  C6  I4B d   1       0.920   2.307   0.401  0.00  0.00     0.003 A 
ENDROOT
BRANCH   1   7
ATOM      7  C1' I4B d   1       0.750   3.650  -1.712  0.00  0.00     0.060 C 
BRANCH   7   8
ATOM      8  C2' I4B d   1       1.004   5.143  -1.662  0.00  0.00    -0.013 C 
ATOM      9  C4' I4B d   1       2.242   5.460  -0.866  0.00  0.00     0.013 C 
ATOM     10  C3' I4B d   1       1.125   5.639  -3.072  0.00  0.00     0.013 C 
ENDBRANCH   7   8
ENDBRANCH   1   7
TORSDOF 2
ENDMDL
