MODEL 1
REMARK minimizedAffinity -2.76667333
REMARK minimizedRMSD -1
REMARK  1 active torsions:
REMARK  status: ('A' for Active; 'I' for Inactive)
REMARK    1  A    between atoms: C3_4  and  O_7 
ROOT
ATOM      1  C   UNL d   1      -3.776  -1.669   0.336  0.00  0.00    -0.033 A 
ATOM      2  C1  UNL d   1      -3.230  -2.264  -0.803  0.00  0.00     0.039 A 
ATOM      3  C2  UNL d   1      -1.910  -1.993  -1.169  0.00  0.00    -0.080 A 
ATOM      4  C3  UNL d   1      -1.148  -1.128  -0.389  0.00  0.00     0.150 A 
ATOM      5  C4  UNL d   1      -1.685  -0.535   0.749  0.00  0.00    -0.007 A 
ATOM      6  C5  UNL d   1      -3.003  -0.806   1.113  0.00  0.00     0.039 A 
ENDROOT
BRANCH   4   7
ATOM      7  O   UNL d   1       0.143  -0.829  -0.709  0.00  0.00    -0.526 OA
ATOM      8  H5  UNL d   1       0.369  -1.288  -1.535  0.00  0.00     0.418 HD
ENDBRANCH   4   7
TORSDOF 1
ENDMDL
