MODEL 1
REMARK minimizedAffinity -2.22699285
REMARK minimizedRMSD -1
REMARK  1 active torsions:
REMARK  status: ('A' for Active; 'I' for Inactive)
REMARK    1  A    between atoms: C3_4  and  O_7 
ROOT
ATOM      1  C   UNL d   1      -1.408  -2.858  -1.542  0.00  0.00    -0.033 A 
ATOM      2  C1  UNL d   1      -2.368  -3.169  -0.577  0.00  0.00     0.039 A 
ATOM      3  C2  UNL d   1      -2.922  -2.159   0.212  0.00  0.00    -0.080 A 
ATOM      4  C3  UNL d   1      -2.507  -0.843   0.026  0.00  0.00     0.150 A 
ATOM      5  C4  UNL d   1      -1.554  -0.525  -0.936  0.00  0.00    -0.007 A 
ATOM      6  C5  UNL d   1      -1.002  -1.535  -1.722  0.00  0.00     0.039 A 
ENDROOT
BRANCH   4   7
ATOM      7  O   UNL d   1      -3.015   0.177   0.775  0.00  0.00    -0.526 OA
ATOM      8  H5  UNL d   1      -3.642  -0.196   1.417  0.00  0.00     0.418 HD
ENDBRANCH   4   7
TORSDOF 1
ENDMDL
