MODEL 1
REMARK minimizedAffinity 0.530029774
REMARK minimizedRMSD -1
REMARK  1 active torsions:
REMARK  status: ('A' for Active; 'I' for Inactive)
REMARK    1  A    between atoms: C3_4  and  O_7 
ROOT
ATOM      1  C   UNL d   1      -3.536  -1.959  -0.030  0.00  0.00    -0.033 A 
ATOM      2  C1  UNL d   1      -2.948  -0.961   0.750  0.00  0.00     0.039 A 
ATOM      3  C2  UNL d   1      -1.677  -0.480   0.429  0.00  0.00    -0.080 A 
ATOM      4  C3  UNL d   1      -1.006  -1.004  -0.673  0.00  0.00     0.150 A 
ATOM      5  C4  UNL d   1      -1.587  -1.995  -1.456  0.00  0.00    -0.007 A 
ATOM      6  C5  UNL d   1      -2.856  -2.475  -1.134  0.00  0.00     0.039 A 
ENDROOT
BRANCH   4   7
ATOM      7  O   UNL d   1       0.238  -0.569  -1.022  0.00  0.00    -0.526 OA
ATOM      8  H5  UNL d   1       0.525   0.096  -0.374  0.00  0.00     0.418 HD
ENDBRANCH   4   7
TORSDOF 1
ENDMDL
