MODEL 1
REMARK minimizedAffinity -2.41322899
REMARK minimizedRMSD -1
REMARK  1 active torsions:
REMARK  status: ('A' for Active; 'I' for Inactive)
REMARK    1  A    between atoms: C3_4  and  O_7 
ROOT
ATOM      1  C   UNL d   1      -3.723  -1.981  -0.410  0.00  0.00    -0.033 A 
ATOM      2  C1  UNL d   1      -2.861  -2.711  -1.231  0.00  0.00     0.039 A 
ATOM      3  C2  UNL d   1      -1.512  -2.361  -1.316  0.00  0.00    -0.080 A 
ATOM      4  C3  UNL d   1      -1.038  -1.282  -0.576  0.00  0.00     0.150 A 
ATOM      5  C4  UNL d   1      -1.890  -0.552   0.247  0.00  0.00    -0.007 A 
ATOM      6  C5  UNL d   1      -3.237  -0.902   0.329  0.00  0.00     0.039 A 
ENDROOT
BRANCH   4   7
ATOM      7  O   UNL d   1       0.270  -0.900  -0.630  0.00  0.00    -0.526 OA
ATOM      8  H5  UNL d   1       0.733  -1.476  -1.260  0.00  0.00     0.418 HD
ENDBRANCH   4   7
TORSDOF 1
ENDMDL
