MODEL 1
REMARK minimizedAffinity 1.09226274
REMARK minimizedRMSD -1
REMARK  1 active torsions:
REMARK  status: ('A' for Active; 'I' for Inactive)
REMARK    1  A    between atoms: C3_4  and  O_7 
ROOT
ATOM      1  C   UNL d   1      -3.290  -3.806   0.697  0.00  0.00    -0.033 A 
ATOM      2  C1  UNL d   1      -2.255  -4.361  -0.058  0.00  0.00     0.039 A 
ATOM      3  C2  UNL d   1      -1.662  -3.622  -1.083  0.00  0.00    -0.080 A 
ATOM      4  C3  UNL d   1      -2.112  -2.330  -1.341  0.00  0.00     0.150 A 
ATOM      5  C4  UNL d   1      -3.140  -1.769  -0.591  0.00  0.00    -0.007 A 
ATOM      6  C5  UNL d   1      -3.732  -2.510   0.432  0.00  0.00     0.039 A 
ENDROOT
BRANCH   4   7
ATOM      7  O   UNL d   1      -1.567  -1.571  -2.335  0.00  0.00    -0.526 OA
ATOM      8  H5  UNL d   1      -0.888  -2.099  -2.787  0.00  0.00     0.418 HD
ENDBRANCH   4   7
TORSDOF 1
ENDMDL
