MODEL 1
REMARK minimizedAffinity -4.06178474
REMARK minimizedRMSD -1
REMARK  1 active torsions:
REMARK  status: ('A' for Active; 'I' for Inactive)
REMARK    1  A    between atoms: C3_4  and  O_7 
ROOT
ATOM      1  C   UNL d   1      -5.224   3.410   5.909  0.00  0.00    -0.033 A 
ATOM      2  C1  UNL d   1      -5.661   4.704   5.623  0.00  0.00     0.039 A 
ATOM      3  C2  UNL d   1      -5.696   5.156   4.302  0.00  0.00    -0.080 A 
ATOM      4  C3  UNL d   1      -5.293   4.303   3.278  0.00  0.00     0.150 A 
ATOM      5  C4  UNL d   1      -4.859   3.011   3.555  0.00  0.00    -0.007 A 
ATOM      6  C5  UNL d   1      -4.824   2.562   4.875  0.00  0.00     0.039 A 
ENDROOT
BRANCH   4   7
ATOM      7  O   UNL d   1      -5.305   4.701   1.974  0.00  0.00    -0.526 OA
ATOM      8  H5  UNL d   1      -5.600   5.626   1.937  0.00  0.00     0.418 HD
ENDBRANCH   4   7
TORSDOF 1
ENDMDL
