MODEL 1
REMARK minimizedAffinity -4.2053113
REMARK minimizedRMSD -1
REMARK  1 active torsions:
REMARK  status: ('A' for Active; 'I' for Inactive)
REMARK    1  A    between atoms: C3_4  and  O_7 
ROOT
ATOM      1  C   UNL d   1      -3.781  -2.205  -0.149  0.00  0.00    -0.033 A 
ATOM      2  C1  UNL d   1      -3.051  -2.859  -1.144  0.00  0.00     0.039 A 
ATOM      3  C2  UNL d   1      -1.714  -2.523  -1.366  0.00  0.00    -0.080 A 
ATOM      4  C3  UNL d   1      -1.120  -1.534  -0.588  0.00  0.00     0.150 A 
ATOM      5  C4  UNL d   1      -1.839  -0.881   0.408  0.00  0.00    -0.007 A 
ATOM      6  C5  UNL d   1      -3.175  -1.217   0.628  0.00  0.00     0.039 A 
ENDROOT
BRANCH   4   7
ATOM      7  O   UNL d   1       0.181  -1.168  -0.771  0.00  0.00    -0.526 OA
ATOM      8  H5  UNL d   1       0.544  -1.683  -1.511  0.00  0.00     0.418 HD
ENDBRANCH   4   7
TORSDOF 1
ENDMDL
