MODEL 1
REMARK minimizedAffinity -1.08321679
REMARK minimizedRMSD -1
REMARK  1 active torsions:
REMARK  status: ('A' for Active; 'I' for Inactive)
REMARK    1  A    between atoms: C3_4  and  O_7 
ROOT
ATOM      1  C   UNL d   1      -1.360  -2.500   0.082  0.00  0.00    -0.033 A 
ATOM      2  C1  UNL d   1      -0.849  -1.201   0.042  0.00  0.00     0.039 A 
ATOM      3  C2  UNL d   1      -0.879  -0.473  -1.149  0.00  0.00    -0.080 A 
ATOM      4  C3  UNL d   1      -1.424  -1.054  -2.291  0.00  0.00     0.150 A 
ATOM      5  C4  UNL d   1      -1.939  -2.345  -2.258  0.00  0.00    -0.007 A 
ATOM      6  C5  UNL d   1      -1.907  -3.071  -1.068  0.00  0.00     0.039 A 
ENDROOT
BRANCH   4   7
ATOM      7  O   UNL d   1      -1.472  -0.384  -3.478  0.00  0.00    -0.526 OA
ATOM      8  H5  UNL d   1      -1.054   0.485  -3.357  0.00  0.00     0.418 HD
ENDBRANCH   4   7
TORSDOF 1
ENDMDL
