MODEL 1
REMARK minimizedAffinity -3.3881619
REMARK minimizedRMSD -1
REMARK  1 active torsions:
REMARK  status: ('A' for Active; 'I' for Inactive)
REMARK    1  A    between atoms: C3_4  and  O_7 
ROOT
ATOM      1  C   UNL d   1      -5.192   4.167   5.429  0.00  0.00    -0.033 A 
ATOM      2  C1  UNL d   1      -6.000   5.183   4.914  0.00  0.00     0.039 A 
ATOM      3  C2  UNL d   1      -5.656   5.810   3.716  0.00  0.00    -0.080 A 
ATOM      4  C3  UNL d   1      -4.504   5.413   3.042  0.00  0.00     0.150 A 
ATOM      5  C4  UNL d   1      -3.697   4.399   3.547  0.00  0.00    -0.007 A 
ATOM      6  C5  UNL d   1      -4.042   3.774   4.745  0.00  0.00     0.039 A 
ENDROOT
BRANCH   4   7
ATOM      7  O   UNL d   1      -4.125   5.999   1.871  0.00  0.00    -0.526 OA
ATOM      8  H5  UNL d   1      -4.762   6.702   1.659  0.00  0.00     0.418 HD
ENDBRANCH   4   7
TORSDOF 1
ENDMDL
