MODEL 1
REMARK minimizedAffinity -3.47430134
REMARK minimizedRMSD -1
REMARK  1 active torsions:
REMARK  status: ('A' for Active; 'I' for Inactive)
REMARK    1  A    between atoms: C3_4  and  O_7 
ROOT
ATOM      1  C   UNL d   1      -5.333   4.327   4.821  0.00  0.00    -0.033 A 
ATOM      2  C1  UNL d   1      -4.723   3.442   3.930  0.00  0.00     0.039 A 
ATOM      3  C2  UNL d   1      -4.481   3.832   2.611  0.00  0.00    -0.080 A 
ATOM      4  C3  UNL d   1      -4.853   5.109   2.198  0.00  0.00     0.150 A 
ATOM      5  C4  UNL d   1      -5.458   5.996   3.081  0.00  0.00    -0.007 A 
ATOM      6  C5  UNL d   1      -5.699   5.604   4.397  0.00  0.00     0.039 A 
ENDROOT
BRANCH   4   7
ATOM      7  O   UNL d   1      -4.642   5.533   0.920  0.00  0.00    -0.526 OA
ATOM      8  H5  UNL d   1      -4.243   4.804   0.415  0.00  0.00     0.418 HD
ENDBRANCH   4   7
TORSDOF 1
ENDMDL
