MODEL 1
REMARK minimizedAffinity -2.07830596
REMARK minimizedRMSD -1
REMARK  1 active torsions:
REMARK  status: ('A' for Active; 'I' for Inactive)
REMARK    1  A    between atoms: C3_4  and  O_7 
ROOT
ATOM      1  C   UNL d   1      -5.712   4.794  -0.673  0.00  0.00    -0.033 A 
ATOM      2  C1  UNL d   1      -5.649   5.995   0.035  0.00  0.00     0.039 A 
ATOM      3  C2  UNL d   1      -5.477   5.982   1.421  0.00  0.00    -0.080 A 
ATOM      4  C3  UNL d   1      -5.369   4.764   2.085  0.00  0.00     0.150 A 
ATOM      5  C4  UNL d   1      -5.427   3.563   1.385  0.00  0.00    -0.007 A 
ATOM      6  C5  UNL d   1      -5.600   3.578   0.001  0.00  0.00     0.039 A 
ENDROOT
BRANCH   4   7
ATOM      7  O   UNL d   1      -5.205   4.701   3.436  0.00  0.00    -0.526 OA
ATOM      8  H5  UNL d   1      -5.211   5.606   3.790  0.00  0.00     0.418 HD
ENDBRANCH   4   7
TORSDOF 1
ENDMDL
