MODEL 1
REMARK minimizedAffinity -3.91536355
REMARK minimizedRMSD -1
REMARK  1 active torsions:
REMARK  status: ('A' for Active; 'I' for Inactive)
REMARK    1  A    between atoms: C3_4  and  O_7 
ROOT
ATOM      1  C   UNL d   1      -4.568   3.685   5.228  0.00  0.00    -0.033 A 
ATOM      2  C1  UNL d   1      -3.742   4.650   4.650  0.00  0.00     0.039 A 
ATOM      3  C2  UNL d   1      -4.029   5.145   3.376  0.00  0.00    -0.080 A 
ATOM      4  C3  UNL d   1      -5.145   4.668   2.693  0.00  0.00     0.150 A 
ATOM      5  C4  UNL d   1      -5.974   3.709   3.265  0.00  0.00    -0.007 A 
ATOM      6  C5  UNL d   1      -5.685   3.215   4.537  0.00  0.00     0.039 A 
ENDROOT
BRANCH   4   7
ATOM      7  O   UNL d   1      -5.463   5.117   1.446  0.00  0.00    -0.526 OA
ATOM      8  H5  UNL d   1      -4.785   5.755   1.167  0.00  0.00     0.418 HD
ENDBRANCH   4   7
TORSDOF 1
ENDMDL
