MODEL 1
REMARK minimizedAffinity -1.57570982
REMARK minimizedRMSD -1
REMARK  1 active torsions:
REMARK  status: ('A' for Active; 'I' for Inactive)
REMARK    1  A    between atoms: C3_4  and  O_7 
ROOT
ATOM      1  C   UNL d   1      -5.959   4.264   3.975  0.00  0.00    -0.033 A 
ATOM      2  C1  UNL d   1      -5.941   3.285   2.979  0.00  0.00     0.039 A 
ATOM      3  C2  UNL d   1      -5.953   3.656   1.633  0.00  0.00    -0.080 A 
ATOM      4  C3  UNL d   1      -5.982   5.007   1.297  0.00  0.00     0.150 A 
ATOM      5  C4  UNL d   1      -5.996   5.987   2.284  0.00  0.00    -0.007 A 
ATOM      6  C5  UNL d   1      -5.985   5.614   3.628  0.00  0.00     0.039 A 
ENDROOT
BRANCH   4   7
ATOM      7  O   UNL d   1      -5.999   5.418  -0.003  0.00  0.00    -0.526 OA
ATOM      8  H5  UNL d   1      -6.015   4.631  -0.574  0.00  0.00     0.418 HD
ENDBRANCH   4   7
TORSDOF 1
ENDMDL
