MODEL 1
REMARK minimizedAffinity -2.16842079
REMARK minimizedRMSD -1
REMARK  1 active torsions:
REMARK  status: ('A' for Active; 'I' for Inactive)
REMARK    1  A    between atoms: C3_4  and  O_7 
ROOT
ATOM      1  C   UNL d   1      -5.479   4.249   3.733  0.00  0.00    -0.033 A 
ATOM      2  C1  UNL d   1      -6.000   5.509   3.433  0.00  0.00     0.039 A 
ATOM      3  C2  UNL d   1      -5.937   6.000   2.127  0.00  0.00    -0.080 A 
ATOM      4  C3  UNL d   1      -5.353   5.221   1.132  0.00  0.00     0.150 A 
ATOM      5  C4  UNL d   1      -4.836   3.963   1.423  0.00  0.00    -0.007 A 
ATOM      6  C5  UNL d   1      -4.898   3.475   2.727  0.00  0.00     0.039 A 
ENDROOT
BRANCH   4   7
ATOM      7  O   UNL d   1      -5.264   5.660  -0.156  0.00  0.00    -0.526 OA
ATOM      8  H5  UNL d   1      -5.636   6.556  -0.202  0.00  0.00     0.418 HD
ENDBRANCH   4   7
TORSDOF 1
ENDMDL
