MODEL 1
REMARK minimizedAffinity -3.43281031
REMARK minimizedRMSD -1
REMARK  1 active torsions:
REMARK  status: ('A' for Active; 'I' for Inactive)
REMARK    1  A    between atoms: C3_4  and  O_7 
ROOT
ATOM      1  C   UNL d   1      -5.722   4.239   4.251  0.00  0.00    -0.033 A 
ATOM      2  C1  UNL d   1      -5.989   3.384   3.180  0.00  0.00     0.039 A 
ATOM      3  C2  UNL d   1      -5.834   3.835   1.868  0.00  0.00    -0.080 A 
ATOM      4  C3  UNL d   1      -5.411   5.142   1.640  0.00  0.00     0.150 A 
ATOM      5  C4  UNL d   1      -5.138   5.998   2.702  0.00  0.00    -0.007 A 
ATOM      6  C5  UNL d   1      -5.295   5.546   4.012  0.00  0.00     0.039 A 
ENDROOT
BRANCH   4   7
ATOM      7  O   UNL d   1      -5.250   5.629   0.377  0.00  0.00    -0.526 OA
ATOM      8  H5  UNL d   1      -5.502   4.935  -0.255  0.00  0.00     0.418 HD
ENDBRANCH   4   7
TORSDOF 1
ENDMDL
