MODEL 1
REMARK minimizedAffinity -3.18306422
REMARK minimizedRMSD -1
REMARK  1 active torsions:
REMARK  status: ('A' for Active; 'I' for Inactive)
REMARK    1  A    between atoms: C3_4  and  O_7 
ROOT
ATOM      1  C   UNL d   1      -5.436   4.666   4.738  0.00  0.00    -0.033 A 
ATOM      2  C1  UNL d   1      -5.989   3.685   3.913  0.00  0.00     0.039 A 
ATOM      3  C2  UNL d   1      -6.000   3.861   2.528  0.00  0.00    -0.080 A 
ATOM      4  C3  UNL d   1      -5.455   5.019   1.981  0.00  0.00     0.150 A 
ATOM      5  C4  UNL d   1      -4.899   5.999   2.797  0.00  0.00    -0.007 A 
ATOM      6  C5  UNL d   1      -4.889   5.823   4.180  0.00  0.00     0.039 A 
ENDROOT
BRANCH   4   7
ATOM      7  O   UNL d   1      -5.447   5.237   0.636  0.00  0.00    -0.526 OA
ATOM      8  H5  UNL d   1      -5.890   4.489   0.200  0.00  0.00     0.418 HD
ENDBRANCH   4   7
TORSDOF 1
ENDMDL
