MODEL 1
REMARK minimizedAffinity 1.14829099
REMARK minimizedRMSD -1
REMARK  0 active torsions:
REMARK  status: ('A' for Active; 'I' for Inactive)
ROOT
ATOM      1  C   UNL d   1      -0.116   3.364  -1.110  0.00  0.00     0.172 C 
ATOM      2  N   UNL d   1      -0.614   2.057  -1.472  0.00  0.00    -0.070 N 
ATOM      3  C1  UNL d   1       0.132   0.911  -1.546  0.00  0.00    -0.004 A 
ATOM      4  C2  UNL d   1      -0.708  -0.115  -1.923  0.00  0.00    -0.047 A 
ATOM      5  C3  UNL d   1      -2.002   0.434  -2.082  0.00  0.00    -0.047 A 
ATOM      6  C4  UNL d   1      -1.916   1.780  -1.796  0.00  0.00    -0.004 A 
ENDROOT
TORSDOF 0
ENDMDL
