MODEL 1
REMARK minimizedAffinity 0.383868963
REMARK minimizedRMSD -1
REMARK  0 active torsions:
REMARK  status: ('A' for Active; 'I' for Inactive)
ROOT
ATOM      1  C   UNL d   1       0.043   2.901  -0.848  0.00  0.00     0.172 C 
ATOM      2  N   UNL d   1      -0.596   1.791  -1.516  0.00  0.00    -0.070 N 
ATOM      3  C1  UNL d   1      -1.946   1.622  -1.670  0.00  0.00    -0.004 A 
ATOM      4  C2  UNL d   1      -2.148   0.445  -2.359  0.00  0.00    -0.047 A 
ATOM      5  C3  UNL d   1      -0.875  -0.113  -2.626  0.00  0.00    -0.047 A 
ATOM      6  C4  UNL d   1       0.068   0.740  -2.093  0.00  0.00    -0.004 A 
ENDROOT
TORSDOF 0
ENDMDL
