MODEL 1
REMARK minimizedAffinity 1.41753542
REMARK minimizedRMSD -1
REMARK  0 active torsions:
REMARK  status: ('A' for Active; 'I' for Inactive)
ROOT
ATOM      1  C   UNL d   1      -1.102   2.639   1.502  0.00  0.00     0.172 C 
ATOM      2  N   UNL d   1      -1.035   3.887   0.778  0.00  0.00    -0.070 N 
ATOM      3  C1  UNL d   1      -0.289   4.118  -0.347  0.00  0.00    -0.004 A 
ATOM      4  C2  UNL d   1      -0.498   5.425  -0.730  0.00  0.00    -0.047 A 
ATOM      5  C3  UNL d   1      -1.399   6.000   0.198  0.00  0.00    -0.047 A 
ATOM      6  C4  UNL d   1      -1.715   5.025   1.121  0.00  0.00    -0.004 A 
ENDROOT
TORSDOF 0
ENDMDL
