MODEL 1
REMARK minimizedAffinity -1.58258176
REMARK minimizedRMSD -1
REMARK  0 active torsions:
REMARK  status: ('A' for Active; 'I' for Inactive)
ROOT
ATOM      1  C   UNL d   1       0.520   1.912   2.613  0.00  0.00     0.172 C 
ATOM      2  N   UNL d   1       1.060   3.072   1.944  0.00  0.00    -0.070 N 
ATOM      3  C1  UNL d   1       2.051   3.884   2.429  0.00  0.00    -0.004 A 
ATOM      4  C2  UNL d   1       2.279   4.873   1.497  0.00  0.00    -0.047 A 
ATOM      5  C3  UNL d   1       1.395   4.648   0.415  0.00  0.00    -0.047 A 
ATOM      6  C4  UNL d   1       0.652   3.527   0.718  0.00  0.00    -0.004 A 
ENDROOT
TORSDOF 0
ENDMDL
