MODEL 1
REMARK minimizedAffinity -0.674046338
REMARK minimizedRMSD -1
REMARK  0 active torsions:
REMARK  status: ('A' for Active; 'I' for Inactive)
ROOT
ATOM      1  C   UNL d   1      -6.000  -1.516   0.730  0.00  0.00     0.172 C 
ATOM      2  N   UNL d   1      -5.784  -1.695   2.146  0.00  0.00    -0.070 N 
ATOM      3  C1  UNL d   1      -6.000  -2.851   2.847  0.00  0.00    -0.004 A 
ATOM      4  C2  UNL d   1      -5.676  -2.612   4.165  0.00  0.00    -0.047 A 
ATOM      5  C3  UNL d   1      -5.252  -1.265   4.260  0.00  0.00    -0.047 A 
ATOM      6  C4  UNL d   1      -5.329  -0.721   2.995  0.00  0.00    -0.004 A 
ENDROOT
TORSDOF 0
ENDMDL
