MODEL 1
REMARK minimizedAffinity 2.3761313
REMARK minimizedRMSD -1
REMARK  0 active torsions:
REMARK  status: ('A' for Active; 'I' for Inactive)
ROOT
ATOM      1  C   UNL d   1      -0.755   1.121  -1.116  0.00  0.00     0.172 C 
ATOM      2  N   UNL d   1      -0.226   2.442  -0.867  0.00  0.00    -0.070 N 
ATOM      3  C1  UNL d   1       0.369   2.858   0.294  0.00  0.00    -0.004 A 
ATOM      4  C2  UNL d   1       0.735   4.176   0.132  0.00  0.00    -0.047 A 
ATOM      5  C3  UNL d   1       0.346   4.567  -1.171  0.00  0.00    -0.047 A 
ATOM      6  C4  UNL d   1      -0.247   3.474  -1.768  0.00  0.00    -0.004 A 
ENDROOT
TORSDOF 0
ENDMDL
