MODEL 1
REMARK minimizedAffinity -3.24914718
REMARK minimizedRMSD -1
REMARK  0 active torsions:
REMARK  status: ('A' for Active; 'I' for Inactive)
ROOT
ATOM      1  C   UNL d   1      -0.306   1.184  -0.979  0.00  0.00     0.172 C 
ATOM      2  N   UNL d   1       0.059   2.238  -0.062  0.00  0.00    -0.070 N 
ATOM      3  C1  UNL d   1       0.134   2.120   1.301  0.00  0.00    -0.004 A 
ATOM      4  C2  UNL d   1       0.514   3.343   1.810  0.00  0.00    -0.047 A 
ATOM      5  C3  UNL d   1       0.671   4.227   0.716  0.00  0.00    -0.047 A 
ATOM      6  C4  UNL d   1       0.383   3.517  -0.431  0.00  0.00    -0.004 A 
ENDROOT
TORSDOF 0
ENDMDL
