MODEL 1
REMARK minimizedAffinity 0.308831304
REMARK minimizedRMSD -1
REMARK  1 active torsions:
REMARK  status: ('A' for Active; 'I' for Inactive)
REMARK    1  A    between atoms: C3_4  and  O_7 
ROOT
ATOM      1  C   UNL d   1       0.041  -2.192   1.367  0.00  0.00    -0.033 A 
ATOM      2  C1  UNL d   1       1.191  -2.615   0.699  0.00  0.00     0.039 A 
ATOM      3  C2  UNL d   1       1.262  -2.537  -0.693  0.00  0.00    -0.080 A 
ATOM      4  C3  UNL d   1       0.177  -2.032  -1.405  0.00  0.00     0.150 A 
ATOM      5  C4  UNL d   1      -0.971  -1.605  -0.746  0.00  0.00    -0.007 A 
ATOM      6  C5  UNL d   1      -1.040  -1.685   0.645  0.00  0.00     0.039 A 
ENDROOT
BRANCH   4   7
ATOM      7  O   UNL d   1       0.197  -1.940  -2.765  0.00  0.00    -0.526 OA
ATOM      8  H5  UNL d   1       1.041  -2.299  -3.085  0.00  0.00     0.418 HD
ENDBRANCH   4   7
TORSDOF 1
ENDMDL
