MODEL 1
REMARK minimizedAffinity -2.10072398
REMARK minimizedRMSD -1
REMARK  1 active torsions:
REMARK  status: ('A' for Active; 'I' for Inactive)
REMARK    1  A    between atoms: C3_4  and  O_7 
ROOT
ATOM      1  C   UNL d   1       0.491  -2.419   1.749  0.00  0.00    -0.033 A 
ATOM      2  C1  UNL d   1      -0.711  -2.093   1.118  0.00  0.00     0.039 A 
ATOM      3  C2  UNL d   1      -0.805  -2.134  -0.274  0.00  0.00    -0.080 A 
ATOM      4  C3  UNL d   1       0.309  -2.502  -1.024  0.00  0.00     0.150 A 
ATOM      5  C4  UNL d   1       1.509  -2.831  -0.402  0.00  0.00    -0.007 A 
ATOM      6  C5  UNL d   1       1.601  -2.789   0.989  0.00  0.00     0.039 A 
ENDROOT
BRANCH   4   7
ATOM      7  O   UNL d   1       0.268  -2.552  -2.385  0.00  0.00    -0.526 OA
ATOM      8  H5  UNL d   1      -0.616  -2.271  -2.677  0.00  0.00     0.418 HD
ENDBRANCH   4   7
TORSDOF 1
ENDMDL
