MODEL 1
REMARK minimizedAffinity -1.24229419
REMARK minimizedRMSD -1
REMARK  1 active torsions:
REMARK  status: ('A' for Active; 'I' for Inactive)
REMARK    1  A    between atoms: C3_4  and  O_7 
ROOT
ATOM      1  C   UNL d   1       1.776  -3.025   2.586  0.00  0.00    -0.033 A 
ATOM      2  C1  UNL d   1       1.011  -2.521   1.533  0.00  0.00     0.039 A 
ATOM      3  C2  UNL d   1       1.449  -1.400   0.825  0.00  0.00    -0.080 A 
ATOM      4  C3  UNL d   1       2.651  -0.794   1.179  0.00  0.00     0.150 A 
ATOM      5  C4  UNL d   1       3.420  -1.294   2.225  0.00  0.00    -0.007 A 
ATOM      6  C5  UNL d   1       2.981  -2.413   2.932  0.00  0.00     0.039 A 
ENDROOT
BRANCH   4   7
ATOM      7  O   UNL d   1       3.117   0.305   0.521  0.00  0.00    -0.526 OA
ATOM      8  H5  UNL d   1       2.468   0.555  -0.158  0.00  0.00     0.418 HD
ENDBRANCH   4   7
TORSDOF 1
ENDMDL
