MODEL 1
REMARK minimizedAffinity 0.28202495
REMARK minimizedRMSD -1
REMARK  1 active torsions:
REMARK  status: ('A' for Active; 'I' for Inactive)
REMARK    1  A    between atoms: C3_4  and  O_7 
ROOT
ATOM      1  C   UNL d   1       0.260  -2.299   1.937  0.00  0.00    -0.033 A 
ATOM      2  C1  UNL d   1       1.592  -2.334   2.354  0.00  0.00     0.039 A 
ATOM      3  C2  UNL d   1       2.452  -1.281   2.039  0.00  0.00    -0.080 A 
ATOM      4  C3  UNL d   1       1.968  -0.199   1.308  0.00  0.00     0.150 A 
ATOM      5  C4  UNL d   1       0.641  -0.156   0.893  0.00  0.00    -0.007 A 
ATOM      6  C5  UNL d   1      -0.216  -1.209   1.208  0.00  0.00     0.039 A 
ENDROOT
BRANCH   4   7
ATOM      7  O   UNL d   1       2.771   0.850   0.973  0.00  0.00    -0.526 OA
ATOM      8  H5  UNL d   1       3.667   0.670   1.302  0.00  0.00     0.418 HD
ENDBRANCH   4   7
TORSDOF 1
ENDMDL
