MODEL 1
REMARK minimizedAffinity 1.57067144
REMARK minimizedRMSD -1
REMARK  1 active torsions:
REMARK  status: ('A' for Active; 'I' for Inactive)
REMARK    1  A    between atoms: C3_4  and  O_7 
ROOT
ATOM      1  C   UNL d   1      -1.515  -1.524   0.852  0.00  0.00    -0.033 A 
ATOM      2  C1  UNL d   1      -0.527  -2.484   1.076  0.00  0.00     0.039 A 
ATOM      3  C2  UNL d   1       0.791  -2.089   1.317  0.00  0.00    -0.080 A 
ATOM      4  C3  UNL d   1       1.105  -0.733   1.332  0.00  0.00     0.150 A 
ATOM      5  C4  UNL d   1       0.125   0.229   1.114  0.00  0.00    -0.007 A 
ATOM      6  C5  UNL d   1      -1.190  -0.167   0.872  0.00  0.00     0.039 A 
ENDROOT
BRANCH   4   7
ATOM      7  O   UNL d   1       2.378  -0.300   1.559  0.00  0.00    -0.526 OA
ATOM      8  H5  UNL d   1       2.953  -1.076   1.664  0.00  0.00     0.418 HD
ENDBRANCH   4   7
TORSDOF 1
ENDMDL
