MODEL 1
REMARK minimizedAffinity 5.48150778
REMARK minimizedRMSD -1
REMARK  1 active torsions:
REMARK  status: ('A' for Active; 'I' for Inactive)
REMARK    1  A    between atoms: C3_4  and  O_7 
ROOT
ATOM      1  C   UNL d   1       2.242  -0.706   1.040  0.00  0.00    -0.033 A 
ATOM      2  C1  UNL d   1       1.325   0.343   1.137  0.00  0.00     0.039 A 
ATOM      3  C2  UNL d   1       1.417   1.258   2.188  0.00  0.00    -0.080 A 
ATOM      4  C3  UNL d   1       2.428   1.113   3.133  0.00  0.00     0.150 A 
ATOM      5  C4  UNL d   1       3.347   0.073   3.041  0.00  0.00    -0.007 A 
ATOM      6  C5  UNL d   1       3.253  -0.840   1.991  0.00  0.00     0.039 A 
ENDROOT
BRANCH   4   7
ATOM      7  O   UNL d   1       2.555   1.978   4.179  0.00  0.00    -0.526 OA
ATOM      8  H5  UNL d   1       1.834   2.628   4.130  0.00  0.00     0.418 HD
ENDBRANCH   4   7
TORSDOF 1
ENDMDL
