MODEL 1
REMARK minimizedAffinity 7.96519518
REMARK minimizedRMSD -1
REMARK  1 active torsions:
REMARK  status: ('A' for Active; 'I' for Inactive)
REMARK    1  A    between atoms: C3_4  and  O_7 
ROOT
ATOM      1  C   UNL d   1      -0.688  -2.150   0.611  0.00  0.00    -0.033 A 
ATOM      2  C1  UNL d   1      -1.440  -2.867  -0.321  0.00  0.00     0.039 A 
ATOM      3  C2  UNL d   1      -0.888  -3.199  -1.559  0.00  0.00    -0.080 A 
ATOM      4  C3  UNL d   1       0.416  -2.810  -1.852  0.00  0.00     0.150 A 
ATOM      5  C4  UNL d   1       1.173  -2.098  -0.927  0.00  0.00    -0.007 A 
ATOM      6  C5  UNL d   1       0.619  -1.766   0.309  0.00  0.00     0.039 A 
ENDROOT
BRANCH   4   7
ATOM      7  O   UNL d   1       0.997  -3.107  -3.050  0.00  0.00    -0.526 OA
ATOM      8  H5  UNL d   1       0.347  -3.576  -3.599  0.00  0.00     0.418 HD
ENDBRANCH   4   7
TORSDOF 1
ENDMDL
