MODEL 1
REMARK minimizedAffinity 6.72626352
REMARK minimizedRMSD -1
REMARK  1 active torsions:
REMARK  status: ('A' for Active; 'I' for Inactive)
REMARK    1  A    between atoms: C3_4  and  O_7 
ROOT
ATOM      1  C   UNL d   1       2.014   0.438   2.617  0.00  0.00    -0.033 A 
ATOM      2  C1  UNL d   1       2.558  -0.840   2.473  0.00  0.00     0.039 A 
ATOM      3  C2  UNL d   1       3.466  -1.103   1.446  0.00  0.00    -0.080 A 
ATOM      4  C3  UNL d   1       3.822  -0.080   0.571  0.00  0.00     0.150 A 
ATOM      5  C4  UNL d   1       3.287   1.196   0.711  0.00  0.00    -0.007 A 
ATOM      6  C5  UNL d   1       2.380   1.456   1.737  0.00  0.00     0.039 A 
ENDROOT
BRANCH   4   7
ATOM      7  O   UNL d   1       4.701  -0.290  -0.450  0.00  0.00    -0.526 OA
ATOM      8  H5  UNL d   1       4.965  -1.225  -0.441  0.00  0.00     0.418 HD
ENDBRANCH   4   7
TORSDOF 1
ENDMDL
