MODEL 1
REMARK minimizedAffinity 3.46413207
REMARK minimizedRMSD -1
REMARK  1 active torsions:
REMARK  status: ('A' for Active; 'I' for Inactive)
REMARK    1  A    between atoms: C3_4  and  O_7 
ROOT
ATOM      1  C   UNL d   1       1.737   0.540   1.689  0.00  0.00    -0.033 A 
ATOM      2  C1  UNL d   1       2.339  -0.713   1.554  0.00  0.00     0.039 A 
ATOM      3  C2  UNL d   1       3.404  -0.886   0.668  0.00  0.00    -0.080 A 
ATOM      4  C3  UNL d   1       3.858   0.200  -0.075  0.00  0.00     0.150 A 
ATOM      5  C4  UNL d   1       3.266   1.452   0.058  0.00  0.00    -0.007 A 
ATOM      6  C5  UNL d   1       2.202   1.623   0.942  0.00  0.00     0.039 A 
ENDROOT
BRANCH   4   7
ATOM      7  O   UNL d   1       4.891   0.079  -0.956  0.00  0.00    -0.526 OA
ATOM      8  H5  UNL d   1       5.182  -0.848  -0.963  0.00  0.00     0.418 HD
ENDBRANCH   4   7
TORSDOF 1
ENDMDL
