MODEL 1
REMARK minimizedAffinity 1.62416327
REMARK minimizedRMSD -1
REMARK  1 active torsions:
REMARK  status: ('A' for Active; 'I' for Inactive)
REMARK    1  A    between atoms: C3_4  and  O_7 
ROOT
ATOM      1  C   UNL d   1      -0.304   0.332   1.606  0.00  0.00    -0.033 A 
ATOM      2  C1  UNL d   1      -0.091  -0.940   1.070  0.00  0.00     0.039 A 
ATOM      3  C2  UNL d   1       1.210  -1.414   0.889  0.00  0.00    -0.080 A 
ATOM      4  C3  UNL d   1       2.287  -0.609   1.248  0.00  0.00     0.150 A 
ATOM      5  C4  UNL d   1       2.082   0.658   1.786  0.00  0.00    -0.007 A 
ATOM      6  C5  UNL d   1       0.783   1.130   1.966  0.00  0.00     0.039 A 
ENDROOT
BRANCH   4   7
ATOM      7  O   UNL d   1       3.575  -1.026   1.086  0.00  0.00    -0.526 OA
ATOM      8  H5  UNL d   1       3.563  -1.908   0.677  0.00  0.00     0.418 HD
ENDBRANCH   4   7
TORSDOF 1
ENDMDL
