MODEL 1
REMARK minimizedAffinity 0.814277947
REMARK minimizedRMSD -1
REMARK  1 active torsions:
REMARK  status: ('A' for Active; 'I' for Inactive)
REMARK    1  A    between atoms: C3_4  and  O_7 
ROOT
ATOM      1  C   UNL d   1       3.093  -0.917   1.028  0.00  0.00    -0.033 A 
ATOM      2  C1  UNL d   1       2.547  -2.153   0.674  0.00  0.00     0.039 A 
ATOM      3  C2  UNL d   1       1.179  -2.383   0.828  0.00  0.00    -0.080 A 
ATOM      4  C3  UNL d   1       0.368  -1.370   1.333  0.00  0.00     0.150 A 
ATOM      5  C4  UNL d   1       0.904  -0.136   1.683  0.00  0.00    -0.007 A 
ATOM      6  C5  UNL d   1       2.271   0.092   1.531  0.00  0.00     0.039 A 
ENDROOT
BRANCH   4   7
ATOM      7  O   UNL d   1      -0.973  -1.550   1.505  0.00  0.00    -0.526 OA
ATOM      8  H5  UNL d   1      -1.197  -2.460   1.249  0.00  0.00     0.418 HD
ENDBRANCH   4   7
TORSDOF 1
ENDMDL
