MODEL 1
REMARK minimizedAffinity -0.651788294
REMARK minimizedRMSD -1
REMARK  1 active torsions:
REMARK  status: ('A' for Active; 'I' for Inactive)
REMARK    1  A    between atoms: C3_4  and  O_7 
ROOT
ATOM      1  C   UNL d   1       2.311   1.595   1.144  0.00  0.00    -0.033 A 
ATOM      2  C1  UNL d   1       0.972   1.942   0.951  0.00  0.00     0.039 A 
ATOM      3  C2  UNL d   1      -0.026   0.973   1.069  0.00  0.00    -0.080 A 
ATOM      4  C3  UNL d   1       0.327  -0.337   1.379  0.00  0.00     0.150 A 
ATOM      5  C4  UNL d   1       1.659  -0.689   1.576  0.00  0.00    -0.007 A 
ATOM      6  C5  UNL d   1       2.654   0.280   1.457  0.00  0.00     0.039 A 
ENDROOT
BRANCH   4   7
ATOM      7  O   UNL d   1      -0.611  -1.319   1.500  0.00  0.00    -0.526 OA
ATOM      8  H5  UNL d   1      -1.483  -0.936   1.309  0.00  0.00     0.418 HD
ENDBRANCH   4   7
TORSDOF 1
ENDMDL
