MODEL 1
REMARK minimizedAffinity -4.74295282
REMARK minimizedRMSD -1
REMARK  1 active torsions:
REMARK  status: ('A' for Active; 'I' for Inactive)
REMARK    1  A    between atoms: C3_4  and  O_7 
ROOT
ATOM      1  C   UNL d   1       3.038  -1.139   1.487  0.00  0.00    -0.033 A 
ATOM      2  C1  UNL d   1       2.730   0.120   0.968  0.00  0.00     0.039 A 
ATOM      3  C2  UNL d   1       1.466   0.363   0.426  0.00  0.00    -0.080 A 
ATOM      4  C3  UNL d   1       0.521  -0.660   0.411  0.00  0.00     0.150 A 
ATOM      5  C4  UNL d   1       0.820  -1.915   0.930  0.00  0.00    -0.007 A 
ATOM      6  C5  UNL d   1       2.083  -2.156   1.470  0.00  0.00     0.039 A 
ENDROOT
BRANCH   4   7
ATOM      7  O   UNL d   1      -0.724  -0.471  -0.112  0.00  0.00    -0.526 OA
ATOM      8  H5  UNL d   1      -0.778   0.435  -0.459  0.00  0.00     0.418 HD
ENDBRANCH   4   7
TORSDOF 1
ENDMDL
