MODEL 1
REMARK minimizedAffinity -2.71398401
REMARK minimizedRMSD -1
REMARK  1 active torsions:
REMARK  status: ('A' for Active; 'I' for Inactive)
REMARK    1  A    between atoms: C3_4  and  O_7 
ROOT
ATOM      1  C   UNL d   1      -2.260   2.428  -2.610  0.00  0.00    -0.033 A 
ATOM      2  C1  UNL d   1      -3.024   1.411  -2.035  0.00  0.00     0.039 A 
ATOM      3  C2  UNL d   1      -4.214   1.003  -2.641  0.00  0.00    -0.080 A 
ATOM      4  C3  UNL d   1      -4.628   1.618  -3.819  0.00  0.00     0.150 A 
ATOM      5  C4  UNL d   1      -3.869   2.630  -4.399  0.00  0.00    -0.007 A 
ATOM      6  C5  UNL d   1      -2.681   3.037  -3.792  0.00  0.00     0.039 A 
ENDROOT
BRANCH   4   7
ATOM      7  O   UNL d   1      -5.784   1.257  -4.444  0.00  0.00    -0.526 OA
ATOM      8  H5  UNL d   1      -6.218   0.567  -3.914  0.00  0.00     0.418 HD
ENDBRANCH   4   7
TORSDOF 1
ENDMDL
