MODEL 1
REMARK minimizedAffinity -3.53042316
REMARK minimizedRMSD -1
REMARK  0 active torsions:
REMARK  status: ('A' for Active; 'I' for Inactive)
ROOT
ATOM      1  C2' OXE d   1      -1.685   1.313   1.808  0.00  0.00     0.078 C 
ATOM      2  C1' OXE d   1      -0.512  -1.076   2.701  0.00  0.00     0.078 C 
ATOM      3  C1  OXE d   1      -0.134  -0.576   1.329  0.00  0.00    -0.078 A 
ATOM      4  C2  OXE d   1      -0.748   0.569   0.882  0.00  0.00    -0.078 A 
ATOM      5  C3  OXE d   1      -0.395   1.103  -0.354  0.00  0.00     0.003 A 
ATOM      6  C4  OXE d   1       0.465   0.403  -1.209  0.00  0.00    -0.002 A 
ATOM      7  C5  OXE d   1       1.071  -0.786  -0.789  0.00  0.00    -0.002 A 
ATOM      8  C6  OXE d   1       0.816  -1.266   0.491  0.00  0.00     0.003 A 
ENDROOT
TORSDOF 0
ENDMDL
