MODEL 1
REMARK minimizedAffinity -4.15194416
REMARK minimizedRMSD -1
REMARK  0 active torsions:
REMARK  status: ('A' for Active; 'I' for Inactive)
ROOT
ATOM      1  C2' OXE d   1      -1.880   1.739   1.487  0.00  0.00     0.078 C 
ATOM      2  C1' OXE d   1      -0.455  -0.332   2.737  0.00  0.00     0.078 C 
ATOM      3  C1  OXE d   1      -0.016   0.091   1.357  0.00  0.00    -0.078 A 
ATOM      4  C2  OXE d   1      -0.748   1.073   0.734  0.00  0.00    -0.078 A 
ATOM      5  C3  OXE d   1      -0.354   1.538  -0.517  0.00  0.00     0.003 A 
ATOM      6  C4  OXE d   1       0.688   0.909  -1.211  0.00  0.00    -0.002 A 
ATOM      7  C5  OXE d   1       1.421  -0.120  -0.610  0.00  0.00    -0.002 A 
ATOM      8  C6  OXE d   1       1.110  -0.511   0.687  0.00  0.00     0.003 A 
ENDROOT
TORSDOF 0
ENDMDL
