MODEL 1
REMARK minimizedAffinity -3.59795403
REMARK minimizedRMSD -1
REMARK  0 active torsions:
REMARK  status: ('A' for Active; 'I' for Inactive)
ROOT
ATOM      1  C2' OXE d   1      -0.676  -0.619   1.822  0.00  0.00     0.078 C 
ATOM      2  C1' OXE d   1      -1.873   1.900   1.504  0.00  0.00     0.078 C 
ATOM      3  C1  OXE d   1      -0.827   1.487   0.499  0.00  0.00    -0.078 A 
ATOM      4  C2  OXE d   1      -0.213   0.272   0.689  0.00  0.00    -0.078 A 
ATOM      5  C3  OXE d   1       0.719  -0.182  -0.239  0.00  0.00     0.003 A 
ATOM      6  C4  OXE d   1       1.149   0.652  -1.278  0.00  0.00    -0.002 A 
ATOM      7  C5  OXE d   1       0.566   1.909  -1.467  0.00  0.00    -0.002 A 
ATOM      8  C6  OXE d   1      -0.452   2.323  -0.614  0.00  0.00     0.003 A 
ENDROOT
TORSDOF 0
ENDMDL
