MODEL 1
REMARK minimizedAffinity -4.59762526
REMARK minimizedRMSD -1
REMARK  0 active torsions:
REMARK  status: ('A' for Active; 'I' for Inactive)
ROOT
ATOM      1  C2' OXE d   1      -0.316  -0.899   2.231  0.00  0.00     0.078 C 
ATOM      2  C1' OXE d   1       0.761  -1.107  -0.353  0.00  0.00     0.078 C 
ATOM      3  C1  OXE d   1       0.064   0.178   0.017  0.00  0.00    -0.078 A 
ATOM      4  C2  OXE d   1      -0.501   0.253   1.268  0.00  0.00    -0.078 A 
ATOM      5  C3  OXE d   1      -1.108   1.436   1.680  0.00  0.00     0.003 A 
ATOM      6  C4  OXE d   1      -1.284   2.494   0.779  0.00  0.00    -0.002 A 
ATOM      7  C5  OXE d   1      -0.751   2.422  -0.512  0.00  0.00    -0.002 A 
ATOM      8  C6  OXE d   1      -0.039   1.291  -0.894  0.00  0.00     0.003 A 
ENDROOT
TORSDOF 0
ENDMDL
