MODEL 1
REMARK minimizedAffinity -1.67750132
REMARK minimizedRMSD -1
REMARK  0 active torsions:
REMARK  status: ('A' for Active; 'I' for Inactive)
ROOT
ATOM      1  C2' OXE d   1       0.644  -0.794  -0.731  0.00  0.00     0.078 C 
ATOM      2  C1' OXE d   1      -0.043  -1.341   1.935  0.00  0.00     0.078 C 
ATOM      3  C1  OXE d   1      -0.557  -0.061   1.324  0.00  0.00    -0.078 A 
ATOM      4  C2  OXE d   1      -0.178   0.221   0.034  0.00  0.00    -0.078 A 
ATOM      5  C3  OXE d   1      -0.669   1.361  -0.595  0.00  0.00     0.003 A 
ATOM      6  C4  OXE d   1      -1.420   2.300   0.123  0.00  0.00    -0.002 A 
ATOM      7  C5  OXE d   1      -1.784   2.051   1.451  0.00  0.00    -0.002 A 
ATOM      8  C6  OXE d   1      -1.398   0.858   2.051  0.00  0.00     0.003 A 
ENDROOT
TORSDOF 0
ENDMDL
