MODEL 1
REMARK minimizedAffinity -0.466723561
REMARK minimizedRMSD -1
REMARK  0 active torsions:
REMARK  status: ('A' for Active; 'I' for Inactive)
ROOT
ATOM      1  C2' OXE d   1       1.116  -0.823   1.497  0.00  0.00     0.078 C 
ATOM      2  C1' OXE d   1       0.258  -1.237  -1.144  0.00  0.00     0.078 C 
ATOM      3  C1  OXE d   1      -0.356  -0.094  -0.375  0.00  0.00    -0.078 A 
ATOM      4  C2  OXE d   1       0.035   0.072   0.931  0.00  0.00    -0.078 A 
ATOM      5  C3  OXE d   1      -0.460   1.144   1.668  0.00  0.00     0.003 A 
ATOM      6  C4  OXE d   1      -1.467   1.962   1.141  0.00  0.00    -0.002 A 
ATOM      7  C5  OXE d   1      -1.909   1.785  -0.174  0.00  0.00    -0.002 A 
ATOM      8  C6  OXE d   1      -1.335   0.791  -0.958  0.00  0.00     0.003 A 
ENDROOT
TORSDOF 0
ENDMDL
