MODEL 1
REMARK minimizedAffinity -5.80644941
REMARK minimizedRMSD -1
REMARK  0 active torsions:
REMARK  status: ('A' for Active; 'I' for Inactive)
ROOT
ATOM      1  C2' OXE d   1       0.981  -0.636  -0.478  0.00  0.00     0.078 C 
ATOM      2  C1' OXE d   1       1.324   1.806  -1.820  0.00  0.00     0.078 C 
ATOM      3  C1  OXE d   1       0.280   1.741  -0.732  0.00  0.00    -0.078 A 
ATOM      4  C2  OXE d   1       0.087   0.530  -0.113  0.00  0.00    -0.078 A 
ATOM      5  C3  OXE d   1      -0.824   0.428   0.934  0.00  0.00     0.003 A 
ATOM      6  C4  OXE d   1      -1.654   1.508   1.259  0.00  0.00    -0.002 A 
ATOM      7  C5  OXE d   1      -1.502   2.740   0.613  0.00  0.00    -0.002 A 
ATOM      8  C6  OXE d   1      -0.512   2.885  -0.353  0.00  0.00     0.003 A 
ENDROOT
TORSDOF 0
ENDMDL
