MODEL 1
REMARK minimizedAffinity -4.65366554
REMARK minimizedRMSD -1
REMARK  0 active torsions:
REMARK  status: ('A' for Active; 'I' for Inactive)
ROOT
ATOM      1  C2' OXE d   1      -0.004   2.659  -1.447  0.00  0.00     0.078 C 
ATOM      2  C1' OXE d   1      -1.715   2.072   0.699  0.00  0.00     0.078 C 
ATOM      3  C1  OXE d   1      -0.581   1.117   0.423  0.00  0.00    -0.078 A 
ATOM      4  C2  OXE d   1       0.223   1.387  -0.658  0.00  0.00    -0.078 A 
ATOM      5  C3  OXE d   1       1.317   0.568  -0.925  0.00  0.00     0.003 A 
ATOM      6  C4  OXE d   1       1.514  -0.611  -0.197  0.00  0.00    -0.002 A 
ATOM      7  C5  OXE d   1       0.682  -0.926   0.883  0.00  0.00    -0.002 A 
ATOM      8  C6  OXE d   1      -0.342  -0.052   1.232  0.00  0.00     0.003 A 
ENDROOT
TORSDOF 0
ENDMDL
