MODEL 1
REMARK minimizedAffinity -5.01808977
REMARK minimizedRMSD -1
REMARK  0 active torsions:
REMARK  status: ('A' for Active; 'I' for Inactive)
ROOT
ATOM      1  C2' OXE d   1       1.724   0.852  -1.369  0.00  0.00     0.078 C 
ATOM      2  C1' OXE d   1       0.755  -1.783  -1.356  0.00  0.00     0.078 C 
ATOM      3  C1  OXE d   1      -0.065  -0.728  -0.655  0.00  0.00    -0.078 A 
ATOM      4  C2  OXE d   1       0.441   0.550  -0.626  0.00  0.00    -0.078 A 
ATOM      5  C3  OXE d   1      -0.301   1.571  -0.041  0.00  0.00     0.003 A 
ATOM      6  C4  OXE d   1      -1.483   1.282   0.653  0.00  0.00    -0.002 A 
ATOM      7  C5  OXE d   1      -1.995  -0.020   0.670  0.00  0.00    -0.002 A 
ATOM      8  C6  OXE d   1      -1.322  -1.026  -0.014  0.00  0.00     0.003 A 
ENDROOT
TORSDOF 0
ENDMDL
