MODEL 1
REMARK minimizedAffinity -3.4345119
REMARK minimizedRMSD -1
REMARK  0 active torsions:
REMARK  status: ('A' for Active; 'I' for Inactive)
ROOT
ATOM      1  C2' OXE d   1       0.255  -0.811  -0.696  0.00  0.00     0.078 C 
ATOM      2  C1' OXE d   1      -0.936   1.713  -0.998  0.00  0.00     0.078 C 
ATOM      3  C1  OXE d   1      -0.695   1.212   0.404  0.00  0.00    -0.078 A 
ATOM      4  C2  OXE d   1      -0.154  -0.044   0.543  0.00  0.00    -0.078 A 
ATOM      5  C3  OXE d   1       0.139  -0.532   1.813  0.00  0.00     0.003 A 
ATOM      6  C4  OXE d   1      -0.253   0.179   2.953  0.00  0.00    -0.002 A 
ATOM      7  C5  OXE d   1      -0.841   1.443   2.835  0.00  0.00    -0.002 A 
ATOM      8  C6  OXE d   1      -1.030   1.991   1.571  0.00  0.00     0.003 A 
ENDROOT
TORSDOF 0
ENDMDL
