MODEL 1
REMARK minimizedAffinity -3.51598263
REMARK minimizedRMSD -1
REMARK  0 active torsions:
REMARK  status: ('A' for Active; 'I' for Inactive)
ROOT
ATOM      1  C2' OXE d   1      -0.315   1.309   2.587  0.00  0.00     0.078 C 
ATOM      2  C1' OXE d   1      -2.045   1.573   0.393  0.00  0.00     0.078 C 
ATOM      3  C1  OXE d   1      -0.856   0.657   0.245  0.00  0.00    -0.078 A 
ATOM      4  C2  OXE d   1       0.011   0.570   1.308  0.00  0.00    -0.078 A 
ATOM      5  C3  OXE d   1       1.094  -0.303   1.244  0.00  0.00     0.003 A 
ATOM      6  C4  OXE d   1       1.394  -0.975   0.053  0.00  0.00    -0.002 A 
ATOM      7  C5  OXE d   1       0.546  -0.869  -1.054  0.00  0.00    -0.002 A 
ATOM      8  C6  OXE d   1      -0.604  -0.093  -0.961  0.00  0.00     0.003 A 
ENDROOT
TORSDOF 0
ENDMDL
