MODEL 1
REMARK minimizedAffinity -4.5103569
REMARK minimizedRMSD -1
REMARK  0 active torsions:
REMARK  status: ('A' for Active; 'I' for Inactive)
ROOT
ATOM      1  C2' OXE d   1      -0.828   2.657  -1.372  0.00  0.00     0.078 C 
ATOM      2  C1' OXE d   1      -2.057   2.223   1.114  0.00  0.00     0.078 C 
ATOM      3  C1  OXE d   1      -0.885   1.348   0.746  0.00  0.00    -0.078 A 
ATOM      4  C2  OXE d   1      -0.320   1.536  -0.492  0.00  0.00    -0.078 A 
ATOM      5  C3  OXE d   1       0.798   0.793  -0.859  0.00  0.00     0.003 A 
ATOM      6  C4  OXE d   1       1.256  -0.249  -0.043  0.00  0.00    -0.002 A 
ATOM      7  C5  OXE d   1       0.669  -0.484   1.205  0.00  0.00    -0.002 A 
ATOM      8  C6  OXE d   1      -0.373   0.332   1.632  0.00  0.00     0.003 A 
ENDROOT
TORSDOF 0
ENDMDL
