MODEL 1
REMARK minimizedAffinity -3.84023833
REMARK minimizedRMSD -1
REMARK  0 active torsions:
REMARK  status: ('A' for Active; 'I' for Inactive)
ROOT
ATOM      1  C2' OXE d   1       0.614  -1.826  -1.534  0.00  0.00     0.078 C 
ATOM      2  C1' OXE d   1       1.982   0.512  -0.797  0.00  0.00     0.078 C 
ATOM      3  C1  OXE d   1       0.489   0.475  -0.587  0.00  0.00    -0.078 A 
ATOM      4  C2  OXE d   1      -0.179  -0.655  -0.994  0.00  0.00    -0.078 A 
ATOM      5  C3  OXE d   1      -1.549  -0.763  -0.774  0.00  0.00     0.003 A 
ATOM      6  C4  OXE d   1      -2.276   0.328  -0.283  0.00  0.00    -0.002 A 
ATOM      7  C5  OXE d   1      -1.621   1.503   0.100  0.00  0.00    -0.002 A 
ATOM      8  C6  OXE d   1      -0.237   1.577  -0.005  0.00  0.00     0.003 A 
ENDROOT
TORSDOF 0
ENDMDL
