MODEL 1
REMARK minimizedAffinity -3.23050618
REMARK minimizedRMSD -1
REMARK  0 active torsions:
REMARK  status: ('A' for Active; 'I' for Inactive)
ROOT
ATOM      1  C2' OXE d   1       0.314   2.664  -1.158  0.00  0.00     0.078 C 
ATOM      2  C1' OXE d   1       1.407   0.106  -0.782  0.00  0.00     0.078 C 
ATOM      3  C1  OXE d   1       0.352   0.570   0.191  0.00  0.00    -0.078 A 
ATOM      4  C2  OXE d   1      -0.144   1.841   0.026  0.00  0.00    -0.078 A 
ATOM      5  C3  OXE d   1      -1.158   2.299   0.863  0.00  0.00     0.003 A 
ATOM      6  C4  OXE d   1      -1.569   1.535   1.962  0.00  0.00    -0.002 A 
ATOM      7  C5  OXE d   1      -1.048   0.254   2.171  0.00  0.00    -0.002 A 
ATOM      8  C6  OXE d   1      -0.120  -0.260   1.272  0.00  0.00     0.003 A 
ENDROOT
TORSDOF 0
ENDMDL
