MODEL 1
REMARK minimizedAffinity -6.06022739
REMARK minimizedRMSD -1
REMARK  0 active torsions:
REMARK  status: ('A' for Active; 'I' for Inactive)
ROOT
ATOM      1  C2' OXE d   1       1.159  -0.397  -0.595  0.00  0.00     0.078 C 
ATOM      2  C1' OXE d   1       0.338   2.168  -1.388  0.00  0.00     0.078 C 
ATOM      3  C1  OXE d   1      -0.442   1.488  -0.291  0.00  0.00    -0.078 A 
ATOM      4  C2  OXE d   1      -0.063   0.214   0.058  0.00  0.00    -0.078 A 
ATOM      5  C3  OXE d   1      -0.714  -0.438   1.101  0.00  0.00     0.003 A 
ATOM      6  C4  OXE d   1      -1.849   0.130   1.693  0.00  0.00    -0.002 A 
ATOM      7  C5  OXE d   1      -2.277   1.410   1.324  0.00  0.00    -0.002 A 
ATOM      8  C6  OXE d   1      -1.561   2.118   0.366  0.00  0.00     0.003 A 
ENDROOT
TORSDOF 0
ENDMDL
