MODEL 1
REMARK minimizedAffinity 0.322240323
REMARK minimizedRMSD -1
REMARK  3 active torsions:
REMARK  status: ('A' for Active; 'I' for Inactive)
REMARK    1  A    between atoms: C3'_2  and  C2'_3 
REMARK    2  A    between atoms: C2'_3  and  C1'_4 
REMARK    3  A    between atoms: C1'_4  and  C1_5 
ROOT
ATOM      1  C1  N4B d   1       1.396   0.375   1.257  0.00  0.00    -0.075 A 
ATOM      2  C2  N4B d   1       1.162  -0.979   1.581  0.00  0.00     0.002 A 
ATOM      3  C3  N4B d   1       0.003  -1.593   1.172  0.00  0.00     0.002 A 
ATOM      4  C4  N4B d   1      -0.940  -0.870   0.458  0.00  0.00    -0.004 A 
ATOM      5  C5  N4B d   1      -0.695   0.431   0.127  0.00  0.00     0.002 A 
ATOM      6  C6  N4B d   1       0.467   1.059   0.528  0.00  0.00     0.002 A 
ENDROOT
BRANCH   1   7
ATOM      7  C1' N4B d   1       2.608   1.113   1.755  0.00  0.00     0.057 C 
BRANCH   7   8
ATOM      8  C2' N4B d   1       3.587   0.114   2.366  0.00  0.00     0.009 C 
BRANCH   8   9
ATOM      9  C3' N4B d   1       4.573  -0.416   1.340  0.00  0.00     0.004 C 
ATOM     10  C4' N4B d   1       5.698  -1.190   1.961  0.00  0.00     0.003 C 
ENDBRANCH   8   9
ENDBRANCH   7   8
ENDBRANCH   1   7
TORSDOF 3
ENDMDL
