MODEL 1
REMARK minimizedAffinity 8.11041641
REMARK minimizedRMSD -1
REMARK  0 active torsions:
REMARK  status: ('A' for Active; 'I' for Inactive)
ROOT
ATOM      1  O1  BZF d   1       5.609  -2.415  -5.260  0.00  0.00    -0.204 OA
ATOM      2  C2  BZF d   1       5.508  -1.413  -4.314  0.00  0.00     0.174 A 
ATOM      3  C3  BZF d   1       5.528  -1.927  -3.068  0.00  0.00    -0.012 A 
ATOM      4  C3A BZF d   1       5.743  -3.331  -3.243  0.00  0.00    -0.107 A 
ATOM      5  C4  BZF d   1       5.873  -4.376  -2.375  0.00  0.00     0.055 A 
ATOM      6  C5  BZF d   1       6.000  -5.635  -2.871  0.00  0.00    -0.016 A 
ATOM      7  C6  BZF d   1       5.995  -5.885  -4.227  0.00  0.00     0.022 A 
ATOM      8  C7  BZF d   1       5.874  -4.879  -5.128  0.00  0.00     0.029 A 
ATOM      9  C7A BZF d   1       5.778  -3.603  -4.630  0.00  0.00     0.058 A 
ENDROOT
TORSDOF 0
ENDMDL
