MODEL 1
REMARK minimizedAffinity 4.52242184
REMARK minimizedRMSD -1
REMARK  0 active torsions:
REMARK  status: ('A' for Active; 'I' for Inactive)
ROOT
ATOM      1  O1  BZF d   1      -3.792   0.361  -0.246  0.00  0.00    -0.204 OA
ATOM      2  C2  BZF d   1      -4.959   0.682  -0.912  0.00  0.00     0.174 A 
ATOM      3  C3  BZF d   1      -5.995  -0.037  -0.434  0.00  0.00    -0.012 A 
ATOM      4  C3A BZF d   1      -5.458  -0.792   0.657  0.00  0.00    -0.107 A 
ATOM      5  C4  BZF d   1      -6.000  -1.681   1.540  0.00  0.00     0.055 A 
ATOM      6  C5  BZF d   1      -5.188  -2.297   2.439  0.00  0.00    -0.016 A 
ATOM      7  C6  BZF d   1      -3.831  -2.051   2.480  0.00  0.00     0.022 A 
ATOM      8  C7  BZF d   1      -3.248  -1.173   1.627  0.00  0.00     0.029 A 
ATOM      9  C7A BZF d   1      -4.072  -0.525   0.739  0.00  0.00     0.058 A 
ENDROOT
TORSDOF 0
ENDMDL
