MODEL 1
REMARK minimizedAffinity -3.08828497
REMARK minimizedRMSD -1
REMARK  0 active torsions:
REMARK  status: ('A' for Active; 'I' for Inactive)
ROOT
ATOM      1  O1  BZF d   1      -0.839   2.310  -1.602  0.00  0.00    -0.204 OA
ATOM      2  C2  BZF d   1      -1.094   1.177  -0.853  0.00  0.00     0.174 A 
ATOM      3  C3  BZF d   1      -0.236   1.084   0.183  0.00  0.00    -0.012 A 
ATOM      4  C3A BZF d   1       0.549   2.279   0.129  0.00  0.00    -0.107 A 
ATOM      5  C4  BZF d   1       1.561   2.774   0.902  0.00  0.00     0.055 A 
ATOM      6  C5  BZF d   1       2.165   3.935   0.536  0.00  0.00    -0.016 A 
ATOM      7  C6  BZF d   1       1.787   4.623  -0.598  0.00  0.00     0.022 A 
ATOM      8  C7  BZF d   1       0.786   4.175  -1.394  0.00  0.00     0.029 A 
ATOM      9  C7A BZF d   1       0.151   3.019  -1.009  0.00  0.00     0.058 A 
ENDROOT
TORSDOF 0
ENDMDL
