MODEL 1
REMARK minimizedAffinity -0.0947104245
REMARK minimizedRMSD -1
REMARK  0 active torsions:
REMARK  status: ('A' for Active; 'I' for Inactive)
ROOT
ATOM      1  O1  BZF d   1      -0.354   4.834  -1.887  0.00  0.00    -0.204 OA
ATOM      2  C2  BZF d   1       0.390   5.997  -1.857  0.00  0.00     0.174 A 
ATOM      3  C3  BZF d   1       1.233   5.999  -0.804  0.00  0.00    -0.012 A 
ATOM      4  C3A BZF d   1       1.066   4.720  -0.186  0.00  0.00    -0.107 A 
ATOM      5  C4  BZF d   1       1.641   4.118   0.897  0.00  0.00     0.055 A 
ATOM      6  C5  BZF d   1       1.203   2.889   1.279  0.00  0.00    -0.016 A 
ATOM      7  C6  BZF d   1       0.191   2.237   0.607  0.00  0.00     0.022 A 
ATOM      8  C7  BZF d   1      -0.406   2.792  -0.476  0.00  0.00     0.029 A 
ATOM      9  C7A BZF d   1       0.056   4.019  -0.885  0.00  0.00     0.058 A 
ENDROOT
TORSDOF 0
ENDMDL
