MODEL 1
REMARK minimizedAffinity 1.75702643
REMARK minimizedRMSD -1
REMARK  0 active torsions:
REMARK  status: ('A' for Active; 'I' for Inactive)
ROOT
ATOM      1  O1  BZF d   1       1.195   2.455   1.768  0.00  0.00    -0.204 OA
ATOM      2  C2  BZF d   1       0.283   1.418   1.755  0.00  0.00     0.174 A 
ATOM      3  C3  BZF d   1      -0.349   1.351   0.565  0.00  0.00    -0.012 A 
ATOM      4  C3A BZF d   1       0.269   2.354  -0.246  0.00  0.00    -0.107 A 
ATOM      5  C4  BZF d   1       0.087   2.762  -1.536  0.00  0.00     0.055 A 
ATOM      6  C5  BZF d   1       0.803   3.819  -2.002  0.00  0.00    -0.016 A 
ATOM      7  C6  BZF d   1       1.705   4.493  -1.206  0.00  0.00     0.022 A 
ATOM      8  C7  BZF d   1       1.924   4.122   0.079  0.00  0.00     0.029 A 
ATOM      9  C7A BZF d   1       1.226   3.034   0.544  0.00  0.00     0.058 A 
ENDROOT
TORSDOF 0
ENDMDL
