MODEL 1
REMARK minimizedAffinity 5.74058485
REMARK minimizedRMSD -1
REMARK  0 active torsions:
REMARK  status: ('A' for Active; 'I' for Inactive)
ROOT
ATOM      1  O1  BZF d   1       4.610  -5.997  -2.390  0.00  0.00    -0.204 OA
ATOM      2  C2  BZF d   1       3.653  -5.871  -3.378  0.00  0.00     0.174 A 
ATOM      3  C3  BZF d   1       3.036  -4.675  -3.296  0.00  0.00    -0.012 A 
ATOM      4  C3A BZF d   1       3.709  -3.975  -2.244  0.00  0.00    -0.107 A 
ATOM      5  C4  BZF d   1       3.563  -2.731  -1.700  0.00  0.00     0.055 A 
ATOM      6  C5  BZF d   1       4.331  -2.382  -0.636  0.00  0.00    -0.016 A 
ATOM      7  C6  BZF d   1       5.251  -3.251  -0.087  0.00  0.00     0.022 A 
ATOM      8  C7  BZF d   1       5.435  -4.494  -0.596  0.00  0.00     0.029 A 
ATOM      9  C7A BZF d   1       4.683  -4.838  -1.692  0.00  0.00     0.058 A 
ENDROOT
TORSDOF 0
ENDMDL
