MODEL 1
REMARK minimizedAffinity 0.439739227
REMARK minimizedRMSD -1
REMARK  0 active torsions:
REMARK  status: ('A' for Active; 'I' for Inactive)
ROOT
ATOM      1  O1  BZF d   1      -1.393   3.455  -1.612  0.00  0.00    -0.204 OA
ATOM      2  C2  BZF d   1      -0.576   2.600  -0.897  0.00  0.00     0.174 A 
ATOM      3  C3  BZF d   1      -1.112   1.364  -0.837  0.00  0.00    -0.012 A 
ATOM      4  C3A BZF d   1      -2.295   1.428  -1.639  0.00  0.00    -0.107 A 
ATOM      5  C4  BZF d   1      -3.249   0.511  -1.980  0.00  0.00     0.055 A 
ATOM      6  C5  BZF d   1      -4.316   0.913  -2.718  0.00  0.00    -0.016 A 
ATOM      7  C6  BZF d   1      -4.465   2.221  -3.128  0.00  0.00     0.022 A 
ATOM      8  C7  BZF d   1      -3.543   3.165  -2.819  0.00  0.00     0.029 A 
ATOM      9  C7A BZF d   1      -2.446   2.756  -2.100  0.00  0.00     0.058 A 
ENDROOT
TORSDOF 0
ENDMDL
