MODEL 1
REMARK minimizedAffinity 6.94103336
REMARK minimizedRMSD -1
REMARK  0 active torsions:
REMARK  status: ('A' for Active; 'I' for Inactive)
ROOT
ATOM      1  O1  BZF d   1       3.762  -3.192   0.144  0.00  0.00    -0.204 OA
ATOM      2  C2  BZF d   1       4.697  -2.291  -0.326  0.00  0.00     0.174 A 
ATOM      3  C3  BZF d   1       5.133  -2.649  -1.551  0.00  0.00    -0.012 A 
ATOM      4  C3A BZF d   1       4.358  -3.798  -1.906  0.00  0.00    -0.107 A 
ATOM      5  C4  BZF d   1       4.318  -4.599  -3.011  0.00  0.00     0.055 A 
ATOM      6  C5  BZF d   1       3.499  -5.683  -3.011  0.00  0.00    -0.016 A 
ATOM      7  C6  BZF d   1       2.712  -5.999  -1.924  0.00  0.00     0.022 A 
ATOM      8  C7  BZF d   1       2.714  -5.232  -0.806  0.00  0.00     0.029 A 
ATOM      9  C7A BZF d   1       3.516  -4.116  -0.816  0.00  0.00     0.058 A 
ENDROOT
TORSDOF 0
ENDMDL
