MODEL 1
REMARK minimizedAffinity 9.7290163
REMARK minimizedRMSD -1
REMARK  0 active torsions:
REMARK  status: ('A' for Active; 'I' for Inactive)
ROOT
ATOM      1  O1  BZF d   1       1.134  -1.457   4.104  0.00  0.00    -0.204 OA
ATOM      2  C2  BZF d   1       0.241  -1.715   5.127  0.00  0.00     0.174 A 
ATOM      3  C3  BZF d   1       0.757  -2.605   5.999  0.00  0.00    -0.012 A 
ATOM      4  C3A BZF d   1       2.089  -2.853   5.540  0.00  0.00    -0.107 A 
ATOM      5  C4  BZF d   1       3.110  -3.636   5.999  0.00  0.00     0.055 A 
ATOM      6  C5  BZF d   1       4.259  -3.711   5.278  0.00  0.00    -0.016 A 
ATOM      7  C6  BZF d   1       4.421  -3.022   4.094  0.00  0.00     0.022 A 
ATOM      8  C7  BZF d   1       3.439  -2.229   3.602  0.00  0.00     0.029 A 
ATOM      9  C7A BZF d   1       2.288  -2.125   4.344  0.00  0.00     0.058 A 
ENDROOT
TORSDOF 0
ENDMDL
