MODEL 1
REMARK minimizedAffinity 4.83129168
REMARK minimizedRMSD -1
REMARK  0 active torsions:
REMARK  status: ('A' for Active; 'I' for Inactive)
ROOT
ATOM      1  O1  BZF d   1       3.449  -5.533  -3.098  0.00  0.00    -0.204 OA
ATOM      2  C2  BZF d   1       4.663  -4.873  -3.091  0.00  0.00     0.174 A 
ATOM      3  C3  BZF d   1       4.755  -4.052  -2.025  0.00  0.00    -0.012 A 
ATOM      4  C3A BZF d   1       3.559  -4.278  -1.272  0.00  0.00    -0.107 A 
ATOM      5  C4  BZF d   1       3.078  -3.769  -0.100  0.00  0.00     0.055 A 
ATOM      6  C5  BZF d   1       1.843  -4.144   0.326  0.00  0.00    -0.016 A 
ATOM      7  C6  BZF d   1       1.062  -5.022  -0.397  0.00  0.00     0.022 A 
ATOM      8  C7  BZF d   1       1.499  -5.557  -1.563  0.00  0.00     0.029 A 
ATOM      9  C7A BZF d   1       2.760  -5.205  -1.979  0.00  0.00     0.058 A 
ENDROOT
TORSDOF 0
ENDMDL
