MODEL 1
REMARK minimizedAffinity 4.56779718
REMARK minimizedRMSD -1
REMARK  0 active torsions:
REMARK  status: ('A' for Active; 'I' for Inactive)
ROOT
ATOM      1  C   UNL d   1      -2.237  -0.775   2.078  0.00  0.00     0.077 C 
ATOM      2  C1  UNL d   1      -0.780  -0.534   1.811  0.00  0.00    -0.074 A 
ATOM      3  C2  UNL d   1       0.177  -0.741   2.809  0.00  0.00    -0.005 A 
ATOM      4  C3  UNL d   1       1.529  -0.523   2.543  0.00  0.00     0.006 A 
ATOM      5  C4  UNL d   1       1.936  -0.095   1.278  0.00  0.00    -0.005 A 
ATOM      6  C5  UNL d   1       0.993   0.116   0.268  0.00  0.00    -0.074 A 
ATOM      7  C6  UNL d   1       1.414   0.566  -1.100  0.00  0.00     0.077 C 
ATOM      8  C7  UNL d   1      -0.363  -0.113   0.541  0.00  0.00    -0.001 A 
ENDROOT
TORSDOF 0
ENDMDL
