MODEL 1
REMARK minimizedAffinity 5.06908989
REMARK minimizedRMSD -1
REMARK  0 active torsions:
REMARK  status: ('A' for Active; 'I' for Inactive)
ROOT
ATOM      1  C   UNL d   1       2.556  -5.066  -0.084  0.00  0.00     0.077 C 
ATOM      2  C1  UNL d   1       1.243  -4.422  -0.416  0.00  0.00    -0.074 A 
ATOM      3  C2  UNL d   1       0.153  -5.188  -0.840  0.00  0.00    -0.005 A 
ATOM      4  C3  UNL d   1      -1.065  -4.576  -1.137  0.00  0.00     0.006 A 
ATOM      5  C4  UNL d   1      -1.204  -3.193  -1.013  0.00  0.00    -0.005 A 
ATOM      6  C5  UNL d   1      -0.125  -2.410  -0.589  0.00  0.00    -0.074 A 
ATOM      7  C6  UNL d   1      -0.261  -0.924  -0.441  0.00  0.00     0.077 C 
ATOM      8  C7  UNL d   1       1.093  -3.034  -0.287  0.00  0.00    -0.001 A 
ENDROOT
TORSDOF 0
ENDMDL
