MODEL 1
REMARK minimizedAffinity -4.06694651
REMARK minimizedRMSD -1
REMARK  0 active torsions:
REMARK  status: ('A' for Active; 'I' for Inactive)
ROOT
ATOM      1  C   UNL d   1      -0.492   1.463   1.976  0.00  0.00     0.077 C 
ATOM      2  C1  UNL d   1      -0.286   0.531   0.820  0.00  0.00    -0.074 A 
ATOM      3  C2  UNL d   1       0.333   0.969  -0.355  0.00  0.00    -0.005 A 
ATOM      4  C3  UNL d   1       0.527   0.088  -1.419  0.00  0.00     0.006 A 
ATOM      5  C4  UNL d   1       0.105  -1.238  -1.319  0.00  0.00    -0.005 A 
ATOM      6  C5  UNL d   1      -0.515  -1.695  -0.151  0.00  0.00    -0.074 A 
ATOM      7  C6  UNL d   1      -0.966  -3.120  -0.023  0.00  0.00     0.077 C 
ATOM      8  C7  UNL d   1      -0.700  -0.805   0.916  0.00  0.00    -0.001 A 
ENDROOT
TORSDOF 0
ENDMDL
