MODEL 1
REMARK minimizedAffinity -1.98990595
REMARK minimizedRMSD -1
REMARK  0 active torsions:
REMARK  status: ('A' for Active; 'I' for Inactive)
ROOT
ATOM      1  C   UNL d   1      -0.903   3.033   1.239  0.00  0.00     0.077 C 
ATOM      2  C1  UNL d   1      -0.560   2.111   0.106  0.00  0.00    -0.074 A 
ATOM      3  C2  UNL d   1      -0.855   2.457  -1.216  0.00  0.00    -0.005 A 
ATOM      4  C3  UNL d   1      -0.521   1.594  -2.260  0.00  0.00     0.006 A 
ATOM      5  C4  UNL d   1       0.109   0.379  -1.993  0.00  0.00    -0.005 A 
ATOM      6  C5  UNL d   1       0.412   0.016  -0.676  0.00  0.00    -0.074 A 
ATOM      7  C6  UNL d   1       1.099  -1.282  -0.372  0.00  0.00     0.077 C 
ATOM      8  C7  UNL d   1       0.080   0.892   0.366  0.00  0.00    -0.001 A 
ENDROOT
TORSDOF 0
ENDMDL
