MODEL 1
REMARK minimizedAffinity -3.4213028
REMARK minimizedRMSD -1
REMARK  0 active torsions:
REMARK  status: ('A' for Active; 'I' for Inactive)
ROOT
ATOM      1  C   UNL d   1      -0.105   1.467   2.153  0.00  0.00     0.077 C 
ATOM      2  C1  UNL d   1      -0.195   0.501   1.010  0.00  0.00    -0.074 A 
ATOM      3  C2  UNL d   1      -0.627  -0.814   1.212  0.00  0.00    -0.005 A 
ATOM      4  C3  UNL d   1      -0.715  -1.698   0.137  0.00  0.00     0.006 A 
ATOM      5  C4  UNL d   1      -0.373  -1.278  -1.148  0.00  0.00    -0.005 A 
ATOM      6  C5  UNL d   1       0.060   0.033  -1.370  0.00  0.00    -0.074 A 
ATOM      7  C6  UNL d   1       0.423   0.504  -2.747  0.00  0.00     0.077 C 
ATOM      8  C7  UNL d   1       0.139   0.918  -0.286  0.00  0.00    -0.001 A 
ENDROOT
TORSDOF 0
ENDMDL
