MODEL 1
REMARK minimizedAffinity -4.64931965
REMARK minimizedRMSD -1
REMARK  0 active torsions:
REMARK  status: ('A' for Active; 'I' for Inactive)
ROOT
ATOM      1  C   UNL d   1      -1.370   3.358  -0.670  0.00  0.00     0.077 C 
ATOM      2  C1  UNL d   1      -0.755   2.168   0.005  0.00  0.00    -0.074 A 
ATOM      3  C2  UNL d   1      -0.565   2.146   1.390  0.00  0.00    -0.005 A 
ATOM      4  C3  UNL d   1       0.000   1.028   2.005  0.00  0.00     0.006 A 
ATOM      5  C4  UNL d   1       0.380  -0.077   1.241  0.00  0.00    -0.005 A 
ATOM      6  C5  UNL d   1       0.196  -0.073  -0.145  0.00  0.00    -0.074 A 
ATOM      7  C6  UNL d   1       0.589  -1.256  -0.979  0.00  0.00     0.077 C 
ATOM      8  C7  UNL d   1      -0.379   1.051  -0.754  0.00  0.00    -0.001 A 
ENDROOT
TORSDOF 0
ENDMDL
