MODEL 1
REMARK minimizedAffinity -5.99948692
REMARK minimizedRMSD -1
REMARK  0 active torsions:
REMARK  status: ('A' for Active; 'I' for Inactive)
ROOT
ATOM      1  C   UNL d   1       0.330  -1.025  -1.012  0.00  0.00     0.077 C 
ATOM      2  C1  UNL d   1       0.156   0.116  -0.054  0.00  0.00    -0.074 A 
ATOM      3  C2  UNL d   1       0.447  -0.037   1.305  0.00  0.00    -0.005 A 
ATOM      4  C3  UNL d   1       0.290   1.036   2.183  0.00  0.00     0.006 A 
ATOM      5  C4  UNL d   1      -0.160   2.270   1.711  0.00  0.00    -0.005 A 
ATOM      6  C5  UNL d   1      -0.455   2.441   0.355  0.00  0.00    -0.074 A 
ATOM      7  C6  UNL d   1      -0.929   3.763  -0.171  0.00  0.00     0.077 C 
ATOM      8  C7  UNL d   1      -0.287   1.360  -0.522  0.00  0.00    -0.001 A 
ENDROOT
TORSDOF 0
ENDMDL
