MODEL 1
REMARK minimizedAffinity -5.50282574
REMARK minimizedRMSD -1
REMARK  0 active torsions:
REMARK  status: ('A' for Active; 'I' for Inactive)
ROOT
ATOM      1  C   UNL d   1      -1.733   3.556   1.405  0.00  0.00     0.077 C 
ATOM      2  C1  UNL d   1      -0.881   2.414   0.936  0.00  0.00    -0.074 A 
ATOM      3  C2  UNL d   1      -0.837   2.059  -0.416  0.00  0.00    -0.005 A 
ATOM      4  C3  UNL d   1      -0.033   1.000  -0.839  0.00  0.00     0.006 A 
ATOM      5  C4  UNL d   1       0.734   0.288   0.084  0.00  0.00    -0.005 A 
ATOM      6  C5  UNL d   1       0.703   0.630   1.439  0.00  0.00    -0.074 A 
ATOM      7  C6  UNL d   1       1.529  -0.119   2.443  0.00  0.00     0.077 C 
ATOM      8  C7  UNL d   1      -0.102   1.699   1.856  0.00  0.00    -0.001 A 
ENDROOT
TORSDOF 0
ENDMDL
