MODEL 1
REMARK minimizedAffinity -3.15571904
REMARK minimizedRMSD -1
REMARK  0 active torsions:
REMARK  status: ('A' for Active; 'I' for Inactive)
ROOT
ATOM      1  C   UNL d   1      -0.725   2.291   2.301  0.00  0.00     0.077 C 
ATOM      2  C1  UNL d   1      -0.356   1.459   1.109  0.00  0.00    -0.074 A 
ATOM      3  C2  UNL d   1       0.193   0.182   1.266  0.00  0.00    -0.005 A 
ATOM      4  C3  UNL d   1       0.522  -0.584   0.148  0.00  0.00     0.006 A 
ATOM      5  C4  UNL d   1       0.306  -0.082  -1.136  0.00  0.00    -0.005 A 
ATOM      6  C5  UNL d   1      -0.243   1.192  -1.313  0.00  0.00    -0.074 A 
ATOM      7  C6  UNL d   1      -0.491   1.742  -2.686  0.00  0.00     0.077 C 
ATOM      8  C7  UNL d   1      -0.577   1.953  -0.184  0.00  0.00    -0.001 A 
ENDROOT
TORSDOF 0
ENDMDL
