MODEL 1
REMARK minimizedAffinity -3.75899577
REMARK minimizedRMSD -1
REMARK  0 active torsions:
REMARK  status: ('A' for Active; 'I' for Inactive)
ROOT
ATOM      1  C   UNL d   1      -0.614   0.155  -1.094  0.00  0.00     0.172 C 
ATOM      2  N   UNL d   1      -0.419  -0.150   0.304  0.00  0.00    -0.070 N 
ATOM      3  C1  UNL d   1       0.778  -0.450   0.896  0.00  0.00    -0.004 A 
ATOM      4  C2  UNL d   1       0.542  -0.677   2.235  0.00  0.00    -0.047 A 
ATOM      5  C3  UNL d   1      -0.845  -0.508   2.455  0.00  0.00    -0.047 A 
ATOM      6  C4  UNL d   1      -1.417  -0.182   1.243  0.00  0.00    -0.004 A 
ENDROOT
TORSDOF 0
ENDMDL
