MODEL 1
REMARK minimizedAffinity -3.55508256
REMARK minimizedRMSD -1
REMARK  0 active torsions:
REMARK  status: ('A' for Active; 'I' for Inactive)
ROOT
ATOM      1  C   UNL d   1      -0.401  -0.040  -0.792  0.00  0.00     0.172 C 
ATOM      2  N   UNL d   1       0.110  -0.262   0.541  0.00  0.00    -0.070 N 
ATOM      3  C1  UNL d   1      -0.635  -0.278   1.689  0.00  0.00    -0.004 A 
ATOM      4  C2  UNL d   1       0.219  -0.521   2.743  0.00  0.00    -0.047 A 
ATOM      5  C3  UNL d   1       1.523  -0.656   2.209  0.00  0.00    -0.047 A 
ATOM      6  C4  UNL d   1       1.426  -0.492   0.843  0.00  0.00    -0.004 A 
ENDROOT
TORSDOF 0
ENDMDL
