MODEL 1
REMARK minimizedAffinity -3.28706479
REMARK minimizedRMSD -1
REMARK  0 active torsions:
REMARK  status: ('A' for Active; 'I' for Inactive)
ROOT
ATOM      1  C   UNL d   1       0.188  -0.212  -0.408  0.00  0.00     0.172 C 
ATOM      2  N   UNL d   1       0.923  -0.856   0.656  0.00  0.00    -0.070 N 
ATOM      3  C1  UNL d   1       1.981  -1.709   0.492  0.00  0.00    -0.004 A 
ATOM      4  C2  UNL d   1       2.401  -2.106   1.743  0.00  0.00    -0.047 A 
ATOM      5  C3  UNL d   1       1.566  -1.470   2.691  0.00  0.00    -0.047 A 
ATOM      6  C4  UNL d   1       0.659  -0.702   1.991  0.00  0.00    -0.004 A 
ENDROOT
TORSDOF 0
ENDMDL
