MODEL 1
REMARK minimizedAffinity -2.0789361
REMARK minimizedRMSD -1
REMARK  0 active torsions:
REMARK  status: ('A' for Active; 'I' for Inactive)
ROOT
ATOM      1  C   UNL d   1       0.341  -0.102  -2.168  0.00  0.00     0.172 C 
ATOM      2  N   UNL d   1      -0.184   1.197  -2.516  0.00  0.00    -0.070 N 
ATOM      3  C1  UNL d   1      -1.510   1.537  -2.559  0.00  0.00    -0.004 A 
ATOM      4  C2  UNL d   1      -1.594   2.861  -2.931  0.00  0.00    -0.047 A 
ATOM      5  C3  UNL d   1      -0.274   3.334  -3.119  0.00  0.00    -0.047 A 
ATOM      6  C4  UNL d   1       0.580   2.283  -2.854  0.00  0.00    -0.004 A 
ENDROOT
TORSDOF 0
ENDMDL
