MODEL 1
REMARK minimizedAffinity -1.08517718
REMARK minimizedRMSD -1
REMARK  0 active torsions:
REMARK  status: ('A' for Active; 'I' for Inactive)
ROOT
ATOM      1  C   UNL d   1      -3.044   2.948  -2.187  0.00  0.00     0.172 C 
ATOM      2  N   UNL d   1      -1.712   2.487  -2.504  0.00  0.00    -0.070 N 
ATOM      3  C1  UNL d   1      -1.222   1.233  -2.260  0.00  0.00    -0.004 A 
ATOM      4  C2  UNL d   1       0.081   1.194  -2.708  0.00  0.00    -0.047 A 
ATOM      5  C3  UNL d   1       0.384   2.469  -3.240  0.00  0.00    -0.047 A 
ATOM      6  C4  UNL d   1      -0.744   3.251  -3.101  0.00  0.00    -0.004 A 
ENDROOT
TORSDOF 0
ENDMDL
