MODEL 1
REMARK minimizedAffinity -3.25050092
REMARK minimizedRMSD -1
REMARK  0 active torsions:
REMARK  status: ('A' for Active; 'I' for Inactive)
ROOT
ATOM      1  C   UNL d   1       0.963  -0.531   2.997  0.00  0.00     0.172 C 
ATOM      2  N   UNL d   1       0.320  -0.295   1.725  0.00  0.00    -0.070 N 
ATOM      3  C1  UNL d   1       0.947  -0.259   0.508  0.00  0.00    -0.004 A 
ATOM      4  C2  UNL d   1      -0.009  -0.010  -0.452  0.00  0.00    -0.047 A 
ATOM      5  C3  UNL d   1      -1.254   0.108   0.210  0.00  0.00    -0.047 A 
ATOM      6  C4  UNL d   1      -1.021  -0.073   1.557  0.00  0.00    -0.004 A 
ENDROOT
TORSDOF 0
ENDMDL
