MODEL 1
REMARK minimizedAffinity -3.57047009
REMARK minimizedRMSD -1
REMARK  0 active torsions:
REMARK  status: ('A' for Active; 'I' for Inactive)
ROOT
ATOM      1  C   UNL d   1      -0.763   0.428  -0.867  0.00  0.00     0.172 C 
ATOM      2  N   UNL d   1      -0.376   0.091   0.482  0.00  0.00    -0.070 N 
ATOM      3  C1  UNL d   1       0.863  -0.344   0.872  0.00  0.00    -0.004 A 
ATOM      4  C2  UNL d   1       0.826  -0.557   2.234  0.00  0.00    -0.047 A 
ATOM      5  C3  UNL d   1      -0.480  -0.239   2.677  0.00  0.00    -0.047 A 
ATOM      6  C4  UNL d   1      -1.203   0.159   1.572  0.00  0.00    -0.004 A 
ENDROOT
TORSDOF 0
ENDMDL
