MODEL 1
REMARK minimizedAffinity -3.8086381
REMARK minimizedRMSD -1
REMARK  0 active torsions:
REMARK  status: ('A' for Active; 'I' for Inactive)
ROOT
ATOM      1  C   UNL d   1       1.382  -0.335  -0.183  0.00  0.00     0.172 C 
ATOM      2  N   UNL d   1       1.292  -0.869   1.156  0.00  0.00    -0.070 N 
ATOM      3  C1  UNL d   1       0.307  -0.586   2.064  0.00  0.00    -0.004 A 
ATOM      4  C2  UNL d   1       0.580  -1.291   3.216  0.00  0.00    -0.047 A 
ATOM      5  C3  UNL d   1       1.771  -2.022   2.994  0.00  0.00    -0.047 A 
ATOM      6  C4  UNL d   1       2.191  -1.742   1.710  0.00  0.00    -0.004 A 
ENDROOT
TORSDOF 0
ENDMDL
