MODEL 1
REMARK minimizedAffinity -1.88593423
REMARK minimizedRMSD -1
REMARK  0 active torsions:
REMARK  status: ('A' for Active; 'I' for Inactive)
ROOT
ATOM      1  C   UNL d   1       0.180  -1.228   2.994  0.00  0.00     0.172 C 
ATOM      2  N   UNL d   1      -0.455  -0.774   1.779  0.00  0.00    -0.070 N 
ATOM      3  C1  UNL d   1       0.181  -0.188   0.717  0.00  0.00    -0.004 A 
ATOM      4  C2  UNL d   1      -0.770   0.097  -0.239  0.00  0.00    -0.047 A 
ATOM      5  C3  UNL d   1      -2.020  -0.331   0.266  0.00  0.00    -0.047 A 
ATOM      6  C4  UNL d   1      -1.796  -0.866   1.517  0.00  0.00    -0.004 A 
ENDROOT
TORSDOF 0
ENDMDL
