MODEL 1
REMARK minimizedAffinity -3.45336723
REMARK minimizedRMSD -1
REMARK  0 active torsions:
REMARK  status: ('A' for Active; 'I' for Inactive)
ROOT
ATOM      1  C   UNL d   1      -1.021  -1.710   2.997  0.00  0.00     0.077 C 
ATOM      2  C1  UNL d   1      -0.241  -1.289   1.787  0.00  0.00    -0.074 A 
ATOM      3  C2  UNL d   1       1.105  -1.640   1.642  0.00  0.00    -0.005 A 
ATOM      4  C3  UNL d   1       1.815  -1.250   0.507  0.00  0.00     0.006 A 
ATOM      5  C4  UNL d   1       1.188  -0.506  -0.494  0.00  0.00    -0.005 A 
ATOM      6  C5  UNL d   1      -0.158  -0.147  -0.367  0.00  0.00    -0.074 A 
ATOM      7  C6  UNL d   1      -0.850   0.643  -1.437  0.00  0.00     0.077 C 
ATOM      8  C7  UNL d   1      -0.867  -0.549   0.774  0.00  0.00    -0.001 A 
ENDROOT
TORSDOF 0
ENDMDL
