MODEL 1
REMARK minimizedAffinity -3.32764363
REMARK minimizedRMSD -1
REMARK  0 active torsions:
REMARK  status: ('A' for Active; 'I' for Inactive)
ROOT
ATOM      1  C   UNL d   1       2.401   0.949  -0.847  0.00  0.00     0.077 C 
ATOM      2  C1  UNL d   1       1.489   0.083  -0.030  0.00  0.00    -0.074 A 
ATOM      3  C2  UNL d   1       0.167   0.465   0.218  0.00  0.00    -0.005 A 
ATOM      4  C3  UNL d   1      -0.673  -0.356   0.971  0.00  0.00     0.006 A 
ATOM      5  C4  UNL d   1      -0.199  -1.565   1.483  0.00  0.00    -0.005 A 
ATOM      6  C5  UNL d   1       1.120  -1.964   1.244  0.00  0.00    -0.074 A 
ATOM      7  C6  UNL d   1       1.641  -3.265   1.778  0.00  0.00     0.077 C 
ATOM      8  C7  UNL d   1       1.955  -1.137   0.480  0.00  0.00    -0.001 A 
ENDROOT
TORSDOF 0
ENDMDL
