MODEL 1
REMARK minimizedAffinity -5.07700729
REMARK minimizedRMSD -1
REMARK  0 active torsions:
REMARK  status: ('A' for Active; 'I' for Inactive)
ROOT
ATOM      1  C   UNL d   1      -1.469  -0.799   2.795  0.00  0.00     0.077 C 
ATOM      2  C1  UNL d   1      -0.247  -1.136   1.994  0.00  0.00    -0.074 A 
ATOM      3  C2  UNL d   1       0.501  -2.285   2.272  0.00  0.00    -0.005 A 
ATOM      4  C3  UNL d   1       1.630  -2.590   1.512  0.00  0.00     0.006 A 
ATOM      5  C4  UNL d   1       2.023  -1.751   0.468  0.00  0.00    -0.005 A 
ATOM      6  C5  UNL d   1       1.287  -0.598   0.175  0.00  0.00    -0.074 A 
ATOM      7  C6  UNL d   1       1.690   0.309  -0.949  0.00  0.00     0.077 C 
ATOM      8  C7  UNL d   1       0.150  -0.302   0.939  0.00  0.00    -0.001 A 
ENDROOT
TORSDOF 0
ENDMDL
