MODEL 1
REMARK minimizedAffinity -3.29406142
REMARK minimizedRMSD -1
REMARK  0 active torsions:
REMARK  status: ('A' for Active; 'I' for Inactive)
ROOT
ATOM      1  C   UNL d   1      -0.788   1.086  -0.363  0.00  0.00     0.077 C 
ATOM      2  C1  UNL d   1      -0.431   0.021   0.631  0.00  0.00    -0.074 A 
ATOM      3  C2  UNL d   1      -1.261  -0.251   1.723  0.00  0.00    -0.005 A 
ATOM      4  C3  UNL d   1      -0.921  -1.251   2.633  0.00  0.00     0.006 A 
ATOM      5  C4  UNL d   1       0.252  -1.989   2.461  0.00  0.00    -0.005 A 
ATOM      6  C5  UNL d   1       1.094  -1.731   1.375  0.00  0.00    -0.074 A 
ATOM      7  C6  UNL d   1       2.352  -2.521   1.170  0.00  0.00     0.077 C 
ATOM      8  C7  UNL d   1       0.741  -0.730   0.460  0.00  0.00    -0.001 A 
ENDROOT
TORSDOF 0
ENDMDL
