MODEL 1
REMARK minimizedAffinity -6.10582161
REMARK minimizedRMSD -1
REMARK  0 active torsions:
REMARK  status: ('A' for Active; 'I' for Inactive)
ROOT
ATOM      1  C   UNL d   1      -2.126   0.606   1.380  0.00  0.00     0.077 C 
ATOM      2  C1  UNL d   1      -0.825  -0.056   1.037  0.00  0.00    -0.074 A 
ATOM      3  C2  UNL d   1       0.038   0.504   0.090  0.00  0.00    -0.005 A 
ATOM      4  C3  UNL d   1       1.250  -0.118  -0.213  0.00  0.00     0.006 A 
ATOM      5  C4  UNL d   1       1.609  -1.305   0.428  0.00  0.00    -0.005 A 
ATOM      6  C5  UNL d   1       0.759  -1.879   1.378  0.00  0.00    -0.074 A 
ATOM      7  C6  UNL d   1       1.134  -3.148   2.083  0.00  0.00     0.077 C 
ATOM      8  C7  UNL d   1      -0.453  -1.244   1.682  0.00  0.00    -0.001 A 
ENDROOT
TORSDOF 0
ENDMDL
