MODEL 1
REMARK minimizedAffinity -5.09385252
REMARK minimizedRMSD -1
REMARK  0 active torsions:
REMARK  status: ('A' for Active; 'I' for Inactive)
ROOT
ATOM      1  C   UNL d   1      -1.301  -1.481   3.434  0.00  0.00     0.077 C 
ATOM      2  C1  UNL d   1      -0.393  -1.446   2.241  0.00  0.00    -0.074 A 
ATOM      3  C2  UNL d   1       0.724  -2.285   2.163  0.00  0.00    -0.005 A 
ATOM      4  C3  UNL d   1       1.554  -2.248   1.042  0.00  0.00     0.006 A 
ATOM      5  C4  UNL d   1       1.277  -1.373  -0.009  0.00  0.00    -0.005 A 
ATOM      6  C5  UNL d   1       0.165  -0.528   0.051  0.00  0.00    -0.074 A 
ATOM      7  C6  UNL d   1      -0.152   0.412  -1.074  0.00  0.00     0.077 C 
ATOM      8  C7  UNL d   1      -0.668  -0.575   1.177  0.00  0.00    -0.001 A 
ENDROOT
TORSDOF 0
ENDMDL
