MODEL 1
REMARK minimizedAffinity -5.5410099
REMARK minimizedRMSD -1
REMARK  0 active torsions:
REMARK  status: ('A' for Active; 'I' for Inactive)
ROOT
ATOM      1  C   UNL d   1      -1.028  -1.834   3.100  0.00  0.00     0.077 C 
ATOM      2  C1  UNL d   1      -0.031  -1.887   1.981  0.00  0.00    -0.074 A 
ATOM      3  C2  UNL d   1       1.138  -2.647   2.095  0.00  0.00    -0.005 A 
ATOM      4  C3  UNL d   1       2.051  -2.695   1.042  0.00  0.00     0.006 A 
ATOM      5  C4  UNL d   1       1.806  -1.985  -0.134  0.00  0.00    -0.005 A 
ATOM      6  C5  UNL d   1       0.642  -1.221  -0.267  0.00  0.00    -0.074 A 
ATOM      7  C6  UNL d   1       0.358  -0.460  -1.527  0.00  0.00     0.077 C 
ATOM      8  C7  UNL d   1      -0.274  -1.183   0.793  0.00  0.00    -0.001 A 
ENDROOT
TORSDOF 0
ENDMDL
