MODEL 1
REMARK minimizedAffinity -2.95829391
REMARK minimizedRMSD -1
REMARK  0 active torsions:
REMARK  status: ('A' for Active; 'I' for Inactive)
ROOT
ATOM      1  C   UNL d   1      -0.867  -1.653   3.314  0.00  0.00     0.077 C 
ATOM      2  C1  UNL d   1      -0.118  -1.193   2.099  0.00  0.00    -0.074 A 
ATOM      3  C2  UNL d   1       1.198  -1.607   1.867  0.00  0.00    -0.005 A 
ATOM      4  C3  UNL d   1       1.879  -1.179   0.727  0.00  0.00     0.006 A 
ATOM      5  C4  UNL d   1       1.253  -0.334  -0.190  0.00  0.00    -0.005 A 
ATOM      6  C5  UNL d   1      -0.063   0.089   0.025  0.00  0.00    -0.074 A 
ATOM      7  C6  UNL d   1      -0.754   0.989  -0.956  0.00  0.00     0.077 C 
ATOM      8  C7  UNL d   1      -0.743  -0.351   1.168  0.00  0.00    -0.001 A 
ENDROOT
TORSDOF 0
ENDMDL
