MODEL 1
REMARK minimizedAffinity -4.08476877
REMARK minimizedRMSD -1
REMARK  0 active torsions:
REMARK  status: ('A' for Active; 'I' for Inactive)
ROOT
ATOM      1  C   UNL d   1      -0.039  -1.827   3.262  0.00  0.00     0.077 C 
ATOM      2  C1  UNL d   1       0.481  -1.437   1.911  0.00  0.00    -0.074 A 
ATOM      3  C2  UNL d   1       1.725  -1.891   1.461  0.00  0.00    -0.005 A 
ATOM      4  C3  UNL d   1       2.192  -1.527   0.198  0.00  0.00     0.006 A 
ATOM      5  C4  UNL d   1       1.420  -0.707  -0.627  0.00  0.00    -0.005 A 
ATOM      6  C5  UNL d   1       0.174  -0.244  -0.194  0.00  0.00    -0.074 A 
ATOM      7  C6  UNL d   1      -0.673   0.629  -1.072  0.00  0.00     0.077 C 
ATOM      8  C7  UNL d   1      -0.291  -0.620   1.074  0.00  0.00    -0.001 A 
ENDROOT
TORSDOF 0
ENDMDL
