MODEL 1
REMARK minimizedAffinity -4.52588797
REMARK minimizedRMSD -1
REMARK  0 active torsions:
REMARK  status: ('A' for Active; 'I' for Inactive)
ROOT
ATOM      1  C   UNL d   1       1.395  -0.053  -0.694  0.00  0.00     0.077 C 
ATOM      2  C1  UNL d   1       1.084  -1.066   0.368  0.00  0.00    -0.074 A 
ATOM      3  C2  UNL d   1       1.880  -2.204   0.530  0.00  0.00    -0.005 A 
ATOM      4  C3  UNL d   1       1.583  -3.133   1.528  0.00  0.00     0.006 A 
ATOM      5  C4  UNL d   1       0.490  -2.933   2.372  0.00  0.00    -0.005 A 
ATOM      6  C5  UNL d   1      -0.316  -1.799   2.225  0.00  0.00    -0.074 A 
ATOM      7  C6  UNL d   1      -1.489  -1.564   3.130  0.00  0.00     0.077 C 
ATOM      8  C7  UNL d   1      -0.008  -0.868   1.225  0.00  0.00    -0.001 A 
ENDROOT
TORSDOF 0
ENDMDL
