MODEL 1
REMARK minimizedAffinity -5.13746977
REMARK minimizedRMSD -1
REMARK  0 active torsions:
REMARK  status: ('A' for Active; 'I' for Inactive)
ROOT
ATOM      1  C   UNL d   1      -0.132   0.611  -1.038  0.00  0.00     0.077 C 
ATOM      2  C1  UNL d   1       0.376  -0.529  -0.206  0.00  0.00    -0.074 A 
ATOM      3  C2  UNL d   1       1.646  -1.072  -0.429  0.00  0.00    -0.005 A 
ATOM      4  C3  UNL d   1       2.109  -2.125   0.359  0.00  0.00     0.006 A 
ATOM      5  C4  UNL d   1       1.308  -2.646   1.376  0.00  0.00    -0.005 A 
ATOM      6  C5  UNL d   1       0.036  -2.116   1.614  0.00  0.00    -0.074 A 
ATOM      7  C6  UNL d   1      -0.833  -2.658   2.710  0.00  0.00     0.077 C 
ATOM      8  C7  UNL d   1      -0.419  -1.053   0.822  0.00  0.00    -0.001 A 
ENDROOT
TORSDOF 0
ENDMDL
