MODEL 1
REMARK minimizedAffinity -2.28722692
REMARK minimizedRMSD -1
REMARK  0 active torsions:
REMARK  status: ('A' for Active; 'I' for Inactive)
ROOT
ATOM      1  C   UNL d   1       1.495  -2.622   2.269  0.00  0.00     0.077 C 
ATOM      2  C1  UNL d   1       0.956  -1.368   1.647  0.00  0.00    -0.074 A 
ATOM      3  C2  UNL d   1      -0.359  -0.955   1.887  0.00  0.00    -0.005 A 
ATOM      4  C3  UNL d   1      -0.843   0.218   1.309  0.00  0.00     0.006 A 
ATOM      5  C4  UNL d   1      -0.021   0.989   0.487  0.00  0.00    -0.005 A 
ATOM      6  C5  UNL d   1       1.297   0.592   0.236  0.00  0.00    -0.074 A 
ATOM      7  C6  UNL d   1       2.198   1.413  -0.638  0.00  0.00     0.077 C 
ATOM      8  C7  UNL d   1       1.779  -0.585   0.826  0.00  0.00    -0.001 A 
ENDROOT
TORSDOF 0
ENDMDL
