MODEL 1
REMARK minimizedAffinity -6.15474844
REMARK minimizedRMSD -1
REMARK  0 active torsions:
REMARK  status: ('A' for Active; 'I' for Inactive)
ROOT
ATOM      1  C   UNL d   1      -1.321  -1.864   3.112  0.00  0.00     0.077 C 
ATOM      2  C1  UNL d   1      -0.116  -2.032   2.235  0.00  0.00    -0.074 A 
ATOM      3  C2  UNL d   1       0.868  -2.979   2.539  0.00  0.00    -0.005 A 
ATOM      4  C3  UNL d   1       1.979  -3.131   1.709  0.00  0.00     0.006 A 
ATOM      5  C4  UNL d   1       2.117  -2.338   0.569  0.00  0.00    -0.005 A 
ATOM      6  C5  UNL d   1       1.143  -1.387   0.248  0.00  0.00    -0.074 A 
ATOM      7  C6  UNL d   1       1.272  -0.534  -0.979  0.00  0.00     0.077 C 
ATOM      8  C7  UNL d   1       0.027  -1.245   1.083  0.00  0.00    -0.001 A 
ENDROOT
TORSDOF 0
ENDMDL
