MODEL 1
REMARK minimizedAffinity -3.69870758
REMARK minimizedRMSD -1
REMARK  0 active torsions:
REMARK  status: ('A' for Active; 'I' for Inactive)
ROOT
ATOM      1  C   UNL d   1      -1.110  -1.444   2.650  0.00  0.00     0.077 C 
ATOM      2  C1  UNL d   1      -0.466  -0.915   1.403  0.00  0.00    -0.074 A 
ATOM      3  C2  UNL d   1       0.705  -1.490   0.899  0.00  0.00    -0.005 A 
ATOM      4  C3  UNL d   1       1.287  -0.993  -0.267  0.00  0.00     0.006 A 
ATOM      5  C4  UNL d   1       0.707   0.084  -0.939  0.00  0.00    -0.005 A 
ATOM      6  C5  UNL d   1      -0.464   0.672  -0.450  0.00  0.00    -0.074 A 
ATOM      7  C6  UNL d   1      -1.107   1.823  -1.165  0.00  0.00     0.077 C 
ATOM      8  C7  UNL d   1      -1.047   0.162   0.718  0.00  0.00    -0.001 A 
ENDROOT
TORSDOF 0
ENDMDL
