MODEL 1
REMARK minimizedAffinity 1.78997636
REMARK minimizedRMSD -1
REMARK  0 active torsions:
REMARK  status: ('A' for Active; 'I' for Inactive)
ROOT
ATOM      1  C   UNL d   1      -5.147   1.271  -1.813  0.00  0.00     0.077 C 
ATOM      2  C1  UNL d   1      -3.710   1.692  -1.892  0.00  0.00    -0.074 A 
ATOM      3  C2  UNL d   1      -3.300   2.682  -2.791  0.00  0.00    -0.005 A 
ATOM      4  C3  UNL d   1      -1.961   3.071  -2.847  0.00  0.00     0.006 A 
ATOM      5  C4  UNL d   1      -1.021   2.474  -2.006  0.00  0.00    -0.005 A 
ATOM      6  C5  UNL d   1      -1.413   1.483  -1.101  0.00  0.00    -0.074 A 
ATOM      7  C6  UNL d   1      -0.417   0.838  -0.183  0.00  0.00     0.077 C 
ATOM      8  C7  UNL d   1      -2.761   1.103  -1.046  0.00  0.00    -0.001 A 
ENDROOT
TORSDOF 0
ENDMDL
