MODEL 1
REMARK minimizedAffinity -4.49994183
REMARK minimizedRMSD -1
REMARK  0 active torsions:
REMARK  status: ('A' for Active; 'I' for Inactive)
ROOT
ATOM      1  C   UNL d   1      -1.145  -2.543   3.353  0.00  0.00     0.077 C 
ATOM      2  C1  UNL d   1      -0.393  -1.964   2.192  0.00  0.00    -0.074 A 
ATOM      3  C2  UNL d   1       0.834  -2.502   1.790  0.00  0.00    -0.005 A 
ATOM      4  C3  UNL d   1       1.517  -1.959   0.702  0.00  0.00     0.006 A 
ATOM      5  C4  UNL d   1       0.982  -0.874   0.007  0.00  0.00    -0.005 A 
ATOM      6  C5  UNL d   1      -0.244  -0.323   0.394  0.00  0.00    -0.074 A 
ATOM      7  C6  UNL d   1      -0.837   0.837  -0.349  0.00  0.00     0.077 C 
ATOM      8  C7  UNL d   1      -0.928  -0.879   1.483  0.00  0.00    -0.001 A 
ENDROOT
TORSDOF 0
ENDMDL
