MODEL 1
REMARK minimizedAffinity -2.47717047
REMARK minimizedRMSD -1
REMARK  0 active torsions:
REMARK  status: ('A' for Active; 'I' for Inactive)
ROOT
ATOM      1  C   UNL d   1      -2.680   1.265  -2.763  0.00  0.00     0.077 C 
ATOM      2  C1  UNL d   1      -1.583   0.973  -1.782  0.00  0.00    -0.074 A 
ATOM      3  C2  UNL d   1      -1.470   1.700  -0.593  0.00  0.00    -0.005 A 
ATOM      4  C3  UNL d   1      -0.451   1.411   0.314  0.00  0.00     0.006 A 
ATOM      5  C4  UNL d   1       0.465   0.394   0.041  0.00  0.00    -0.005 A 
ATOM      6  C5  UNL d   1       0.367  -0.345  -1.143  0.00  0.00    -0.074 A 
ATOM      7  C6  UNL d   1       1.337  -1.448  -1.447  0.00  0.00     0.077 C 
ATOM      8  C7  UNL d   1      -0.664  -0.053  -2.046  0.00  0.00    -0.001 A 
ENDROOT
TORSDOF 0
ENDMDL
