MODEL 1
REMARK minimizedAffinity -4.84693623
REMARK minimizedRMSD -1
REMARK  0 active torsions:
REMARK  status: ('A' for Active; 'I' for Inactive)
ROOT
ATOM      1  C   UNL d   1       1.725  -3.316   1.909  0.00  0.00     0.077 C 
ATOM      2  C1  UNL d   1       0.678  -2.266   1.685  0.00  0.00    -0.074 A 
ATOM      3  C2  UNL d   1      -0.398  -2.124   2.567  0.00  0.00    -0.005 A 
ATOM      4  C3  UNL d   1      -1.359  -1.136   2.351  0.00  0.00     0.006 A 
ATOM      5  C4  UNL d   1      -1.254  -0.282   1.253  0.00  0.00    -0.005 A 
ATOM      6  C5  UNL d   1      -0.185  -0.409   0.360  0.00  0.00    -0.074 A 
ATOM      7  C6  UNL d   1      -0.053   0.507  -0.820  0.00  0.00     0.077 C 
ATOM      8  C7  UNL d   1       0.780  -1.399   0.588  0.00  0.00    -0.001 A 
ENDROOT
TORSDOF 0
ENDMDL
