MODEL 1
REMARK minimizedAffinity -2.73588514
REMARK minimizedRMSD -1
REMARK  0 active torsions:
REMARK  status: ('A' for Active; 'I' for Inactive)
ROOT
ATOM      1  C1  BNZ d   1       2.642   1.828   1.502  0.00  0.00     0.000 A 
ATOM      2  C2  BNZ d   1       3.941   1.424   1.339  0.00  0.00     0.000 A 
ATOM      3  C3  BNZ d   1       4.428   0.343   2.017  0.00  0.00     0.000 A 
ATOM      4  C4  BNZ d   1       3.630  -0.309   2.887  0.00  0.00     0.000 A 
ATOM      5  C5  BNZ d   1       2.321   0.091   3.070  0.00  0.00     0.000 A 
ATOM      6  C6  BNZ d   1       1.822   1.156   2.356  0.00  0.00     0.000 A 
ENDROOT
TORSDOF 0
ENDMDL
