MODEL 1
REMARK minimizedAffinity -1.66623271
REMARK minimizedRMSD -1
REMARK  0 active torsions:
REMARK  status: ('A' for Active; 'I' for Inactive)
ROOT
ATOM      1  C1  BNZ d   1       4.281   0.528  -0.771  0.00  0.00     0.000 A 
ATOM      2  C2  BNZ d   1       4.483  -0.289   0.309  0.00  0.00     0.000 A 
ATOM      3  C3  BNZ d   1       3.705  -0.176   1.428  0.00  0.00     0.000 A 
ATOM      4  C4  BNZ d   1       2.755   0.780   1.480  0.00  0.00     0.000 A 
ATOM      5  C5  BNZ d   1       2.546   1.618   0.403  0.00  0.00     0.000 A 
ATOM      6  C6  BNZ d   1       3.304   1.475  -0.736  0.00  0.00     0.000 A 
ENDROOT
TORSDOF 0
ENDMDL
