MODEL 1
REMARK minimizedAffinity -3.94300199
REMARK minimizedRMSD -1
REMARK  0 active torsions:
REMARK  status: ('A' for Active; 'I' for Inactive)
ROOT
ATOM      1  C1  BNZ d   1       4.590   1.893  -1.023  0.00  0.00     0.000 A 
ATOM      2  C2  BNZ d   1       5.746   1.571  -0.364  0.00  0.00     0.000 A 
ATOM      3  C3  BNZ d   1       5.786   0.520   0.508  0.00  0.00     0.000 A 
ATOM      4  C4  BNZ d   1       4.660  -0.182   0.752  0.00  0.00     0.000 A 
ATOM      5  C5  BNZ d   1       3.483   0.136   0.104  0.00  0.00     0.000 A 
ATOM      6  C6  BNZ d   1       3.457   1.171  -0.804  0.00  0.00     0.000 A 
ENDROOT
TORSDOF 0
ENDMDL
