MODEL 1
REMARK minimizedAffinity 5.03559828
REMARK minimizedRMSD -1
REMARK  0 active torsions:
REMARK  status: ('A' for Active; 'I' for Inactive)
ROOT
ATOM      1  C1  BNZ d   1      -3.609  -3.392  -3.461  0.00  0.00     0.000 A 
ATOM      2  C2  BNZ d   1      -2.260  -3.373  -3.699  0.00  0.00     0.000 A 
ATOM      3  C3  BNZ d   1      -1.380  -3.037  -2.708  0.00  0.00     0.000 A 
ATOM      4  C4  BNZ d   1      -1.850  -2.684  -1.495  0.00  0.00     0.000 A 
ATOM      5  C5  BNZ d   1      -3.207  -2.690  -1.242  0.00  0.00     0.000 A 
ATOM      6  C6  BNZ d   1      -4.088  -3.066  -2.230  0.00  0.00     0.000 A 
ENDROOT
TORSDOF 0
ENDMDL
