MODEL 1
REMARK minimizedAffinity -2.43069839
REMARK minimizedRMSD -1
REMARK  0 active torsions:
REMARK  status: ('A' for Active; 'I' for Inactive)
ROOT
ATOM      1  C1  BNZ d   1       4.128   1.467  -3.246  0.00  0.00     0.000 A 
ATOM      2  C2  BNZ d   1       4.420   1.054  -1.974  0.00  0.00     0.000 A 
ATOM      3  C3  BNZ d   1       3.423   0.755  -1.088  0.00  0.00     0.000 A 
ATOM      4  C4  BNZ d   1       2.136   0.908  -1.462  0.00  0.00     0.000 A 
ATOM      5  C5  BNZ d   1       1.825   1.333  -2.739  0.00  0.00     0.000 A 
ATOM      6  C6  BNZ d   1       2.831   1.595  -3.640  0.00  0.00     0.000 A 
ENDROOT
TORSDOF 0
ENDMDL
