MODEL 1
REMARK minimizedAffinity -1.07882822
REMARK minimizedRMSD -1
REMARK  0 active torsions:
REMARK  status: ('A' for Active; 'I' for Inactive)
ROOT
ATOM      1  C1  BNZ d   1       3.209   1.101   0.357  0.00  0.00     0.000 A 
ATOM      2  C2  BNZ d   1       3.760  -0.083   0.771  0.00  0.00     0.000 A 
ATOM      3  C3  BNZ d   1       4.968  -0.107   1.409  0.00  0.00     0.000 A 
ATOM      4  C4  BNZ d   1       5.641   1.046   1.598  0.00  0.00     0.000 A 
ATOM      5  C5  BNZ d   1       5.103   2.247   1.179  0.00  0.00     0.000 A 
ATOM      6  C6  BNZ d   1       3.869   2.271   0.571  0.00  0.00     0.000 A 
ENDROOT
TORSDOF 0
ENDMDL
