MODEL 1
REMARK minimizedAffinity -0.196926355
REMARK minimizedRMSD -1
REMARK  0 active torsions:
REMARK  status: ('A' for Active; 'I' for Inactive)
ROOT
ATOM      1  C1  BNZ d   1       2.352   1.886  -0.782  0.00  0.00     0.000 A 
ATOM      2  C2  BNZ d   1       2.192   1.205   0.395  0.00  0.00     0.000 A 
ATOM      3  C3  BNZ d   1       3.028   0.176   0.728  0.00  0.00     0.000 A 
ATOM      4  C4  BNZ d   1       3.997  -0.197  -0.134  0.00  0.00     0.000 A 
ATOM      5  C5  BNZ d   1       4.165   0.474  -1.329  0.00  0.00     0.000 A 
ATOM      6  C6  BNZ d   1       3.346   1.535  -1.643  0.00  0.00     0.000 A 
ENDROOT
TORSDOF 0
ENDMDL
