MODEL 1
REMARK minimizedAffinity 1.11569321
REMARK minimizedRMSD -1
REMARK  0 active torsions:
REMARK  status: ('A' for Active; 'I' for Inactive)
ROOT
ATOM      1  C1  BNZ d   1       2.217   0.644   0.407  0.00  0.00     0.000 A 
ATOM      2  C2  BNZ d   1       1.851   1.614  -0.487  0.00  0.00     0.000 A 
ATOM      3  C3  BNZ d   1       2.659   1.934  -1.542  0.00  0.00     0.000 A 
ATOM      4  C4  BNZ d   1       3.848   1.312  -1.679  0.00  0.00     0.000 A 
ATOM      5  C5  BNZ d   1       4.235   0.338  -0.780  0.00  0.00     0.000 A 
ATOM      6  C6  BNZ d   1       3.402  -0.009   0.258  0.00  0.00     0.000 A 
ENDROOT
TORSDOF 0
ENDMDL
