MODEL 1
REMARK minimizedAffinity 6.15552855
REMARK minimizedRMSD -1
REMARK  0 active torsions:
REMARK  status: ('A' for Active; 'I' for Inactive)
ROOT
ATOM      1  C1  BNZ d   1       4.142  -0.343   1.644  0.00  0.00     0.000 A 
ATOM      2  C2  BNZ d   1       2.932  -0.045   1.076  0.00  0.00     0.000 A 
ATOM      3  C3  BNZ d   1       2.616   1.240   0.735  0.00  0.00     0.000 A 
ATOM      4  C4  BNZ d   1       3.492   2.231   0.999  0.00  0.00     0.000 A 
ATOM      5  C5  BNZ d   1       4.712   1.948   1.580  0.00  0.00     0.000 A 
ATOM      6  C6  BNZ d   1       5.043   0.648   1.886  0.00  0.00     0.000 A 
ENDROOT
TORSDOF 0
ENDMDL
