MODEL 1
REMARK minimizedAffinity 8.32319736
REMARK minimizedRMSD -1
REMARK  0 active torsions:
REMARK  status: ('A' for Active; 'I' for Inactive)
ROOT
ATOM      1  C1  BNZ d   1      -3.735   3.859  -0.416  0.00  0.00     0.000 A 
ATOM      2  C2  BNZ d   1      -2.383   3.872  -0.633  0.00  0.00     0.000 A 
ATOM      3  C3  BNZ d   1      -1.777   4.951  -1.215  0.00  0.00     0.000 A 
ATOM      4  C4  BNZ d   1      -2.529   5.996  -1.616  0.00  0.00     0.000 A 
ATOM      5  C5  BNZ d   1      -3.894   5.994  -1.414  0.00  0.00     0.000 A 
ATOM      6  C6  BNZ d   1      -4.495   4.924  -0.792  0.00  0.00     0.000 A 
ENDROOT
TORSDOF 0
ENDMDL
