MODEL 1
REMARK minimizedAffinity 0.427619219
REMARK minimizedRMSD -1
REMARK  0 active torsions:
REMARK  status: ('A' for Active; 'I' for Inactive)
ROOT
ATOM      1  C1  BNZ d   1       3.794   1.146  -5.257  0.00  0.00     0.000 A 
ATOM      2  C2  BNZ d   1       2.846   1.819  -5.982  0.00  0.00     0.000 A 
ATOM      3  C3  BNZ d   1       1.822   2.473  -5.357  0.00  0.00     0.000 A 
ATOM      4  C4  BNZ d   1       1.724   2.421  -4.013  0.00  0.00     0.000 A 
ATOM      5  C5  BNZ d   1       2.666   1.739  -3.269  0.00  0.00     0.000 A 
ATOM      6  C6  BNZ d   1       3.718   1.114  -3.899  0.00  0.00     0.000 A 
ENDROOT
TORSDOF 0
ENDMDL
