MODEL 1
REMARK minimizedAffinity 0.568703949
REMARK minimizedRMSD -1
REMARK  0 active torsions:
REMARK  status: ('A' for Active; 'I' for Inactive)
ROOT
ATOM      1  C1  BNZ d   1      -2.422  -2.615  -2.055  0.00  0.00     0.000 A 
ATOM      2  C2  BNZ d   1      -1.674  -2.407  -0.927  0.00  0.00     0.000 A 
ATOM      3  C3  BNZ d   1      -1.655  -3.330   0.081  0.00  0.00     0.000 A 
ATOM      4  C4  BNZ d   1      -2.413  -4.441  -0.023  0.00  0.00     0.000 A 
ATOM      5  C5  BNZ d   1      -3.180  -4.661  -1.150  0.00  0.00     0.000 A 
ATOM      6  C6  BNZ d   1      -3.167  -3.748  -2.179  0.00  0.00     0.000 A 
ENDROOT
TORSDOF 0
ENDMDL
