MODEL 1
REMARK minimizedAffinity 9.11579895
REMARK minimizedRMSD -1
REMARK  0 active torsions:
REMARK  status: ('A' for Active; 'I' for Inactive)
ROOT
ATOM      1  C1  BNZ d   1       3.064  -3.890  -4.507  0.00  0.00     0.000 A 
ATOM      2  C2  BNZ d   1       3.721  -2.961  -5.269  0.00  0.00     0.000 A 
ATOM      3  C3  BNZ d   1       3.028  -2.037  -6.000  0.00  0.00     0.000 A 
ATOM      4  C4  BNZ d   1       1.680  -2.068  -6.000  0.00  0.00     0.000 A 
ATOM      5  C5  BNZ d   1       1.002  -3.004  -5.244  0.00  0.00     0.000 A 
ATOM      6  C6  BNZ d   1       1.703  -3.908  -4.479  0.00  0.00     0.000 A 
ENDROOT
TORSDOF 0
ENDMDL
