MODEL 1
REMARK minimizedAffinity 5.30939531
REMARK minimizedRMSD -1
REMARK  0 active torsions:
REMARK  status: ('A' for Active; 'I' for Inactive)
ROOT
ATOM      1  C1  BNZ d   1      -1.944  -2.283  -3.664  0.00  0.00     0.000 A 
ATOM      2  C2  BNZ d   1      -1.620  -1.785  -2.431  0.00  0.00     0.000 A 
ATOM      3  C3  BNZ d   1      -2.206  -2.280  -1.300  0.00  0.00     0.000 A 
ATOM      4  C4  BNZ d   1      -3.144  -3.244  -1.406  0.00  0.00     0.000 A 
ATOM      5  C5  BNZ d   1      -3.488  -3.750  -2.644  0.00  0.00     0.000 A 
ATOM      6  C6  BNZ d   1      -2.868  -3.276  -3.777  0.00  0.00     0.000 A 
ENDROOT
TORSDOF 0
ENDMDL
