MODEL 1
REMARK minimizedAffinity 7.59701777
REMARK minimizedRMSD -1
REMARK  0 active torsions:
REMARK  status: ('A' for Active; 'I' for Inactive)
ROOT
ATOM      1  C1  BNZ d   1      -2.930  -3.032  -0.700  0.00  0.00     0.000 A 
ATOM      2  C2  BNZ d   1      -3.819  -3.320  -1.701  0.00  0.00     0.000 A 
ATOM      3  C3  BNZ d   1      -3.501  -3.080  -3.009  0.00  0.00     0.000 A 
ATOM      4  C4  BNZ d   1      -2.314  -2.516  -3.310  0.00  0.00     0.000 A 
ATOM      5  C5  BNZ d   1      -1.411  -2.211  -2.311  0.00  0.00     0.000 A 
ATOM      6  C6  BNZ d   1      -1.718  -2.490  -0.999  0.00  0.00     0.000 A 
ENDROOT
TORSDOF 0
ENDMDL
