MODEL 1
REMARK minimizedAffinity -0.402924836
REMARK minimizedRMSD -1
REMARK  0 active torsions:
REMARK  status: ('A' for Active; 'I' for Inactive)
ROOT
ATOM      1  C1  BNZ d   1      -3.347  -5.122  -1.499  0.00  0.00     0.000 A 
ATOM      2  C2  BNZ d   1      -2.927  -4.779  -0.242  0.00  0.00     0.000 A 
ATOM      3  C3  BNZ d   1      -2.370  -3.554   0.001  0.00  0.00     0.000 A 
ATOM      4  C4  BNZ d   1      -2.198  -2.690  -1.020  0.00  0.00     0.000 A 
ATOM      5  C5  BNZ d   1      -2.607  -3.025  -2.295  0.00  0.00     0.000 A 
ATOM      6  C6  BNZ d   1      -3.203  -4.243  -2.529  0.00  0.00     0.000 A 
ENDROOT
TORSDOF 0
ENDMDL
