MODEL 1
REMARK minimizedAffinity 17.1318455
REMARK minimizedRMSD -1
REMARK  3 active torsions:
REMARK  status: ('A' for Active; 'I' for Inactive)
REMARK    1  A    between atoms: C3'_2  and  C2'_3 
REMARK    2  A    between atoms: C2'_3  and  C1'_4 
REMARK    3  A    between atoms: C1'_4  and  C1_5 
ROOT
ATOM      1  C1  N4B d   1       4.514   3.892   2.489  0.00  0.00    -0.075 A 
ATOM      2  C2  N4B d   1       5.165   3.282   3.584  0.00  0.00     0.002 A 
ATOM      3  C3  N4B d   1       5.890   4.047   4.465  0.00  0.00     0.002 A 
ATOM      4  C4  N4B d   1       5.994   5.415   4.261  0.00  0.00    -0.004 A 
ATOM      5  C5  N4B d   1       5.342   5.999   3.215  0.00  0.00     0.002 A 
ATOM      6  C6  N4B d   1       4.606   5.244   2.324  0.00  0.00     0.002 A 
ENDROOT
BRANCH   1   7
ATOM      7  C1' N4B d   1       3.781   3.086   1.451  0.00  0.00     0.057 C 
BRANCH   7   8
ATOM      8  C2' N4B d   1       3.347   1.758   2.064  0.00  0.00     0.009 C 
BRANCH   8   9
ATOM      9  C3' N4B d   1       1.878   1.467   1.808  0.00  0.00     0.004 C 
ATOM     10  C4' N4B d   1       1.285   0.534   2.821  0.00  0.00     0.003 C 
ENDBRANCH   8   9
ENDBRANCH   7   8
ENDBRANCH   1   7
TORSDOF 3
ENDMDL
