MODEL 1
REMARK minimizedAffinity 11.0770569
REMARK minimizedRMSD -1
REMARK  3 active torsions:
REMARK  status: ('A' for Active; 'I' for Inactive)
REMARK    1  A    between atoms: C3'_2  and  C2'_3 
REMARK    2  A    between atoms: C2'_3  and  C1'_4 
REMARK    3  A    between atoms: C1'_4  and  C1_5 
ROOT
ATOM      1  C1  N4B d   1       1.402  -0.354  -5.333  0.00  0.00    -0.075 A 
ATOM      2  C2  N4B d   1       0.295  -0.120  -4.488  0.00  0.00     0.002 A 
ATOM      3  C3  N4B d   1      -0.467  -1.174  -4.047  0.00  0.00     0.002 A 
ATOM      4  C4  N4B d   1      -0.154  -2.463  -4.451  0.00  0.00    -0.004 A 
ATOM      5  C5  N4B d   1       0.932  -2.683  -5.247  0.00  0.00     0.002 A 
ATOM      6  C6  N4B d   1       1.709  -1.634  -5.694  0.00  0.00     0.002 A 
ENDROOT
BRANCH   1   7
ATOM      7  C1' N4B d   1       2.213   0.774  -5.909  0.00  0.00     0.057 C 
BRANCH   7   8
ATOM      8  C2' N4B d   1       3.692   0.522  -5.628  0.00  0.00     0.009 C 
BRANCH   8   9
ATOM      9  C3' N4B d   1       4.552   1.717  -6.000  0.00  0.00     0.004 C 
ATOM     10  C4' N4B d   1       6.000   1.518  -5.662  0.00  0.00     0.003 C 
ENDBRANCH   8   9
ENDBRANCH   7   8
ENDBRANCH   1   7
TORSDOF 3
ENDMDL
