MODEL 1
REMARK minimizedAffinity 10.00735
REMARK minimizedRMSD -1
REMARK  3 active torsions:
REMARK  status: ('A' for Active; 'I' for Inactive)
REMARK    1  A    between atoms: C3'_2  and  C2'_3 
REMARK    2  A    between atoms: C2'_3  and  C1'_4 
REMARK    3  A    between atoms: C1'_4  and  C1_5 
ROOT
ATOM      1  C1  N4B d   1       5.210   1.938   3.674  0.00  0.00    -0.075 A 
ATOM      2  C2  N4B d   1       4.975   2.869   4.710  0.00  0.00     0.002 A 
ATOM      3  C3  N4B d   1       4.330   4.050   4.438  0.00  0.00     0.002 A 
ATOM      4  C4  N4B d   1       3.929   4.330   3.141  0.00  0.00    -0.004 A 
ATOM      5  C5  N4B d   1       4.137   3.415   2.150  0.00  0.00     0.002 A 
ATOM      6  C6  N4B d   1       4.781   2.222   2.410  0.00  0.00     0.002 A 
ENDROOT
BRANCH   1   7
ATOM      7  C1' N4B d   1       5.988   0.672   3.905  0.00  0.00     0.057 C 
BRANCH   7   8
ATOM      8  C2' N4B d   1       5.167  -0.267   4.785  0.00  0.00     0.009 C 
BRANCH   8   9
ATOM      9  C3' N4B d   1       5.998  -1.423   5.313  0.00  0.00     0.004 C 
ATOM     10  C4' N4B d   1       5.171  -2.629   5.646  0.00  0.00     0.003 C 
ENDBRANCH   8   9
ENDBRANCH   7   8
ENDBRANCH   1   7
TORSDOF 3
ENDMDL
