MODEL 1
REMARK minimizedAffinity 8.84857464
REMARK minimizedRMSD -1
REMARK  3 active torsions:
REMARK  status: ('A' for Active; 'I' for Inactive)
REMARK    1  A    between atoms: C3'_2  and  C2'_3 
REMARK    2  A    between atoms: C2'_3  and  C1'_4 
REMARK    3  A    between atoms: C1'_4  and  C1_5 
ROOT
ATOM      1  C1  N4B d   1      -0.433   0.275   2.963  0.00  0.00    -0.075 A 
ATOM      2  C2  N4B d   1      -0.121   0.520   4.318  0.00  0.00     0.002 A 
ATOM      3  C3  N4B d   1       1.191   0.618   4.714  0.00  0.00     0.002 A 
ATOM      4  C4  N4B d   1       2.203   0.456   3.779  0.00  0.00    -0.004 A 
ATOM      5  C5  N4B d   1       1.892   0.245   2.468  0.00  0.00     0.002 A 
ATOM      6  C6  N4B d   1       0.578   0.148   2.055  0.00  0.00     0.002 A 
ENDROOT
BRANCH   1   7
ATOM      7  C1' N4B d   1      -1.850   0.074   2.498  0.00  0.00     0.057 C 
BRANCH   7   8
ATOM      8  C2' N4B d   1      -2.162  -1.419   2.473  0.00  0.00     0.009 C 
BRANCH   8   9
ATOM      9  C3' N4B d   1      -3.624  -1.689   2.162  0.00  0.00     0.004 C 
ATOM     10  C4' N4B d   1      -4.531  -1.370   3.313  0.00  0.00     0.003 C 
ENDBRANCH   8   9
ENDBRANCH   7   8
ENDBRANCH   1   7
TORSDOF 3
ENDMDL
