MODEL 1
REMARK minimizedAffinity 11.3128357
REMARK minimizedRMSD -1
REMARK  3 active torsions:
REMARK  status: ('A' for Active; 'I' for Inactive)
REMARK    1  A    between atoms: C3'_2  and  C2'_3 
REMARK    2  A    between atoms: C2'_3  and  C1'_4 
REMARK    3  A    between atoms: C1'_4  and  C1_5 
ROOT
ATOM      1  C1  N4B d   1       0.398  -1.129  -5.239  0.00  0.00    -0.075 A 
ATOM      2  C2  N4B d   1      -0.454  -2.121  -5.772  0.00  0.00     0.002 A 
ATOM      3  C3  N4B d   1      -1.481  -2.625  -5.013  0.00  0.00     0.002 A 
ATOM      4  C4  N4B d   1      -1.664  -2.167  -3.717  0.00  0.00    -0.004 A 
ATOM      5  C5  N4B d   1      -0.854  -1.191  -3.218  0.00  0.00     0.002 A 
ATOM      6  C6  N4B d   1       0.181  -0.672  -3.971  0.00  0.00     0.002 A 
ENDROOT
BRANCH   1   7
ATOM      7  C1' N4B d   1       1.587  -0.610  -6.000  0.00  0.00     0.057 C 
BRANCH   7   8
ATOM      8  C2' N4B d   1       2.863  -0.997  -5.259  0.00  0.00     0.009 C 
BRANCH   8   9
ATOM      9  C3' N4B d   1       2.916  -2.484  -4.957  0.00  0.00     0.004 C 
ATOM     10  C4' N4B d   1       3.719  -2.800  -3.730  0.00  0.00     0.003 C 
ENDBRANCH   8   9
ENDBRANCH   7   8
ENDBRANCH   1   7
TORSDOF 3
ENDMDL
