MODEL 1
REMARK minimizedAffinity 8.09967995
REMARK minimizedRMSD -1
REMARK  3 active torsions:
REMARK  status: ('A' for Active; 'I' for Inactive)
REMARK    1  A    between atoms: C3'_2  and  C2'_3 
REMARK    2  A    between atoms: C2'_3  and  C1'_4 
REMARK    3  A    between atoms: C1'_4  and  C1_5 
ROOT
ATOM      1  C1  N4B d   1       1.443  -2.388  -5.674  0.00  0.00    -0.075 A 
ATOM      2  C2  N4B d   1       2.853  -2.450  -5.620  0.00  0.00     0.002 A 
ATOM      3  C3  N4B d   1       3.582  -1.308  -5.397  0.00  0.00     0.002 A 
ATOM      4  C4  N4B d   1       2.928  -0.095  -5.246  0.00  0.00    -0.004 A 
ATOM      5  C5  N4B d   1       1.565  -0.047  -5.274  0.00  0.00     0.002 A 
ATOM      6  C6  N4B d   1       0.818  -1.188  -5.493  0.00  0.00     0.002 A 
ENDROOT
BRANCH   1   7
ATOM      7  C1' N4B d   1       0.607  -3.595  -6.000  0.00  0.00     0.057 C 
BRANCH   7   8
ATOM      8  C2' N4B d   1      -0.867  -3.199  -5.999  0.00  0.00     0.009 C 
BRANCH   8   9
ATOM      9  C3' N4B d   1      -1.780  -4.405  -5.863  0.00  0.00     0.004 C 
ATOM     10  C4' N4B d   1      -1.460  -5.243  -4.661  0.00  0.00     0.003 C 
ENDBRANCH   8   9
ENDBRANCH   7   8
ENDBRANCH   1   7
TORSDOF 3
ENDMDL
