MODEL 1
REMARK minimizedAffinity 13.1283484
REMARK minimizedRMSD -1
REMARK  3 active torsions:
REMARK  status: ('A' for Active; 'I' for Inactive)
REMARK    1  A    between atoms: C3'_2  and  C2'_3 
REMARK    2  A    between atoms: C2'_3  and  C1'_4 
REMARK    3  A    between atoms: C1'_4  and  C1_5 
ROOT
ATOM      1  C1  N4B d   1       0.939  -1.611   3.963  0.00  0.00    -0.075 A 
ATOM      2  C2  N4B d   1       1.722  -0.723   3.193  0.00  0.00     0.002 A 
ATOM      3  C3  N4B d   1       1.126   0.078   2.250  0.00  0.00     0.002 A 
ATOM      4  C4  N4B d   1      -0.243  -0.005   2.048  0.00  0.00    -0.004 A 
ATOM      5  C5  N4B d   1      -0.996  -0.846   2.813  0.00  0.00     0.002 A 
ATOM      6  C6  N4B d   1      -0.411  -1.654   3.766  0.00  0.00     0.002 A 
ENDROOT
BRANCH   1   7
ATOM      7  C1' N4B d   1       1.557  -2.568   4.945  0.00  0.00     0.057 C 
BRANCH   7   8
ATOM      8  C2' N4B d   1       3.073  -2.551   4.775  0.00  0.00     0.009 C 
BRANCH   8   9
ATOM      9  C3' N4B d   1       3.789  -3.093   6.000  0.00  0.00     0.004 C 
ATOM     10  C4' N4B d   1       5.129  -3.682   5.676  0.00  0.00     0.003 C 
ENDBRANCH   8   9
ENDBRANCH   7   8
ENDBRANCH   1   7
TORSDOF 3
ENDMDL
