MODEL 1
REMARK minimizedAffinity 8.56357288
REMARK minimizedRMSD -1
REMARK  3 active torsions:
REMARK  status: ('A' for Active; 'I' for Inactive)
REMARK    1  A    between atoms: C3'_2  and  C2'_3 
REMARK    2  A    between atoms: C2'_3  and  C1'_4 
REMARK    3  A    between atoms: C1'_4  and  C1_5 
ROOT
ATOM      1  C1  N4B d   1      -1.673   0.439  -2.655  0.00  0.00    -0.075 A 
ATOM      2  C2  N4B d   1      -1.076   1.450  -1.871  0.00  0.00     0.002 A 
ATOM      3  C3  N4B d   1      -0.396   1.119  -0.725  0.00  0.00     0.002 A 
ATOM      4  C4  N4B d   1      -0.316  -0.209  -0.334  0.00  0.00    -0.004 A 
ATOM      5  C5  N4B d   1      -0.874  -1.182  -1.110  0.00  0.00     0.002 A 
ATOM      6  C6  N4B d   1      -1.557  -0.865  -2.267  0.00  0.00     0.002 A 
ENDROOT
BRANCH   1   7
ATOM      7  C1' N4B d   1      -2.499   0.759  -3.870  0.00  0.00     0.057 C 
BRANCH   7   8
ATOM      8  C2' N4B d   1      -3.957   0.405  -3.592  0.00  0.00     0.009 C 
BRANCH   8   9
ATOM      9  C3' N4B d   1      -4.848   0.684  -4.790  0.00  0.00     0.004 C 
ATOM     10  C4' N4B d   1      -5.999  -0.272  -4.893  0.00  0.00     0.003 C 
ENDBRANCH   8   9
ENDBRANCH   7   8
ENDBRANCH   1   7
TORSDOF 3
ENDMDL
