MODEL 1
REMARK minimizedAffinity 7.01811123
REMARK minimizedRMSD -1
REMARK  3 active torsions:
REMARK  status: ('A' for Active; 'I' for Inactive)
REMARK    1  A    between atoms: C3'_2  and  C2'_3 
REMARK    2  A    between atoms: C2'_3  and  C1'_4 
REMARK    3  A    between atoms: C1'_4  and  C1_5 
ROOT
ATOM      1  C1  N4B d   1       1.276   0.672  -0.181  0.00  0.00    -0.075 A 
ATOM      2  C2  N4B d   1       1.519   1.127   1.134  0.00  0.00     0.002 A 
ATOM      3  C3  N4B d   1       0.625   1.973   1.743  0.00  0.00     0.002 A 
ATOM      4  C4  N4B d   1      -0.503   2.392   1.054  0.00  0.00    -0.004 A 
ATOM      5  C5  N4B d   1      -0.743   1.928  -0.206  0.00  0.00     0.002 A 
ATOM      6  C6  N4B d   1       0.144   1.073  -0.830  0.00  0.00     0.002 A 
ENDROOT
BRANCH   1   7
ATOM      7  C1' N4B d   1       2.266  -0.186  -0.920  0.00  0.00     0.057 C 
BRANCH   7   8
ATOM      8  C2' N4B d   1       3.678   0.189  -0.483  0.00  0.00     0.009 C 
BRANCH   8   9
ATOM      9  C3' N4B d   1       4.512   0.710  -1.641  0.00  0.00     0.004 C 
ATOM     10  C4' N4B d   1       5.391   1.861  -1.252  0.00  0.00     0.003 C 
ENDBRANCH   8   9
ENDBRANCH   7   8
ENDBRANCH   1   7
TORSDOF 3
ENDMDL
