MODEL 1
REMARK minimizedAffinity 6.86475277
REMARK minimizedRMSD -1
REMARK  3 active torsions:
REMARK  status: ('A' for Active; 'I' for Inactive)
REMARK    1  A    between atoms: C3'_2  and  C2'_3 
REMARK    2  A    between atoms: C2'_3  and  C1'_4 
REMARK    3  A    between atoms: C1'_4  and  C1_5 
ROOT
ATOM      1  C1  N4B d   1       4.794   1.296  -0.701  0.00  0.00    -0.075 A 
ATOM      2  C2  N4B d   1       5.137   2.438  -1.458  0.00  0.00     0.002 A 
ATOM      3  C3  N4B d   1       5.744   3.509  -0.849  0.00  0.00     0.002 A 
ATOM      4  C4  N4B d   1       5.999   3.469   0.514  0.00  0.00    -0.004 A 
ATOM      5  C5  N4B d   1       5.687   2.352   1.233  0.00  0.00     0.002 A 
ATOM      6  C6  N4B d   1       5.081   1.267   0.633  0.00  0.00     0.002 A 
ENDROOT
BRANCH   1   7
ATOM      7  C1' N4B d   1       4.052   0.136  -1.306  0.00  0.00     0.057 C 
BRANCH   7   8
ATOM      8  C2' N4B d   1       2.936  -0.294  -0.358  0.00  0.00     0.009 C 
BRANCH   8   9
ATOM      9  C3' N4B d   1       2.616  -1.773  -0.491  0.00  0.00     0.004 C 
ATOM     10  C4' N4B d   1       2.550  -2.227  -1.919  0.00  0.00     0.003 C 
ENDBRANCH   8   9
ENDBRANCH   7   8
ENDBRANCH   1   7
TORSDOF 3
ENDMDL
