MODEL 1
REMARK minimizedAffinity 9.52468967
REMARK minimizedRMSD -1
REMARK  3 active torsions:
REMARK  status: ('A' for Active; 'I' for Inactive)
REMARK    1  A    between atoms: C3'_2  and  C2'_3 
REMARK    2  A    between atoms: C2'_3  and  C1'_4 
REMARK    3  A    between atoms: C1'_4  and  C1_5 
ROOT
ATOM      1  C1  N4B d   1      -3.329   0.599  -2.258  0.00  0.00    -0.075 A 
ATOM      2  C2  N4B d   1      -4.196   0.172  -1.228  0.00  0.00     0.002 A 
ATOM      3  C3  N4B d   1      -5.523   0.524  -1.258  0.00  0.00     0.002 A 
ATOM      4  C4  N4B d   1      -6.000   1.314  -2.293  0.00  0.00    -0.004 A 
ATOM      5  C5  N4B d   1      -5.162   1.701  -3.297  0.00  0.00     0.002 A 
ATOM      6  C6  N4B d   1      -3.826   1.351  -3.282  0.00  0.00     0.002 A 
ENDROOT
BRANCH   1   7
ATOM      7  C1' N4B d   1      -1.853   0.312  -2.224  0.00  0.00     0.057 C 
BRANCH   7   8
ATOM      8  C2' N4B d   1      -1.158   1.363  -1.364  0.00  0.00     0.009 C 
BRANCH   8   9
ATOM      9  C3' N4B d   1      -0.094   0.752  -0.468  0.00  0.00     0.004 C 
ATOM     10  C4' N4B d   1      -0.212   1.197   0.960  0.00  0.00     0.003 C 
ENDBRANCH   8   9
ENDBRANCH   7   8
ENDBRANCH   1   7
TORSDOF 3
ENDMDL
