MODEL 1
REMARK minimizedAffinity -5.07291889
REMARK minimizedRMSD -1
REMARK  1 active torsions:
REMARK  status: ('A' for Active; 'I' for Inactive)
REMARK    1  A    between atoms: C3_4  and  O_7 
ROOT
ATOM      1  C   UNL d   1       0.211  -0.917  -0.350  0.00  0.00    -0.033 A 
ATOM      2  C1  UNL d   1      -0.716  -1.611   0.430  0.00  0.00     0.039 A 
ATOM      3  C2  UNL d   1      -1.637  -0.910   1.211  0.00  0.00    -0.080 A 
ATOM      4  C3  UNL d   1      -1.621   0.482   1.202  0.00  0.00     0.150 A 
ATOM      5  C4  UNL d   1      -0.703   1.180   0.424  0.00  0.00    -0.007 A 
ATOM      6  C5  UNL d   1       0.217   0.478  -0.354  0.00  0.00     0.039 A 
ENDROOT
BRANCH   4   7
ATOM      7  O   UNL d   1      -2.498   1.209   1.952  0.00  0.00    -0.526 OA
ATOM      8  H5  UNL d   1      -3.053   0.594   2.459  0.00  0.00     0.418 HD
ENDBRANCH   4   7
TORSDOF 1
ENDMDL
