MODEL 1
REMARK minimizedAffinity -4.84311247
REMARK minimizedRMSD -1
REMARK  1 active torsions:
REMARK  status: ('A' for Active; 'I' for Inactive)
REMARK    1  A    between atoms: C3_4  and  O_7 
ROOT
ATOM      1  C   UNL d   1      -2.050   1.039   1.431  0.00  0.00    -0.033 A 
ATOM      2  C1  UNL d   1      -1.979   1.652   0.179  0.00  0.00     0.039 A 
ATOM      3  C2  UNL d   1      -0.906   1.382  -0.673  0.00  0.00    -0.080 A 
ATOM      4  C3  UNL d   1       0.087   0.497  -0.262  0.00  0.00     0.150 A 
ATOM      5  C4  UNL d   1       0.021  -0.120   0.983  0.00  0.00    -0.007 A 
ATOM      6  C5  UNL d   1      -1.051   0.152   1.833  0.00  0.00     0.039 A 
ENDROOT
BRANCH   4   7
ATOM      7  O   UNL d   1       1.155   0.206  -1.056  0.00  0.00    -0.526 OA
ATOM      8  H5  UNL d   1       1.083   0.727  -1.873  0.00  0.00     0.418 HD
ENDBRANCH   4   7
TORSDOF 1
ENDMDL
