MODEL 1
REMARK minimizedAffinity -4.63349342
REMARK minimizedRMSD -1
REMARK  1 active torsions:
REMARK  status: ('A' for Active; 'I' for Inactive)
REMARK    1  A    between atoms: C3_4  and  O_7 
ROOT
ATOM      1  C   UNL d   1       0.207  -0.321   0.084  0.00  0.00    -0.033 A 
ATOM      2  C1  UNL d   1      -0.270   0.721  -0.713  0.00  0.00     0.039 A 
ATOM      3  C2  UNL d   1      -1.318   1.525  -0.261  0.00  0.00    -0.080 A 
ATOM      4  C3  UNL d   1      -1.880   1.276   0.989  0.00  0.00     0.150 A 
ATOM      5  C4  UNL d   1      -1.407   0.242   1.790  0.00  0.00    -0.007 A 
ATOM      6  C5  UNL d   1      -0.360  -0.560   1.336  0.00  0.00     0.039 A 
ENDROOT
BRANCH   4   7
ATOM      7  O   UNL d   1      -2.908   2.030   1.471  0.00  0.00    -0.526 OA
ATOM      8  H5  UNL d   1      -3.149   2.688   0.798  0.00  0.00     0.418 HD
ENDBRANCH   4   7
TORSDOF 1
ENDMDL
