MODEL 1
REMARK minimizedAffinity -4.14281559
REMARK minimizedRMSD -1
REMARK  1 active torsions:
REMARK  status: ('A' for Active; 'I' for Inactive)
REMARK    1  A    between atoms: C3_4  and  O_7 
ROOT
ATOM      1  C   UNL d   1       0.145  -0.264  -0.201  0.00  0.00    -0.033 A 
ATOM      2  C1  UNL d   1      -0.577   0.648  -0.974  0.00  0.00     0.039 A 
ATOM      3  C2  UNL d   1      -1.476   1.525  -0.365  0.00  0.00    -0.080 A 
ATOM      4  C3  UNL d   1      -1.643   1.481   1.016  0.00  0.00     0.150 A 
ATOM      5  C4  UNL d   1      -0.925   0.578   1.793  0.00  0.00    -0.007 A 
ATOM      6  C5  UNL d   1      -0.028  -0.297   1.183  0.00  0.00     0.039 A 
ENDROOT
BRANCH   4   7
ATOM      7  O   UNL d   1      -2.513   2.314   1.655  0.00  0.00    -0.526 OA
ATOM      8  H5  UNL d   1      -2.960   2.863   0.989  0.00  0.00     0.418 HD
ENDBRANCH   4   7
TORSDOF 1
ENDMDL
