MODEL 1
REMARK minimizedAffinity -5.27774811
REMARK minimizedRMSD -1
REMARK  1 active torsions:
REMARK  status: ('A' for Active; 'I' for Inactive)
REMARK    1  A    between atoms: C3_4  and  O_7 
ROOT
ATOM      1  C   UNL d   1       0.005   0.004   0.218  0.00  0.00    -0.033 A 
ATOM      2  C1  UNL d   1      -0.014   0.323   1.577  0.00  0.00     0.039 A 
ATOM      3  C2  UNL d   1      -1.037   1.119   2.096  0.00  0.00    -0.080 A 
ATOM      4  C3  UNL d   1      -2.034   1.589   1.245  0.00  0.00     0.150 A 
ATOM      5  C4  UNL d   1      -2.024   1.272  -0.109  0.00  0.00    -0.007 A 
ATOM      6  C5  UNL d   1      -1.001   0.478  -0.625  0.00  0.00     0.039 A 
ENDROOT
BRANCH   4   7
ATOM      7  O   UNL d   1      -3.050   2.374   1.704  0.00  0.00    -0.526 OA
ATOM      8  H5  UNL d   1      -2.911   2.534   2.653  0.00  0.00     0.418 HD
ENDBRANCH   4   7
TORSDOF 1
ENDMDL
