MODEL 1
REMARK minimizedAffinity -2.8438797
REMARK minimizedRMSD -1
REMARK  1 active torsions:
REMARK  status: ('A' for Active; 'I' for Inactive)
REMARK    1  A    between atoms: C3_4  and  O_7 
ROOT
ATOM      1  C   UNL d   1       0.434  -0.375   0.057  0.00  0.00    -0.033 A 
ATOM      2  C1  UNL d   1      -0.221   0.583  -0.720  0.00  0.00     0.039 A 
ATOM      3  C2  UNL d   1      -1.283   1.313  -0.182  0.00  0.00    -0.080 A 
ATOM      4  C3  UNL d   1      -1.680   1.076   1.131  0.00  0.00     0.150 A 
ATOM      5  C4  UNL d   1      -1.030   0.126   1.911  0.00  0.00    -0.007 A 
ATOM      6  C5  UNL d   1       0.030  -0.603   1.373  0.00  0.00     0.039 A 
ENDROOT
BRANCH   4   7
ATOM      7  O   UNL d   1      -2.714   1.760   1.697  0.00  0.00    -0.526 OA
ATOM      8  H5  UNL d   1      -3.086   2.362   1.031  0.00  0.00     0.418 HD
ENDBRANCH   4   7
TORSDOF 1
ENDMDL
