MODEL 1
REMARK minimizedAffinity -4.96511126
REMARK minimizedRMSD -1
REMARK  1 active torsions:
REMARK  status: ('A' for Active; 'I' for Inactive)
REMARK    1  A    between atoms: C3_4  and  O_7 
ROOT
ATOM      1  C   UNL d   1      -1.777   1.541   1.588  0.00  0.00    -0.033 A 
ATOM      2  C1  UNL d   1      -1.215   0.420   2.202  0.00  0.00     0.039 A 
ATOM      3  C2  UNL d   1      -0.415  -0.455   1.465  0.00  0.00    -0.080 A 
ATOM      4  C3  UNL d   1      -0.184  -0.198   0.117  0.00  0.00     0.150 A 
ATOM      5  C4  UNL d   1      -0.737   0.919  -0.501  0.00  0.00    -0.007 A 
ATOM      6  C5  UNL d   1      -1.536   1.792   0.237  0.00  0.00     0.039 A 
ENDROOT
BRANCH   4   7
ATOM      7  O   UNL d   1       0.586  -1.026  -0.645  0.00  0.00    -0.526 OA
ATOM      8  H5  UNL d   1       0.877  -1.770  -0.092  0.00  0.00     0.418 HD
ENDBRANCH   4   7
TORSDOF 1
ENDMDL
