MODEL 1
REMARK minimizedAffinity -5.36298084
REMARK minimizedRMSD -1
REMARK  1 active torsions:
REMARK  status: ('A' for Active; 'I' for Inactive)
REMARK    1  A    between atoms: C3_4  and  O_7 
ROOT
ATOM      1  C   UNL d   1      -0.129   1.650  -0.622  0.00  0.00    -0.033 A 
ATOM      2  C1  UNL d   1       0.160   0.316  -0.329  0.00  0.00     0.039 A 
ATOM      3  C2  UNL d   1      -0.455  -0.311   0.756  0.00  0.00    -0.080 A 
ATOM      4  C3  UNL d   1      -1.357   0.405   1.538  0.00  0.00     0.150 A 
ATOM      5  C4  UNL d   1      -1.653   1.733   1.249  0.00  0.00    -0.007 A 
ATOM      6  C5  UNL d   1      -1.037   2.358   0.166  0.00  0.00     0.039 A 
ENDROOT
BRANCH   4   7
ATOM      7  O   UNL d   1      -1.979  -0.163   2.610  0.00  0.00    -0.526 OA
ATOM      8  H5  UNL d   1      -1.656  -1.075   2.706  0.00  0.00     0.418 HD
ENDBRANCH   4   7
TORSDOF 1
ENDMDL
