MODEL 1
REMARK minimizedAffinity -5.34805298
REMARK minimizedRMSD -1
REMARK  1 active torsions:
REMARK  status: ('A' for Active; 'I' for Inactive)
REMARK    1  A    between atoms: C3_4  and  O_7 
ROOT
ATOM      1  C   UNL d   1       0.386  -0.700   0.902  0.00  0.00    -0.033 A 
ATOM      2  C1  UNL d   1      -0.037   0.160  -0.114  0.00  0.00     0.039 A 
ATOM      3  C2  UNL d   1      -1.142   0.989   0.086  0.00  0.00    -0.080 A 
ATOM      4  C3  UNL d   1      -1.814   0.950   1.305  0.00  0.00     0.150 A 
ATOM      5  C4  UNL d   1      -1.396   0.099   2.322  0.00  0.00    -0.007 A 
ATOM      6  C5  UNL d   1      -0.293  -0.730   2.120  0.00  0.00     0.039 A 
ENDROOT
BRANCH   4   7
ATOM      7  O   UNL d   1      -2.901   1.737   1.545  0.00  0.00    -0.526 OA
ATOM      8  H5  UNL d   1      -3.091   2.252   0.743  0.00  0.00     0.418 HD
ENDBRANCH   4   7
TORSDOF 1
ENDMDL
