MODEL 1
REMARK minimizedAffinity -5.07544613
REMARK minimizedRMSD -1
REMARK  1 active torsions:
REMARK  status: ('A' for Active; 'I' for Inactive)
REMARK    1  A    between atoms: C3_4  and  O_7 
ROOT
ATOM      1  C   UNL d   1      -1.076  -0.140   1.658  0.00  0.00    -0.033 A 
ATOM      2  C1  UNL d   1      -1.702   1.093   1.464  0.00  0.00     0.039 A 
ATOM      3  C2  UNL d   1      -1.244   1.962   0.472  0.00  0.00    -0.080 A 
ATOM      4  C3  UNL d   1      -0.162   1.587  -0.320  0.00  0.00     0.150 A 
ATOM      5  C4  UNL d   1       0.464   0.359  -0.135  0.00  0.00    -0.007 A 
ATOM      6  C5  UNL d   1       0.006  -0.507   0.857  0.00  0.00     0.039 A 
ENDROOT
BRANCH   4   7
ATOM      7  O   UNL d   1       0.323   2.404  -1.298  0.00  0.00    -0.526 OA
ATOM      8  H5  UNL d   1      -0.190   3.230  -1.291  0.00  0.00     0.418 HD
ENDBRANCH   4   7
TORSDOF 1
ENDMDL
