MODEL 1
REMARK minimizedAffinity -4.81813669
REMARK minimizedRMSD -1
REMARK  1 active torsions:
REMARK  status: ('A' for Active; 'I' for Inactive)
REMARK    1  A    between atoms: C3_4  and  O_7 
ROOT
ATOM      1  C   UNL d   1       0.287  -0.075   0.308  0.00  0.00    -0.033 A 
ATOM      2  C1  UNL d   1      -0.363   0.723  -0.636  0.00  0.00     0.039 A 
ATOM      3  C2  UNL d   1      -1.391   1.580  -0.239  0.00  0.00    -0.080 A 
ATOM      4  C3  UNL d   1      -1.757   1.632   1.103  0.00  0.00     0.150 A 
ATOM      5  C4  UNL d   1      -1.112   0.844   2.049  0.00  0.00    -0.007 A 
ATOM      6  C5  UNL d   1      -0.086  -0.013   1.651  0.00  0.00     0.039 A 
ENDROOT
BRANCH   4   7
ATOM      7  O   UNL d   1      -2.758   2.450   1.537  0.00  0.00    -0.526 OA
ATOM      8  H5  UNL d   1      -3.132   2.914   0.769  0.00  0.00     0.418 HD
ENDBRANCH   4   7
TORSDOF 1
ENDMDL
