MODEL 1
REMARK minimizedAffinity -3.97742391
REMARK minimizedRMSD -1
REMARK  1 active torsions:
REMARK  status: ('A' for Active; 'I' for Inactive)
REMARK    1  A    between atoms: C3_4  and  O_7 
ROOT
ATOM      1  C   UNL d   1      -1.689   1.511   1.910  0.00  0.00    -0.033 A 
ATOM      2  C1  UNL d   1      -1.064   0.371   2.419  0.00  0.00     0.039 A 
ATOM      3  C2  UNL d   1      -0.314  -0.451   1.576  0.00  0.00    -0.080 A 
ATOM      4  C3  UNL d   1      -0.196  -0.122   0.229  0.00  0.00     0.150 A 
ATOM      5  C4  UNL d   1      -0.812   1.014  -0.284  0.00  0.00    -0.007 A 
ATOM      6  C5  UNL d   1      -1.561   1.834   0.559  0.00  0.00     0.039 A 
ENDROOT
BRANCH   4   7
ATOM      7  O   UNL d   1       0.522  -0.897  -0.634  0.00  0.00    -0.526 OA
ATOM      8  H5  UNL d   1       0.866  -1.663  -0.145  0.00  0.00     0.418 HD
ENDBRANCH   4   7
TORSDOF 1
ENDMDL
