MODEL 1
REMARK minimizedAffinity -4.1769557
REMARK minimizedRMSD -1
REMARK  1 active torsions:
REMARK  status: ('A' for Active; 'I' for Inactive)
REMARK    1  A    between atoms: C3_4  and  O_7 
ROOT
ATOM      1  C   UNL d   1      -1.805   1.822   1.660  0.00  0.00    -0.033 A 
ATOM      2  C1  UNL d   1      -1.141   0.768   2.292  0.00  0.00     0.039 A 
ATOM      3  C2  UNL d   1      -0.562  -0.250   1.532  0.00  0.00    -0.080 A 
ATOM      4  C3  UNL d   1      -0.651  -0.202   0.144  0.00  0.00     0.150 A 
ATOM      5  C4  UNL d   1      -1.308   0.846  -0.493  0.00  0.00    -0.007 A 
ATOM      6  C5  UNL d   1      -1.887   1.861   0.267  0.00  0.00     0.039 A 
ENDROOT
BRANCH   4   7
ATOM      7  O   UNL d   1      -0.105  -1.175  -0.639  0.00  0.00    -0.526 OA
ATOM      8  H5  UNL d   1       0.291  -1.849  -0.061  0.00  0.00     0.418 HD
ENDBRANCH   4   7
TORSDOF 1
ENDMDL
