MODEL 1
REMARK minimizedAffinity -4.27951813
REMARK minimizedRMSD -1
REMARK  1 active torsions:
REMARK  status: ('A' for Active; 'I' for Inactive)
REMARK    1  A    between atoms: C3_4  and  O_7 
ROOT
ATOM      1  C   UNL d   1       0.778  -0.001  -0.576  0.00  0.00    -0.033 A 
ATOM      2  C1  UNL d   1       0.387  -0.494   0.671  0.00  0.00     0.039 A 
ATOM      3  C2  UNL d   1      -0.669   0.106   1.360  0.00  0.00    -0.080 A 
ATOM      4  C3  UNL d   1      -1.324   1.195   0.793  0.00  0.00     0.150 A 
ATOM      5  C4  UNL d   1      -0.943   1.688  -0.450  0.00  0.00    -0.007 A 
ATOM      6  C5  UNL d   1       0.113   1.089  -1.137  0.00  0.00     0.039 A 
ENDROOT
BRANCH   4   7
ATOM      7  O   UNL d   1      -2.357   1.816   1.430  0.00  0.00    -0.526 OA
ATOM      8  H5  UNL d   1      -2.491   1.385   2.291  0.00  0.00     0.418 HD
ENDBRANCH   4   7
TORSDOF 1
ENDMDL
