MODEL 1
REMARK minimizedAffinity 5.13837481
REMARK minimizedRMSD -1
REMARK  1 active torsions:
REMARK  status: ('A' for Active; 'I' for Inactive)
REMARK    1  A    between atoms: C1_2  and  C2_3 
ROOT
ATOM      1  C2  UNL d   1       1.880  -3.540   0.511  0.00  0.00    -0.077 A 
ATOM      2  C3  UNL d   1       2.823  -2.712   1.136  0.00  0.00     0.002 A 
ATOM      3  C4  UNL d   1       2.448  -1.458   1.625  0.00  0.00     0.002 A 
ATOM      4  C5  UNL d   1       1.130  -1.024   1.497  0.00  0.00    -0.004 A 
ATOM      5  C6  UNL d   1       0.186  -1.840   0.875  0.00  0.00     0.002 A 
ATOM      6  C7  UNL d   1       0.559  -3.092   0.385  0.00  0.00     0.002 A 
ENDROOT
BRANCH   1   7
ATOM      7  C1  UNL d   1       2.271  -4.912   0.027  0.00  0.00     0.055 C 
ATOM      8  C   UNL d   1       1.537  -6.000   0.798  0.00  0.00     0.019 C 
ENDBRANCH   1   7
TORSDOF 1
ENDMDL
