MODEL 1
REMARK minimizedAffinity 5.67499733
REMARK minimizedRMSD -1
REMARK  1 active torsions:
REMARK  status: ('A' for Active; 'I' for Inactive)
REMARK    1  A    between atoms: C1_2  and  C2_3 
ROOT
ATOM      1  C2  UNL d   1       1.154  -1.898   1.393  0.00  0.00    -0.077 A 
ATOM      2  C3  UNL d   1       1.603  -1.020   2.390  0.00  0.00     0.002 A 
ATOM      3  C4  UNL d   1       0.719  -0.541   3.359  0.00  0.00     0.002 A 
ATOM      4  C5  UNL d   1      -0.617  -0.936   3.342  0.00  0.00    -0.004 A 
ATOM      5  C6  UNL d   1      -1.074  -1.807   2.353  0.00  0.00     0.002 A 
ATOM      6  C7  UNL d   1      -0.192  -2.286   1.384  0.00  0.00     0.002 A 
ENDROOT
BRANCH   1   7
ATOM      7  C1  UNL d   1       2.116  -2.455   0.376  0.00  0.00     0.055 C 
ATOM      8  C   UNL d   1       2.143  -3.976   0.415  0.00  0.00     0.019 C 
ENDBRANCH   1   7
TORSDOF 1
ENDMDL
