MODEL 1
REMARK minimizedAffinity 7.82645321
REMARK minimizedRMSD -1
REMARK  1 active torsions:
REMARK  status: ('A' for Active; 'I' for Inactive)
REMARK    1  A    between atoms: C1_2  and  C2_3 
ROOT
ATOM      1  C2  UNL d   1       0.606  -2.508   1.403  0.00  0.00    -0.077 A 
ATOM      2  C3  UNL d   1       0.686  -3.632   0.569  0.00  0.00     0.002 A 
ATOM      3  C4  UNL d   1       1.924  -4.081   0.105  0.00  0.00     0.002 A 
ATOM      4  C5  UNL d   1       3.091  -3.414   0.472  0.00  0.00    -0.004 A 
ATOM      5  C6  UNL d   1       3.022  -2.294   1.300  0.00  0.00     0.002 A 
ATOM      6  C7  UNL d   1       1.785  -1.844   1.764  0.00  0.00     0.002 A 
ENDROOT
BRANCH   1   7
ATOM      7  C1  UNL d   1      -0.723  -2.052   1.945  0.00  0.00     0.055 C 
ATOM      8  C   UNL d   1      -0.549  -1.189   3.186  0.00  0.00     0.019 C 
ENDBRANCH   1   7
TORSDOF 1
ENDMDL
