MODEL 1
REMARK minimizedAffinity 4.11523962
REMARK minimizedRMSD -1
REMARK  1 active torsions:
REMARK  status: ('A' for Active; 'I' for Inactive)
REMARK    1  A    between atoms: C1_2  and  C2_3 
ROOT
ATOM      1  C2  UNL d   1       4.865  -2.372   3.926  0.00  0.00    -0.077 A 
ATOM      2  C3  UNL d   1       3.809  -2.923   3.186  0.00  0.00     0.002 A 
ATOM      3  C4  UNL d   1       3.849  -2.924   1.790  0.00  0.00     0.002 A 
ATOM      4  C5  UNL d   1       4.944  -2.379   1.123  0.00  0.00    -0.004 A 
ATOM      5  C6  UNL d   1       5.998  -1.826   1.850  0.00  0.00     0.002 A 
ATOM      6  C7  UNL d   1       5.959  -1.824   3.245  0.00  0.00     0.002 A 
ENDROOT
BRANCH   1   7
ATOM      7  C1  UNL d   1       4.845  -2.415   5.432  0.00  0.00     0.055 C 
ATOM      8  C   UNL d   1       5.216  -3.796   5.951  0.00  0.00     0.019 C 
ENDBRANCH   1   7
TORSDOF 1
ENDMDL
