MODEL 1
REMARK minimizedAffinity 5.66564751
REMARK minimizedRMSD -1
REMARK  1 active torsions:
REMARK  status: ('A' for Active; 'I' for Inactive)
REMARK    1  A    between atoms: C1_2  and  C2_3 
ROOT
ATOM      1  C2  UNL d   1      -2.024  -1.122   0.497  0.00  0.00    -0.077 A 
ATOM      2  C3  UNL d   1      -3.236  -1.826   0.459  0.00  0.00     0.002 A 
ATOM      3  C4  UNL d   1      -4.139  -1.623  -0.586  0.00  0.00     0.002 A 
ATOM      4  C5  UNL d   1      -3.838  -0.719  -1.603  0.00  0.00    -0.004 A 
ATOM      5  C6  UNL d   1      -2.636  -0.013  -1.574  0.00  0.00     0.002 A 
ATOM      6  C7  UNL d   1      -1.733  -0.214  -0.529  0.00  0.00     0.002 A 
ENDROOT
BRANCH   1   7
ATOM      7  C1  UNL d   1      -1.027  -1.377   1.597  0.00  0.00     0.055 C 
ATOM      8  C   UNL d   1       0.394  -1.100   1.131  0.00  0.00     0.019 C 
ENDBRANCH   1   7
TORSDOF 1
ENDMDL
