MODEL 1
REMARK minimizedAffinity 8.11504745
REMARK minimizedRMSD -1
REMARK  1 active torsions:
REMARK  status: ('A' for Active; 'I' for Inactive)
REMARK    1  A    between atoms: C1_2  and  C2_3 
ROOT
ATOM      1  C2  UNL d   1       4.148  -3.696   4.531  0.00  0.00    -0.077 A 
ATOM      2  C3  UNL d   1       3.772  -5.046   4.522  0.00  0.00     0.002 A 
ATOM      3  C4  UNL d   1       4.505  -5.989   5.246  0.00  0.00     0.002 A 
ATOM      4  C5  UNL d   1       5.616  -5.591   5.986  0.00  0.00    -0.004 A 
ATOM      5  C6  UNL d   1       6.000  -4.250   6.000  0.00  0.00     0.002 A 
ATOM      6  C7  UNL d   1       5.269  -3.307   5.276  0.00  0.00     0.002 A 
ENDROOT
BRANCH   1   7
ATOM      7  C1  UNL d   1       3.330  -2.670   3.791  0.00  0.00     0.055 C 
ATOM      8  C   UNL d   1       3.251  -2.992   2.306  0.00  0.00     0.019 C 
ENDBRANCH   1   7
TORSDOF 1
ENDMDL
