MODEL 1
REMARK minimizedAffinity 7.77316189
REMARK minimizedRMSD -1
REMARK  1 active torsions:
REMARK  status: ('A' for Active; 'I' for Inactive)
REMARK    1  A    between atoms: C1_2  and  C2_3 
ROOT
ATOM      1  C2  UNL d   1       0.796  -2.105   1.214  0.00  0.00    -0.077 A 
ATOM      2  C3  UNL d   1       2.049  -1.484   1.111  0.00  0.00     0.002 A 
ATOM      3  C4  UNL d   1       3.177  -2.224   0.753  0.00  0.00     0.002 A 
ATOM      4  C5  UNL d   1       3.063  -3.588   0.491  0.00  0.00    -0.004 A 
ATOM      5  C6  UNL d   1       1.822  -4.216   0.593  0.00  0.00     0.002 A 
ATOM      6  C7  UNL d   1       0.694  -3.477   0.952  0.00  0.00     0.002 A 
ENDROOT
BRANCH   1   7
ATOM      7  C1  UNL d   1      -0.430  -1.298   1.551  0.00  0.00     0.055 C 
ATOM      8  C   UNL d   1      -1.582  -2.196   1.981  0.00  0.00     0.019 C 
ENDBRANCH   1   7
TORSDOF 1
ENDMDL
