MODEL 1
REMARK minimizedAffinity 6.88183689
REMARK minimizedRMSD -1
REMARK  1 active torsions:
REMARK  status: ('A' for Active; 'I' for Inactive)
REMARK    1  A    between atoms: C1_2  and  C2_3 
ROOT
ATOM      1  C2  UNL d   1      -0.197  -2.961   1.039  0.00  0.00    -0.077 A 
ATOM      2  C3  UNL d   1       0.863  -2.195   0.534  0.00  0.00     0.002 A 
ATOM      3  C4  UNL d   1       1.970  -2.817  -0.049  0.00  0.00     0.002 A 
ATOM      4  C5  UNL d   1       2.024  -4.206  -0.135  0.00  0.00    -0.004 A 
ATOM      5  C6  UNL d   1       0.976  -4.977   0.366  0.00  0.00     0.002 A 
ATOM      6  C7  UNL d   1      -0.130  -4.357   0.949  0.00  0.00     0.002 A 
ENDROOT
BRANCH   1   7
ATOM      7  C1  UNL d   1      -1.413  -2.291   1.623  0.00  0.00     0.055 C 
ATOM      8  C   UNL d   1      -1.090  -1.617   2.949  0.00  0.00     0.019 C 
ENDBRANCH   1   7
TORSDOF 1
ENDMDL
