MODEL 1
REMARK minimizedAffinity -1.87298918
REMARK minimizedRMSD -1
REMARK  0 active torsions:
REMARK  status: ('A' for Active; 'I' for Inactive)
ROOT
ATOM      1  C1  BNZ d   1      -0.091  -0.077  -0.116  0.00  0.00     0.000 A 
ATOM      2  C2  BNZ d   1      -1.277   0.522   0.214  0.00  0.00     0.000 A 
ATOM      3  C3  BNZ d   1      -1.611   1.743  -0.301  0.00  0.00     0.000 A 
ATOM      4  C4  BNZ d   1      -0.743   2.381  -1.113  0.00  0.00     0.000 A 
ATOM      5  C5  BNZ d   1       0.461   1.794  -1.448  0.00  0.00     0.000 A 
ATOM      6  C6  BNZ d   1       0.777   0.547  -0.959  0.00  0.00     0.000 A 
ENDROOT
TORSDOF 0
ENDMDL
