MODEL 1
REMARK minimizedAffinity -3.4352262
REMARK minimizedRMSD -1
REMARK  0 active torsions:
REMARK  status: ('A' for Active; 'I' for Inactive)
ROOT
ATOM      1  C1  BNZ d   1      -0.031  -0.450   1.082  0.00  0.00     0.000 A 
ATOM      2  C2  BNZ d   1      -0.906   0.589   1.261  0.00  0.00     0.000 A 
ATOM      3  C3  BNZ d   1      -1.094   1.523   0.281  0.00  0.00     0.000 A 
ATOM      4  C4  BNZ d   1      -0.378   1.441  -0.859  0.00  0.00     0.000 A 
ATOM      5  C5  BNZ d   1       0.515   0.405  -1.051  0.00  0.00     0.000 A 
ATOM      6  C6  BNZ d   1       0.672  -0.555  -0.078  0.00  0.00     0.000 A 
ENDROOT
TORSDOF 0
ENDMDL
