MODEL 1
REMARK minimizedAffinity -3.40322256
REMARK minimizedRMSD -1
REMARK  0 active torsions:
REMARK  status: ('A' for Active; 'I' for Inactive)
ROOT
ATOM      1  C1  BNZ d   1      -1.076   1.755  -0.273  0.00  0.00     0.000 A 
ATOM      2  C2  BNZ d   1      -0.060   1.404  -1.122  0.00  0.00     0.000 A 
ATOM      3  C3  BNZ d   1       0.660   0.261  -0.917  0.00  0.00     0.000 A 
ATOM      4  C4  BNZ d   1       0.391  -0.509   0.157  0.00  0.00     0.000 A 
ATOM      5  C5  BNZ d   1      -0.624  -0.163   1.028  0.00  0.00     0.000 A 
ATOM      6  C6  BNZ d   1      -1.372   0.968   0.796  0.00  0.00     0.000 A 
ENDROOT
TORSDOF 0
ENDMDL
