MODEL 1
REMARK minimizedAffinity -0.924699426
REMARK minimizedRMSD -1
REMARK  0 active torsions:
REMARK  status: ('A' for Active; 'I' for Inactive)
ROOT
ATOM      1  C1  BNZ d   1       0.801  -0.701  -0.185  0.00  0.00     0.000 A 
ATOM      2  C2  BNZ d   1       0.114  -0.985   0.965  0.00  0.00     0.000 A 
ATOM      3  C3  BNZ d   1      -0.715  -0.058   1.532  0.00  0.00     0.000 A 
ATOM      4  C4  BNZ d   1      -0.826   1.164   0.971  0.00  0.00     0.000 A 
ATOM      5  C5  BNZ d   1      -0.133   1.468  -0.184  0.00  0.00     0.000 A 
ATOM      6  C6  BNZ d   1       0.670   0.519  -0.773  0.00  0.00     0.000 A 
ENDROOT
TORSDOF 0
ENDMDL
