MODEL 1
REMARK minimizedAffinity -4.63973522
REMARK minimizedRMSD -1
REMARK  0 active torsions:
REMARK  status: ('A' for Active; 'I' for Inactive)
ROOT
ATOM      1  C1  BNZ d   1       0.274   0.589  -0.514  0.00  0.00     0.000 A 
ATOM      2  C2  BNZ d   1      -0.628   1.598  -0.308  0.00  0.00     0.000 A 
ATOM      3  C3  BNZ d   1      -1.266   1.733   0.893  0.00  0.00     0.000 A 
ATOM      4  C4  BNZ d   1      -1.031   0.836   1.873  0.00  0.00     0.000 A 
ATOM      5  C5  BNZ d   1      -0.132  -0.193   1.677  0.00  0.00     0.000 A 
ATOM      6  C6  BNZ d   1       0.537  -0.303   0.480  0.00  0.00     0.000 A 
ENDROOT
TORSDOF 0
ENDMDL
