MODEL 1
REMARK minimizedAffinity -4.95513344
REMARK minimizedRMSD -1
REMARK  0 active torsions:
REMARK  status: ('A' for Active; 'I' for Inactive)
ROOT
ATOM      1  C1  BNZ d   1      -0.759  -0.093   1.419  0.00  0.00     0.000 A 
ATOM      2  C2  BNZ d   1      -1.680   0.921   1.392  0.00  0.00     0.000 A 
ATOM      3  C3  BNZ d   1      -1.820   1.710   0.285  0.00  0.00     0.000 A 
ATOM      4  C4  BNZ d   1      -1.014   1.511  -0.778  0.00  0.00     0.000 A 
ATOM      5  C5  BNZ d   1      -0.074   0.499  -0.763  0.00  0.00     0.000 A 
ATOM      6  C6  BNZ d   1       0.037  -0.318   0.338  0.00  0.00     0.000 A 
ENDROOT
TORSDOF 0
ENDMDL
