MODEL 1
REMARK minimizedAffinity -2.66811895
REMARK minimizedRMSD -1
REMARK  0 active torsions:
REMARK  status: ('A' for Active; 'I' for Inactive)
ROOT
ATOM      1  C1  BNZ d   1      -1.215   0.358   1.657  0.00  0.00     0.000 A 
ATOM      2  C2  BNZ d   1      -0.858   0.293   0.336  0.00  0.00     0.000 A 
ATOM      3  C3  BNZ d   1      -1.070   1.354  -0.499  0.00  0.00     0.000 A 
ATOM      4  C4  BNZ d   1      -1.675   2.462  -0.024  0.00  0.00     0.000 A 
ATOM      5  C5  BNZ d   1      -2.049   2.540   1.303  0.00  0.00     0.000 A 
ATOM      6  C6  BNZ d   1      -1.798   1.485   2.150  0.00  0.00     0.000 A 
ENDROOT
TORSDOF 0
ENDMDL
