MODEL 1
REMARK minimizedAffinity -4.58035946
REMARK minimizedRMSD -1
REMARK  0 active torsions:
REMARK  status: ('A' for Active; 'I' for Inactive)
ROOT
ATOM      1  C1  BNZ d   1      -1.533   2.000   0.419  0.00  0.00     0.000 A 
ATOM      2  C2  BNZ d   1      -0.895   0.935  -0.160  0.00  0.00     0.000 A 
ATOM      3  C3  BNZ d   1      -0.282  -0.015   0.608  0.00  0.00     0.000 A 
ATOM      4  C4  BNZ d   1      -0.273   0.121   1.949  0.00  0.00     0.000 A 
ATOM      5  C5  BNZ d   1      -0.903   1.194   2.547  0.00  0.00     0.000 A 
ATOM      6  C6  BNZ d   1      -1.552   2.128   1.774  0.00  0.00     0.000 A 
ENDROOT
TORSDOF 0
ENDMDL
