MODEL 1
REMARK minimizedAffinity -2.79377151
REMARK minimizedRMSD -1
REMARK  0 active torsions:
REMARK  status: ('A' for Active; 'I' for Inactive)
ROOT
ATOM      1  C1  BNZ d   1      -1.442   1.890   0.036  0.00  0.00     0.000 A 
ATOM      2  C2  BNZ d   1      -0.596   1.700  -1.024  0.00  0.00     0.000 A 
ATOM      3  C3  BNZ d   1       0.246   0.624  -1.064  0.00  0.00     0.000 A 
ATOM      4  C4  BNZ d   1       0.271  -0.237  -0.027  0.00  0.00     0.000 A 
ATOM      5  C5  BNZ d   1      -0.569  -0.055   1.054  0.00  0.00     0.000 A 
ATOM      6  C6  BNZ d   1      -1.443   1.008   1.073  0.00  0.00     0.000 A 
ENDROOT
TORSDOF 0
ENDMDL
