MODEL 1
REMARK minimizedAffinity -3.10816717
REMARK minimizedRMSD -1
REMARK  0 active torsions:
REMARK  status: ('A' for Active; 'I' for Inactive)
ROOT
ATOM      1  C1  BNZ d   1      -0.042   0.074  -0.150  0.00  0.00     0.000 A 
ATOM      2  C2  BNZ d   1      -0.762   1.231  -0.280  0.00  0.00     0.000 A 
ATOM      3  C3  BNZ d   1      -1.665   1.604   0.675  0.00  0.00     0.000 A 
ATOM      4  C4  BNZ d   1      -1.877   0.800   1.737  0.00  0.00     0.000 A 
ATOM      5  C5  BNZ d   1      -1.166  -0.375   1.877  0.00  0.00     0.000 A 
ATOM      6  C6  BNZ d   1      -0.229  -0.727   0.934  0.00  0.00     0.000 A 
ENDROOT
TORSDOF 0
ENDMDL
