MODEL 1
REMARK minimizedAffinity -3.35477734
REMARK minimizedRMSD -1
REMARK  0 active torsions:
REMARK  status: ('A' for Active; 'I' for Inactive)
ROOT
ATOM      1  C1  BNZ d   1      -0.725   2.819  -0.188  0.00  0.00     0.000 A 
ATOM      2  C2  BNZ d   1      -1.344   3.346   0.914  0.00  0.00     0.000 A 
ATOM      3  C3  BNZ d   1      -1.791   2.535   1.920  0.00  0.00     0.000 A 
ATOM      4  C4  BNZ d   1      -1.656   1.198   1.804  0.00  0.00     0.000 A 
ATOM      5  C5  BNZ d   1      -1.043   0.651   0.694  0.00  0.00     0.000 A 
ATOM      6  C6  BNZ d   1      -0.558   1.473  -0.298  0.00  0.00     0.000 A 
ENDROOT
TORSDOF 0
ENDMDL
