MODEL 1
REMARK minimizedAffinity -4.17989016
REMARK minimizedRMSD -1
REMARK  0 active torsions:
REMARK  status: ('A' for Active; 'I' for Inactive)
ROOT
ATOM      1  C1  BNZ d   1      -1.286   1.078  -0.351  0.00  0.00     0.000 A 
ATOM      2  C2  BNZ d   1      -1.982   2.001   0.384  0.00  0.00     0.000 A 
ATOM      3  C3  BNZ d   1      -1.736   2.162   1.719  0.00  0.00     0.000 A 
ATOM      4  C4  BNZ d   1      -0.825   1.373   2.325  0.00  0.00     0.000 A 
ATOM      5  C5  BNZ d   1      -0.122   0.432   1.600  0.00  0.00     0.000 A 
ATOM      6  C6  BNZ d   1      -0.344   0.299   0.248  0.00  0.00     0.000 A 
ENDROOT
TORSDOF 0
ENDMDL
