MODEL 1
REMARK minimizedAffinity -3.85161424
REMARK minimizedRMSD -1
REMARK  0 active torsions:
REMARK  status: ('A' for Active; 'I' for Inactive)
ROOT
ATOM      1  C1  BNZ d   1      -0.480  -0.199   1.179  0.00  0.00     0.000 A 
ATOM      2  C2  BNZ d   1      -1.170   0.647   2.006  0.00  0.00     0.000 A 
ATOM      3  C3  BNZ d   1      -1.763   1.777   1.516  0.00  0.00     0.000 A 
ATOM      4  C4  BNZ d   1      -1.632   2.081   0.208  0.00  0.00     0.000 A 
ATOM      5  C5  BNZ d   1      -0.932   1.243  -0.637  0.00  0.00     0.000 A 
ATOM      6  C6  BNZ d   1      -0.369   0.086  -0.148  0.00  0.00     0.000 A 
ENDROOT
TORSDOF 0
ENDMDL
