MODEL 1
REMARK minimizedAffinity 6.11534214
REMARK minimizedRMSD -1
REMARK  0 active torsions:
REMARK  status: ('A' for Active; 'I' for Inactive)
ROOT
ATOM      1  C   UNL d   1      -2.492  -0.193   1.148  0.00  0.00     0.023 A 
ATOM      2  C1  UNL d   1      -1.770  -0.370  -0.033  0.00  0.00     0.003 A 
ATOM      3  C2  UNL d   1      -0.379  -0.481   0.009  0.00  0.00     0.048 A 
ATOM      4  C3  UNL d   1       0.284  -0.414   1.234  0.00  0.00     0.023 A 
ATOM      5  C4  UNL d   1      -0.434  -0.238   2.417  0.00  0.00     0.048 A 
ATOM      6  C5  UNL d   1      -1.825  -0.127   2.371  0.00  0.00     0.003 A 
ATOM      7  I   UNL d   1       2.355  -0.578   1.297  0.00  0.00    -0.146 I 
ENDROOT
TORSDOF 0
ENDMDL
