MODEL 1
REMARK minimizedAffinity -2.6233871
REMARK minimizedRMSD -1
REMARK  0 active torsions:
REMARK  status: ('A' for Active; 'I' for Inactive)
ROOT
ATOM      1  C   UNL d   1       1.398   1.408   2.954  0.00  0.00     0.023 A 
ATOM      2  C1  UNL d   1       0.058   1.789   3.024  0.00  0.00     0.003 A 
ATOM      3  C2  UNL d   1      -0.870   1.246   2.133  0.00  0.00     0.048 A 
ATOM      4  C3  UNL d   1      -0.453   0.322   1.177  0.00  0.00     0.023 A 
ATOM      5  C4  UNL d   1       0.887  -0.063   1.104  0.00  0.00     0.048 A 
ATOM      6  C5  UNL d   1       1.812   0.483   1.995  0.00  0.00     0.003 A 
ATOM      7  I   UNL d   1      -1.833  -0.488  -0.149  0.00  0.00    -0.146 I 
ENDROOT
TORSDOF 0
ENDMDL
