MODEL 1
REMARK minimizedAffinity -2.43064237
REMARK minimizedRMSD -1
REMARK  0 active torsions:
REMARK  status: ('A' for Active; 'I' for Inactive)
ROOT
ATOM      1  C   UNL d   1       0.096   0.367   1.750  0.00  0.00     0.023 A 
ATOM      2  C1  UNL d   1       1.359   0.109   1.215  0.00  0.00     0.003 A 
ATOM      3  C2  UNL d   1       1.504  -0.119  -0.155  0.00  0.00     0.048 A 
ATOM      4  C3  UNL d   1       0.384  -0.085  -0.985  0.00  0.00     0.023 A 
ATOM      5  C4  UNL d   1      -0.881   0.173  -0.454  0.00  0.00     0.048 A 
ATOM      6  C5  UNL d   1      -1.022   0.399   0.916  0.00  0.00     0.003 A 
ATOM      7  I   UNL d   1       0.599  -0.423  -3.024  0.00  0.00    -0.146 I 
ENDROOT
TORSDOF 0
ENDMDL
