MODEL 1
REMARK minimizedAffinity -1.68398273
REMARK minimizedRMSD -1
REMARK  0 active torsions:
REMARK  status: ('A' for Active; 'I' for Inactive)
ROOT
ATOM      1  C   UNL d   1      -1.864   0.763   1.892  0.00  0.00     0.023 A 
ATOM      2  C1  UNL d   1      -0.857   1.205   2.750  0.00  0.00     0.003 A 
ATOM      3  C2  UNL d   1       0.443   0.715   2.614  0.00  0.00     0.048 A 
ATOM      4  C3  UNL d   1       0.730  -0.216   1.616  0.00  0.00     0.023 A 
ATOM      5  C4  UNL d   1      -0.274  -0.660   0.754  0.00  0.00     0.048 A 
ATOM      6  C5  UNL d   1      -1.573  -0.168   0.895  0.00  0.00     0.003 A 
ATOM      7  I   UNL d   1       2.665  -0.947   1.411  0.00  0.00    -0.146 I 
ENDROOT
TORSDOF 0
ENDMDL
