MODEL 1
REMARK minimizedAffinity 1.31796813
REMARK minimizedRMSD -1
REMARK  0 active torsions:
REMARK  status: ('A' for Active; 'I' for Inactive)
ROOT
ATOM      1  C   UNL d   1      -0.166  -0.412   1.430  0.00  0.00     0.023 A 
ATOM      2  C1  UNL d   1      -1.119   0.257   0.662  0.00  0.00     0.003 A 
ATOM      3  C2  UNL d   1      -0.871   0.523  -0.686  0.00  0.00     0.048 A 
ATOM      4  C3  UNL d   1       0.333   0.117  -1.261  0.00  0.00     0.023 A 
ATOM      5  C4  UNL d   1       1.290  -0.554  -0.497  0.00  0.00     0.048 A 
ATOM      6  C5  UNL d   1       1.037  -0.816   0.851  0.00  0.00     0.003 A 
ATOM      7  I   UNL d   1       0.705   0.511  -3.267  0.00  0.00    -0.146 I 
ENDROOT
TORSDOF 0
ENDMDL
