MODEL 1
REMARK minimizedAffinity -3.60230422
REMARK minimizedRMSD -1
REMARK  0 active torsions:
REMARK  status: ('A' for Active; 'I' for Inactive)
ROOT
ATOM      1  C   UNL d   1      -0.362   0.527   2.972  0.00  0.00     0.023 A 
ATOM      2  C1  UNL d   1       0.968   0.397   2.573  0.00  0.00     0.003 A 
ATOM      3  C2  UNL d   1       1.288   0.319   1.216  0.00  0.00     0.048 A 
ATOM      4  C3  UNL d   1       0.272   0.371   0.263  0.00  0.00     0.023 A 
ATOM      5  C4  UNL d   1      -1.061   0.502   0.656  0.00  0.00     0.048 A 
ATOM      6  C5  UNL d   1      -1.375   0.579   2.014  0.00  0.00     0.003 A 
ATOM      7  I   UNL d   1       0.746   0.254  -1.758  0.00  0.00    -0.146 I 
ENDROOT
TORSDOF 0
ENDMDL
