MODEL 1
REMARK minimizedAffinity -3.81994295
REMARK minimizedRMSD -1
REMARK  0 active torsions:
REMARK  status: ('A' for Active; 'I' for Inactive)
ROOT
ATOM      1  C   UNL d   1      -1.122   0.482   1.813  0.00  0.00     0.023 A 
ATOM      2  C1  UNL d   1      -2.003   0.431   0.732  0.00  0.00     0.003 A 
ATOM      3  C2  UNL d   1      -1.511   0.259  -0.564  0.00  0.00     0.048 A 
ATOM      4  C3  UNL d   1      -0.137   0.139  -0.771  0.00  0.00     0.023 A 
ATOM      5  C4  UNL d   1       0.747   0.189   0.307  0.00  0.00     0.048 A 
ATOM      6  C5  UNL d   1       0.251   0.361   1.601  0.00  0.00     0.003 A 
ATOM      7  I   UNL d   1       0.597  -0.116  -2.699  0.00  0.00    -0.146 I 
ENDROOT
TORSDOF 0
ENDMDL
