MODEL 1
REMARK minimizedAffinity -1.38478267
REMARK minimizedRMSD -1
REMARK  1 active torsions:
REMARK  status: ('A' for Active; 'I' for Inactive)
REMARK    1  A    between atoms: C1_2  and  C2_3 
ROOT
ATOM      1  C2  UNL d   1       5.282  -3.116   5.434  0.00  0.00    -0.076 A 
ATOM      2  C3  UNL d   1       5.979  -4.240   5.909  0.00  0.00     0.004 A 
ATOM      3  C4  UNL d   1       5.358  -5.485   5.999  0.00  0.00    -0.003 A 
ATOM      4  C5  UNL d   1       4.029  -5.625   5.614  0.00  0.00     0.000 A 
ATOM      5  C6  UNL d   1       3.327  -4.525   5.124  0.00  0.00     0.000 A 
ATOM      6  C7  UNL d   1       3.944  -3.267   5.012  0.00  0.00    -0.073 A 
ATOM      7  C8  UNL d   1       3.137  -2.112   4.483  0.00  0.00     0.078 C 
ENDROOT
BRANCH   1   8
ATOM      8  C1  UNL d   1       6.000  -1.786   5.385  0.00  0.00     0.053 C 
ATOM      9  C   UNL d   1       5.625  -0.967   4.160  0.00  0.00     0.018 C 
ENDBRANCH   1   8
TORSDOF 1
ENDMDL
