MODEL 1
REMARK minimizedAffinity 4.65825653
REMARK minimizedRMSD -1
REMARK  1 active torsions:
REMARK  status: ('A' for Active; 'I' for Inactive)
REMARK    1  A    between atoms: C1_2  and  C2_3 
ROOT
ATOM      1  C2  UNL d   1       2.132   2.217  -1.096  0.00  0.00    -0.076 A 
ATOM      2  C3  UNL d   1       0.910   2.698  -1.597  0.00  0.00     0.004 A 
ATOM      3  C4  UNL d   1       0.128   1.919  -2.450  0.00  0.00    -0.003 A 
ATOM      4  C5  UNL d   1       0.556   0.647  -2.814  0.00  0.00     0.000 A 
ATOM      5  C6  UNL d   1       1.757   0.148  -2.311  0.00  0.00     0.000 A 
ATOM      6  C7  UNL d   1       2.549   0.913  -1.438  0.00  0.00    -0.073 A 
ATOM      7  C8  UNL d   1       3.839   0.327  -0.932  0.00  0.00     0.078 C 
ENDROOT
BRANCH   1   8
ATOM      8  C1  UNL d   1       2.950   3.117  -0.197  0.00  0.00     0.053 C 
ATOM      9  C   UNL d   1       2.711   2.839   1.279  0.00  0.00     0.018 C 
ENDBRANCH   1   8
TORSDOF 1
ENDMDL
