MODEL 1
REMARK minimizedAffinity 16.4904442
REMARK minimizedRMSD -1
REMARK  1 active torsions:
REMARK  status: ('A' for Active; 'I' for Inactive)
REMARK    1  A    between atoms: C1_2  and  C2_3 
ROOT
ATOM      1  C2  UNL d   1       2.420   2.908  -2.180  0.00  0.00    -0.076 A 
ATOM      2  C3  UNL d   1       2.573   1.644  -1.584  0.00  0.00     0.004 A 
ATOM      3  C4  UNL d   1       1.781   0.566  -1.975  0.00  0.00    -0.003 A 
ATOM      4  C5  UNL d   1       0.824   0.734  -2.970  0.00  0.00     0.000 A 
ATOM      5  C6  UNL d   1       0.671   1.976  -3.584  0.00  0.00     0.000 A 
ATOM      6  C7  UNL d   1       1.472   3.070  -3.213  0.00  0.00    -0.073 A 
ATOM      7  C8  UNL d   1       1.260   4.388  -3.904  0.00  0.00     0.078 C 
ENDROOT
BRANCH   1   8
ATOM      8  C1  UNL d   1       3.288   4.047  -1.695  0.00  0.00     0.053 C 
ATOM      9  C   UNL d   1       3.178   4.267  -0.194  0.00  0.00     0.018 C 
ENDBRANCH   1   8
TORSDOF 1
ENDMDL
