MODEL 1
REMARK minimizedAffinity -1.84764528
REMARK minimizedRMSD -1
REMARK  1 active torsions:
REMARK  status: ('A' for Active; 'I' for Inactive)
REMARK    1  A    between atoms: C1_2  and  C2_3 
ROOT
ATOM      1  C2  UNL d   1      -3.020   5.982   3.042  0.00  0.00    -0.076 A 
ATOM      2  C3  UNL d   1      -2.249   5.972   4.217  0.00  0.00     0.004 A 
ATOM      3  C4  UNL d   1      -2.856   5.981   5.473  0.00  0.00    -0.003 A 
ATOM      4  C5  UNL d   1      -4.242   6.000   5.572  0.00  0.00     0.000 A 
ATOM      5  C6  UNL d   1      -5.023   5.993   4.417  0.00  0.00     0.000 A 
ATOM      6  C7  UNL d   1      -4.427   5.967   3.144  0.00  0.00    -0.073 A 
ATOM      7  C8  UNL d   1      -5.317   5.967   1.931  0.00  0.00     0.078 C 
ENDROOT
BRANCH   1   8
ATOM      8  C1  UNL d   1      -2.307   5.999   1.709  0.00  0.00     0.053 C 
ATOM      9  C   UNL d   1      -2.469   4.695   0.944  0.00  0.00     0.018 C 
ENDBRANCH   1   8
TORSDOF 1
ENDMDL
