MODEL 1
REMARK minimizedAffinity 7.84922218
REMARK minimizedRMSD -1
REMARK  1 active torsions:
REMARK  status: ('A' for Active; 'I' for Inactive)
REMARK    1  A    between atoms: C1_2  and  C2_3 
ROOT
ATOM      1  C2  UNL d   1      -3.741   3.586   3.867  0.00  0.00    -0.076 A 
ATOM      2  C3  UNL d   1      -4.213   3.603   2.543  0.00  0.00     0.004 A 
ATOM      3  C4  UNL d   1      -4.585   4.798   1.929  0.00  0.00    -0.003 A 
ATOM      4  C5  UNL d   1      -4.490   5.995   2.629  0.00  0.00     0.000 A 
ATOM      5  C6  UNL d   1      -4.007   5.999   3.937  0.00  0.00     0.000 A 
ATOM      6  C7  UNL d   1      -3.613   4.805   4.565  0.00  0.00    -0.073 A 
ATOM      7  C8  UNL d   1      -3.105   4.867   5.980  0.00  0.00     0.078 C 
ENDROOT
BRANCH   1   8
ATOM      8  C1  UNL d   1      -3.379   2.256   4.489  0.00  0.00     0.053 C 
ATOM      9  C   UNL d   1      -3.387   1.119   3.480  0.00  0.00     0.018 C 
ENDBRANCH   1   8
TORSDOF 1
ENDMDL
