MODEL 1
REMARK minimizedAffinity 1.1969831
REMARK minimizedRMSD -1
REMARK  1 active torsions:
REMARK  status: ('A' for Active; 'I' for Inactive)
REMARK    1  A    between atoms: C1_2  and  C2_3 
ROOT
ATOM      1  C2  UNL d   1      -3.493   5.083   3.356  0.00  0.00    -0.076 A 
ATOM      2  C3  UNL d   1      -2.643   4.782   4.435  0.00  0.00     0.004 A 
ATOM      3  C4  UNL d   1      -3.018   5.074   5.746  0.00  0.00    -0.003 A 
ATOM      4  C5  UNL d   1      -4.248   5.670   5.999  0.00  0.00     0.000 A 
ATOM      5  C6  UNL d   1      -5.111   5.959   4.942  0.00  0.00     0.000 A 
ATOM      6  C7  UNL d   1      -4.756   5.657   3.616  0.00  0.00    -0.073 A 
ATOM      7  C8  UNL d   1      -5.722   5.996   2.515  0.00  0.00     0.078 C 
ENDROOT
BRANCH   1   8
ATOM      8  C1  UNL d   1      -3.021   4.769   1.954  0.00  0.00     0.053 C 
ATOM      9  C   UNL d   1      -2.508   6.000   1.223  0.00  0.00     0.018 C 
ENDBRANCH   1   8
TORSDOF 1
ENDMDL
