MODEL 1
REMARK minimizedAffinity 8.88863182
REMARK minimizedRMSD -1
REMARK  1 active torsions:
REMARK  status: ('A' for Active; 'I' for Inactive)
REMARK    1  A    between atoms: C1_2  and  C2_3 
ROOT
ATOM      1  C2  UNL d   1       0.810   1.339  -3.358  0.00  0.00    -0.076 A 
ATOM      2  C3  UNL d   1       1.030   2.564  -2.706  0.00  0.00     0.004 A 
ATOM      3  C4  UNL d   1       1.176   3.747  -3.430  0.00  0.00    -0.003 A 
ATOM      4  C5  UNL d   1       1.103   3.723  -4.818  0.00  0.00     0.000 A 
ATOM      5  C6  UNL d   1       0.867   2.519  -5.481  0.00  0.00     0.000 A 
ATOM      6  C7  UNL d   1       0.703   1.320  -4.765  0.00  0.00    -0.073 A 
ATOM      7  C8  UNL d   1       0.457   0.050  -5.532  0.00  0.00     0.078 C 
ENDROOT
BRANCH   1   8
ATOM      8  C1  UNL d   1       0.688   0.085  -2.522  0.00  0.00     0.053 C 
ATOM      9  C   UNL d   1       1.778  -0.021  -1.468  0.00  0.00     0.018 C 
ENDBRANCH   1   8
TORSDOF 1
ENDMDL
