MODEL 1
REMARK minimizedAffinity 1.94090939
REMARK minimizedRMSD -1
REMARK  1 active torsions:
REMARK  status: ('A' for Active; 'I' for Inactive)
REMARK    1  A    between atoms: C1_2  and  C2_3 
ROOT
ATOM      1  C2  UNL d   1      -3.301   5.983   3.225  0.00  0.00    -0.076 A 
ATOM      2  C3  UNL d   1      -2.226   5.973   4.130  0.00  0.00     0.004 A 
ATOM      3  C4  UNL d   1      -2.447   5.982   5.506  0.00  0.00    -0.003 A 
ATOM      4  C5  UNL d   1      -3.746   6.000   6.000  0.00  0.00     0.000 A 
ATOM      5  C6  UNL d   1      -4.825   5.992   5.117  0.00  0.00     0.000 A 
ATOM      6  C7  UNL d   1      -4.621   5.966   3.726  0.00  0.00    -0.073 A 
ATOM      7  C8  UNL d   1      -5.821   5.965   2.820  0.00  0.00     0.078 C 
ENDROOT
BRANCH   1   8
ATOM      8  C1  UNL d   1      -3.001   6.000   1.743  0.00  0.00     0.053 C 
ATOM      9  C   UNL d   1      -1.508   6.000   1.452  0.00  0.00     0.018 C 
ENDBRANCH   1   8
TORSDOF 1
ENDMDL
