MODEL 1
REMARK minimizedAffinity 5.8949151
REMARK minimizedRMSD -1
REMARK  1 active torsions:
REMARK  status: ('A' for Active; 'I' for Inactive)
REMARK    1  A    between atoms: C1_2  and  C2_3 
ROOT
ATOM      1  C2  UNL d   1       4.489  -3.449   4.626  0.00  0.00    -0.076 A 
ATOM      2  C3  UNL d   1       5.647  -3.576   5.412  0.00  0.00     0.004 A 
ATOM      3  C4  UNL d   1       5.997  -4.799   5.982  0.00  0.00    -0.003 A 
ATOM      4  C5  UNL d   1       5.194  -5.915   5.775  0.00  0.00     0.000 A 
ATOM      5  C6  UNL d   1       4.051  -5.812   4.983  0.00  0.00     0.000 A 
ATOM      6  C7  UNL d   1       3.693  -4.590   4.388  0.00  0.00    -0.073 A 
ATOM      7  C8  UNL d   1       2.446  -4.535   3.548  0.00  0.00     0.078 C 
ENDROOT
BRANCH   1   8
ATOM      8  C1  UNL d   1       4.145  -2.092   4.056  0.00  0.00     0.053 C 
ATOM      9  C   UNL d   1       5.343  -1.156   4.017  0.00  0.00     0.018 C 
ENDBRANCH   1   8
TORSDOF 1
ENDMDL
