MODEL 1
REMARK minimizedAffinity -1.29588044
REMARK minimizedRMSD -1
REMARK  1 active torsions:
REMARK  status: ('A' for Active; 'I' for Inactive)
REMARK    1  A    between atoms: C1_2  and  C2_3 
ROOT
ATOM      1  C2  UNL d   1       1.165   0.725  -3.860  0.00  0.00    -0.076 A 
ATOM      2  C3  UNL d   1       0.574  -0.427  -4.409  0.00  0.00     0.004 A 
ATOM      3  C4  UNL d   1       0.651  -1.654  -3.754  0.00  0.00    -0.003 A 
ATOM      4  C5  UNL d   1       1.319  -1.751  -2.538  0.00  0.00     0.000 A 
ATOM      5  C6  UNL d   1       1.896  -0.615  -1.970  0.00  0.00     0.000 A 
ATOM      6  C7  UNL d   1       1.813   0.634  -2.610  0.00  0.00    -0.073 A 
ATOM      7  C8  UNL d   1       2.459   1.824  -1.955  0.00  0.00     0.078 C 
ENDROOT
BRANCH   1   8
ATOM      8  C1  UNL d   1       1.073   2.023  -4.630  0.00  0.00     0.053 C 
ATOM      9  C   UNL d   1       2.288   2.266  -5.510  0.00  0.00     0.018 C 
ENDBRANCH   1   8
TORSDOF 1
ENDMDL
