MODEL 1
REMARK minimizedAffinity 0.113724746
REMARK minimizedRMSD -1
REMARK  1 active torsions:
REMARK  status: ('A' for Active; 'I' for Inactive)
REMARK    1  A    between atoms: C1_2  and  C2_3 
ROOT
ATOM      1  C2  UNL d   1      -3.051   5.919   4.093  0.00  0.00    -0.076 A 
ATOM      2  C3  UNL d   1      -4.017   5.922   5.115  0.00  0.00     0.004 A 
ATOM      3  C4  UNL d   1      -5.378   5.903   4.816  0.00  0.00    -0.003 A 
ATOM      4  C5  UNL d   1      -5.796   5.882   3.490  0.00  0.00     0.000 A 
ATOM      5  C6  UNL d   1      -4.852   5.861   2.464  0.00  0.00     0.000 A 
ATOM      6  C7  UNL d   1      -3.475   5.863   2.748  0.00  0.00    -0.073 A 
ATOM      7  C8  UNL d   1      -2.501   5.846   1.602  0.00  0.00     0.078 C 
ENDROOT
BRANCH   1   8
ATOM      8  C1  UNL d   1      -1.590   5.968   4.478  0.00  0.00     0.053 C 
ATOM      9  C   UNL d   1      -1.383   5.972   5.985  0.00  0.00     0.018 C 
ENDBRANCH   1   8
TORSDOF 1
ENDMDL
