MODEL 1
REMARK minimizedAffinity 11.7875738
REMARK minimizedRMSD -1
REMARK  1 active torsions:
REMARK  status: ('A' for Active; 'I' for Inactive)
REMARK    1  A    between atoms: C1_2  and  C2_3 
ROOT
ATOM      1  C2  UNL d   1       1.570   1.840  -3.688  0.00  0.00    -0.076 A 
ATOM      2  C3  UNL d   1       1.608   1.238  -4.958  0.00  0.00     0.004 A 
ATOM      3  C4  UNL d   1       2.345   1.803  -5.997  0.00  0.00    -0.003 A 
ATOM      4  C5  UNL d   1       3.057   2.978  -5.783  0.00  0.00     0.000 A 
ATOM      5  C6  UNL d   1       3.045   3.579  -4.525  0.00  0.00     0.000 A 
ATOM      6  C7  UNL d   1       2.320   3.014  -3.462  0.00  0.00    -0.073 A 
ATOM      7  C8  UNL d   1       2.337   3.707  -2.127  0.00  0.00     0.078 C 
ENDROOT
BRANCH   1   8
ATOM      8  C1  UNL d   1       0.731   1.196  -2.607  0.00  0.00     0.053 C 
ATOM      9  C   UNL d   1       1.467   0.076  -1.888  0.00  0.00     0.018 C 
ENDBRANCH   1   8
TORSDOF 1
ENDMDL
