MODEL 1
REMARK minimizedAffinity 11.5354786
REMARK minimizedRMSD -1
REMARK  1 active torsions:
REMARK  status: ('A' for Active; 'I' for Inactive)
REMARK    1  A    between atoms: C1_2  and  C2_3 
ROOT
ATOM      1  C2  UNL d   1      -4.505   5.415   2.628  0.00  0.00    -0.076 A 
ATOM      2  C3  UNL d   1      -4.978   5.776   3.902  0.00  0.00     0.004 A 
ATOM      3  C4  UNL d   1      -4.096   6.000   4.957  0.00  0.00    -0.003 A 
ATOM      4  C5  UNL d   1      -2.726   5.866   4.757  0.00  0.00     0.000 A 
ATOM      5  C6  UNL d   1      -2.239   5.525   3.495  0.00  0.00     0.000 A 
ATOM      6  C7  UNL d   1      -3.114   5.313   2.416  0.00  0.00    -0.073 A 
ATOM      7  C8  UNL d   1      -2.534   4.941   1.079  0.00  0.00     0.078 C 
ENDROOT
BRANCH   1   8
ATOM      8  C1  UNL d   1      -5.511   5.159   1.528  0.00  0.00     0.053 C 
ATOM      9  C   UNL d   1      -5.971   3.710   1.485  0.00  0.00     0.018 C 
ENDBRANCH   1   8
TORSDOF 1
ENDMDL
