MODEL 1
REMARK minimizedAffinity 7.91746807
REMARK minimizedRMSD -1
REMARK  1 active torsions:
REMARK  status: ('A' for Active; 'I' for Inactive)
REMARK    1  A    between atoms: C1_2  and  C2_3 
ROOT
ATOM      1  C2  UNL d   1       3.542  -0.592  -0.117  0.00  0.00    -0.076 A 
ATOM      2  C3  UNL d   1       4.479  -1.570   0.258  0.00  0.00     0.004 A 
ATOM      3  C4  UNL d   1       5.697  -1.214   0.834  0.00  0.00    -0.003 A 
ATOM      4  C5  UNL d   1       5.998   0.127   1.045  0.00  0.00     0.000 A 
ATOM      5  C6  UNL d   1       5.073   1.110   0.695  0.00  0.00     0.000 A 
ATOM      6  C7  UNL d   1       3.834   0.767   0.129  0.00  0.00    -0.073 A 
ATOM      7  C8  UNL d   1       2.876   1.869  -0.235  0.00  0.00     0.078 C 
ENDROOT
BRANCH   1   8
ATOM      8  C1  UNL d   1       2.249  -1.037  -0.763  0.00  0.00     0.053 C 
ATOM      9  C   UNL d   1       2.304  -0.973  -2.281  0.00  0.00     0.018 C 
ENDBRANCH   1   8
TORSDOF 1
ENDMDL
