MODEL 1
REMARK minimizedAffinity 10.4371815
REMARK minimizedRMSD -1
REMARK  1 active torsions:
REMARK  status: ('A' for Active; 'I' for Inactive)
REMARK    1  A    between atoms: C1_2  and  C2_3 
ROOT
ATOM      1  C2  UNL d   1      -3.252   0.799  -3.814  0.00  0.00    -0.076 A 
ATOM      2  C3  UNL d   1      -4.011   1.287  -4.891  0.00  0.00     0.004 A 
ATOM      3  C4  UNL d   1      -4.326   0.470  -5.976  0.00  0.00    -0.003 A 
ATOM      4  C5  UNL d   1      -3.887  -0.849  -6.000  0.00  0.00     0.000 A 
ATOM      5  C6  UNL d   1      -3.148  -1.355  -4.932  0.00  0.00     0.000 A 
ATOM      6  C7  UNL d   1      -2.836  -0.550  -3.823  0.00  0.00    -0.073 A 
ATOM      7  C8  UNL d   1      -2.030  -1.146  -2.701  0.00  0.00     0.078 C 
ENDROOT
BRANCH   1   8
ATOM      8  C1  UNL d   1      -2.918   1.739  -2.678  0.00  0.00     0.053 C 
ATOM      9  C   UNL d   1      -2.380   3.075  -3.167  0.00  0.00     0.018 C 
ENDBRANCH   1   8
TORSDOF 1
ENDMDL
