MODEL 1
REMARK minimizedAffinity 9.0514183
REMARK minimizedRMSD -1
REMARK  1 active torsions:
REMARK  status: ('A' for Active; 'I' for Inactive)
REMARK    1  A    between atoms: C1_2  and  C2_3 
ROOT
ATOM      1  C2  UNL d   1      -0.355  -0.845   1.412  0.00  0.00    -0.076 A 
ATOM      2  C3  UNL d   1      -1.398  -0.792   0.472  0.00  0.00     0.004 A 
ATOM      3  C4  UNL d   1      -2.619  -0.198   0.787  0.00  0.00    -0.003 A 
ATOM      4  C5  UNL d   1      -2.816   0.354   2.048  0.00  0.00     0.000 A 
ATOM      5  C6  UNL d   1      -1.786   0.326   2.988  0.00  0.00     0.000 A 
ATOM      6  C7  UNL d   1      -0.543  -0.255   2.680  0.00  0.00    -0.073 A 
ATOM      7  C8  UNL d   1       0.531  -0.262   3.733  0.00  0.00     0.078 C 
ENDROOT
BRANCH   1   8
ATOM      8  C1  UNL d   1       0.938  -1.526   1.022  0.00  0.00     0.053 C 
ATOM      9  C   UNL d   1       1.480  -1.029  -0.309  0.00  0.00     0.018 C 
ENDBRANCH   1   8
TORSDOF 1
ENDMDL
