MODEL 1
REMARK minimizedAffinity 9.48851681
REMARK minimizedRMSD -1
REMARK  1 active torsions:
REMARK  status: ('A' for Active; 'I' for Inactive)
REMARK    1  A    between atoms: C1_2  and  C2_3 
ROOT
ATOM      1  C2  UNL d   1       0.142  -1.020   1.660  0.00  0.00    -0.076 A 
ATOM      2  C3  UNL d   1      -1.060  -0.510   1.139  0.00  0.00     0.004 A 
ATOM      3  C4  UNL d   1      -1.992   0.117   1.965  0.00  0.00    -0.003 A 
ATOM      4  C5  UNL d   1      -1.737   0.243   3.326  0.00  0.00     0.000 A 
ATOM      5  C6  UNL d   1      -0.542  -0.241   3.857  0.00  0.00     0.000 A 
ATOM      6  C7  UNL d   1       0.416  -0.860   3.036  0.00  0.00    -0.073 A 
ATOM      7  C8  UNL d   1       1.684  -1.370   3.663  0.00  0.00     0.078 C 
ENDROOT
BRANCH   1   8
ATOM      8  C1  UNL d   1       1.103  -1.713   0.721  0.00  0.00     0.053 C 
ATOM      9  C   UNL d   1       1.695  -0.765  -0.311  0.00  0.00     0.018 C 
ENDBRANCH   1   8
TORSDOF 1
ENDMDL
