MODEL 1
REMARK minimizedAffinity 2.38055134
REMARK minimizedRMSD -1
REMARK  1 active torsions:
REMARK  status: ('A' for Active; 'I' for Inactive)
REMARK    1  A    between atoms: C1_2  and  C2_3 
ROOT
ATOM      1  C2  UNL d   1       1.809   1.569  -2.536  0.00  0.00    -0.076 A 
ATOM      2  C3  UNL d   1       1.534   0.343  -3.166  0.00  0.00     0.004 A 
ATOM      3  C4  UNL d   1       1.746  -0.866  -2.506  0.00  0.00    -0.003 A 
ATOM      4  C5  UNL d   1       2.235  -0.869  -1.204  0.00  0.00     0.000 A 
ATOM      5  C6  UNL d   1       2.496   0.339  -0.558  0.00  0.00     0.000 A 
ATOM      6  C7  UNL d   1       2.273   1.567  -1.203  0.00  0.00    -0.073 A 
ATOM      7  C8  UNL d   1       2.578   2.839  -0.461  0.00  0.00     0.078 C 
ENDROOT
BRANCH   1   8
ATOM      8  C1  UNL d   1       1.587   2.848  -3.312  0.00  0.00     0.053 C 
ATOM      9  C   UNL d   1       0.145   3.327  -3.244  0.00  0.00     0.018 C 
ENDBRANCH   1   8
TORSDOF 1
ENDMDL
