MODEL 1
REMARK minimizedAffinity -3.10281968
REMARK minimizedRMSD -1
REMARK  1 active torsions:
REMARK  status: ('A' for Active; 'I' for Inactive)
REMARK    1  A    between atoms: C1_2  and  C2_3 
ROOT
ATOM      1  C2  UNL d   1       1.757   0.799  -1.693  0.00  0.00    -0.076 A 
ATOM      2  C3  UNL d   1       1.196  -0.452  -2.002  0.00  0.00     0.004 A 
ATOM      3  C4  UNL d   1       1.398  -1.554  -1.172  0.00  0.00    -0.003 A 
ATOM      4  C5  UNL d   1       2.163  -1.421  -0.019  0.00  0.00     0.000 A 
ATOM      5  C6  UNL d   1       2.712  -0.183   0.313  0.00  0.00     0.000 A 
ATOM      6  C7  UNL d   1       2.505   0.941  -0.505  0.00  0.00    -0.073 A 
ATOM      7  C8  UNL d   1       3.126   2.251  -0.102  0.00  0.00     0.078 C 
ENDROOT
BRANCH   1   8
ATOM      8  C1  UNL d   1       1.527   1.951  -2.645  0.00  0.00     0.053 C 
ATOM      9  C   UNL d   1       0.104   2.483  -2.583  0.00  0.00     0.018 C 
ENDBRANCH   1   8
TORSDOF 1
ENDMDL
