MODEL 1
REMARK minimizedAffinity 2.20569301
REMARK minimizedRMSD -1
REMARK  1 active torsions:
REMARK  status: ('A' for Active; 'I' for Inactive)
REMARK    1  A    between atoms: C1_2  and  C2_3 
ROOT
ATOM      1  C2  UNL d   1       1.866  -0.672  -0.358  0.00  0.00    -0.076 A 
ATOM      2  C3  UNL d   1       2.948   0.183  -0.083  0.00  0.00     0.004 A 
ATOM      3  C4  UNL d   1       2.982   1.482  -0.586  0.00  0.00    -0.003 A 
ATOM      4  C5  UNL d   1       1.934   1.948  -1.373  0.00  0.00     0.000 A 
ATOM      5  C6  UNL d   1       0.845   1.120  -1.641  0.00  0.00     0.000 A 
ATOM      6  C7  UNL d   1       0.787  -0.187  -1.128  0.00  0.00    -0.073 A 
ATOM      7  C8  UNL d   1      -0.409  -1.039  -1.454  0.00  0.00     0.078 C 
ENDROOT
BRANCH   1   8
ATOM      8  C1  UNL d   1       1.897  -2.080   0.192  0.00  0.00     0.053 C 
ATOM      9  C   UNL d   1       1.573  -2.132   1.677  0.00  0.00     0.018 C 
ENDBRANCH   1   8
TORSDOF 1
ENDMDL
