MODEL 1
REMARK minimizedAffinity 13.5863867
REMARK minimizedRMSD -1
REMARK  1 active torsions:
REMARK  status: ('A' for Active; 'I' for Inactive)
REMARK    1  A    between atoms: C1_2  and  C2_3 
ROOT
ATOM      1  C2  UNL d   1       2.265  -0.212  -0.367  0.00  0.00    -0.076 A 
ATOM      2  C3  UNL d   1       2.058  -0.710  -1.665  0.00  0.00     0.004 A 
ATOM      3  C4  UNL d   1       2.121   0.131  -2.775  0.00  0.00    -0.003 A 
ATOM      4  C5  UNL d   1       2.393   1.484  -2.605  0.00  0.00     0.000 A 
ATOM      5  C6  UNL d   1       2.619   1.992  -1.326  0.00  0.00     0.000 A 
ATOM      6  C7  UNL d   1       2.575   1.155  -0.198  0.00  0.00    -0.073 A 
ATOM      7  C8  UNL d   1       2.820   1.757   1.158  0.00  0.00     0.078 C 
ENDROOT
BRANCH   1   8
ATOM      8  C1  UNL d   1       2.157  -1.166   0.800  0.00  0.00     0.053 C 
ATOM      9  C   UNL d   1       0.875  -1.983   0.769  0.00  0.00     0.018 C 
ENDBRANCH   1   8
TORSDOF 1
ENDMDL
