MODEL 1
REMARK minimizedAffinity 2.67195249
REMARK minimizedRMSD -1
REMARK  1 active torsions:
REMARK  status: ('A' for Active; 'I' for Inactive)
REMARK    1  A    between atoms: C1_2  and  C2_3 
ROOT
ATOM      1  C2  UNL d   1       0.822   2.084  -2.388  0.00  0.00    -0.076 A 
ATOM      2  C3  UNL d   1       0.423   3.377  -2.771  0.00  0.00     0.004 A 
ATOM      3  C4  UNL d   1      -0.907   3.655  -3.079  0.00  0.00    -0.003 A 
ATOM      4  C5  UNL d   1      -1.861   2.646  -3.007  0.00  0.00     0.000 A 
ATOM      5  C6  UNL d   1      -1.487   1.363  -2.612  0.00  0.00     0.000 A 
ATOM      6  C7  UNL d   1      -0.152   1.069  -2.282  0.00  0.00    -0.073 A 
ATOM      7  C8  UNL d   1       0.196  -0.335  -1.868  0.00  0.00     0.078 C 
ENDROOT
BRANCH   1   8
ATOM      8  C1  UNL d   1       2.284   1.835  -2.092  0.00  0.00     0.053 C 
ATOM      9  C   UNL d   1       2.730   2.468  -0.784  0.00  0.00     0.018 C 
ENDBRANCH   1   8
TORSDOF 1
ENDMDL
