MODEL 1
REMARK minimizedAffinity -2.91069531
REMARK minimizedRMSD -1
REMARK  0 active torsions:
REMARK  status: ('A' for Active; 'I' for Inactive)
ROOT
ATOM      1  C1  BNZ d   1       0.831   0.553   0.464  0.00  0.00     0.000 A 
ATOM      2  C2  BNZ d   1       2.119   0.159   0.713  0.00  0.00     0.000 A 
ATOM      3  C3  BNZ d   1       2.551  -1.088   0.356  0.00  0.00     0.000 A 
ATOM      4  C4  BNZ d   1       1.686  -1.952  -0.213  0.00  0.00     0.000 A 
ATOM      5  C5  BNZ d   1       0.382  -1.573  -0.462  0.00  0.00     0.000 A 
ATOM      6  C6  BNZ d   1      -0.039  -0.304  -0.137  0.00  0.00     0.000 A 
ENDROOT
TORSDOF 0
ENDMDL
