MODEL 1
REMARK minimizedAffinity -3.81634402
REMARK minimizedRMSD -1
REMARK  0 active torsions:
REMARK  status: ('A' for Active; 'I' for Inactive)
ROOT
ATOM      1  C1  BNZ d   1      -0.550   0.774   0.328  0.00  0.00     0.000 A 
ATOM      2  C2  BNZ d   1       0.681   0.523   0.872  0.00  0.00     0.000 A 
ATOM      3  C3  BNZ d   1       1.314  -0.668   0.653  0.00  0.00     0.000 A 
ATOM      4  C4  BNZ d   1       0.699  -1.621  -0.076  0.00  0.00     0.000 A 
ATOM      5  C5  BNZ d   1      -0.546  -1.387  -0.624  0.00  0.00     0.000 A 
ATOM      6  C6  BNZ d   1      -1.163  -0.172  -0.434  0.00  0.00     0.000 A 
ENDROOT
TORSDOF 0
ENDMDL
