MODEL 1
REMARK minimizedAffinity -3.18167448
REMARK minimizedRMSD -1
REMARK  0 active torsions:
REMARK  status: ('A' for Active; 'I' for Inactive)
ROOT
ATOM      1  C1  BNZ d   1      -0.900   0.252  -0.241  0.00  0.00     0.000 A 
ATOM      2  C2  BNZ d   1      -0.250  -0.920   0.038  0.00  0.00     0.000 A 
ATOM      3  C3  BNZ d   1       0.998  -0.913   0.595  0.00  0.00     0.000 A 
ATOM      4  C4  BNZ d   1       1.610   0.264   0.836  0.00  0.00     0.000 A 
ATOM      5  C5  BNZ d   1       0.971   1.455   0.552  0.00  0.00     0.000 A 
ATOM      6  C6  BNZ d   1      -0.301   1.444   0.027  0.00  0.00     0.000 A 
ENDROOT
TORSDOF 0
ENDMDL
