MODEL 1
REMARK minimizedAffinity -3.87470651
REMARK minimizedRMSD -1
REMARK  0 active torsions:
REMARK  status: ('A' for Active; 'I' for Inactive)
ROOT
ATOM      1  C1  BNZ d   1       2.106  -1.418   0.055  0.00  0.00     0.000 A 
ATOM      2  C2  BNZ d   1       1.192  -1.402  -0.965  0.00  0.00     0.000 A 
ATOM      3  C3  BNZ d   1      -0.073  -0.926  -0.763  0.00  0.00     0.000 A 
ATOM      4  C4  BNZ d   1      -0.435  -0.505   0.466  0.00  0.00     0.000 A 
ATOM      5  C5  BNZ d   1       0.473  -0.524   1.507  0.00  0.00     0.000 A 
ATOM      6  C6  BNZ d   1       1.757  -0.967   1.290  0.00  0.00     0.000 A 
ENDROOT
TORSDOF 0
ENDMDL
