MODEL 1
REMARK minimizedAffinity -2.93527126
REMARK minimizedRMSD -1
REMARK  0 active torsions:
REMARK  status: ('A' for Active; 'I' for Inactive)
ROOT
ATOM      1  C1  BNZ d   1      -0.305   0.287  -0.655  0.00  0.00     0.000 A 
ATOM      2  C2  BNZ d   1       0.350  -0.545   0.214  0.00  0.00     0.000 A 
ATOM      3  C3  BNZ d   1       1.463  -0.120   0.885  0.00  0.00     0.000 A 
ATOM      4  C4  BNZ d   1       1.942   1.120   0.657  0.00  0.00     0.000 A 
ATOM      5  C5  BNZ d   1       1.298   1.967  -0.222  0.00  0.00     0.000 A 
ATOM      6  C6  BNZ d   1       0.156   1.550  -0.867  0.00  0.00     0.000 A 
ENDROOT
TORSDOF 0
ENDMDL
