MODEL 1
REMARK minimizedAffinity -5.0569191
REMARK minimizedRMSD -1
REMARK  0 active torsions:
REMARK  status: ('A' for Active; 'I' for Inactive)
ROOT
ATOM      1  C1  BNZ d   1       0.413   0.535  -0.050  0.00  0.00     0.000 A 
ATOM      2  C2  BNZ d   1       1.571   0.195   0.598  0.00  0.00     0.000 A 
ATOM      3  C3  BNZ d   1       2.077  -1.072   0.507  0.00  0.00     0.000 A 
ATOM      4  C4  BNZ d   1       1.405  -2.005  -0.197  0.00  0.00     0.000 A 
ATOM      5  C5  BNZ d   1       0.231  -1.680  -0.848  0.00  0.00     0.000 A 
ATOM      6  C6  BNZ d   1      -0.255  -0.394  -0.786  0.00  0.00     0.000 A 
ENDROOT
TORSDOF 0
ENDMDL
