MODEL 1
REMARK minimizedAffinity -3.49121046
REMARK minimizedRMSD -1
REMARK  0 active torsions:
REMARK  status: ('A' for Active; 'I' for Inactive)
ROOT
ATOM      1  C1  BNZ d   1       1.896  -1.840  -0.771  0.00  0.00     0.000 A 
ATOM      2  C2  BNZ d   1       2.747  -1.112   0.017  0.00  0.00     0.000 A 
ATOM      3  C3  BNZ d   1       2.266  -0.308   1.012  0.00  0.00     0.000 A 
ATOM      4  C4  BNZ d   1       0.933  -0.202   1.191  0.00  0.00     0.000 A 
ATOM      5  C5  BNZ d   1       0.061  -0.922   0.399  0.00  0.00     0.000 A 
ATOM      6  C6  BNZ d   1       0.551  -1.761  -0.575  0.00  0.00     0.000 A 
ENDROOT
TORSDOF 0
ENDMDL
