MODEL 1
REMARK minimizedAffinity -4.75481224
REMARK minimizedRMSD -1
REMARK  0 active torsions:
REMARK  status: ('A' for Active; 'I' for Inactive)
ROOT
ATOM      1  C1  BNZ d   1       2.209   0.849   0.730  0.00  0.00     0.000 A 
ATOM      2  C2  BNZ d   1       3.462   0.459   0.341  0.00  0.00     0.000 A 
ATOM      3  C3  BNZ d   1       3.685  -0.801  -0.140  0.00  0.00     0.000 A 
ATOM      4  C4  BNZ d   1       2.664  -1.680  -0.194  0.00  0.00     0.000 A 
ATOM      5  C5  BNZ d   1       1.397  -1.305   0.204  0.00  0.00     0.000 A 
ATOM      6  C6  BNZ d   1       1.168  -0.024   0.651  0.00  0.00     0.000 A 
ENDROOT
TORSDOF 0
ENDMDL
