MODEL 1
REMARK minimizedAffinity -1.96486187
REMARK minimizedRMSD -1
REMARK  0 active torsions:
REMARK  status: ('A' for Active; 'I' for Inactive)
ROOT
ATOM      1  C1  BNZ d   1       1.261  -1.428   0.515  0.00  0.00     0.000 A 
ATOM      2  C2  BNZ d   1       0.031  -1.688  -0.026  0.00  0.00     0.000 A 
ATOM      3  C3  BNZ d   1      -0.766  -0.672  -0.473  0.00  0.00     0.000 A 
ATOM      4  C4  BNZ d   1      -0.350   0.604  -0.342  0.00  0.00     0.000 A 
ATOM      5  C5  BNZ d   1       0.885   0.883   0.210  0.00  0.00     0.000 A 
ATOM      6  C6  BNZ d   1       1.701  -0.145   0.623  0.00  0.00     0.000 A 
ENDROOT
TORSDOF 0
ENDMDL
