MODEL 1
REMARK minimizedAffinity 7.27186918
REMARK minimizedRMSD -1
REMARK  3 active torsions:
REMARK  status: ('A' for Active; 'I' for Inactive)
REMARK    1  A    between atoms: C3'_2  and  C2'_3 
REMARK    2  A    between atoms: C2'_3  and  C1'_4 
REMARK    3  A    between atoms: C1'_4  and  C1_5 
ROOT
ATOM      1  C1  N4B d   1       3.314   0.508   3.419  0.00  0.00    -0.075 A 
ATOM      2  C2  N4B d   1       1.945   0.751   3.168  0.00  0.00     0.002 A 
ATOM      3  C3  N4B d   1       1.489   0.838   1.876  0.00  0.00     0.002 A 
ATOM      4  C4  N4B d   1       2.382   0.705   0.823  0.00  0.00    -0.004 A 
ATOM      5  C5  N4B d   1       3.697   0.445   1.073  0.00  0.00     0.002 A 
ATOM      6  C6  N4B d   1       4.169   0.352   2.367  0.00  0.00     0.002 A 
ENDROOT
BRANCH   1   7
ATOM      7  C1' N4B d   1       3.874   0.491   4.815  0.00  0.00     0.057 C 
BRANCH   7   8
ATOM      8  C2' N4B d   1       5.397   0.550   4.743  0.00  0.00     0.009 C 
BRANCH   8   9
ATOM      9  C3' N4B d   1       6.000   1.185   5.985  0.00  0.00     0.004 C 
ATOM     10  C4' N4B d   1       5.998   2.684   5.929  0.00  0.00     0.003 C 
ENDBRANCH   8   9
ENDBRANCH   7   8
ENDBRANCH   1   7
TORSDOF 3
ENDMDL
