MODEL 1
REMARK minimizedAffinity -1.77263665
REMARK minimizedRMSD -1
REMARK  3 active torsions:
REMARK  status: ('A' for Active; 'I' for Inactive)
REMARK    1  A    between atoms: C3'_2  and  C2'_3 
REMARK    2  A    between atoms: C2'_3  and  C1'_4 
REMARK    3  A    between atoms: C1'_4  and  C1_5 
ROOT
ATOM      1  C1  N4B d   1       0.214   0.056  -0.137  0.00  0.00    -0.075 A 
ATOM      2  C2  N4B d   1      -0.084   1.430   0.001  0.00  0.00     0.002 A 
ATOM      3  C3  N4B d   1       0.925   2.331   0.238  0.00  0.00     0.002 A 
ATOM      4  C4  N4B d   1       2.232   1.881   0.358  0.00  0.00    -0.004 A 
ATOM      5  C5  N4B d   1       2.514   0.556   0.198  0.00  0.00     0.002 A 
ATOM      6  C6  N4B d   1       1.510  -0.360  -0.044  0.00  0.00     0.002 A 
ENDROOT
BRANCH   1   7
ATOM      7  C1' N4B d   1      -0.866  -0.977  -0.311  0.00  0.00     0.057 C 
BRANCH   7   8
ATOM      8  C2' N4B d   1      -1.844  -0.503  -1.381  0.00  0.00     0.009 C 
BRANCH   8   9
ATOM      9  C3' N4B d   1      -2.231  -1.623  -2.332  0.00  0.00     0.004 C 
ATOM     10  C4' N4B d   1      -1.801  -1.361  -3.744  0.00  0.00     0.003 C 
ENDBRANCH   8   9
ENDBRANCH   7   8
ENDBRANCH   1   7
TORSDOF 3
ENDMDL
