MODEL 1
REMARK minimizedAffinity 8.0972023
REMARK minimizedRMSD -1
REMARK  3 active torsions:
REMARK  status: ('A' for Active; 'I' for Inactive)
REMARK    1  A    between atoms: C3'_2  and  C2'_3 
REMARK    2  A    between atoms: C2'_3  and  C1'_4 
REMARK    3  A    between atoms: C1'_4  and  C1_5 
ROOT
ATOM      1  C1  N4B d   1      -0.259  -0.827   1.098  0.00  0.00    -0.075 A 
ATOM      2  C2  N4B d   1      -0.284   0.382   1.828  0.00  0.00     0.002 A 
ATOM      3  C3  N4B d   1       0.594   1.391   1.516  0.00  0.00     0.002 A 
ATOM      4  C4  N4B d   1       1.515   1.208   0.495  0.00  0.00    -0.004 A 
ATOM      5  C5  N4B d   1       1.515   0.047  -0.222  0.00  0.00     0.002 A 
ATOM      6  C6  N4B d   1       0.636  -0.974   0.078  0.00  0.00     0.002 A 
ENDROOT
BRANCH   1   7
ATOM      7  C1' N4B d   1      -1.141  -1.990   1.458  0.00  0.00     0.057 C 
BRANCH   7   8
ATOM      8  C2' N4B d   1      -0.559  -3.266   0.856  0.00  0.00     0.009 C 
BRANCH   8   9
ATOM      9  C3' N4B d   1      -1.633  -4.145   0.240  0.00  0.00     0.004 C 
ATOM     10  C4' N4B d   1      -1.165  -5.549  -0.004  0.00  0.00     0.003 C 
ENDBRANCH   8   9
ENDBRANCH   7   8
ENDBRANCH   1   7
TORSDOF 3
ENDMDL
