MODEL 1
REMARK minimizedAffinity 3.96686411
REMARK minimizedRMSD -1
REMARK  3 active torsions:
REMARK  status: ('A' for Active; 'I' for Inactive)
REMARK    1  A    between atoms: C3'_2  and  C2'_3 
REMARK    2  A    between atoms: C2'_3  and  C1'_4 
REMARK    3  A    between atoms: C1'_4  and  C1_5 
ROOT
ATOM      1  C1  N4B d   1      -1.926   5.676  -1.068  0.00  0.00    -0.075 A 
ATOM      2  C2  N4B d   1      -2.798   5.830  -2.169  0.00  0.00     0.002 A 
ATOM      3  C3  N4B d   1      -4.145   5.999  -1.960  0.00  0.00     0.002 A 
ATOM      4  C4  N4B d   1      -4.643   5.999  -0.665  0.00  0.00    -0.004 A 
ATOM      5  C5  N4B d   1      -3.791   5.876   0.393  0.00  0.00     0.002 A 
ATOM      6  C6  N4B d   1      -2.435   5.709   0.198  0.00  0.00     0.002 A 
ENDROOT
BRANCH   1   7
ATOM      7  C1' N4B d   1      -0.458   5.402  -1.250  0.00  0.00     0.057 C 
BRANCH   7   8
ATOM      8  C2' N4B d   1      -0.079   4.158  -0.453  0.00  0.00     0.009 C 
BRANCH   8   9
ATOM      9  C3' N4B d   1       1.085   3.412  -1.084  0.00  0.00     0.004 C 
ATOM     10  C4' N4B d   1       2.072   2.912  -0.071  0.00  0.00     0.003 C 
ENDBRANCH   8   9
ENDBRANCH   7   8
ENDBRANCH   1   7
TORSDOF 3
ENDMDL
