MODEL 1
REMARK minimizedAffinity -0.567094088
REMARK minimizedRMSD -1
REMARK  3 active torsions:
REMARK  status: ('A' for Active; 'I' for Inactive)
REMARK    1  A    between atoms: C3'_2  and  C2'_3 
REMARK    2  A    between atoms: C2'_3  and  C1'_4 
REMARK    3  A    between atoms: C1'_4  and  C1_5 
ROOT
ATOM      1  C1  N4B d   1       0.604   0.010   0.106  0.00  0.00    -0.075 A 
ATOM      2  C2  N4B d   1       0.662   1.020   1.091  0.00  0.00     0.002 A 
ATOM      3  C3  N4B d   1       1.323   2.195   0.831  0.00  0.00     0.002 A 
ATOM      4  C4  N4B d   1       1.946   2.375  -0.394  0.00  0.00    -0.004 A 
ATOM      5  C5  N4B d   1       1.863   1.405  -1.350  0.00  0.00     0.002 A 
ATOM      6  C6  N4B d   1       1.199   0.220  -1.104  0.00  0.00     0.002 A 
ENDROOT
BRANCH   1   7
ATOM      7  C1' N4B d   1      -0.033  -1.326   0.375  0.00  0.00     0.057 C 
BRANCH   7   8
ATOM      8  C2' N4B d   1      -1.542  -1.144   0.509  0.00  0.00     0.009 C 
BRANCH   8   9
ATOM      9  C3' N4B d   1      -1.916  -0.432   1.797  0.00  0.00     0.004 C 
ATOM     10  C4' N4B d   1      -2.816   0.747   1.570  0.00  0.00     0.003 C 
ENDBRANCH   8   9
ENDBRANCH   7   8
ENDBRANCH   1   7
TORSDOF 3
ENDMDL
