MODEL 1
REMARK minimizedAffinity 0.297078818
REMARK minimizedRMSD -1
REMARK  3 active torsions:
REMARK  status: ('A' for Active; 'I' for Inactive)
REMARK    1  A    between atoms: C3'_2  and  C2'_3 
REMARK    2  A    between atoms: C2'_3  and  C1'_4 
REMARK    3  A    between atoms: C1'_4  and  C1_5 
ROOT
ATOM      1  C1  N4B d   1      -1.237   0.563   2.280  0.00  0.00    -0.075 A 
ATOM      2  C2  N4B d   1      -0.950   0.009   1.013  0.00  0.00     0.002 A 
ATOM      3  C3  N4B d   1       0.162   0.420   0.320  0.00  0.00     0.002 A 
ATOM      4  C4  N4B d   1       0.988   1.393   0.863  0.00  0.00    -0.004 A 
ATOM      5  C5  N4B d   1       0.717   1.905   2.098  0.00  0.00     0.002 A 
ATOM      6  C6  N4B d   1      -0.395   1.499   2.807  0.00  0.00     0.002 A 
ENDROOT
BRANCH   1   7
ATOM      7  C1' N4B d   1      -2.488   0.209   3.037  0.00  0.00     0.057 C 
BRANCH   7   8
ATOM      8  C2' N4B d   1      -2.365  -1.217   3.567  0.00  0.00     0.009 C 
BRANCH   8   9
ATOM      9  C3' N4B d   1      -3.630  -1.671   4.274  0.00  0.00     0.004 C 
ATOM     10  C4' N4B d   1      -3.358  -2.642   5.385  0.00  0.00     0.003 C 
ENDBRANCH   8   9
ENDBRANCH   7   8
ENDBRANCH   1   7
TORSDOF 3
ENDMDL
