MODEL 1
REMARK minimizedAffinity 1.91109681
REMARK minimizedRMSD -1
REMARK  3 active torsions:
REMARK  status: ('A' for Active; 'I' for Inactive)
REMARK    1  A    between atoms: C3'_2  and  C2'_3 
REMARK    2  A    between atoms: C2'_3  and  C1'_4 
REMARK    3  A    between atoms: C1'_4  and  C1_5 
ROOT
ATOM      1  C1  N4B d   1      -0.395   0.675   1.479  0.00  0.00    -0.075 A 
ATOM      2  C2  N4B d   1       0.604   0.025   0.722  0.00  0.00     0.002 A 
ATOM      3  C3  N4B d   1       1.718   0.717   0.317  0.00  0.00     0.002 A 
ATOM      4  C4  N4B d   1       1.847   2.059   0.640  0.00  0.00    -0.004 A 
ATOM      5  C5  N4B d   1       0.891   2.674   1.393  0.00  0.00     0.002 A 
ATOM      6  C6  N4B d   1      -0.233   1.989   1.811  0.00  0.00     0.002 A 
ENDROOT
BRANCH   1   7
ATOM      7  C1' N4B d   1      -1.672  -0.017   1.871  0.00  0.00     0.057 C 
BRANCH   7   8
ATOM      8  C2' N4B d   1      -2.280   0.698   3.074  0.00  0.00     0.009 C 
BRANCH   8   9
ATOM      9  C3' N4B d   1      -3.642   1.290   2.755  0.00  0.00     0.004 C 
ATOM     10  C4' N4B d   1      -4.150   2.196   3.837  0.00  0.00     0.003 C 
ENDBRANCH   8   9
ENDBRANCH   7   8
ENDBRANCH   1   7
TORSDOF 3
ENDMDL
