MODEL 1
REMARK minimizedAffinity 4.33139229
REMARK minimizedRMSD -1
REMARK  3 active torsions:
REMARK  status: ('A' for Active; 'I' for Inactive)
REMARK    1  A    between atoms: C3'_2  and  C2'_3 
REMARK    2  A    between atoms: C2'_3  and  C1'_4 
REMARK    3  A    between atoms: C1'_4  and  C1_5 
ROOT
ATOM      1  C1  N4B d   1       2.337   4.253  -3.858  0.00  0.00    -0.075 A 
ATOM      2  C2  N4B d   1       3.566   4.557  -4.484  0.00  0.00     0.002 A 
ATOM      3  C3  N4B d   1       3.599   5.433  -5.541  0.00  0.00     0.002 A 
ATOM      4  C4  N4B d   1       2.420   6.000  -6.000  0.00  0.00    -0.004 A 
ATOM      5  C5  N4B d   1       1.241   5.720  -5.373  0.00  0.00     0.002 A 
ATOM      6  C6  N4B d   1       1.193   4.845  -4.307  0.00  0.00     0.002 A 
ENDROOT
BRANCH   1   7
ATOM      7  C1' N4B d   1       2.239   3.235  -2.754  0.00  0.00     0.057 C 
BRANCH   7   8
ATOM      8  C2' N4B d   1       1.313   3.767  -1.664  0.00  0.00     0.009 C 
BRANCH   8   9
ATOM      9  C3' N4B d   1       1.833   3.450  -0.273  0.00  0.00     0.004 C 
ATOM     10  C4' N4B d   1       1.072   2.344   0.394  0.00  0.00     0.003 C 
ENDBRANCH   8   9
ENDBRANCH   7   8
ENDBRANCH   1   7
TORSDOF 3
ENDMDL
