MODEL 1
REMARK minimizedAffinity 5.86930132
REMARK minimizedRMSD -1
REMARK  3 active torsions:
REMARK  status: ('A' for Active; 'I' for Inactive)
REMARK    1  A    between atoms: C3'_2  and  C2'_3 
REMARK    2  A    between atoms: C2'_3  and  C1'_4 
REMARK    3  A    between atoms: C1'_4  and  C1_5 
ROOT
ATOM      1  C1  N4B d   1      -3.937  -0.352  -0.999  0.00  0.00    -0.075 A 
ATOM      2  C2  N4B d   1      -4.073  -1.125  -2.173  0.00  0.00     0.002 A 
ATOM      3  C3  N4B d   1      -4.208  -2.489  -2.085  0.00  0.00     0.002 A 
ATOM      4  C4  N4B d   1      -4.191  -3.101  -0.841  0.00  0.00    -0.004 A 
ATOM      5  C5  N4B d   1      -4.084  -2.345   0.289  0.00  0.00     0.002 A 
ATOM      6  C6  N4B d   1      -3.951  -0.973   0.216  0.00  0.00     0.002 A 
ENDROOT
BRANCH   1   7
ATOM      7  C1' N4B d   1      -3.700   1.133  -1.049  0.00  0.00     0.057 C 
BRANCH   7   8
ATOM      8  C2' N4B d   1      -5.005   1.858  -0.736  0.00  0.00     0.009 C 
BRANCH   8   9
ATOM      9  C3' N4B d   1      -4.815   3.364  -0.663  0.00  0.00     0.004 C 
ATOM     10  C4' N4B d   1      -5.292   3.948   0.633  0.00  0.00     0.003 C 
ENDBRANCH   8   9
ENDBRANCH   7   8
ENDBRANCH   1   7
TORSDOF 3
ENDMDL
