MODEL 1
REMARK minimizedAffinity -3.27749348
REMARK minimizedRMSD -1
REMARK  0 active torsions:
REMARK  status: ('A' for Active; 'I' for Inactive)
ROOT
ATOM      1  C   UNL d   1       2.303   1.098  -1.598  0.00  0.00     0.020 A 
ATOM      2  C1  UNL d   1       1.597   1.698  -0.557  0.00  0.00     0.020 A 
ATOM      3  C2  UNL d   1       0.922   0.907   0.376  0.00  0.00     0.034 A 
ATOM      4  C3  UNL d   1       0.952  -0.488   0.269  0.00  0.00     0.017 A 
ATOM      5  C4  UNL d   1       1.662  -1.089  -0.777  0.00  0.00     0.017 A 
ATOM      6  C5  UNL d   1       2.336  -0.293  -1.708  0.00  0.00     0.034 A 
ATOM      7 Cl   UNL d   1       1.745  -2.805  -0.974  0.00  0.00    -0.070 Cl
ATOM      8 Cl1  UNL d   1       0.095  -1.403   1.458  0.00  0.00    -0.070 Cl
ENDROOT
TORSDOF 0
ENDMDL
