MODEL 1
REMARK minimizedAffinity -3.47594237
REMARK minimizedRMSD -1
REMARK  0 active torsions:
REMARK  status: ('A' for Active; 'I' for Inactive)
ROOT
ATOM      1  C   UNL d   1      -0.287   1.418   0.518  0.00  0.00     0.020 A 
ATOM      2  C1  UNL d   1      -0.843   0.259   1.057  0.00  0.00     0.020 A 
ATOM      3  C2  UNL d   1      -0.398  -0.994   0.627  0.00  0.00     0.034 A 
ATOM      4  C3  UNL d   1       0.606  -1.089  -0.343  0.00  0.00     0.017 A 
ATOM      5  C4  UNL d   1       1.164   0.076  -0.883  0.00  0.00     0.017 A 
ATOM      6  C5  UNL d   1       0.715   1.327  -0.449  0.00  0.00     0.034 A 
ATOM      7 Cl   UNL d   1       2.407   0.038  -2.083  0.00  0.00    -0.070 Cl
ATOM      8 Cl1  UNL d   1       1.108  -2.670  -0.827  0.00  0.00    -0.070 Cl
ENDROOT
TORSDOF 0
ENDMDL
