MODEL 1
REMARK minimizedAffinity -2.18611407
REMARK minimizedRMSD -1
REMARK  0 active torsions:
REMARK  status: ('A' for Active; 'I' for Inactive)
ROOT
ATOM      1  C   UNL d   1       0.091   1.289  -0.756  0.00  0.00     0.020 A 
ATOM      2  C1  UNL d   1       0.719   0.772   0.377  0.00  0.00     0.020 A 
ATOM      3  C2  UNL d   1      -0.040   0.406   1.490  0.00  0.00     0.034 A 
ATOM      4  C3  UNL d   1      -1.432   0.555   1.473  0.00  0.00     0.017 A 
ATOM      5  C4  UNL d   1      -2.061   1.074   0.336  0.00  0.00     0.017 A 
ATOM      6  C5  UNL d   1      -1.296   1.439  -0.776  0.00  0.00     0.034 A 
ATOM      7 Cl   UNL d   1      -3.774   1.287   0.240  0.00  0.00    -0.070 Cl
ATOM      8 Cl1  UNL d   1      -2.308   0.081   2.885  0.00  0.00    -0.070 Cl
ENDROOT
TORSDOF 0
ENDMDL
