MODEL 1
REMARK minimizedAffinity 1.74126792
REMARK minimizedRMSD -1
REMARK  0 active torsions:
REMARK  status: ('A' for Active; 'I' for Inactive)
ROOT
ATOM      1  C   UNL d   1       0.305   1.315  -0.144  0.00  0.00     0.020 A 
ATOM      2  C1  UNL d   1       1.134   2.069   0.685  0.00  0.00     0.020 A 
ATOM      3  C2  UNL d   1       2.517   2.054   0.490  0.00  0.00     0.034 A 
ATOM      4  C3  UNL d   1       3.074   1.284  -0.538  0.00  0.00     0.017 A 
ATOM      5  C4  UNL d   1       2.241   0.527  -1.369  0.00  0.00     0.017 A 
ATOM      6  C5  UNL d   1       0.857   0.546  -1.169  0.00  0.00     0.034 A 
ATOM      7 Cl   UNL d   1       2.855  -0.447  -2.658  0.00  0.00    -0.070 Cl
ATOM      8 Cl1  UNL d   1       4.792   1.313  -0.722  0.00  0.00    -0.070 Cl
ENDROOT
TORSDOF 0
ENDMDL
