MODEL 1
REMARK minimizedAffinity -0.919358492
REMARK minimizedRMSD -1
REMARK  0 active torsions:
REMARK  status: ('A' for Active; 'I' for Inactive)
ROOT
ATOM      1  C   UNL d   1      -0.988  -0.556   1.049  0.00  0.00     0.020 A 
ATOM      2  C1  UNL d   1      -2.147  -1.010   0.420  0.00  0.00     0.020 A 
ATOM      3  C2  UNL d   1      -3.391  -0.501   0.797  0.00  0.00     0.034 A 
ATOM      4  C3  UNL d   1      -3.481   0.465   1.805  0.00  0.00     0.017 A 
ATOM      5  C4  UNL d   1      -2.317   0.921   2.436  0.00  0.00     0.017 A 
ATOM      6  C5  UNL d   1      -1.074   0.407   2.055  0.00  0.00     0.034 A 
ATOM      7 Cl   UNL d   1      -2.347   2.111   3.689  0.00  0.00    -0.070 Cl
ATOM      8 Cl1  UNL d   1      -5.052   1.051   2.220  0.00  0.00    -0.070 Cl
ENDROOT
TORSDOF 0
ENDMDL
