MODEL 1
REMARK minimizedAffinity -1.7157197
REMARK minimizedRMSD -1
REMARK  0 active torsions:
REMARK  status: ('A' for Active; 'I' for Inactive)
ROOT
ATOM      1  C   UNL d   1       2.156   0.600  -1.600  0.00  0.00     0.020 A 
ATOM      2  C1  UNL d   1       1.380   1.570  -0.969  0.00  0.00     0.020 A 
ATOM      3  C2  UNL d   1       0.271   1.192  -0.209  0.00  0.00     0.034 A 
ATOM      4  C3  UNL d   1      -0.064  -0.161  -0.078  0.00  0.00     0.017 A 
ATOM      5  C4  UNL d   1       0.716  -1.135  -0.712  0.00  0.00     0.017 A 
ATOM      6  C5  UNL d   1       1.826  -0.750  -1.472  0.00  0.00     0.034 A 
ATOM      7 Cl   UNL d   1       0.366  -2.823  -0.597  0.00  0.00    -0.070 Cl
ATOM      8 Cl1  UNL d   1      -1.448  -0.557   0.878  0.00  0.00    -0.070 Cl
ENDROOT
TORSDOF 0
ENDMDL
