MODEL 1
REMARK minimizedAffinity -1.00936902
REMARK minimizedRMSD -1
REMARK  0 active torsions:
REMARK  status: ('A' for Active; 'I' for Inactive)
ROOT
ATOM      1  C   UNL d   1       1.007   0.756  -0.600  0.00  0.00     0.020 A 
ATOM      2  C1  UNL d   1       0.167   1.843  -0.361  0.00  0.00     0.020 A 
ATOM      3  C2  UNL d   1      -0.883   1.726   0.553  0.00  0.00     0.034 A 
ATOM      4  C3  UNL d   1      -1.096   0.520   1.230  0.00  0.00     0.017 A 
ATOM      5  C4  UNL d   1      -0.252  -0.571   0.989  0.00  0.00     0.017 A 
ATOM      6  C5  UNL d   1       0.797  -0.448   0.073  0.00  0.00     0.034 A 
ATOM      7 Cl   UNL d   1      -0.452  -2.091   1.786  0.00  0.00    -0.070 Cl
ATOM      8 Cl1  UNL d   1      -2.412   0.447   2.347  0.00  0.00    -0.070 Cl
ENDROOT
TORSDOF 0
ENDMDL
