MODEL 1
REMARK minimizedAffinity -5.60286522
REMARK minimizedRMSD -1
REMARK  0 active torsions:
REMARK  status: ('A' for Active; 'I' for Inactive)
ROOT
ATOM      1  C   UNL d   1       1.822   0.731  -2.535  0.00  0.00     0.020 A 
ATOM      2  C1  UNL d   1       1.981  -0.598  -2.924  0.00  0.00     0.020 A 
ATOM      3  C2  UNL d   1       1.570  -1.629  -2.077  0.00  0.00     0.034 A 
ATOM      4  C3  UNL d   1       0.997  -1.332  -0.835  0.00  0.00     0.017 A 
ATOM      5  C4  UNL d   1       0.837   0.003  -0.444  0.00  0.00     0.017 A 
ATOM      6  C5  UNL d   1       1.251   1.031  -1.297  0.00  0.00     0.034 A 
ATOM      7 Cl   UNL d   1       0.138   0.447   1.073  0.00  0.00    -0.070 Cl
ATOM      8 Cl1  UNL d   1       0.511  -2.656   0.163  0.00  0.00    -0.070 Cl
ENDROOT
TORSDOF 0
ENDMDL
