MODEL 1
REMARK minimizedAffinity -2.08702874
REMARK minimizedRMSD -1
REMARK  0 active torsions:
REMARK  status: ('A' for Active; 'I' for Inactive)
ROOT
ATOM      1  C   UNL d   1       0.416   2.305  -0.320  0.00  0.00     0.020 A 
ATOM      2  C1  UNL d   1       1.179   1.941  -1.428  0.00  0.00     0.020 A 
ATOM      3  C2  UNL d   1       1.493   0.598  -1.649  0.00  0.00     0.034 A 
ATOM      4  C3  UNL d   1       1.044  -0.385  -0.761  0.00  0.00     0.017 A 
ATOM      5  C4  UNL d   1       0.277  -0.019   0.351  0.00  0.00     0.017 A 
ATOM      6  C5  UNL d   1      -0.034   1.327   0.568  0.00  0.00     0.034 A 
ATOM      7 Cl   UNL d   1      -0.314  -1.176   1.491  0.00  0.00    -0.070 Cl
ATOM      8 Cl1  UNL d   1       1.469  -2.026  -1.096  0.00  0.00    -0.070 Cl
ENDROOT
TORSDOF 0
ENDMDL
