MODEL 1
REMARK minimizedAffinity -1.9888649
REMARK minimizedRMSD -1
REMARK  0 active torsions:
REMARK  status: ('A' for Active; 'I' for Inactive)
ROOT
ATOM      1  C   UNL d   1       0.535   1.218  -0.349  0.00  0.00     0.020 A 
ATOM      2  C1  UNL d   1       1.616   1.484  -1.187  0.00  0.00     0.020 A 
ATOM      3  C2  UNL d   1       2.400   0.434  -1.671  0.00  0.00     0.034 A 
ATOM      4  C3  UNL d   1       2.102  -0.887  -1.317  0.00  0.00     0.017 A 
ATOM      5  C4  UNL d   1       1.016  -1.153  -0.476  0.00  0.00     0.017 A 
ATOM      6  C5  UNL d   1       0.235  -0.098   0.006  0.00  0.00     0.034 A 
ATOM      7 Cl   UNL d   1       0.587  -2.757   0.004  0.00  0.00    -0.070 Cl
ATOM      8 Cl1  UNL d   1       3.113  -2.136  -1.953  0.00  0.00    -0.070 Cl
ENDROOT
TORSDOF 0
ENDMDL
