MODEL 1
REMARK minimizedAffinity -1.11861813
REMARK minimizedRMSD -1
REMARK  0 active torsions:
REMARK  status: ('A' for Active; 'I' for Inactive)
ROOT
ATOM      1  C   UNL d   1       1.088   1.362  -1.559  0.00  0.00     0.020 A 
ATOM      2  C1  UNL d   1       1.647   0.175  -2.030  0.00  0.00     0.020 A 
ATOM      3  C2  UNL d   1       1.391  -1.028  -1.368  0.00  0.00     0.034 A 
ATOM      4  C3  UNL d   1       0.575  -1.046  -0.231  0.00  0.00     0.017 A 
ATOM      5  C4  UNL d   1       0.015   0.146   0.241  0.00  0.00     0.017 A 
ATOM      6  C5  UNL d   1       0.274   1.348  -0.425  0.00  0.00     0.034 A 
ATOM      7 Cl   UNL d   1      -1.002   0.203   1.638  0.00  0.00    -0.070 Cl
ATOM      8 Cl1  UNL d   1       0.302  -2.569   0.538  0.00  0.00    -0.070 Cl
ENDROOT
TORSDOF 0
ENDMDL
