MODEL 1
REMARK minimizedAffinity -2.85893106
REMARK minimizedRMSD -1
REMARK  0 active torsions:
REMARK  status: ('A' for Active; 'I' for Inactive)
ROOT
ATOM      1  C   UNL d   1      -4.016   1.513  -5.847  0.00  0.00     0.020 A 
ATOM      2  C1  UNL d   1      -5.402   1.631  -5.943  0.00  0.00     0.020 A 
ATOM      3  C2  UNL d   1      -5.994   2.895  -5.988  0.00  0.00     0.034 A 
ATOM      4  C3  UNL d   1      -5.200   4.046  -5.936  0.00  0.00     0.017 A 
ATOM      5  C4  UNL d   1      -3.809   3.927  -5.840  0.00  0.00     0.017 A 
ATOM      6  C5  UNL d   1      -3.221   2.659  -5.795  0.00  0.00     0.034 A 
ATOM      7 Cl   UNL d   1      -2.764   5.302  -5.771  0.00  0.00    -0.070 Cl
ATOM      8 Cl1  UNL d   1      -6.000   5.577  -5.996  0.00  0.00    -0.070 Cl
ENDROOT
TORSDOF 0
ENDMDL
