MODEL 1
REMARK minimizedAffinity -4.16005182
REMARK minimizedRMSD -1
REMARK  0 active torsions:
REMARK  status: ('A' for Active; 'I' for Inactive)
ROOT
ATOM      1  C   UNL d   1       0.454  -0.290  -2.377  0.00  0.00     0.020 A 
ATOM      2  C1  UNL d   1       1.545   0.573  -2.466  0.00  0.00     0.020 A 
ATOM      3  C2  UNL d   1       1.968   1.283  -1.340  0.00  0.00     0.034 A 
ATOM      4  C3  UNL d   1       1.299   1.131  -0.120  0.00  0.00     0.017 A 
ATOM      5  C4  UNL d   1       0.203   0.265  -0.032  0.00  0.00     0.017 A 
ATOM      6  C5  UNL d   1      -0.216  -0.443  -1.162  0.00  0.00     0.034 A 
ATOM      7 Cl   UNL d   1      -0.673   0.025   1.439  0.00  0.00    -0.070 Cl
ATOM      8 Cl1  UNL d   1       1.876   2.040   1.232  0.00  0.00    -0.070 Cl
ENDROOT
TORSDOF 0
ENDMDL
