MODEL 1
REMARK minimizedAffinity 1.51388454
REMARK minimizedRMSD -1
REMARK  0 active torsions:
REMARK  status: ('A' for Active; 'I' for Inactive)
ROOT
ATOM      1  C   UNL d   1      -4.077   5.965  -5.998  0.00  0.00     0.020 A 
ATOM      2  C1  UNL d   1      -5.460   5.786  -6.000  0.00  0.00     0.020 A 
ATOM      3  C2  UNL d   1      -6.000   4.522  -5.754  0.00  0.00     0.034 A 
ATOM      4  C3  UNL d   1      -5.157   3.432  -5.505  0.00  0.00     0.017 A 
ATOM      5  C4  UNL d   1      -3.769   3.614  -5.503  0.00  0.00     0.017 A 
ATOM      6  C5  UNL d   1      -3.234   4.881  -5.750  0.00  0.00     0.034 A 
ATOM      7 Cl   UNL d   1      -2.666   2.318  -5.203  0.00  0.00    -0.070 Cl
ATOM      8 Cl1  UNL d   1      -5.894   1.898  -5.208  0.00  0.00    -0.070 Cl
ENDROOT
TORSDOF 0
ENDMDL
