MODEL 1
REMARK minimizedAffinity -2.50050378
REMARK minimizedRMSD -1
REMARK  0 active torsions:
REMARK  status: ('A' for Active; 'I' for Inactive)
ROOT
ATOM      1  C   UNL d   1      -0.392   1.002   1.057  0.00  0.00     0.020 A 
ATOM      2  C1  UNL d   1      -0.775  -0.280   1.448  0.00  0.00     0.020 A 
ATOM      3  C2  UNL d   1      -0.227  -1.397   0.814  0.00  0.00     0.034 A 
ATOM      4  C3  UNL d   1       0.707  -1.233  -0.215  0.00  0.00     0.017 A 
ATOM      5  C4  UNL d   1       1.091   0.054  -0.607  0.00  0.00     0.017 A 
ATOM      6  C5  UNL d   1       0.539   1.169   0.032  0.00  0.00     0.034 A 
ATOM      7 Cl   UNL d   1       2.239   0.336  -1.869  0.00  0.00    -0.070 Cl
ATOM      8 Cl1  UNL d   1       1.345  -2.658  -0.956  0.00  0.00    -0.070 Cl
ENDROOT
TORSDOF 0
ENDMDL
