MODEL 1
REMARK minimizedAffinity -2.2579813
REMARK minimizedRMSD -1
REMARK  0 active torsions:
REMARK  status: ('A' for Active; 'I' for Inactive)
ROOT
ATOM      1  C   UNL d   1      -3.882   0.464   1.710  0.00  0.00     0.020 A 
ATOM      2  C1  UNL d   1      -3.558   1.287   0.632  0.00  0.00     0.020 A 
ATOM      3  C2  UNL d   1      -2.279   1.233   0.073  0.00  0.00     0.034 A 
ATOM      4  C3  UNL d   1      -1.320   0.355   0.593  0.00  0.00     0.017 A 
ATOM      5  C4  UNL d   1      -1.647  -0.470   1.674  0.00  0.00     0.017 A 
ATOM      6  C5  UNL d   1      -2.929  -0.412   2.230  0.00  0.00     0.034 A 
ATOM      7 Cl   UNL d   1      -0.518  -1.579   2.369  0.00  0.00    -0.070 Cl
ATOM      8 Cl1  UNL d   1       0.241   0.342  -0.148  0.00  0.00    -0.070 Cl
ENDROOT
TORSDOF 0
ENDMDL
