MODEL 1
REMARK minimizedAffinity -2.18333507
REMARK minimizedRMSD -1
REMARK  0 active torsions:
REMARK  status: ('A' for Active; 'I' for Inactive)
ROOT
ATOM      1  C   UNL d   1      -0.937  -0.316   1.492  0.00  0.00     0.020 A 
ATOM      2  C1  UNL d   1      -0.489   0.929   1.052  0.00  0.00     0.020 A 
ATOM      3  C2  UNL d   1       0.296   1.021  -0.099  0.00  0.00     0.034 A 
ATOM      4  C3  UNL d   1       0.636  -0.133  -0.815  0.00  0.00     0.017 A 
ATOM      5  C4  UNL d   1       0.185  -1.382  -0.372  0.00  0.00     0.017 A 
ATOM      6  C5  UNL d   1      -0.601  -1.469   0.781  0.00  0.00     0.034 A 
ATOM      7 Cl   UNL d   1       0.563  -2.850  -1.202  0.00  0.00    -0.070 Cl
ATOM      8 Cl1  UNL d   1       1.609   0.056  -2.230  0.00  0.00    -0.070 Cl
ENDROOT
TORSDOF 0
ENDMDL
