MODEL 1
REMARK minimizedAffinity -3.56339478
REMARK minimizedRMSD -1
REMARK  1 active torsions:
REMARK  status: ('A' for Active; 'I' for Inactive)
REMARK    1  A    between atoms: N_2  and  C1_3 
ROOT
ATOM      1  C1  UNL d   1      -1.424   0.897   0.891  0.00  0.00     0.143 A 
ATOM      2  C2  UNL d   1      -1.213   2.259   0.649  0.00  0.00    -0.057 A 
ATOM      3  C3  UNL d   1      -0.031   2.716   0.054  0.00  0.00     0.033 A 
ATOM      4  C4  UNL d   1       0.977   1.819  -0.284  0.00  0.00    -0.042 A 
ATOM      5  C5  UNL d   1       0.800   0.464  -0.029  0.00  0.00     0.033 A 
ATOM      6  C6  UNL d   1      -0.386   0.013   0.559  0.00  0.00    -0.057 A 
ENDROOT
BRANCH   1   7
ATOM      7  N   UNL d   1      -2.535   0.391   1.569  0.00  0.00    -0.732 N 
ATOM      8  C   UNL d   1      -2.385  -0.671   2.541  0.00  0.00     0.284 C 
ATOM      9  H3  UNL d   1      -3.186   1.121   1.848  0.00  0.00     0.395 HD
ENDBRANCH   1   7
TORSDOF 1
ENDMDL
