MODEL 1
REMARK minimizedAffinity -1.10652065
REMARK minimizedRMSD -1
REMARK  1 active torsions:
REMARK  status: ('A' for Active; 'I' for Inactive)
REMARK    1  A    between atoms: N_2  and  C1_3 
ROOT
ATOM      1  C1  UNL d   1       0.453  -0.813  -0.038  0.00  0.00     0.143 A 
ATOM      2  C2  UNL d   1       0.150   0.551   0.028  0.00  0.00    -0.057 A 
ATOM      3  C3  UNL d   1       1.161   1.518   0.088  0.00  0.00     0.033 A 
ATOM      4  C4  UNL d   1       2.498   1.134   0.114  0.00  0.00    -0.042 A 
ATOM      5  C5  UNL d   1       2.822  -0.218   0.075  0.00  0.00     0.033 A 
ATOM      6  C6  UNL d   1       1.808  -1.178   0.008  0.00  0.00    -0.057 A 
ENDROOT
BRANCH   1   7
ATOM      7  N   UNL d   1      -0.508  -1.826  -0.000  0.00  0.00    -0.732 N 
ATOM      8  C   UNL d   1      -1.068  -2.265   1.260  0.00  0.00     0.284 C 
ATOM      9  H3  UNL d   1      -1.190  -1.742  -0.751  0.00  0.00     0.395 HD
ENDBRANCH   1   7
TORSDOF 1
ENDMDL
