MODEL 1
REMARK minimizedAffinity -4.99653959
REMARK minimizedRMSD -1
REMARK  1 active torsions:
REMARK  status: ('A' for Active; 'I' for Inactive)
REMARK    1  A    between atoms: N_2  and  C1_3 
ROOT
ATOM      1  C1  UNL d   1      -0.601   0.084   0.725  0.00  0.00     0.143 A 
ATOM      2  C2  UNL d   1      -1.526   1.126   0.597  0.00  0.00    -0.057 A 
ATOM      3  C3  UNL d   1      -1.229   2.274  -0.147  0.00  0.00     0.033 A 
ATOM      4  C4  UNL d   1       0.014   2.413  -0.755  0.00  0.00    -0.042 A 
ATOM      5  C5  UNL d   1       0.958   1.401  -0.620  0.00  0.00     0.033 A 
ATOM      6  C6  UNL d   1       0.653   0.254   0.118  0.00  0.00    -0.057 A 
ENDROOT
BRANCH   1   7
ATOM      7  N   UNL d   1      -0.801  -1.039   1.532  0.00  0.00    -0.732 N 
ATOM      8  C   UNL d   1      -1.577  -0.943   2.750  0.00  0.00     0.284 C 
ATOM      9  H3  UNL d   1      -0.981  -1.880   0.989  0.00  0.00     0.395 HD
ENDBRANCH   1   7
TORSDOF 1
ENDMDL
