MODEL 1
REMARK minimizedAffinity -3.75177336
REMARK minimizedRMSD -1
REMARK  1 active torsions:
REMARK  status: ('A' for Active; 'I' for Inactive)
REMARK    1  A    between atoms: N_2  and  C1_3 
ROOT
ATOM      1  C1  UNL d   1      -0.149   1.665   0.369  0.00  0.00     0.143 A 
ATOM      2  C2  UNL d   1       0.022   2.551   1.438  0.00  0.00    -0.057 A 
ATOM      3  C3  UNL d   1       0.512   3.847   1.235  0.00  0.00     0.033 A 
ATOM      4  C4  UNL d   1       0.867   4.271  -0.041  0.00  0.00    -0.042 A 
ATOM      5  C5  UNL d   1       0.729   3.399  -1.115  0.00  0.00     0.033 A 
ATOM      6  C6  UNL d   1       0.233   2.108  -0.907  0.00  0.00    -0.057 A 
ENDROOT
BRANCH   1   7
ATOM      7  N   UNL d   1      -0.539   0.331   0.519  0.00  0.00    -0.732 N 
ATOM      8  C   UNL d   1       0.450  -0.724   0.567  0.00  0.00     0.284 C 
ATOM      9  H3  UNL d   1      -1.298   0.221   1.187  0.00  0.00     0.395 HD
ENDBRANCH   1   7
TORSDOF 1
ENDMDL
