MODEL 1
REMARK minimizedAffinity 7.90862942
REMARK minimizedRMSD -1
REMARK  1 active torsions:
REMARK  status: ('A' for Active; 'I' for Inactive)
REMARK    1  A    between atoms: N_2  and  C1_3 
ROOT
ATOM      1  C1  UNL d   1       3.706   2.243  -3.273  0.00  0.00     0.143 A 
ATOM      2  C2  UNL d   1       4.095   3.329  -2.481  0.00  0.00    -0.057 A 
ATOM      3  C3  UNL d   1       5.220   4.098  -2.806  0.00  0.00     0.033 A 
ATOM      4  C4  UNL d   1       5.994   3.775  -3.916  0.00  0.00    -0.042 A 
ATOM      5  C5  UNL d   1       5.640   2.685  -4.703  0.00  0.00     0.033 A 
ATOM      6  C6  UNL d   1       4.512   1.925  -4.377  0.00  0.00    -0.057 A 
ENDROOT
BRANCH   1   7
ATOM      7  N   UNL d   1       2.656   1.381  -2.948  0.00  0.00    -0.732 N 
ATOM      8  C   UNL d   1       1.730   1.714  -1.887  0.00  0.00     0.284 C 
ATOM      9  H3  UNL d   1       2.217   0.976  -3.772  0.00  0.00     0.395 HD
ENDBRANCH   1   7
TORSDOF 1
ENDMDL
