MODEL 1
REMARK minimizedAffinity 1.22126067
REMARK minimizedRMSD -1
REMARK  1 active torsions:
REMARK  status: ('A' for Active; 'I' for Inactive)
REMARK    1  A    between atoms: N_2  and  C1_3 
ROOT
ATOM      1  C1  UNL d   1       2.733   1.998  -5.318  0.00  0.00     0.143 A 
ATOM      2  C2  UNL d   1       2.990   1.433  -4.064  0.00  0.00    -0.057 A 
ATOM      3  C3  UNL d   1       4.265   1.493  -3.488  0.00  0.00     0.033 A 
ATOM      4  C4  UNL d   1       5.316   2.096  -4.171  0.00  0.00    -0.042 A 
ATOM      5  C5  UNL d   1       5.090   2.642  -5.430  0.00  0.00     0.033 A 
ATOM      6  C6  UNL d   1       3.813   2.585  -5.997  0.00  0.00    -0.057 A 
ENDROOT
BRANCH   1   7
ATOM      7  N   UNL d   1       1.512   1.884  -5.987  0.00  0.00    -0.732 N 
ATOM      8  C   UNL d   1       0.574   2.986  -6.000  0.00  0.00     0.284 C 
ATOM      9  H3  UNL d   1       1.601   1.404  -6.880  0.00  0.00     0.395 HD
ENDBRANCH   1   7
TORSDOF 1
ENDMDL
