MODEL 1
REMARK minimizedAffinity -4.0388236
REMARK minimizedRMSD -1
REMARK  0 active torsions:
REMARK  status: ('A' for Active; 'I' for Inactive)
ROOT
ATOM      1  C   UNL d   1       2.213  -2.904  -1.435  0.00  0.00     0.077 C 
ATOM      2  C1  UNL d   1       1.721  -1.510  -1.185  0.00  0.00    -0.074 A 
ATOM      3  C2  UNL d   1       2.351  -0.409  -1.773  0.00  0.00    -0.005 A 
ATOM      4  C3  UNL d   1       1.876   0.882  -1.540  0.00  0.00     0.006 A 
ATOM      5  C4  UNL d   1       0.767   1.084  -0.717  0.00  0.00    -0.005 A 
ATOM      6  C5  UNL d   1       0.123  -0.005  -0.121  0.00  0.00    -0.074 A 
ATOM      7  C6  UNL d   1      -1.076   0.193   0.758  0.00  0.00     0.077 C 
ATOM      8  C7  UNL d   1       0.603  -1.299  -0.366  0.00  0.00    -0.001 A 
ENDROOT
TORSDOF 0
ENDMDL
