MODEL 1
REMARK minimizedAffinity -3.3644042
REMARK minimizedRMSD -1
REMARK  0 active torsions:
REMARK  status: ('A' for Active; 'I' for Inactive)
ROOT
ATOM      1  C   UNL d   1       2.303  -2.618  -1.416  0.00  0.00     0.077 C 
ATOM      2  C1  UNL d   1       1.773  -1.308  -0.913  0.00  0.00    -0.074 A 
ATOM      3  C2  UNL d   1       2.294  -0.096  -1.377  0.00  0.00    -0.005 A 
ATOM      4  C3  UNL d   1       1.784   1.114  -0.907  0.00  0.00     0.006 A 
ATOM      5  C4  UNL d   1       0.750   1.125   0.030  0.00  0.00    -0.005 A 
ATOM      6  C5  UNL d   1       0.216  -0.077   0.504  0.00  0.00    -0.074 A 
ATOM      7  C6  UNL d   1      -0.902  -0.084   1.504  0.00  0.00     0.077 C 
ATOM      8  C7  UNL d   1       0.729  -1.289   0.022  0.00  0.00    -0.001 A 
ENDROOT
TORSDOF 0
ENDMDL
