MODEL 1
REMARK minimizedAffinity -1.94104528
REMARK minimizedRMSD -1
REMARK  0 active torsions:
REMARK  status: ('A' for Active; 'I' for Inactive)
ROOT
ATOM      1  C   UNL d   1       0.622   1.223   0.736  0.00  0.00     0.077 C 
ATOM      2  C1  UNL d   1      -0.704   0.555   0.948  0.00  0.00    -0.074 A 
ATOM      3  C2  UNL d   1      -0.859  -0.819   0.735  0.00  0.00    -0.005 A 
ATOM      4  C3  UNL d   1      -2.096  -1.428   0.947  0.00  0.00     0.006 A 
ATOM      5  C4  UNL d   1      -3.188  -0.671   1.372  0.00  0.00    -0.005 A 
ATOM      6  C5  UNL d   1      -3.052   0.704   1.591  0.00  0.00    -0.074 A 
ATOM      7  C6  UNL d   1      -4.213   1.530   2.057  0.00  0.00     0.077 C 
ATOM      8  C7  UNL d   1      -1.804   1.307   1.383  0.00  0.00    -0.001 A 
ENDROOT
TORSDOF 0
ENDMDL
