MODEL 1
REMARK minimizedAffinity -1.95372617
REMARK minimizedRMSD -1
REMARK  0 active torsions:
REMARK  status: ('A' for Active; 'I' for Inactive)
ROOT
ATOM      1  C   UNL d   1       0.845  -3.060  -0.912  0.00  0.00     0.077 C 
ATOM      2  C1  UNL d   1       0.686  -1.582  -0.712  0.00  0.00    -0.074 A 
ATOM      3  C2  UNL d   1       1.579  -0.678  -1.295  0.00  0.00    -0.005 A 
ATOM      4  C3  UNL d   1       1.413   0.695  -1.108  0.00  0.00     0.006 A 
ATOM      5  C4  UNL d   1       0.353   1.175  -0.338  0.00  0.00    -0.005 A 
ATOM      6  C5  UNL d   1      -0.550   0.286   0.252  0.00  0.00    -0.074 A 
ATOM      7  C6  UNL d   1      -1.700   0.786   1.075  0.00  0.00     0.077 C 
ATOM      8  C7  UNL d   1      -0.381  -1.091   0.054  0.00  0.00    -0.001 A 
ENDROOT
TORSDOF 0
ENDMDL
