MODEL 1
REMARK minimizedAffinity -3.12539124
REMARK minimizedRMSD -1
REMARK  0 active torsions:
REMARK  status: ('A' for Active; 'I' for Inactive)
ROOT
ATOM      1  C   UNL d   1       0.773   1.335  -0.697  0.00  0.00     0.077 C 
ATOM      2  C1  UNL d   1      -0.195   0.672   0.237  0.00  0.00    -0.074 A 
ATOM      3  C2  UNL d   1       0.156  -0.491   0.929  0.00  0.00    -0.005 A 
ATOM      4  C3  UNL d   1      -0.751  -1.092   1.802  0.00  0.00     0.006 A 
ATOM      5  C4  UNL d   1      -2.017  -0.536   1.991  0.00  0.00    -0.005 A 
ATOM      6  C5  UNL d   1      -2.386   0.628   1.309  0.00  0.00    -0.074 A 
ATOM      7  C6  UNL d   1      -3.739   1.244   1.508  0.00  0.00     0.077 C 
ATOM      8  C7  UNL d   1      -1.466   1.229   0.439  0.00  0.00    -0.001 A 
ENDROOT
TORSDOF 0
ENDMDL
