MODEL 1
REMARK minimizedAffinity -5.06674099
REMARK minimizedRMSD -1
REMARK  0 active torsions:
REMARK  status: ('A' for Active; 'I' for Inactive)
ROOT
ATOM      1  C   UNL d   1       0.432  -2.507   0.199  0.00  0.00     0.077 C 
ATOM      2  C1  UNL d   1       0.930  -1.421  -0.707  0.00  0.00    -0.074 A 
ATOM      3  C2  UNL d   1       1.449  -1.722  -1.971  0.00  0.00    -0.005 A 
ATOM      4  C3  UNL d   1       1.901  -0.701  -2.807  0.00  0.00     0.006 A 
ATOM      5  C4  UNL d   1       1.838   0.629  -2.389  0.00  0.00    -0.005 A 
ATOM      6  C5  UNL d   1       1.321   0.949  -1.129  0.00  0.00    -0.074 A 
ATOM      7  C6  UNL d   1       1.238   2.374  -0.669  0.00  0.00     0.077 C 
ATOM      8  C7  UNL d   1       0.863  -0.082  -0.298  0.00  0.00    -0.001 A 
ENDROOT
TORSDOF 0
ENDMDL
