MODEL 1
REMARK minimizedAffinity -3.5309732
REMARK minimizedRMSD -1
REMARK  0 active torsions:
REMARK  status: ('A' for Active; 'I' for Inactive)
ROOT
ATOM      1  C   UNL d   1      -0.797  -0.005   1.035  0.00  0.00     0.077 C 
ATOM      2  C1  UNL d   1       0.330   0.069   0.048  0.00  0.00    -0.074 A 
ATOM      3  C2  UNL d   1       0.730   1.294  -0.496  0.00  0.00    -0.005 A 
ATOM      4  C3  UNL d   1       1.786   1.348  -1.406  0.00  0.00     0.006 A 
ATOM      5  C4  UNL d   1       2.452   0.181  -1.780  0.00  0.00    -0.005 A 
ATOM      6  C5  UNL d   1       2.066  -1.053  -1.246  0.00  0.00    -0.074 A 
ATOM      7  C6  UNL d   1       2.778  -2.317  -1.630  0.00  0.00     0.077 C 
ATOM      8  C7  UNL d   1       1.009  -1.099  -0.327  0.00  0.00    -0.001 A 
ENDROOT
TORSDOF 0
ENDMDL
