MODEL 1
REMARK minimizedAffinity -2.86692023
REMARK minimizedRMSD -1
REMARK  0 active torsions:
REMARK  status: ('A' for Active; 'I' for Inactive)
ROOT
ATOM      1  C   UNL d   1      -3.732   0.178  -5.516  0.00  0.00     0.077 C 
ATOM      2  C1  UNL d   1      -4.207   1.590  -5.691  0.00  0.00    -0.074 A 
ATOM      3  C2  UNL d   1      -5.571   1.881  -5.794  0.00  0.00    -0.005 A 
ATOM      4  C3  UNL d   1      -5.999   3.200  -5.946  0.00  0.00     0.006 A 
ATOM      5  C4  UNL d   1      -5.069   4.239  -5.997  0.00  0.00    -0.005 A 
ATOM      6  C5  UNL d   1      -3.701   3.967  -5.895  0.00  0.00    -0.074 A 
ATOM      7  C6  UNL d   1      -2.689   5.073  -5.938  0.00  0.00     0.077 C 
ATOM      8  C7  UNL d   1      -3.280   2.640  -5.735  0.00  0.00    -0.001 A 
ENDROOT
TORSDOF 0
ENDMDL
