MODEL 1
REMARK minimizedAffinity 1.20271456
REMARK minimizedRMSD -1
REMARK  0 active torsions:
REMARK  status: ('A' for Active; 'I' for Inactive)
ROOT
ATOM      1  C   UNL d   1      -3.054   0.341   1.972  0.00  0.00     0.077 C 
ATOM      2  C1  UNL d   1      -1.702   0.374   1.325  0.00  0.00    -0.074 A 
ATOM      3  C2  UNL d   1      -1.104  -0.797   0.847  0.00  0.00    -0.005 A 
ATOM      4  C3  UNL d   1       0.150  -0.749   0.240  0.00  0.00     0.006 A 
ATOM      5  C4  UNL d   1       0.819   0.469   0.104  0.00  0.00    -0.005 A 
ATOM      6  C5  UNL d   1       0.237   1.650   0.574  0.00  0.00    -0.074 A 
ATOM      7  C6  UNL d   1       0.938   2.968   0.427  0.00  0.00     0.077 C 
ATOM      8  C7  UNL d   1      -1.027   1.594   1.178  0.00  0.00    -0.001 A 
ENDROOT
TORSDOF 0
ENDMDL
