MODEL 1
REMARK minimizedAffinity -3.04867911
REMARK minimizedRMSD -1
REMARK  0 active torsions:
REMARK  status: ('A' for Active; 'I' for Inactive)
ROOT
ATOM      1  C   UNL d   1      -1.522   0.510   2.496  0.00  0.00     0.077 C 
ATOM      2  C1  UNL d   1      -0.669  -0.066   1.405  0.00  0.00    -0.074 A 
ATOM      3  C2  UNL d   1      -0.412  -1.440   1.344  0.00  0.00    -0.005 A 
ATOM      4  C3  UNL d   1       0.376  -1.962   0.318  0.00  0.00     0.006 A 
ATOM      5  C4  UNL d   1       0.913  -1.119  -0.655  0.00  0.00    -0.005 A 
ATOM      6  C5  UNL d   1       0.665   0.257  -0.611  0.00  0.00    -0.074 A 
ATOM      7  C6  UNL d   1       1.226   1.176  -1.654  0.00  0.00     0.077 C 
ATOM      8  C7  UNL d   1      -0.133   0.774   0.419  0.00  0.00    -0.001 A 
ENDROOT
TORSDOF 0
ENDMDL
