MODEL 1
REMARK minimizedAffinity -3.0328722
REMARK minimizedRMSD -1
REMARK  0 active torsions:
REMARK  status: ('A' for Active; 'I' for Inactive)
ROOT
ATOM      1  C   UNL d   1       0.551   0.629  -0.595  0.00  0.00     0.077 C 
ATOM      2  C1  UNL d   1      -0.586   0.360   0.345  0.00  0.00    -0.074 A 
ATOM      3  C2  UNL d   1      -0.386  -0.357   1.529  0.00  0.00    -0.005 A 
ATOM      4  C3  UNL d   1      -1.451  -0.592   2.398  0.00  0.00     0.006 A 
ATOM      5  C4  UNL d   1      -2.725  -0.112   2.093  0.00  0.00    -0.005 A 
ATOM      6  C5  UNL d   1      -2.945   0.608   0.914  0.00  0.00    -0.074 A 
ATOM      7  C6  UNL d   1      -4.306   1.139   0.576  0.00  0.00     0.077 C 
ATOM      8  C7  UNL d   1      -1.867   0.845   0.049  0.00  0.00    -0.001 A 
ENDROOT
TORSDOF 0
ENDMDL
