MODEL 1
REMARK minimizedAffinity -1.84483469
REMARK minimizedRMSD -1
REMARK  0 active torsions:
REMARK  status: ('A' for Active; 'I' for Inactive)
ROOT
ATOM      1  C   UNL d   1       0.455  -2.950  -0.969  0.00  0.00     0.077 C 
ATOM      2  C1  UNL d   1       0.209  -1.557  -0.471  0.00  0.00    -0.074 A 
ATOM      3  C2  UNL d   1       0.809  -0.456  -1.091  0.00  0.00    -0.005 A 
ATOM      4  C3  UNL d   1       0.563   0.835  -0.623  0.00  0.00     0.006 A 
ATOM      5  C4  UNL d   1      -0.284   1.037   0.467  0.00  0.00    -0.005 A 
ATOM      6  C5  UNL d   1      -0.893  -0.051   1.099  0.00  0.00    -0.074 A 
ATOM      7  C6  UNL d   1      -1.814   0.150   2.266  0.00  0.00     0.077 C 
ATOM      8  C7  UNL d   1      -0.647  -1.345   0.619  0.00  0.00    -0.001 A 
ENDROOT
TORSDOF 0
ENDMDL
