MODEL 1
REMARK minimizedAffinity -2.90506148
REMARK minimizedRMSD -1
REMARK  0 active torsions:
REMARK  status: ('A' for Active; 'I' for Inactive)
ROOT
ATOM      1  C   UNL d   1       1.103   2.377   0.637  0.00  0.00     0.077 C 
ATOM      2  C1  UNL d   1       1.321   1.048  -0.023  0.00  0.00    -0.074 A 
ATOM      3  C2  UNL d   1       2.140   0.932  -1.150  0.00  0.00    -0.005 A 
ATOM      4  C3  UNL d   1       2.341  -0.312  -1.748  0.00  0.00     0.006 A 
ATOM      5  C4  UNL d   1       1.726  -1.451  -1.226  0.00  0.00    -0.005 A 
ATOM      6  C5  UNL d   1       0.903  -1.354  -0.099  0.00  0.00    -0.074 A 
ATOM      7  C6  UNL d   1       0.242  -2.568   0.481  0.00  0.00     0.077 C 
ATOM      8  C7  UNL d   1       0.712  -0.101   0.500  0.00  0.00    -0.001 A 
ENDROOT
TORSDOF 0
ENDMDL
