MODEL 1
REMARK minimizedAffinity -3.30436134
REMARK minimizedRMSD -1
REMARK  0 active torsions:
REMARK  status: ('A' for Active; 'I' for Inactive)
ROOT
ATOM      1  C   UNL d   1      -2.648   0.442   1.786  0.00  0.00     0.077 C 
ATOM      2  C1  UNL d   1      -1.289   0.332   1.162  0.00  0.00    -0.074 A 
ATOM      3  C2  UNL d   1      -0.507   1.469   0.937  0.00  0.00    -0.005 A 
ATOM      4  C3  UNL d   1       0.759   1.350   0.364  0.00  0.00     0.006 A 
ATOM      5  C4  UNL d   1       1.256   0.094   0.011  0.00  0.00    -0.005 A 
ATOM      6  C5  UNL d   1       0.488  -1.054   0.230  0.00  0.00    -0.074 A 
ATOM      7  C6  UNL d   1       1.011  -2.412  -0.134  0.00  0.00     0.077 C 
ATOM      8  C7  UNL d   1      -0.780  -0.927   0.812  0.00  0.00    -0.001 A 
ENDROOT
TORSDOF 0
ENDMDL
