MODEL 1
REMARK minimizedAffinity -3.92029095
REMARK minimizedRMSD -1
REMARK  1 active torsions:
REMARK  status: ('A' for Active; 'I' for Inactive)
REMARK    1  A    between atoms: C1_2  and  C2_3 
ROOT
ATOM      1  C2  UNL d   1       0.001  -1.423  -0.513  0.00  0.00    -0.077 A 
ATOM      2  C3  UNL d   1      -1.106  -1.450  -1.372  0.00  0.00     0.002 A 
ATOM      3  C4  UNL d   1      -1.666  -2.667  -1.766  0.00  0.00     0.002 A 
ATOM      4  C5  UNL d   1      -1.127  -3.865  -1.302  0.00  0.00    -0.004 A 
ATOM      5  C6  UNL d   1      -0.025  -3.849  -0.449  0.00  0.00     0.002 A 
ATOM      6  C7  UNL d   1       0.537  -2.634  -0.055  0.00  0.00     0.002 A 
ENDROOT
BRANCH   1   7
ATOM      7  C1  UNL d   1       0.575  -0.110  -0.048  0.00  0.00     0.055 C 
ATOM      8  C   UNL d   1       0.734  -0.080   1.465  0.00  0.00     0.019 C 
ENDBRANCH   1   7
TORSDOF 1
ENDMDL
