MODEL 1
REMARK minimizedAffinity 2.46923065
REMARK minimizedRMSD -1
REMARK  1 active torsions:
REMARK  status: ('A' for Active; 'I' for Inactive)
REMARK    1  A    between atoms: C1_2  and  C2_3 
ROOT
ATOM      1  C2  UNL d   1       0.560   2.063   2.497  0.00  0.00    -0.077 A 
ATOM      2  C3  UNL d   1       0.164   2.689   1.306  0.00  0.00     0.002 A 
ATOM      3  C4  UNL d   1       0.838   3.823   0.847  0.00  0.00     0.002 A 
ATOM      4  C5  UNL d   1       1.912   4.337   1.569  0.00  0.00    -0.004 A 
ATOM      5  C6  UNL d   1       2.312   3.723   2.755  0.00  0.00     0.002 A 
ATOM      6  C7  UNL d   1       1.639   2.591   3.217  0.00  0.00     0.002 A 
ENDROOT
BRANCH   1   7
ATOM      7  C1  UNL d   1      -0.134   0.812   2.968  0.00  0.00     0.055 C 
ATOM      8  C   UNL d   1       0.647  -0.435   2.578  0.00  0.00     0.019 C 
ENDBRANCH   1   7
TORSDOF 1
ENDMDL
