MODEL 1
REMARK minimizedAffinity 5.95787764
REMARK minimizedRMSD -1
REMARK  1 active torsions:
REMARK  status: ('A' for Active; 'I' for Inactive)
REMARK    1  A    between atoms: C1_2  and  C2_3 
ROOT
ATOM      1  C2  UNL d   1       0.753   2.153   2.886  0.00  0.00    -0.077 A 
ATOM      2  C3  UNL d   1       1.765   2.637   3.728  0.00  0.00     0.002 A 
ATOM      3  C4  UNL d   1       2.427   3.828   3.423  0.00  0.00     0.002 A 
ATOM      4  C5  UNL d   1       2.082   4.546   2.280  0.00  0.00    -0.004 A 
ATOM      5  C6  UNL d   1       1.079   4.072   1.436  0.00  0.00     0.002 A 
ATOM      6  C7  UNL d   1       0.417   2.881   1.738  0.00  0.00     0.002 A 
ENDROOT
BRANCH   1   7
ATOM      7  C1  UNL d   1       0.004   0.894   3.239  0.00  0.00     0.055 C 
ATOM      8  C   UNL d   1       0.867  -0.341   3.027  0.00  0.00     0.019 C 
ENDBRANCH   1   7
TORSDOF 1
ENDMDL
