MODEL 1
REMARK minimizedAffinity 4.10206747
REMARK minimizedRMSD -1
REMARK  1 active torsions:
REMARK  status: ('A' for Active; 'I' for Inactive)
REMARK    1  A    between atoms: C1_2  and  C2_3 
ROOT
ATOM      1  C2  UNL d   1       0.920  -4.860  -0.159  0.00  0.00    -0.077 A 
ATOM      2  C3  UNL d   1       1.348  -3.534  -0.008  0.00  0.00     0.002 A 
ATOM      3  C4  UNL d   1       0.563  -2.480  -0.482  0.00  0.00     0.002 A 
ATOM      4  C5  UNL d   1      -0.655  -2.742  -1.105  0.00  0.00    -0.004 A 
ATOM      5  C6  UNL d   1      -1.088  -4.058  -1.262  0.00  0.00     0.002 A 
ATOM      6  C7  UNL d   1      -0.305  -5.112  -0.790  0.00  0.00     0.002 A 
ENDROOT
BRANCH   1   7
ATOM      7  C1  UNL d   1       1.741  -5.995   0.394  0.00  0.00     0.055 C 
ATOM      8  C   UNL d   1       3.221  -5.643   0.427  0.00  0.00     0.019 C 
ENDBRANCH   1   7
TORSDOF 1
ENDMDL
