MODEL 1
REMARK minimizedAffinity -2.74924374
REMARK minimizedRMSD -1
REMARK  1 active torsions:
REMARK  status: ('A' for Active; 'I' for Inactive)
REMARK    1  A    between atoms: C1_2  and  C2_3 
ROOT
ATOM      1  C2  UNL d   1      -0.918   0.120  -0.570  0.00  0.00    -0.077 A 
ATOM      2  C3  UNL d   1      -1.598   1.242  -1.064  0.00  0.00     0.002 A 
ATOM      3  C4  UNL d   1      -2.755   1.086  -1.829  0.00  0.00     0.002 A 
ATOM      4  C5  UNL d   1      -3.244  -0.190  -2.104  0.00  0.00    -0.004 A 
ATOM      5  C6  UNL d   1      -2.574  -1.312  -1.619  0.00  0.00     0.002 A 
ATOM      6  C7  UNL d   1      -1.417  -1.158  -0.854  0.00  0.00     0.002 A 
ENDROOT
BRANCH   1   7
ATOM      7  C1  UNL d   1       0.303   0.287   0.297  0.00  0.00     0.055 C 
ATOM      8  C   UNL d   1      -0.068   0.330   1.772  0.00  0.00     0.019 C 
ENDBRANCH   1   7
TORSDOF 1
ENDMDL
