MODEL 1
REMARK minimizedAffinity 9.71520519
REMARK minimizedRMSD -1
REMARK  2 active torsions:
REMARK  status: ('A' for Active; 'I' for Inactive)
REMARK    1  A    between atoms: C2'_3  and  C1'_4 
REMARK    2  A    between atoms: C1'_4  and  C1_5 
ROOT
ATOM      1  C1  I4B d   1       2.115   1.490   1.184  0.00  0.00    -0.075 A 
ATOM      2  C2  I4B d   1       1.528   0.533   1.973  0.00  0.00     0.003 A 
ATOM      3  C3  I4B d   1       0.387  -0.169   1.512  0.00  0.00     0.002 A 
ATOM      4  C4  I4B d   1      -0.159   0.152   0.287  0.00  0.00    -0.004 A 
ATOM      5  C5  I4B d   1       0.451   1.107  -0.522  0.00  0.00     0.002 A 
ATOM      6  C6  I4B d   1       1.602   1.772  -0.076  0.00  0.00     0.003 A 
ENDROOT
BRANCH   1   7
ATOM      7  C1' I4B d   1       3.298   2.235   1.715  0.00  0.00     0.060 C 
BRANCH   7   8
ATOM      8  C2' I4B d   1       3.796   3.160   0.623  0.00  0.00    -0.013 C 
ATOM      9  C4' I4B d   1       3.222   4.544   0.777  0.00  0.00     0.013 C 
ATOM     10  C3' I4B d   1       5.294   3.185   0.684  0.00  0.00     0.013 C 
ENDBRANCH   7   8
ENDBRANCH   1   7
TORSDOF 2
ENDMDL
