MODEL 1
REMARK minimizedAffinity 8.65168858
REMARK minimizedRMSD -1
REMARK  2 active torsions:
REMARK  status: ('A' for Active; 'I' for Inactive)
REMARK    1  A    between atoms: C2'_3  and  C1'_4 
REMARK    2  A    between atoms: C1'_4  and  C1_5 
ROOT
ATOM      1  C1  I4B d   1      -2.470  -1.699  -1.378  0.00  0.00    -0.075 A 
ATOM      2  C2  I4B d   1      -1.840  -0.484  -1.486  0.00  0.00     0.003 A 
ATOM      3  C3  I4B d   1      -1.358  -0.040  -2.741  0.00  0.00     0.002 A 
ATOM      4  C4  I4B d   1      -1.482  -0.859  -3.845  0.00  0.00    -0.004 A 
ATOM      5  C5  I4B d   1      -2.141  -2.080  -3.738  0.00  0.00     0.002 A 
ATOM      6  C6  I4B d   1      -2.649  -2.498  -2.500  0.00  0.00     0.003 A 
ENDROOT
BRANCH   1   7
ATOM      7  C1' I4B d   1      -2.937  -2.151  -0.031  0.00  0.00     0.060 C 
BRANCH   7   8
ATOM      8  C2' I4B d   1      -1.714  -2.393   0.830  0.00  0.00    -0.013 C 
ATOM      9  C4' I4B d   1      -1.779  -1.598   2.107  0.00  0.00     0.013 C 
ATOM     10  C3' I4B d   1      -1.630  -3.864   1.111  0.00  0.00     0.013 C 
ENDBRANCH   7   8
ENDBRANCH   1   7
TORSDOF 2
ENDMDL
