MODEL 1
REMARK minimizedAffinity 10.2015762
REMARK minimizedRMSD -1
REMARK  2 active torsions:
REMARK  status: ('A' for Active; 'I' for Inactive)
REMARK    1  A    between atoms: C2'_3  and  C1'_4 
REMARK    2  A    between atoms: C1'_4  and  C1_5 
ROOT
ATOM      1  C1  I4B d   1      -1.362  -0.173  -1.293  0.00  0.00    -0.075 A 
ATOM      2  C2  I4B d   1      -1.334  -1.132  -0.312  0.00  0.00     0.003 A 
ATOM      3  C3  I4B d   1      -0.579  -0.923   0.868  0.00  0.00     0.002 A 
ATOM      4  C4  I4B d   1       0.168   0.229   1.001  0.00  0.00    -0.004 A 
ATOM      5  C5  I4B d   1       0.121   1.210   0.015  0.00  0.00     0.002 A 
ATOM      6  C6  I4B d   1      -0.658   1.014  -1.134  0.00  0.00     0.003 A 
ENDROOT
BRANCH   1   7
ATOM      7  C1' I4B d   1      -2.143  -0.441  -2.540  0.00  0.00     0.060 C 
BRANCH   7   8
ATOM      8  C2' I4B d   1      -2.957  -1.700  -2.321  0.00  0.00    -0.013 C 
ATOM      9  C4' I4B d   1      -4.430  -1.431  -2.478  0.00  0.00     0.013 C 
ATOM     10  C3' I4B d   1      -2.487  -2.732  -3.302  0.00  0.00     0.013 C 
ENDBRANCH   7   8
ENDBRANCH   1   7
TORSDOF 2
ENDMDL
