MODEL 1
REMARK minimizedAffinity 10.0755711
REMARK minimizedRMSD -1
REMARK  2 active torsions:
REMARK  status: ('A' for Active; 'I' for Inactive)
REMARK    1  A    between atoms: C2'_3  and  C1'_4 
REMARK    2  A    between atoms: C1'_4  and  C1_5 
ROOT
ATOM      1  C1  I4B d   1       0.294  -2.146  -3.969  0.00  0.00    -0.075 A 
ATOM      2  C2  I4B d   1      -0.259  -3.241  -4.586  0.00  0.00     0.003 A 
ATOM      3  C3  I4B d   1      -1.655  -3.467  -4.519  0.00  0.00     0.002 A 
ATOM      4  C4  I4B d   1      -2.449  -2.607  -3.789  0.00  0.00    -0.004 A 
ATOM      5  C5  I4B d   1      -1.890  -1.485  -3.183  0.00  0.00     0.002 A 
ATOM      6  C6  I4B d   1      -0.511  -1.246  -3.284  0.00  0.00     0.003 A 
ENDROOT
BRANCH   1   7
ATOM      7  C1' I4B d   1       1.777  -1.956  -4.032  0.00  0.00     0.060 C 
BRANCH   7   8
ATOM      8  C2' I4B d   1       2.124  -0.725  -3.219  0.00  0.00    -0.013 C 
ATOM      9  C4' I4B d   1       2.254  -1.056  -1.756  0.00  0.00     0.013 C 
ATOM     10  C3' I4B d   1       3.402  -0.158  -3.762  0.00  0.00     0.013 C 
ENDBRANCH   7   8
ENDBRANCH   1   7
TORSDOF 2
ENDMDL
