MODEL 1
REMARK minimizedAffinity 2.85167289
REMARK minimizedRMSD -1
REMARK  2 active torsions:
REMARK  status: ('A' for Active; 'I' for Inactive)
REMARK    1  A    between atoms: C2'_3  and  C1'_4 
REMARK    2  A    between atoms: C1'_4  and  C1_5 
ROOT
ATOM      1  C1  I4B d   1       0.968  -5.794   3.093  0.00  0.00    -0.075 A 
ATOM      2  C2  I4B d   1       2.305  -5.876   3.391  0.00  0.00     0.003 A 
ATOM      3  C3  I4B d   1       2.729  -6.000   4.736  0.00  0.00     0.002 A 
ATOM      4  C4  I4B d   1       1.792  -5.987   5.748  0.00  0.00    -0.004 A 
ATOM      5  C5  I4B d   1       0.435  -5.926   5.443  0.00  0.00     0.002 A 
ATOM      6  C6  I4B d   1       0.019  -5.841   4.106  0.00  0.00     0.003 A 
ENDROOT
BRANCH   1   7
ATOM      7  C1' I4B d   1       0.556  -5.631   1.664  0.00  0.00     0.060 C 
BRANCH   7   8
ATOM      8  C2' I4B d   1      -0.918  -5.283   1.639  0.00  0.00    -0.013 C 
ATOM      9  C4' I4B d   1      -1.126  -3.795   1.535  0.00  0.00     0.013 C 
ATOM     10  C3' I4B d   1      -1.544  -6.000   0.480  0.00  0.00     0.013 C 
ENDBRANCH   7   8
ENDBRANCH   1   7
TORSDOF 2
ENDMDL
