MODEL 1
REMARK minimizedAffinity 8.02008915
REMARK minimizedRMSD -1
REMARK  2 active torsions:
REMARK  status: ('A' for Active; 'I' for Inactive)
REMARK    1  A    between atoms: C2'_3  and  C1'_4 
REMARK    2  A    between atoms: C1'_4  and  C1_5 
ROOT
ATOM      1  C1  I4B d   1      -0.945  -5.946   2.885  0.00  0.00    -0.075 A 
ATOM      2  C2  I4B d   1       0.202  -5.963   2.131  0.00  0.00     0.003 A 
ATOM      3  C3  I4B d   1       0.124  -5.960   0.717  0.00  0.00     0.002 A 
ATOM      4  C4  I4B d   1      -1.112  -5.990   0.104  0.00  0.00    -0.004 A 
ATOM      5  C5  I4B d   1      -2.273  -5.950   0.870  0.00  0.00     0.002 A 
ATOM      6  C6  I4B d   1      -2.189  -5.915   2.270  0.00  0.00     0.003 A 
ENDROOT
BRANCH   1   7
ATOM      7  C1' I4B d   1      -0.827  -5.983   4.376  0.00  0.00     0.060 C 
BRANCH   7   8
ATOM      8  C2' I4B d   1       0.647  -5.998   4.727  0.00  0.00    -0.013 C 
ATOM      9  C4' I4B d   1       1.482  -5.449   3.601  0.00  0.00     0.013 C 
ATOM     10  C3' I4B d   1       0.833  -5.194   5.980  0.00  0.00     0.013 C 
ENDBRANCH   7   8
ENDBRANCH   1   7
TORSDOF 2
ENDMDL
