MODEL 1
REMARK minimizedAffinity 5.80015469
REMARK minimizedRMSD -1
REMARK  2 active torsions:
REMARK  status: ('A' for Active; 'I' for Inactive)
REMARK    1  A    between atoms: C2'_3  and  C1'_4 
REMARK    2  A    between atoms: C1'_4  and  C1_5 
ROOT
ATOM      1  C1  I4B d   1       0.219  -0.183   1.462  0.00  0.00    -0.075 A 
ATOM      2  C2  I4B d   1       1.178  -1.163   1.398  0.00  0.00     0.003 A 
ATOM      3  C3  I4B d   1       2.523  -0.868   1.724  0.00  0.00     0.002 A 
ATOM      4  C4  I4B d   1       2.873   0.425   2.058  0.00  0.00    -0.004 A 
ATOM      5  C5  I4B d   1       1.897   1.413   2.144  0.00  0.00     0.002 A 
ATOM      6  C6  I4B d   1       0.559   1.105   1.857  0.00  0.00     0.003 A 
ENDROOT
BRANCH   1   7
ATOM      7  C1' I4B d   1      -1.186  -0.522   1.079  0.00  0.00     0.060 C 
BRANCH   7   8
ATOM      8  C2' I4B d   1      -1.722  -1.509   2.096  0.00  0.00    -0.013 C 
ATOM      9  C4' I4B d   1      -2.715  -0.855   3.020  0.00  0.00     0.013 C 
ATOM     10  C3' I4B d   1      -2.346  -2.650   1.350  0.00  0.00     0.013 C 
ENDBRANCH   7   8
ENDBRANCH   1   7
TORSDOF 2
ENDMDL
