MODEL 1
REMARK minimizedAffinity 4.56472492
REMARK minimizedRMSD -1
REMARK  2 active torsions:
REMARK  status: ('A' for Active; 'I' for Inactive)
REMARK    1  A    between atoms: C2'_3  and  C1'_4 
REMARK    2  A    between atoms: C1'_4  and  C1_5 
ROOT
ATOM      1  C1  I4B d   1      -0.687  -4.987   2.275  0.00  0.00    -0.075 A 
ATOM      2  C2  I4B d   1      -0.590  -5.507   3.541  0.00  0.00     0.003 A 
ATOM      3  C3  I4B d   1       0.650  -6.000   4.016  0.00  0.00     0.002 A 
ATOM      4  C4  I4B d   1       1.747  -6.000   3.179  0.00  0.00    -0.004 A 
ATOM      5  C5  I4B d   1       1.651  -5.451   1.903  0.00  0.00     0.002 A 
ATOM      6  C6  I4B d   1       0.430  -4.930   1.452  0.00  0.00     0.003 A 
ENDROOT
BRANCH   1   7
ATOM      7  C1' I4B d   1      -2.019  -4.505   1.794  0.00  0.00     0.060 C 
BRANCH   7   8
ATOM      8  C2' I4B d   1      -1.916  -3.013   1.551  0.00  0.00    -0.013 C 
ATOM      9  C4' I4B d   1      -2.457  -2.642   0.196  0.00  0.00     0.013 C 
ATOM     10  C3' I4B d   1      -2.667  -2.313   2.644  0.00  0.00     0.013 C 
ENDBRANCH   7   8
ENDBRANCH   1   7
TORSDOF 2
ENDMDL
