MODEL 1
REMARK minimizedAffinity 7.16067791
REMARK minimizedRMSD -1
REMARK  2 active torsions:
REMARK  status: ('A' for Active; 'I' for Inactive)
REMARK    1  A    between atoms: C2'_3  and  C1'_4 
REMARK    2  A    between atoms: C1'_4  and  C1_5 
ROOT
ATOM      1  C1  I4B d   1      -1.109  -5.956   1.527  0.00  0.00    -0.075 A 
ATOM      2  C2  I4B d   1      -1.506  -5.972   2.840  0.00  0.00     0.003 A 
ATOM      3  C3  I4B d   1      -0.541  -5.967   3.877  0.00  0.00     0.002 A 
ATOM      4  C4  I4B d   1       0.801  -5.996   3.556  0.00  0.00    -0.004 A 
ATOM      5  C5  I4B d   1       1.201  -5.957   2.224  0.00  0.00     0.002 A 
ATOM      6  C6  I4B d   1       0.241  -5.924   1.202  0.00  0.00     0.003 A 
ENDROOT
BRANCH   1   7
ATOM      7  C1' I4B d   1      -2.154  -5.995   0.457  0.00  0.00     0.060 C 
BRANCH   7   8
ATOM      8  C2' I4B d   1      -3.363  -5.231   0.958  0.00  0.00    -0.013 C 
ATOM      9  C4' I4B d   1      -3.362  -3.814   0.448  0.00  0.00     0.013 C 
ATOM     10  C3' I4B d   1      -4.592  -5.966   0.513  0.00  0.00     0.013 C 
ENDBRANCH   7   8
ENDBRANCH   1   7
TORSDOF 2
ENDMDL
