MODEL 1
REMARK minimizedAffinity 11.8968449
REMARK minimizedRMSD -1
REMARK  2 active torsions:
REMARK  status: ('A' for Active; 'I' for Inactive)
REMARK    1  A    between atoms: C2'_3  and  C1'_4 
REMARK    2  A    between atoms: C1'_4  and  C1_5 
ROOT
ATOM      1  C1  I4B d   1      -1.873  -0.897   2.927  0.00  0.00    -0.075 A 
ATOM      2  C2  I4B d   1      -1.164   0.273   3.039  0.00  0.00     0.003 A 
ATOM      3  C3  I4B d   1      -0.192   0.613   2.068  0.00  0.00     0.002 A 
ATOM      4  C4  I4B d   1       0.074  -0.264   1.036  0.00  0.00    -0.004 A 
ATOM      5  C5  I4B d   1      -0.662  -1.439   0.912  0.00  0.00     0.002 A 
ATOM      6  C6  I4B d   1      -1.650  -1.752   1.856  0.00  0.00     0.003 A 
ENDROOT
BRANCH   1   7
ATOM      7  C1' I4B d   1      -2.869  -1.240   3.989  0.00  0.00     0.060 C 
BRANCH   7   8
ATOM      8  C2' I4B d   1      -4.223  -0.725   3.543  0.00  0.00    -0.013 C 
ATOM      9  C4' I4B d   1      -4.827  -1.617   2.491  0.00  0.00     0.013 C 
ATOM     10  C3' I4B d   1      -5.106  -0.638   4.752  0.00  0.00     0.013 C 
ENDBRANCH   7   8
ENDBRANCH   1   7
TORSDOF 2
ENDMDL
