MODEL 1
REMARK minimizedAffinity -2.18041134
REMARK minimizedRMSD -1
REMARK  2 active torsions:
REMARK  status: ('A' for Active; 'I' for Inactive)
REMARK    1  A    between atoms: C2'_3  and  C1'_4 
REMARK    2  A    between atoms: C1'_4  and  C1_5 
ROOT
ATOM      1  C1  I4B d   1      -2.462   0.799   2.979  0.00  0.00    -0.075 A 
ATOM      2  C2  I4B d   1      -1.314   1.402   2.530  0.00  0.00     0.003 A 
ATOM      3  C3  I4B d   1      -0.210   0.616   2.119  0.00  0.00     0.002 A 
ATOM      4  C4  I4B d   1      -0.279  -0.758   2.220  0.00  0.00    -0.004 A 
ATOM      5  C5  I4B d   1      -1.453  -1.368   2.654  0.00  0.00     0.002 A 
ATOM      6  C6  I4B d   1      -2.556  -0.586   3.025  0.00  0.00     0.003 A 
ENDROOT
BRANCH   1   7
ATOM      7  C1' I4B d   1      -3.597   1.660   3.437  0.00  0.00     0.060 C 
BRANCH   7   8
ATOM      8  C2' I4B d   1      -4.824   0.782   3.571  0.00  0.00    -0.013 C 
ATOM      9  C4' I4B d   1      -5.115   0.470   5.016  0.00  0.00     0.013 C 
ATOM     10  C3' I4B d   1      -5.977   1.496   2.929  0.00  0.00     0.013 C 
ENDBRANCH   7   8
ENDBRANCH   1   7
TORSDOF 2
ENDMDL
