MODEL 1
REMARK minimizedAffinity 3.42905498
REMARK minimizedRMSD -1
REMARK  2 active torsions:
REMARK  status: ('A' for Active; 'I' for Inactive)
REMARK    1  A    between atoms: C2'_3  and  C1'_4 
REMARK    2  A    between atoms: C1'_4  and  C1_5 
ROOT
ATOM      1  C1  I4B d   1      -4.060  -1.460   2.815  0.00  0.00    -0.075 A 
ATOM      2  C2  I4B d   1      -2.832  -1.288   3.403  0.00  0.00     0.003 A 
ATOM      3  C3  I4B d   1      -1.670  -1.827   2.799  0.00  0.00     0.002 A 
ATOM      4  C4  I4B d   1      -1.788  -2.569   1.642  0.00  0.00    -0.004 A 
ATOM      5  C5  I4B d   1      -3.030  -2.723   1.035  0.00  0.00     0.002 A 
ATOM      6  C6  I4B d   1      -4.172  -2.155   1.618  0.00  0.00     0.003 A 
ENDROOT
BRANCH   1   7
ATOM      7  C1' I4B d   1      -5.270  -0.906   3.497  0.00  0.00     0.060 C 
BRANCH   7   8
ATOM      8  C2' I4B d   1      -4.802  -0.044   4.651  0.00  0.00    -0.013 C 
ATOM      9  C4' I4B d   1      -5.431   1.323   4.602  0.00  0.00     0.013 C 
ATOM     10  C3' I4B d   1      -5.145  -0.752   5.928  0.00  0.00     0.013 C 
ENDBRANCH   7   8
ENDBRANCH   1   7
TORSDOF 2
ENDMDL
