MODEL 1
REMARK minimizedAffinity 10.0619583
REMARK minimizedRMSD -1
REMARK  2 active torsions:
REMARK  status: ('A' for Active; 'I' for Inactive)
REMARK    1  A    between atoms: C2'_3  and  C1'_4 
REMARK    2  A    between atoms: C1'_4  and  C1_5 
ROOT
ATOM      1  C1  I4B d   1      -0.454  -2.010  -3.916  0.00  0.00    -0.075 A 
ATOM      2  C2  I4B d   1      -1.309  -3.066  -4.113  0.00  0.00     0.003 A 
ATOM      3  C3  I4B d   1      -2.651  -2.989  -3.668  0.00  0.00     0.002 A 
ATOM      4  C4  I4B d   1      -3.079  -1.866  -2.991  0.00  0.00    -0.004 A 
ATOM      5  C5  I4B d   1      -2.217  -0.787  -2.812  0.00  0.00     0.002 A 
ATOM      6  C6  I4B d   1      -0.900  -0.854  -3.289  0.00  0.00     0.003 A 
ENDROOT
BRANCH   1   7
ATOM      7  C1' I4B d   1       0.966  -2.139  -4.370  0.00  0.00     0.060 C 
BRANCH   7   8
ATOM      8  C2' I4B d   1       1.739  -0.956  -3.822  0.00  0.00    -0.013 C 
ATOM      9  C4' I4B d   1       1.899  -1.055  -2.328  0.00  0.00     0.013 C 
ATOM     10  C3' I4B d   1       3.072  -0.917  -4.508  0.00  0.00     0.013 C 
ENDBRANCH   7   8
ENDBRANCH   1   7
TORSDOF 2
ENDMDL
