MODEL 1
REMARK minimizedAffinity 1.95855427
REMARK minimizedRMSD -1
REMARK  2 active torsions:
REMARK  status: ('A' for Active; 'I' for Inactive)
REMARK    1  A    between atoms: C2'_3  and  C1'_4 
REMARK    2  A    between atoms: C1'_4  and  C1_5 
ROOT
ATOM      1  C1  I4B d   1      -3.609   0.251   3.885  0.00  0.00    -0.075 A 
ATOM      2  C2  I4B d   1      -4.639  -0.447   4.464  0.00  0.00     0.003 A 
ATOM      3  C3  I4B d   1      -5.865   0.200   4.753  0.00  0.00     0.002 A 
ATOM      4  C4  I4B d   1      -5.999   1.548   4.494  0.00  0.00    -0.004 A 
ATOM      5  C5  I4B d   1      -4.962   2.249   3.886  0.00  0.00     0.002 A 
ATOM      6  C6  I4B d   1      -3.763   1.594   3.568  0.00  0.00     0.003 A 
ENDROOT
BRANCH   1   7
ATOM      7  C1' I4B d   1      -2.316  -0.455   3.624  0.00  0.00     0.060 C 
BRANCH   7   8
ATOM      8  C2' I4B d   1      -1.696   0.150   2.381  0.00  0.00    -0.013 C 
ATOM      9  C4' I4B d   1      -0.497   0.993   2.726  0.00  0.00     0.013 C 
ATOM     10  C3' I4B d   1      -1.323  -0.971   1.458  0.00  0.00     0.013 C 
ENDBRANCH   7   8
ENDBRANCH   1   7
TORSDOF 2
ENDMDL
