MODEL 1
REMARK minimizedAffinity 2.65124536
REMARK minimizedRMSD -1
REMARK  2 active torsions:
REMARK  status: ('A' for Active; 'I' for Inactive)
REMARK    1  A    between atoms: C2'_3  and  C1'_4 
REMARK    2  A    between atoms: C1'_4  and  C1_5 
ROOT
ATOM      1  C1  I4B d   1      -2.542   0.555   3.658  0.00  0.00    -0.075 A 
ATOM      2  C2  I4B d   1      -3.319  -0.408   4.253  0.00  0.00     0.003 A 
ATOM      3  C3  I4B d   1      -4.666  -0.130   4.590  0.00  0.00     0.002 A 
ATOM      4  C4  I4B d   1      -5.177   1.131   4.362  0.00  0.00    -0.004 A 
ATOM      5  C5  I4B d   1      -4.395   2.099   3.737  0.00  0.00     0.002 A 
ATOM      6  C6  I4B d   1      -3.073   1.806   3.372  0.00  0.00     0.003 A 
ENDROOT
BRANCH   1   7
ATOM      7  C1' I4B d   1      -1.114   0.237   3.345  0.00  0.00     0.060 C 
BRANCH   7   8
ATOM      8  C2' I4B d   1      -0.559   1.367   2.502  0.00  0.00    -0.013 C 
ATOM      9  C4' I4B d   1       0.447   2.180   3.274  0.00  0.00     0.013 C 
ATOM     10  C3' I4B d   1       0.057   0.768   1.273  0.00  0.00     0.013 C 
ENDBRANCH   7   8
ENDBRANCH   1   7
TORSDOF 2
ENDMDL
