MODEL 1
REMARK minimizedAffinity 2.41500449
REMARK minimizedRMSD -1
REMARK  2 active torsions:
REMARK  status: ('A' for Active; 'I' for Inactive)
REMARK    1  A    between atoms: C2'_3  and  C1'_4 
REMARK    2  A    between atoms: C1'_4  and  C1_5 
ROOT
ATOM      1  C1  I4B d   1      -1.433  -4.492   3.012  0.00  0.00    -0.075 A 
ATOM      2  C2  I4B d   1      -1.854  -3.462   2.209  0.00  0.00     0.003 A 
ATOM      3  C3  I4B d   1      -2.840  -3.688   1.218  0.00  0.00     0.002 A 
ATOM      4  C4  I4B d   1      -3.338  -4.962   1.033  0.00  0.00    -0.004 A 
ATOM      5  C5  I4B d   1      -2.926  -6.000   1.864  0.00  0.00     0.002 A 
ATOM      6  C6  I4B d   1      -1.977  -5.761   2.868  0.00  0.00     0.003 A 
ENDROOT
BRANCH   1   7
ATOM      7  C1' I4B d   1      -0.366  -4.225   4.026  0.00  0.00     0.060 C 
BRANCH   7   8
ATOM      8  C2' I4B d   1       0.820  -5.110   3.700  0.00  0.00    -0.013 C 
ATOM      9  C4' I4B d   1       2.038  -4.289   3.368  0.00  0.00     0.013 C 
ATOM     10  C3' I4B d   1       1.072  -6.000   4.880  0.00  0.00     0.013 C 
ENDBRANCH   7   8
ENDBRANCH   1   7
TORSDOF 2
ENDMDL
