MODEL 1
REMARK minimizedAffinity 1.6863035
REMARK minimizedRMSD -1
REMARK  0 active torsions:
REMARK  status: ('A' for Active; 'I' for Inactive)
ROOT
ATOM      1  C1  BNZ d   1       3.022  -1.904   2.266  0.00  0.00     0.000 A 
ATOM      2  C2  BNZ d   1       2.960  -1.686   0.916  0.00  0.00     0.000 A 
ATOM      3  C3  BNZ d   1       1.789  -1.311   0.320  0.00  0.00     0.000 A 
ATOM      4  C4  BNZ d   1       0.673  -1.193   1.068  0.00  0.00     0.000 A 
ATOM      5  C5  BNZ d   1       0.717  -1.418   2.429  0.00  0.00     0.000 A 
ATOM      6  C6  BNZ d   1       1.906  -1.758   3.032  0.00  0.00     0.000 A 
ENDROOT
TORSDOF 0
ENDMDL
