MODEL 1
REMARK minimizedAffinity -3.14864826
REMARK minimizedRMSD -1
REMARK  0 active torsions:
REMARK  status: ('A' for Active; 'I' for Inactive)
ROOT
ATOM      1  C1  BNZ d   1      -0.475  -0.273   0.456  0.00  0.00     0.000 A 
ATOM      2  C2  BNZ d   1       0.563  -1.120   0.174  0.00  0.00     0.000 A 
ATOM      3  C3  BNZ d   1       1.082  -1.937   1.139  0.00  0.00     0.000 A 
ATOM      4  C4  BNZ d   1       0.590  -1.877   2.394  0.00  0.00     0.000 A 
ATOM      5  C5  BNZ d   1      -0.450  -1.021   2.696  0.00  0.00     0.000 A 
ATOM      6  C6  BNZ d   1      -0.995  -0.228   1.713  0.00  0.00     0.000 A 
ENDROOT
TORSDOF 0
ENDMDL
