MODEL 1
REMARK minimizedAffinity -1.12623823
REMARK minimizedRMSD -1
REMARK  0 active torsions:
REMARK  status: ('A' for Active; 'I' for Inactive)
ROOT
ATOM      1  C1  BNZ d   1      -1.037   0.434   0.986  0.00  0.00     0.000 A 
ATOM      2  C2  BNZ d   1      -0.072  -0.425   0.533  0.00  0.00     0.000 A 
ATOM      3  C3  BNZ d   1       0.390  -1.440   1.324  0.00  0.00     0.000 A 
ATOM      4  C4  BNZ d   1      -0.084  -1.569   2.580  0.00  0.00     0.000 A 
ATOM      5  C5  BNZ d   1      -1.051  -0.704   3.055  0.00  0.00     0.000 A 
ATOM      6  C6  BNZ d   1      -1.541   0.291   2.242  0.00  0.00     0.000 A 
ENDROOT
TORSDOF 0
ENDMDL
