MODEL 1
REMARK minimizedAffinity -1.88867581
REMARK minimizedRMSD -1
REMARK  0 active torsions:
REMARK  status: ('A' for Active; 'I' for Inactive)
ROOT
ATOM      1  C1  BNZ d   1       4.008   0.756  -5.293  0.00  0.00     0.000 A 
ATOM      2  C2  BNZ d   1       3.707   1.890  -5.998  0.00  0.00     0.000 A 
ATOM      3  C3  BNZ d   1       4.555   2.962  -5.996  0.00  0.00     0.000 A 
ATOM      4  C4  BNZ d   1       5.683   2.913  -5.257  0.00  0.00     0.000 A 
ATOM      5  C5  BNZ d   1       5.996   1.781  -4.533  0.00  0.00     0.000 A 
ATOM      6  C6  BNZ d   1       5.159   0.689  -4.569  0.00  0.00     0.000 A 
ENDROOT
TORSDOF 0
ENDMDL
