MODEL 1
REMARK minimizedAffinity 4.56372356
REMARK minimizedRMSD -1
REMARK  1 active torsions:
REMARK  status: ('A' for Active; 'I' for Inactive)
REMARK    1  A    between atoms: N_2  and  C1_3 
ROOT
ATOM      1  C1  UNL d   1      -0.869   0.336  -1.895  0.00  0.00     0.143 A 
ATOM      2  C2  UNL d   1      -0.385   1.471  -1.237  0.00  0.00    -0.057 A 
ATOM      3  C3  UNL d   1      -0.342   2.717  -1.875  0.00  0.00     0.033 A 
ATOM      4  C4  UNL d   1      -0.757   2.843  -3.197  0.00  0.00    -0.042 A 
ATOM      5  C5  UNL d   1      -1.219   1.723  -3.878  0.00  0.00     0.033 A 
ATOM      6  C6  UNL d   1      -1.266   0.483  -3.234  0.00  0.00    -0.057 A 
ENDROOT
BRANCH   1   7
ATOM      7  N   UNL d   1      -0.845  -0.949  -1.348  0.00  0.00    -0.732 N 
ATOM      8  C   UNL d   1       0.250  -1.370  -0.501  0.00  0.00     0.284 C 
ATOM      9  H3  UNL d   1      -1.761  -1.250  -1.023  0.00  0.00     0.395 HD
ENDBRANCH   1   7
TORSDOF 1
ENDMDL
