MODEL 1
REMARK minimizedAffinity 10.2839766
REMARK minimizedRMSD -1
REMARK  1 active torsions:
REMARK  status: ('A' for Active; 'I' for Inactive)
REMARK    1  A    between atoms: N_2  and  C1_3 
ROOT
ATOM      1  C1  UNL d   1       1.791  -1.632   0.603  0.00  0.00     0.143 A 
ATOM      2  C2  UNL d   1       0.991  -2.580   1.250  0.00  0.00    -0.057 A 
ATOM      3  C3  UNL d   1       1.556  -3.602   2.022  0.00  0.00     0.033 A 
ATOM      4  C4  UNL d   1       2.937  -3.712   2.137  0.00  0.00    -0.042 A 
ATOM      5  C5  UNL d   1       3.753  -2.797   1.483  0.00  0.00     0.033 A 
ATOM      6  C6  UNL d   1       3.183  -1.774   0.719  0.00  0.00    -0.057 A 
ENDROOT
BRANCH   1   7
ATOM      7  N   UNL d   1       1.293  -0.652  -0.258  0.00  0.00    -0.732 N 
ATOM      8  C   UNL d   1       0.402  -1.006  -1.342  0.00  0.00     0.284 C 
ATOM      9  H3  UNL d   1       1.033   0.201   0.233  0.00  0.00     0.395 HD
ENDBRANCH   1   7
TORSDOF 1
ENDMDL
