MODEL 1
REMARK minimizedAffinity 8.72413445
REMARK minimizedRMSD -1
REMARK  1 active torsions:
REMARK  status: ('A' for Active; 'I' for Inactive)
REMARK    1  A    between atoms: N_2  and  C1_3 
ROOT
ATOM      1  C1  UNL d   1       4.339  -1.273   0.641  0.00  0.00     0.143 A 
ATOM      2  C2  UNL d   1       3.006  -0.850   0.662  0.00  0.00    -0.057 A 
ATOM      3  C3  UNL d   1       1.989  -1.680   1.151  0.00  0.00     0.033 A 
ATOM      4  C4  UNL d   1       2.285  -2.962   1.602  0.00  0.00    -0.042 A 
ATOM      5  C5  UNL d   1       3.600  -3.412   1.567  0.00  0.00     0.033 A 
ATOM      6  C6  UNL d   1       4.612  -2.576   1.084  0.00  0.00    -0.057 A 
ENDROOT
BRANCH   1   7
ATOM      7  N   UNL d   1       5.381  -0.533   0.076  0.00  0.00    -0.732 N 
ATOM      8  C   UNL d   1       5.741   0.762   0.614  0.00  0.00     0.284 C 
ATOM      9  H3  UNL d   1       6.177  -1.113  -0.178  0.00  0.00     0.395 HD
ENDBRANCH   1   7
TORSDOF 1
ENDMDL
