MODEL 1
REMARK minimizedAffinity -4.41890526
REMARK minimizedRMSD -1
REMARK  1 active torsions:
REMARK  status: ('A' for Active; 'I' for Inactive)
REMARK    1  A    between atoms: N_2  and  C1_3 
ROOT
ATOM      1  C1  UNL d   1       1.002  -1.317   1.235  0.00  0.00     0.143 A 
ATOM      2  C2  UNL d   1       2.307  -1.010   1.634  0.00  0.00    -0.057 A 
ATOM      3  C3  UNL d   1       2.856   0.258   1.410  0.00  0.00     0.033 A 
ATOM      4  C4  UNL d   1       2.117   1.236   0.753  0.00  0.00    -0.042 A 
ATOM      5  C5  UNL d   1       0.827   0.946   0.324  0.00  0.00     0.033 A 
ATOM      6  C6  UNL d   1       0.281  -0.320   0.558  0.00  0.00    -0.057 A 
ENDROOT
BRANCH   1   7
ATOM      7  N   UNL d   1       0.434  -2.589   1.341  0.00  0.00    -0.732 N 
ATOM      8  C   UNL d   1      -0.984  -2.745   1.584  0.00  0.00     0.284 C 
ATOM      9  H3  UNL d   1       0.813  -3.242   0.660  0.00  0.00     0.395 HD
ENDBRANCH   1   7
TORSDOF 1
ENDMDL
