MODEL 1
REMARK minimizedAffinity 8.56874847
REMARK minimizedRMSD -1
REMARK  1 active torsions:
REMARK  status: ('A' for Active; 'I' for Inactive)
REMARK    1  A    between atoms: N_2  and  C1_3 
ROOT
ATOM      1  C1  UNL d   1      -5.221   3.829  -0.193  0.00  0.00     0.143 A 
ATOM      2  C2  UNL d   1      -3.910   3.409  -0.446  0.00  0.00    -0.057 A 
ATOM      3  C3  UNL d   1      -3.147   2.776   0.543  0.00  0.00     0.033 A 
ATOM      4  C4  UNL d   1      -3.673   2.577   1.815  0.00  0.00    -0.042 A 
ATOM      5  C5  UNL d   1      -4.965   3.008   2.096  0.00  0.00     0.033 A 
ATOM      6  C6  UNL d   1      -5.724   3.634   1.103  0.00  0.00    -0.057 A 
ENDROOT
BRANCH   1   7
ATOM      7  N   UNL d   1      -5.995   4.552  -1.104  0.00  0.00    -0.732 N 
ATOM      8  C   UNL d   1      -6.000   5.999  -1.082  0.00  0.00     0.284 C 
ATOM      9  H3  UNL d   1      -5.972   4.150  -2.038  0.00  0.00     0.395 HD
ENDBRANCH   1   7
TORSDOF 1
ENDMDL
