MODEL 1
REMARK minimizedAffinity -4.23189259
REMARK minimizedRMSD -1
REMARK  1 active torsions:
REMARK  status: ('A' for Active; 'I' for Inactive)
REMARK    1  A    between atoms: N_2  and  C1_3 
ROOT
ATOM      1  C1  UNL d   1       2.749  -1.132   3.341  0.00  0.00     0.143 A 
ATOM      2  C2  UNL d   1       3.110  -0.014   2.582  0.00  0.00    -0.057 A 
ATOM      3  C3  UNL d   1       2.412   0.330   1.418  0.00  0.00     0.033 A 
ATOM      4  C4  UNL d   1       1.355  -0.458   0.976  0.00  0.00    -0.042 A 
ATOM      5  C5  UNL d   1       0.995  -1.588   1.700  0.00  0.00     0.033 A 
ATOM      6  C6  UNL d   1       1.692  -1.923   2.865  0.00  0.00    -0.057 A 
ENDROOT
BRANCH   1   7
ATOM      7  N   UNL d   1       3.466  -1.583   4.452  0.00  0.00    -0.732 N 
ATOM      8  C   UNL d   1       4.584  -2.487   4.292  0.00  0.00     0.284 C 
ATOM      9  H3  UNL d   1       3.621  -0.847   5.138  0.00  0.00     0.395 HD
ENDBRANCH   1   7
TORSDOF 1
ENDMDL
