MODEL 1
REMARK minimizedAffinity 0.544626176
REMARK minimizedRMSD -1
REMARK  1 active torsions:
REMARK  status: ('A' for Active; 'I' for Inactive)
REMARK    1  A    between atoms: N_2  and  C1_3 
ROOT
ATOM      1  C1  UNL d   1       4.792  -2.477  -5.889  0.00  0.00     0.143 A 
ATOM      2  C2  UNL d   1       5.706  -1.418  -5.869  0.00  0.00    -0.057 A 
ATOM      3  C3  UNL d   1       5.275  -0.086  -5.861  0.00  0.00     0.033 A 
ATOM      4  C4  UNL d   1       3.917   0.212  -5.904  0.00  0.00    -0.042 A 
ATOM      5  C5  UNL d   1       2.991  -0.824  -5.951  0.00  0.00     0.033 A 
ATOM      6  C6  UNL d   1       3.428  -2.152  -5.951  0.00  0.00    -0.057 A 
ENDROOT
BRANCH   1   7
ATOM      7  N   UNL d   1       5.159  -3.820  -5.997  0.00  0.00    -0.732 N 
ATOM      8  C   UNL d   1       4.173  -4.869  -5.850  0.00  0.00     0.284 C 
ATOM      9  H3  UNL d   1       5.828  -3.981  -6.747  0.00  0.00     0.395 HD
ENDBRANCH   1   7
TORSDOF 1
ENDMDL
