MODEL 1
REMARK minimizedAffinity 3.74894023
REMARK minimizedRMSD -1
REMARK  0 active torsions:
REMARK  status: ('A' for Active; 'I' for Inactive)
ROOT
ATOM      1  C1  BNZ d   1       1.603  -3.228  -0.536  0.00  0.00     0.000 A 
ATOM      2  C2  BNZ d   1       2.221  -2.867   0.631  0.00  0.00     0.000 A 
ATOM      3  C3  BNZ d   1       2.956  -1.717   0.707  0.00  0.00     0.000 A 
ATOM      4  C4  BNZ d   1       3.105  -0.952  -0.393  0.00  0.00     0.000 A 
ATOM      5  C5  BNZ d   1       2.496  -1.307  -1.580  0.00  0.00     0.000 A 
ATOM      6  C6  BNZ d   1       1.725  -2.445  -1.642  0.00  0.00     0.000 A 
ENDROOT
TORSDOF 0
ENDMDL
