MODEL 1
REMARK minimizedAffinity 0.351171106
REMARK minimizedRMSD -1
REMARK  0 active torsions:
REMARK  status: ('A' for Active; 'I' for Inactive)
ROOT
ATOM      1  C1  BNZ d   1      -4.556  -0.305  -4.213  0.00  0.00     0.000 A 
ATOM      2  C2  BNZ d   1      -3.892  -0.751  -3.102  0.00  0.00     0.000 A 
ATOM      3  C3  BNZ d   1      -2.674  -0.233  -2.760  0.00  0.00     0.000 A 
ATOM      4  C4  BNZ d   1      -2.105   0.700  -3.550  0.00  0.00     0.000 A 
ATOM      5  C5  BNZ d   1      -2.758   1.154  -4.679  0.00  0.00     0.000 A 
ATOM      6  C6  BNZ d   1      -4.001   0.658  -4.998  0.00  0.00     0.000 A 
ENDROOT
TORSDOF 0
ENDMDL
