MODEL 1
REMARK minimizedAffinity 9.75885868
REMARK minimizedRMSD -1
REMARK  0 active torsions:
REMARK  status: ('A' for Active; 'I' for Inactive)
ROOT
ATOM      1  C1  BNZ d   1      -2.999  -5.239  -4.455  0.00  0.00     0.000 A 
ATOM      2  C2  BNZ d   1      -3.024  -4.476  -3.318  0.00  0.00     0.000 A 
ATOM      3  C3  BNZ d   1      -1.952  -4.447  -2.471  0.00  0.00     0.000 A 
ATOM      4  C4  BNZ d   1      -0.873  -5.211  -2.741  0.00  0.00     0.000 A 
ATOM      5  C5  BNZ d   1      -0.837  -5.992  -3.879  0.00  0.00     0.000 A 
ATOM      6  C6  BNZ d   1      -1.902  -5.989  -4.749  0.00  0.00     0.000 A 
ENDROOT
TORSDOF 0
ENDMDL
