MODEL 1
REMARK minimizedAffinity 0.678939641
REMARK minimizedRMSD -1
REMARK  0 active torsions:
REMARK  status: ('A' for Active; 'I' for Inactive)
ROOT
ATOM      1  C1  BNZ d   1       6.000  -0.386   0.023  0.00  0.00     0.000 A 
ATOM      2  C2  BNZ d   1       4.854  -1.113   0.204  0.00  0.00     0.000 A 
ATOM      3  C3  BNZ d   1       3.685  -0.738  -0.398  0.00  0.00     0.000 A 
ATOM      4  C4  BNZ d   1       3.654   0.383  -1.147  0.00  0.00     0.000 A 
ATOM      5  C5  BNZ d   1       4.799   1.132  -1.331  0.00  0.00     0.000 A 
ATOM      6  C6  BNZ d   1       5.983   0.731  -0.755  0.00  0.00     0.000 A 
ENDROOT
TORSDOF 0
ENDMDL
