MODEL 1
REMARK minimizedAffinity 1.40465152
REMARK minimizedRMSD -1
REMARK  0 active torsions:
REMARK  status: ('A' for Active; 'I' for Inactive)
ROOT
ATOM      1  C1  BNZ d   1       3.780  -0.616  -1.486  0.00  0.00     0.000 A 
ATOM      2  C2  BNZ d   1       4.991  -0.127  -1.896  0.00  0.00     0.000 A 
ATOM      3  C3  BNZ d   1       5.530   0.986  -1.315  0.00  0.00     0.000 A 
ATOM      4  C4  BNZ d   1       4.840   1.631  -0.352  0.00  0.00     0.000 A 
ATOM      5  C5  BNZ d   1       3.613   1.156   0.066  0.00  0.00     0.000 A 
ATOM      6  C6  BNZ d   1       3.092   0.013  -0.494  0.00  0.00     0.000 A 
ENDROOT
TORSDOF 0
ENDMDL
