MODEL 1
REMARK minimizedAffinity -0.103546254
REMARK minimizedRMSD -1
REMARK  0 active torsions:
REMARK  status: ('A' for Active; 'I' for Inactive)
ROOT
ATOM      1  C1  BNZ d   1       0.839  -3.766  -0.185  0.00  0.00     0.000 A 
ATOM      2  C2  BNZ d   1       1.935  -3.151   0.359  0.00  0.00     0.000 A 
ATOM      3  C3  BNZ d   1       2.330  -1.915  -0.072  0.00  0.00     0.000 A 
ATOM      4  C4  BNZ d   1       1.653  -1.314  -1.072  0.00  0.00     0.000 A 
ATOM      5  C5  BNZ d   1       0.551  -1.925  -1.636  0.00  0.00     0.000 A 
ATOM      6  C6  BNZ d   1       0.134  -3.152  -1.173  0.00  0.00     0.000 A 
ENDROOT
TORSDOF 0
ENDMDL
