MODEL 1
REMARK minimizedAffinity 6.75080109
REMARK minimizedRMSD -1
REMARK  0 active torsions:
REMARK  status: ('A' for Active; 'I' for Inactive)
ROOT
ATOM      1  C1  BNZ d   1      -0.036   2.326   0.953  0.00  0.00     0.000 A 
ATOM      2  C2  BNZ d   1      -0.674   1.130   1.149  0.00  0.00     0.000 A 
ATOM      3  C3  BNZ d   1      -1.992   1.091   1.508  0.00  0.00     0.000 A 
ATOM      4  C4  BNZ d   1      -2.660   2.245   1.709  0.00  0.00     0.000 A 
ATOM      5  C5  BNZ d   1      -2.028   3.459   1.525  0.00  0.00     0.000 A 
ATOM      6  C6  BNZ d   1      -0.712   3.495   1.125  0.00  0.00     0.000 A 
ENDROOT
TORSDOF 0
ENDMDL
