MODEL 1
REMARK minimizedAffinity -5.70444632
REMARK minimizedRMSD -1
REMARK  1 active torsions:
REMARK  status: ('A' for Active; 'I' for Inactive)
REMARK    1  A    between atoms: C1_2  and  C2_3 
ROOT
ATOM      1  C2  UNL d   1      -0.419  -0.066   0.861  0.00  0.00    -0.073 A 
ATOM      2  C3  UNL d   1      -1.435   0.454   1.670  0.00  0.00    -0.002 A 
ATOM      3  C4  UNL d   1      -1.148   0.909   2.958  0.00  0.00     0.004 A 
ATOM      4  C5  UNL d   1       0.157   0.854   3.447  0.00  0.00    -0.004 A 
ATOM      5  C6  UNL d   1       1.189   0.348   2.650  0.00  0.00    -0.075 A 
ATOM      6  C7  UNL d   1       2.598   0.280   3.162  0.00  0.00     0.076 C 
ATOM      7  C8  UNL d   1       0.892  -0.109   1.358  0.00  0.00     0.001 A 
ENDROOT
BRANCH   1   8
ATOM      8  C1  UNL d   1      -0.723  -0.552  -0.532  0.00  0.00     0.053 C 
ATOM      9  C   UNL d   1       0.453  -0.350  -1.476  0.00  0.00     0.018 C 
ENDBRANCH   1   8
TORSDOF 1
ENDMDL
