MODEL 1
REMARK minimizedAffinity -5.42072916
REMARK minimizedRMSD -1
REMARK  1 active torsions:
REMARK  status: ('A' for Active; 'I' for Inactive)
REMARK    1  A    between atoms: C1_2  and  C2_3 
ROOT
ATOM      1  C2  UNL d   1      -0.070   0.290  -0.664  0.00  0.00    -0.073 A 
ATOM      2  C3  UNL d   1      -1.333  -0.286  -0.842  0.00  0.00    -0.002 A 
ATOM      3  C4  UNL d   1      -2.273  -0.259   0.189  0.00  0.00     0.004 A 
ATOM      4  C5  UNL d   1      -1.963   0.350   1.405  0.00  0.00    -0.004 A 
ATOM      5  C6  UNL d   1      -0.711   0.942   1.598  0.00  0.00    -0.075 A 
ATOM      6  C7  UNL d   1      -0.361   1.600   2.901  0.00  0.00     0.076 C 
ATOM      7  C8  UNL d   1       0.229   0.909   0.559  0.00  0.00     0.001 A 
ENDROOT
BRANCH   1   8
ATOM      8  C1  UNL d   1       0.945   0.269  -1.777  0.00  0.00     0.053 C 
ATOM      9  C   UNL d   1       0.299   0.454  -3.141  0.00  0.00     0.018 C 
ENDBRANCH   1   8
TORSDOF 1
ENDMDL
