MODEL 1
REMARK minimizedAffinity -4.45294285
REMARK minimizedRMSD -1
REMARK  1 active torsions:
REMARK  status: ('A' for Active; 'I' for Inactive)
REMARK    1  A    between atoms: C1_2  and  C2_3 
ROOT
ATOM      1  C2  UNL d   1      -0.289   0.020  -4.450  0.00  0.00    -0.073 A 
ATOM      2  C3  UNL d   1       0.851   0.760  -4.783  0.00  0.00    -0.002 A 
ATOM      3  C4  UNL d   1       1.946   0.795  -3.919  0.00  0.00     0.004 A 
ATOM      4  C5  UNL d   1       1.915   0.087  -2.718  0.00  0.00    -0.004 A 
ATOM      5  C6  UNL d   1       0.789  -0.668  -2.373  0.00  0.00    -0.075 A 
ATOM      6  C7  UNL d   1       0.740  -1.433  -1.083  0.00  0.00     0.076 C 
ATOM      7  C8  UNL d   1      -0.307  -0.696  -3.245  0.00  0.00     0.001 A 
ENDROOT
BRANCH   1   8
ATOM      8  C1  UNL d   1      -1.471  -0.026  -5.383  0.00  0.00     0.053 C 
ATOM      9  C   UNL d   1      -1.657  -1.403  -6.000  0.00  0.00     0.018 C 
ENDBRANCH   1   8
TORSDOF 1
ENDMDL
