MODEL 1
REMARK minimizedAffinity -2.06914139
REMARK minimizedRMSD -1
REMARK  1 active torsions:
REMARK  status: ('A' for Active; 'I' for Inactive)
REMARK    1  A    between atoms: C1_2  and  C2_3 
ROOT
ATOM      1  C2  UNL d   1       0.298  -0.004  -0.700  0.00  0.00    -0.073 A 
ATOM      2  C3  UNL d   1      -0.889  -0.709  -0.930  0.00  0.00    -0.002 A 
ATOM      3  C4  UNL d   1      -1.961  -0.594  -0.044  0.00  0.00     0.004 A 
ATOM      4  C5  UNL d   1      -1.860   0.231   1.076  0.00  0.00    -0.004 A 
ATOM      5  C6  UNL d   1      -0.686   0.952   1.318  0.00  0.00    -0.075 A 
ATOM      6  C7  UNL d   1      -0.561   1.842   2.520  0.00  0.00     0.076 C 
ATOM      7  C8  UNL d   1       0.387   0.830   0.424  0.00  0.00     0.001 A 
ENDROOT
BRANCH   1   8
ATOM      8  C1  UNL d   1       1.455  -0.119  -1.658  0.00  0.00     0.053 C 
ATOM      9  C   UNL d   1       1.002  -0.076  -3.108  0.00  0.00     0.018 C 
ENDBRANCH   1   8
TORSDOF 1
ENDMDL
