MODEL 1
REMARK minimizedAffinity -5.30444145
REMARK minimizedRMSD -1
REMARK  1 active torsions:
REMARK  status: ('A' for Active; 'I' for Inactive)
REMARK    1  A    between atoms: C1_2  and  C2_3 
ROOT
ATOM      1  C2  UNL d   1      -0.212  -0.592   0.218  0.00  0.00    -0.073 A 
ATOM      2  C3  UNL d   1      -1.573  -0.461  -0.081  0.00  0.00    -0.002 A 
ATOM      3  C4  UNL d   1      -2.430   0.189   0.808  0.00  0.00     0.004 A 
ATOM      4  C5  UNL d   1      -1.935   0.720   1.999  0.00  0.00    -0.004 A 
ATOM      5  C6  UNL d   1      -0.576   0.609   2.310  0.00  0.00    -0.075 A 
ATOM      6  C7  UNL d   1      -0.029   1.172   3.589  0.00  0.00     0.076 C 
ATOM      7  C8  UNL d   1       0.278  -0.048   1.414  0.00  0.00     0.001 A 
ENDROOT
BRANCH   1   8
ATOM      8  C1  UNL d   1       0.719  -1.287  -0.742  0.00  0.00     0.053 C 
ATOM      9  C   UNL d   1       0.314  -1.065  -2.191  0.00  0.00     0.018 C 
ENDBRANCH   1   8
TORSDOF 1
ENDMDL
