MODEL 1
REMARK minimizedAffinity -3.73550487
REMARK minimizedRMSD -1
REMARK  0 active torsions:
REMARK  status: ('A' for Active; 'I' for Inactive)
ROOT
ATOM      1  N1  IND d   1       1.124   0.571  -0.569  0.00  0.00    -0.196 N 
ATOM      2  C2  IND d   1       0.116   0.800  -1.463  0.00  0.00     0.054 A 
ATOM      3  C3  IND d   1      -1.049   0.295  -0.999  0.00  0.00    -0.031 A 
ATOM      4  C4  IND d   1      -1.552  -0.856   1.248  0.00  0.00     0.051 A 
ATOM      5  C5  IND d   1      -0.943  -1.323   2.379  0.00  0.00    -0.031 A 
ATOM      6  C6  IND d   1       0.412  -1.177   2.591  0.00  0.00     0.015 A 
ATOM      7  C7  IND d   1       1.212  -0.546   1.681  0.00  0.00    -0.016 A 
ATOM      8  C8  IND d   1       0.598  -0.076   0.528  0.00  0.00    -0.047 A 
ATOM      9  C9  IND d   1      -0.770  -0.259   0.288  0.00  0.00    -0.096 A 
ATOM     10  HN1 IND d   1       1.947   0.795  -0.673  0.00  0.00     0.298 HD
ENDROOT
TORSDOF 0
ENDMDL
