MODEL 1
REMARK minimizedAffinity -1.96018279
REMARK minimizedRMSD -1
REMARK  0 active torsions:
REMARK  status: ('A' for Active; 'I' for Inactive)
ROOT
ATOM      1  N1  IND d   1       1.458  -1.668   1.884  0.00  0.00    -0.196 N 
ATOM      2  C2  IND d   1       0.816  -1.716   3.090  0.00  0.00     0.054 A 
ATOM      3  C3  IND d   1      -0.353  -1.039   3.028  0.00  0.00    -0.031 A 
ATOM      4  C4  IND d   1      -1.457   0.137   1.022  0.00  0.00     0.051 A 
ATOM      5  C5  IND d   1      -1.233   0.480  -0.282  0.00  0.00    -0.031 A 
ATOM      6  C6  IND d   1      -0.079   0.115  -0.945  0.00  0.00     0.015 A 
ATOM      7  C7  IND d   1       0.894  -0.620  -0.329  0.00  0.00    -0.016 A 
ATOM      8  C8  IND d   1       0.673  -0.964   0.998  0.00  0.00    -0.047 A 
ATOM      9  C9  IND d   1      -0.476  -0.560   1.688  0.00  0.00    -0.096 A 
ATOM     10  HN1 IND d   1       2.224  -2.019   1.709  0.00  0.00     0.298 HD
ENDROOT
TORSDOF 0
ENDMDL
