MODEL 1
REMARK minimizedAffinity -4.05922413
REMARK minimizedRMSD -1
REMARK  0 active torsions:
REMARK  status: ('A' for Active; 'I' for Inactive)
ROOT
ATOM      1  N1  IND d   1       2.139  -1.747  -0.349  0.00  0.00    -0.196 N 
ATOM      2  C2  IND d   1       2.707  -2.562   0.590  0.00  0.00     0.054 A 
ATOM      3  C3  IND d   1       2.099  -2.397   1.786  0.00  0.00    -0.031 A 
ATOM      4  C4  IND d   1       0.086  -0.918   2.408  0.00  0.00     0.051 A 
ATOM      5  C5  IND d   1      -0.750   0.034   1.896  0.00  0.00    -0.031 A 
ATOM      6  C6  IND d   1      -0.666   0.447   0.582  0.00  0.00     0.015 A 
ATOM      7  C7  IND d   1       0.254  -0.087  -0.275  0.00  0.00    -0.016 A 
ATOM      8  C8  IND d   1       1.109  -1.048   0.243  0.00  0.00    -0.047 A 
ATOM      9  C9  IND d   1       1.057  -1.441   1.587  0.00  0.00    -0.096 A 
ATOM     10  HN1 IND d   1       2.383  -1.681  -1.170  0.00  0.00     0.298 HD
ENDROOT
TORSDOF 0
ENDMDL
