MODEL 1
REMARK minimizedAffinity -5.71085548
REMARK minimizedRMSD -1
REMARK  0 active torsions:
REMARK  status: ('A' for Active; 'I' for Inactive)
ROOT
ATOM      1  N1  IND d   1       0.662  -0.333  -1.135  0.00  0.00    -0.196 N 
ATOM      2  C2  IND d   1      -0.398   0.480  -0.845  0.00  0.00     0.054 A 
ATOM      3  C3  IND d   1      -0.576   0.561   0.493  0.00  0.00    -0.031 A 
ATOM      4  C4  IND d   1       0.817  -0.475   2.394  0.00  0.00     0.051 A 
ATOM      5  C5  IND d   1       1.862  -1.326   2.624  0.00  0.00    -0.031 A 
ATOM      6  C6  IND d   1       2.576  -1.899   1.592  0.00  0.00     0.015 A 
ATOM      7  C7  IND d   1       2.278  -1.632   0.285  0.00  0.00    -0.016 A 
ATOM      8  C8  IND d   1       1.213  -0.774   0.048  0.00  0.00    -0.047 A 
ATOM      9  C9  IND d   1       0.458  -0.223   1.091  0.00  0.00    -0.096 A 
ATOM     10  HN1 IND d   1       0.938  -0.536  -1.924  0.00  0.00     0.298 HD
ENDROOT
TORSDOF 0
ENDMDL
