MODEL 1
REMARK minimizedAffinity -3.73909926
REMARK minimizedRMSD -1
REMARK  0 active torsions:
REMARK  status: ('A' for Active; 'I' for Inactive)
ROOT
ATOM      1  N1  IND d   1       0.283   0.760  -0.676  0.00  0.00    -0.196 N 
ATOM      2  C2  IND d   1      -1.065   0.535  -0.654  0.00  0.00     0.054 A 
ATOM      3  C3  IND d   1      -1.404  -0.186   0.438  0.00  0.00    -0.031 A 
ATOM      4  C4  IND d   1       0.076  -1.016   2.374  0.00  0.00     0.051 A 
ATOM      5  C5  IND d   1       1.379  -1.086   2.780  0.00  0.00    -0.031 A 
ATOM      6  C6  IND d   1       2.404  -0.531   2.041  0.00  0.00     0.015 A 
ATOM      7  C7  IND d   1       2.161   0.128   0.869  0.00  0.00    -0.016 A 
ATOM      8  C8  IND d   1       0.840   0.195   0.450  0.00  0.00    -0.047 A 
ATOM      9  C9  IND d   1      -0.199  -0.404   1.174  0.00  0.00    -0.096 A 
ATOM     10  HN1 IND d   1       0.711   1.183  -1.290  0.00  0.00     0.298 HD
ENDROOT
TORSDOF 0
ENDMDL
