MODEL 1
REMARK minimizedAffinity -3.59061694
REMARK minimizedRMSD -1
REMARK  0 active torsions:
REMARK  status: ('A' for Active; 'I' for Inactive)
ROOT
ATOM      1  N1  IND d   1       1.110  -1.132   1.194  0.00  0.00    -0.196 N 
ATOM      2  C2  IND d   1       0.540  -1.317   2.422  0.00  0.00     0.054 A 
ATOM      3  C3  IND d   1      -0.719  -0.824   2.435  0.00  0.00    -0.031 A 
ATOM      4  C4  IND d   1      -2.080   0.237   0.525  0.00  0.00     0.051 A 
ATOM      5  C5  IND d   1      -1.973   0.653  -0.773  0.00  0.00    -0.031 A 
ATOM      6  C6  IND d   1      -0.809   0.489  -1.496  0.00  0.00     0.015 A 
ATOM      7  C7  IND d   1       0.291  -0.109  -0.951  0.00  0.00    -0.016 A 
ATOM      8  C8  IND d   1       0.188  -0.526   0.369  0.00  0.00    -0.047 A 
ATOM      9  C9  IND d   1      -0.976  -0.325   1.122  0.00  0.00    -0.096 A 
ATOM     10  HN1 IND d   1       1.911  -1.356   0.973  0.00  0.00     0.298 HD
ENDROOT
TORSDOF 0
ENDMDL
