MODEL 1
REMARK minimizedAffinity -0.9010396
REMARK minimizedRMSD -1
REMARK  2 active torsions:
REMARK  status: ('A' for Active; 'I' for Inactive)
REMARK    1  A    between atoms: C2'_3  and  C1'_4 
REMARK    2  A    between atoms: C1'_4  and  C1_5 
ROOT
ATOM      1  C1  I4B d   1      -0.864   0.578  -0.606  0.00  0.00    -0.075 A 
ATOM      2  C2  I4B d   1      -0.413  -0.520   0.083  0.00  0.00     0.003 A 
ATOM      3  C3  I4B d   1       0.835  -0.481   0.749  0.00  0.00     0.002 A 
ATOM      4  C4  I4B d   1       1.619   0.652   0.658  0.00  0.00    -0.004 A 
ATOM      5  C5  I4B d   1       1.150   1.772  -0.022  0.00  0.00     0.002 A 
ATOM      6  C6  I4B d   1      -0.104   1.740  -0.648  0.00  0.00     0.003 A 
ENDROOT
BRANCH   1   7
ATOM      7  C1' I4B d   1      -2.172   0.491  -1.326  0.00  0.00     0.060 C 
BRANCH   7   8
ATOM      8  C2' I4B d   1      -1.945  -0.265  -2.619  0.00  0.00    -0.013 C 
ATOM      9  C4' I4B d   1      -2.767  -1.526  -2.665  0.00  0.00     0.013 C 
ATOM     10  C3' I4B d   1      -2.290   0.648  -3.757  0.00  0.00     0.013 C 
ENDBRANCH   7   8
ENDBRANCH   1   7
TORSDOF 2
ENDMDL
