MODEL 1
REMARK minimizedAffinity -4.05247974
REMARK minimizedRMSD -1
REMARK  2 active torsions:
REMARK  status: ('A' for Active; 'I' for Inactive)
REMARK    1  A    between atoms: C2'_3  and  C1'_4 
REMARK    2  A    between atoms: C1'_4  and  C1_5 
ROOT
ATOM      1  C1  I4B d   1       0.769  -0.406   0.931  0.00  0.00    -0.075 A 
ATOM      2  C2  I4B d   1       1.972   0.035   1.424  0.00  0.00     0.003 A 
ATOM      3  C3  I4B d   1       2.622  -0.679   2.459  0.00  0.00     0.002 A 
ATOM      4  C4  I4B d   1       2.015  -1.792   3.003  0.00  0.00    -0.004 A 
ATOM      5  C5  I4B d   1       0.807  -2.251   2.486  0.00  0.00     0.002 A 
ATOM      6  C6  I4B d   1       0.185  -1.561   1.435  0.00  0.00     0.003 A 
ENDROOT
BRANCH   1   7
ATOM      7  C1' I4B d   1       0.093   0.391  -0.140  0.00  0.00     0.060 C 
BRANCH   7   8
ATOM      8  C2' I4B d   1      -1.162   0.998   0.452  0.00  0.00    -0.013 C 
ATOM      9  C4' I4B d   1      -0.947   2.441   0.825  0.00  0.00     0.013 C 
ATOM     10  C3' I4B d   1      -2.264   0.858  -0.556  0.00  0.00     0.013 C 
ENDBRANCH   7   8
ENDBRANCH   1   7
TORSDOF 2
ENDMDL
