MODEL 1
REMARK minimizedAffinity -2.30245614
REMARK minimizedRMSD -1
REMARK  2 active torsions:
REMARK  status: ('A' for Active; 'I' for Inactive)
REMARK    1  A    between atoms: C2'_3  and  C1'_4 
REMARK    2  A    between atoms: C1'_4  and  C1_5 
ROOT
ATOM      1  C1  I4B d   1      -2.129   0.440  -1.048  0.00  0.00    -0.075 A 
ATOM      2  C2  I4B d   1      -2.648   1.532  -1.698  0.00  0.00     0.003 A 
ATOM      3  C3  I4B d   1      -3.384   1.366  -2.897  0.00  0.00     0.002 A 
ATOM      4  C4  I4B d   1      -3.532   0.103  -3.433  0.00  0.00    -0.004 A 
ATOM      5  C5  I4B d   1      -3.025  -1.005  -2.761  0.00  0.00     0.002 A 
ATOM      6  C6  I4B d   1      -2.330  -0.838  -1.555  0.00  0.00     0.003 A 
ENDROOT
BRANCH   1   7
ATOM      7  C1' I4B d   1      -1.330   0.655   0.197  0.00  0.00     0.060 C 
BRANCH   7   8
ATOM      8  C2' I4B d   1       0.058   0.093  -0.036  0.00  0.00    -0.013 C 
ATOM      9  C4' I4B d   1       1.089   1.190  -0.086  0.00  0.00     0.013 C 
ATOM     10  C3' I4B d   1       0.355  -0.879   1.067  0.00  0.00     0.013 C 
ENDBRANCH   7   8
ENDBRANCH   1   7
TORSDOF 2
ENDMDL
