MODEL 1
REMARK minimizedAffinity -3.61213017
REMARK minimizedRMSD -1
REMARK  2 active torsions:
REMARK  status: ('A' for Active; 'I' for Inactive)
REMARK    1  A    between atoms: C2'_3  and  C1'_4 
REMARK    2  A    between atoms: C1'_4  and  C1_5 
ROOT
ATOM      1  C1  I4B d   1       0.477  -0.781   1.295  0.00  0.00    -0.075 A 
ATOM      2  C2  I4B d   1       1.505   0.114   1.135  0.00  0.00     0.003 A 
ATOM      3  C3  I4B d   1       2.723  -0.066   1.834  0.00  0.00     0.002 A 
ATOM      4  C4  I4B d   1       2.851  -1.119   2.717  0.00  0.00    -0.004 A 
ATOM      5  C5  I4B d   1       1.816  -2.039   2.861  0.00  0.00     0.002 A 
ATOM      6  C6  I4B d   1       0.626  -1.876   2.137  0.00  0.00     0.003 A 
ENDROOT
BRANCH   1   7
ATOM      7  C1' I4B d   1      -0.807  -0.542   0.566  0.00  0.00     0.060 C 
BRANCH   7   8
ATOM      8  C2' I4B d   1      -0.488   0.226  -0.700  0.00  0.00    -0.013 C 
ATOM      9  C4' I4B d   1      -1.541   0.000  -1.754  0.00  0.00     0.013 C 
ATOM     10  C3' I4B d   1      -0.380   1.679  -0.346  0.00  0.00     0.013 C 
ENDBRANCH   7   8
ENDBRANCH   1   7
TORSDOF 2
ENDMDL
