MODEL 1
REMARK minimizedAffinity -3.63297367
REMARK minimizedRMSD -1
REMARK  2 active torsions:
REMARK  status: ('A' for Active; 'I' for Inactive)
REMARK    1  A    between atoms: C2'_3  and  C1'_4 
REMARK    2  A    between atoms: C1'_4  and  C1_5 
ROOT
ATOM      1  C1  I4B d   1      -0.425   0.270   0.164  0.00  0.00    -0.075 A 
ATOM      2  C2  I4B d   1       0.368  -0.562   0.914  0.00  0.00     0.003 A 
ATOM      3  C3  I4B d   1       1.703  -0.198   1.211  0.00  0.00     0.002 A 
ATOM      4  C4  I4B d   1       2.218   0.976   0.699  0.00  0.00    -0.004 A 
ATOM      5  C5  I4B d   1       1.405   1.829  -0.042  0.00  0.00     0.002 A 
ATOM      6  C6  I4B d   1       0.072   1.481  -0.301  0.00  0.00     0.003 A 
ENDROOT
BRANCH   1   7
ATOM      7  C1' I4B d   1      -1.821  -0.161  -0.159  0.00  0.00     0.060 C 
BRANCH   7   8
ATOM      8  C2' I4B d   1      -2.123   0.263  -1.582  0.00  0.00    -0.013 C 
ATOM      9  C4' I4B d   1      -2.223  -0.930  -2.496  0.00  0.00     0.013 C 
ATOM     10  C3' I4B d   1      -3.402   1.045  -1.570  0.00  0.00     0.013 C 
ENDBRANCH   7   8
ENDBRANCH   1   7
TORSDOF 2
ENDMDL
