MODEL 1
REMARK minimizedAffinity -4.7807312
REMARK minimizedRMSD -1
REMARK  2 active torsions:
REMARK  status: ('A' for Active; 'I' for Inactive)
REMARK    1  A    between atoms: C2'_3  and  C1'_4 
REMARK    2  A    between atoms: C1'_4  and  C1_5 
ROOT
ATOM      1  C1  I4B d   1      -0.091   0.406  -0.030  0.00  0.00    -0.075 A 
ATOM      2  C2  I4B d   1       0.390  -0.646   0.708  0.00  0.00     0.003 A 
ATOM      3  C3  I4B d   1       1.774  -0.742   0.994  0.00  0.00     0.002 A 
ATOM      4  C4  I4B d   1       2.640   0.203   0.484  0.00  0.00    -0.004 A 
ATOM      5  C5  I4B d   1       2.147   1.281  -0.244  0.00  0.00     0.002 A 
ATOM      6  C6  I4B d   1       0.771   1.391  -0.493  0.00  0.00     0.003 A 
ENDROOT
BRANCH   1   7
ATOM      7  C1' I4B d   1      -1.553   0.459  -0.341  0.00  0.00     0.060 C 
BRANCH   7   8
ATOM      8  C2' I4B d   1      -1.706   0.612  -1.841  0.00  0.00    -0.013 C 
ATOM      9  C4' I4B d   1      -2.250  -0.647  -2.464  0.00  0.00     0.013 C 
ATOM     10  C3' I4B d   1      -2.613   1.778  -2.097  0.00  0.00     0.013 C 
ENDBRANCH   7   8
ENDBRANCH   1   7
TORSDOF 2
ENDMDL
