MODEL 1
REMARK minimizedAffinity 3.35511422
REMARK minimizedRMSD -1
REMARK  0 active torsions:
REMARK  status: ('A' for Active; 'I' for Inactive)
ROOT
ATOM      1  C   UNL d   1       1.290   1.112  -3.519  0.00  0.00     0.124 A 
ATOM      2  C1  UNL d   1       1.917   1.441  -2.325  0.00  0.00     0.062 A 
ATOM      3  C2  UNL d   1       1.448   0.921  -1.122  0.00  0.00     0.162 A 
ATOM      4  C3  UNL d   1       0.346   0.066  -1.106  0.00  0.00    -0.034 A 
ATOM      5  C4  UNL d   1      -0.280  -0.259  -2.311  0.00  0.00     0.162 A 
ATOM      6  C5  UNL d   1       0.193   0.263  -3.511  0.00  0.00     0.062 A 
ATOM      7  F   UNL d   1      -0.415  -0.055  -4.663  0.00  0.00    -0.097 F 
ATOM      8  F1  UNL d   1      -1.342  -1.078  -2.332  0.00  0.00    -0.096 F 
ATOM      9  I   UNL d   1      -0.358  -0.713   0.690  0.00  0.00    -0.060 I 
ATOM     10  F2  UNL d   1       2.074   1.256   0.016  0.00  0.00    -0.096 F 
ATOM     11  F3  UNL d   1       2.977   2.262  -2.330  0.00  0.00    -0.097 F 
ATOM     12  F4  UNL d   1       1.743   1.615  -4.675  0.00  0.00    -0.092 F 
ENDROOT
TORSDOF 0
ENDMDL
