MODEL 1
REMARK minimizedAffinity -1.20326543
REMARK minimizedRMSD -1
REMARK  0 active torsions:
REMARK  status: ('A' for Active; 'I' for Inactive)
ROOT
ATOM      1  C   UNL d   1       0.947  -0.159   1.753  0.00  0.00     0.124 A 
ATOM      2  C1  UNL d   1       0.804  -0.362   0.387  0.00  0.00     0.062 A 
ATOM      3  C2  UNL d   1      -0.462  -0.370  -0.191  0.00  0.00     0.162 A 
ATOM      4  C3  UNL d   1      -1.596  -0.172   0.597  0.00  0.00    -0.034 A 
ATOM      5  C4  UNL d   1      -1.445   0.032   1.970  0.00  0.00     0.162 A 
ATOM      6  C5  UNL d   1      -0.177   0.038   2.542  0.00  0.00     0.062 A 
ATOM      7  F   UNL d   1      -0.041   0.235   3.862  0.00  0.00    -0.097 F 
ATOM      8  F1  UNL d   1      -2.514   0.225   2.756  0.00  0.00    -0.096 F 
ATOM      9  I   UNL d   1      -3.492  -0.182  -0.263  0.00  0.00    -0.060 I 
ATOM     10  F2  UNL d   1      -0.571  -0.569  -1.513  0.00  0.00    -0.096 F 
ATOM     11  F3  UNL d   1       1.888  -0.554  -0.378  0.00  0.00    -0.097 F 
ATOM     12  F4  UNL d   1       2.167  -0.153   2.306  0.00  0.00    -0.092 F 
ENDROOT
TORSDOF 0
ENDMDL
