MODEL 1
REMARK minimizedAffinity -1.91988516
REMARK minimizedRMSD -1
REMARK  0 active torsions:
REMARK  status: ('A' for Active; 'I' for Inactive)
ROOT
ATOM      1  C   UNL d   1       2.605   0.220  -1.307  0.00  0.00     0.124 A 
ATOM      2  C1  UNL d   1       1.357  -0.229  -0.899  0.00  0.00     0.062 A 
ATOM      3  C2  UNL d   1       0.321  -0.351  -1.821  0.00  0.00     0.162 A 
ATOM      4  C3  UNL d   1       0.529  -0.025  -3.161  0.00  0.00    -0.034 A 
ATOM      5  C4  UNL d   1       1.787   0.427  -3.564  0.00  0.00     0.162 A 
ATOM      6  C5  UNL d   1       2.819   0.548  -2.639  0.00  0.00     0.062 A 
ATOM      7  F   UNL d   1       4.024   0.982  -3.035  0.00  0.00    -0.097 F 
ATOM      8  F1  UNL d   1       2.022   0.749  -4.845  0.00  0.00    -0.096 F 
ATOM      9  I   UNL d   1      -1.017  -0.207  -4.542  0.00  0.00    -0.060 I 
ATOM     10  F2  UNL d   1      -0.875  -0.787  -1.398  0.00  0.00    -0.096 F 
ATOM     11  F3  UNL d   1       1.147  -0.545   0.387  0.00  0.00    -0.097 F 
ATOM     12  F4  UNL d   1       3.600   0.338  -0.418  0.00  0.00    -0.092 F 
ENDROOT
TORSDOF 0
ENDMDL
