MODEL 1
REMARK minimizedAffinity 1.71271086
REMARK minimizedRMSD -1
REMARK  0 active torsions:
REMARK  status: ('A' for Active; 'I' for Inactive)
ROOT
ATOM      1  C   UNL d   1      -0.154  -0.074   2.720  0.00  0.00     0.124 A 
ATOM      2  C1  UNL d   1      -1.119   0.291   1.792  0.00  0.00     0.062 A 
ATOM      3  C2  UNL d   1      -0.807   0.330   0.436  0.00  0.00     0.162 A 
ATOM      4  C3  UNL d   1       0.477   0.004  -0.001  0.00  0.00    -0.034 A 
ATOM      5  C4  UNL d   1       1.443  -0.361   0.939  0.00  0.00     0.162 A 
ATOM      6  C5  UNL d   1       1.126  -0.399   2.293  0.00  0.00     0.062 A 
ATOM      7  F   UNL d   1       2.060  -0.752   3.188  0.00  0.00    -0.097 F 
ATOM      8  F1  UNL d   1       2.687  -0.681   0.553  0.00  0.00    -0.096 F 
ATOM      9  I   UNL d   1       0.947   0.062  -2.027  0.00  0.00    -0.060 I 
ATOM     10  F2  UNL d   1      -1.760   0.686  -0.439  0.00  0.00    -0.096 F 
ATOM     11  F3  UNL d   1      -2.356   0.606   2.202  0.00  0.00    -0.097 F 
ATOM     12  F4  UNL d   1      -0.456  -0.110   4.024  0.00  0.00    -0.092 F 
ENDROOT
TORSDOF 0
ENDMDL
