MODEL 1
REMARK minimizedAffinity -4.82893419
REMARK minimizedRMSD -1
REMARK  0 active torsions:
REMARK  status: ('A' for Active; 'I' for Inactive)
ROOT
ATOM      1  C   UNL d   1       0.126   0.706   2.649  0.00  0.00     0.124 A 
ATOM      2  C1  UNL d   1       1.197  -0.031   2.165  0.00  0.00     0.062 A 
ATOM      3  C2  UNL d   1       1.230  -0.425   0.830  0.00  0.00     0.162 A 
ATOM      4  C3  UNL d   1       0.187  -0.081  -0.030  0.00  0.00    -0.034 A 
ATOM      5  C4  UNL d   1      -0.888   0.659   0.465  0.00  0.00     0.162 A 
ATOM      6  C5  UNL d   1      -0.916   1.050   1.799  0.00  0.00     0.062 A 
ATOM      7  F   UNL d   1      -1.952   1.762   2.266  0.00  0.00    -0.097 F 
ATOM      8  F1  UNL d   1      -1.907   1.006  -0.335  0.00  0.00    -0.096 F 
ATOM      9  I   UNL d   1       0.232  -0.668  -2.027  0.00  0.00    -0.060 I 
ATOM     10  F2  UNL d   1       2.278  -1.136   0.389  0.00  0.00    -0.096 F 
ATOM     11  F3  UNL d   1       2.204  -0.366   2.985  0.00  0.00    -0.097 F 
ATOM     12  F4  UNL d   1       0.097   1.083   3.934  0.00  0.00    -0.092 F 
ENDROOT
TORSDOF 0
ENDMDL
