MODEL 1
REMARK minimizedAffinity -3.24231434
REMARK minimizedRMSD -1
REMARK  0 active torsions:
REMARK  status: ('A' for Active; 'I' for Inactive)
ROOT
ATOM      1  C   UNL d   1       0.238   0.762   2.939  0.00  0.00     0.124 A 
ATOM      2  C1  UNL d   1       1.249  -0.102   2.543  0.00  0.00     0.062 A 
ATOM      3  C2  UNL d   1       1.361  -0.485   1.210  0.00  0.00     0.162 A 
ATOM      4  C3  UNL d   1       0.460  -0.003   0.261  0.00  0.00    -0.034 A 
ATOM      5  C4  UNL d   1      -0.555   0.866   0.666  0.00  0.00     0.162 A 
ATOM      6  C5  UNL d   1      -0.663   1.246   2.000  0.00  0.00     0.062 A 
ATOM      7  F   UNL d   1      -1.641   2.081   2.380  0.00  0.00    -0.097 F 
ATOM      8  F1  UNL d   1      -1.439   1.349  -0.220  0.00  0.00    -0.096 F 
ATOM      9  I   UNL d   1       0.625  -0.572  -1.734  0.00  0.00    -0.060 I 
ATOM     10  F2  UNL d   1       2.348  -1.322   0.856  0.00  0.00    -0.096 F 
ATOM     11  F3  UNL d   1       2.120  -0.571   3.448  0.00  0.00    -0.097 F 
ATOM     12  F4  UNL d   1       0.132   1.128   4.223  0.00  0.00    -0.092 F 
ENDROOT
TORSDOF 0
ENDMDL
