MODEL 1
REMARK minimizedAffinity 1.68011653
REMARK minimizedRMSD -1
REMARK  0 active torsions:
REMARK  status: ('A' for Active; 'I' for Inactive)
ROOT
ATOM      1  C   UNL d   1      -0.808   0.450   2.922  0.00  0.00     0.124 A 
ATOM      2  C1  UNL d   1       0.486   0.695   2.485  0.00  0.00     0.062 A 
ATOM      3  C2  UNL d   1       0.843   0.429   1.167  0.00  0.00     0.162 A 
ATOM      4  C3  UNL d   1      -0.098  -0.085   0.274  0.00  0.00    -0.034 A 
ATOM      5  C4  UNL d   1      -1.398  -0.330   0.720  0.00  0.00     0.162 A 
ATOM      6  C5  UNL d   1      -1.749  -0.062   2.039  0.00  0.00     0.062 A 
ATOM      7  F   UNL d   1      -3.000  -0.300   2.459  0.00  0.00    -0.097 F 
ATOM      8  F1  UNL d   1      -2.327  -0.824  -0.112  0.00  0.00    -0.096 F 
ATOM      9  I   UNL d   1       0.431  -0.485  -1.699  0.00  0.00    -0.060 I 
ATOM     10  F2  UNL d   1       2.101   0.675   0.772  0.00  0.00    -0.096 F 
ATOM     11  F3  UNL d   1       1.397   1.189   3.337  0.00  0.00    -0.097 F 
ATOM     12  F4  UNL d   1      -1.148   0.706   4.192  0.00  0.00    -0.092 F 
ENDROOT
TORSDOF 0
ENDMDL
