MODEL 1
REMARK minimizedAffinity -0.182325482
REMARK minimizedRMSD -1
REMARK  0 active torsions:
REMARK  status: ('A' for Active; 'I' for Inactive)
ROOT
ATOM      1  C   UNL d   1      -0.154   0.085   2.309  0.00  0.00     0.124 A 
ATOM      2  C1  UNL d   1       1.012  -0.503   1.839  0.00  0.00     0.062 A 
ATOM      3  C2  UNL d   1       1.194  -0.703   0.474  0.00  0.00     0.162 A 
ATOM      4  C3  UNL d   1       0.207  -0.313  -0.432  0.00  0.00    -0.034 A 
ATOM      5  C4  UNL d   1      -0.963   0.277   0.048  0.00  0.00     0.162 A 
ATOM      6  C5  UNL d   1      -1.140   0.475   1.414  0.00  0.00     0.062 A 
ATOM      7  F   UNL d   1      -2.267   1.044   1.866  0.00  0.00    -0.097 F 
ATOM      8  F1  UNL d   1      -1.931   0.664  -0.795  0.00  0.00    -0.096 F 
ATOM      9  I   UNL d   1       0.475  -0.611  -2.475  0.00  0.00    -0.060 I 
ATOM     10  F2  UNL d   1       2.330  -1.275   0.048  0.00  0.00    -0.096 F 
ATOM     11  F3  UNL d   1       1.965  -0.882   2.702  0.00  0.00    -0.097 F 
ATOM     12  F4  UNL d   1      -0.327   0.276   3.623  0.00  0.00    -0.092 F 
ENDROOT
TORSDOF 0
ENDMDL
