MODEL 1
REMARK minimizedAffinity 1.80026507
REMARK minimizedRMSD -1
REMARK  0 active torsions:
REMARK  status: ('A' for Active; 'I' for Inactive)
ROOT
ATOM      1  C4' PXY d   1       1.972  -2.227  -4.208  0.00  0.00     0.077 C 
ATOM      2  C1' PXY d   1       4.041   0.066   0.678  0.00  0.00     0.077 C 
ATOM      3  C1  PXY d   1       3.505  -0.527  -0.610  0.00  0.00    -0.082 A 
ATOM      4  C2  PXY d   1       2.347  -1.167  -0.604  0.00  0.00     0.003 A 
ATOM      5  C3  PXY d   1       1.863  -1.737  -1.753  0.00  0.00     0.003 A 
ATOM      6  C4  PXY d   1       2.546  -1.605  -2.933  0.00  0.00    -0.082 A 
ATOM      7  C5  PXY d   1       3.724  -0.944  -2.949  0.00  0.00     0.003 A 
ATOM      8  C6  PXY d   1       4.217  -0.409  -1.763  0.00  0.00     0.003 A 
ENDROOT
TORSDOF 0
ENDMDL
