MODEL 1
REMARK minimizedAffinity -3.37724781
REMARK minimizedRMSD -1
REMARK  0 active torsions:
REMARK  status: ('A' for Active; 'I' for Inactive)
ROOT
ATOM      1  C4' PXY d   1       1.505  -1.045  -2.333  0.00  0.00     0.077 C 
ATOM      2  C1' PXY d   1      -1.015   0.970   2.463  0.00  0.00     0.077 C 
ATOM      3  C1  PXY d   1      -0.362   0.449   1.198  0.00  0.00    -0.082 A 
ATOM      4  C2  PXY d   1       0.181  -0.758   1.191  0.00  0.00     0.003 A 
ATOM      5  C3  PXY d   1       0.804  -1.231   0.065  0.00  0.00     0.003 A 
ATOM      6  C4  PXY d   1       0.826  -0.483  -1.082  0.00  0.00    -0.082 A 
ATOM      7  C5  PXY d   1       0.265   0.745  -1.085  0.00  0.00     0.003 A 
ATOM      8  C6  PXY d   1      -0.326   1.224   0.080  0.00  0.00     0.003 A 
ENDROOT
TORSDOF 0
ENDMDL
