MODEL 1
REMARK minimizedAffinity 5.25385237
REMARK minimizedRMSD -1
REMARK  0 active torsions:
REMARK  status: ('A' for Active; 'I' for Inactive)
ROOT
ATOM      1  C4' PXY d   1      -1.860  -1.056  -0.288  0.00  0.00     0.077 C 
ATOM      2  C1' PXY d   1       2.652   1.658  -2.675  0.00  0.00     0.077 C 
ATOM      3  C1  PXY d   1       1.466   0.958  -2.042  0.00  0.00    -0.082 A 
ATOM      4  C2  PXY d   1       1.463  -0.362  -1.942  0.00  0.00     0.003 A 
ATOM      5  C3  PXY d   1       0.385  -1.014  -1.401  0.00  0.00     0.003 A 
ATOM      6  C4  PXY d   1      -0.679  -0.305  -0.911  0.00  0.00    -0.082 A 
ATOM      7  C5  PXY d   1      -0.679   1.042  -1.001  0.00  0.00     0.003 A 
ATOM      8  C6  PXY d   1       0.407   1.682  -1.590  0.00  0.00     0.003 A 
ENDROOT
TORSDOF 0
ENDMDL
