MODEL 1
REMARK minimizedAffinity 5.73213673
REMARK minimizedRMSD -1
REMARK  0 active torsions:
REMARK  status: ('A' for Active; 'I' for Inactive)
ROOT
ATOM      1  C4' PXY d   1      -5.050  -4.150  -1.631  0.00  0.00     0.077 C 
ATOM      2  C1' PXY d   1      -1.274   0.053  -0.410  0.00  0.00     0.077 C 
ATOM      3  C1  PXY d   1      -2.254  -1.057  -0.732  0.00  0.00    -0.082 A 
ATOM      4  C2  PXY d   1      -3.451  -0.756  -1.207  0.00  0.00     0.003 A 
ATOM      5  C3  PXY d   1      -4.362  -1.746  -1.473  0.00  0.00     0.003 A 
ATOM      6  C4  PXY d   1      -4.024  -3.062  -1.301  0.00  0.00    -0.082 A 
ATOM      7  C5  PXY d   1      -2.801  -3.378  -0.826  0.00  0.00     0.003 A 
ATOM      8  C6  PXY d   1      -1.906  -2.356  -0.524  0.00  0.00     0.003 A 
ENDROOT
TORSDOF 0
ENDMDL
