MODEL 1
REMARK minimizedAffinity -1.81688118
REMARK minimizedRMSD -1
REMARK  0 active torsions:
REMARK  status: ('A' for Active; 'I' for Inactive)
ROOT
ATOM      1  C4' PXY d   1       1.943   0.399  -1.433  0.00  0.00     0.077 C 
ATOM      2  C1' PXY d   1      -2.987  -2.602  -1.109  0.00  0.00     0.077 C 
ATOM      3  C1  PXY d   1      -1.687  -1.826  -1.193  0.00  0.00    -0.082 A 
ATOM      4  C2  PXY d   1      -1.669  -0.543  -0.868  0.00  0.00     0.003 A 
ATOM      5  C3  PXY d   1      -0.509   0.181  -0.969  0.00  0.00     0.003 A 
ATOM      6  C4  PXY d   1       0.656  -0.426  -1.354  0.00  0.00    -0.082 A 
ATOM      7  C5  PXY d   1       0.648  -1.737  -1.677  0.00  0.00     0.003 A 
ATOM      8  C6  PXY d   1      -0.549  -2.445  -1.608  0.00  0.00     0.003 A 
ENDROOT
TORSDOF 0
ENDMDL
