MODEL 1
REMARK minimizedAffinity 4.79514647
REMARK minimizedRMSD -1
REMARK  0 active torsions:
REMARK  status: ('A' for Active; 'I' for Inactive)
ROOT
ATOM      1  C4' PXY d   1       2.436  -1.492  -0.735  0.00  0.00     0.077 C 
ATOM      2  C1' PXY d   1       1.677   3.617  -3.331  0.00  0.00     0.077 C 
ATOM      3  C1  PXY d   1       1.882   2.272  -2.660  0.00  0.00    -0.082 A 
ATOM      4  C2  PXY d   1       1.066   1.893  -1.691  0.00  0.00     0.003 A 
ATOM      5  C3  PXY d   1       1.256   0.695  -1.052  0.00  0.00     0.003 A 
ATOM      6  C4  PXY d   1       2.261  -0.148  -1.446  0.00  0.00    -0.082 A 
ATOM      7  C5  PXY d   1       3.092   0.227  -2.442  0.00  0.00     0.003 A 
ATOM      8  C6  PXY d   1       2.907   1.466  -3.049  0.00  0.00     0.003 A 
ENDROOT
TORSDOF 0
ENDMDL
