MODEL 1
REMARK minimizedAffinity 4.86864042
REMARK minimizedRMSD -1
REMARK  0 active torsions:
REMARK  status: ('A' for Active; 'I' for Inactive)
ROOT
ATOM      1  C4' PXY d   1      -2.925  -3.999   0.017  0.00  0.00     0.077 C 
ATOM      2  C1' PXY d   1      -1.229   1.495   0.608  0.00  0.00     0.077 C 
ATOM      3  C1  PXY d   1      -1.679   0.057   0.441  0.00  0.00    -0.082 A 
ATOM      4  C2  PXY d   1      -1.918  -0.682   1.512  0.00  0.00     0.003 A 
ATOM      5  C3  PXY d   1      -2.294  -1.994   1.380  0.00  0.00     0.003 A 
ATOM      6  C4  PXY d   1      -2.479  -2.539   0.138  0.00  0.00    -0.082 A 
ATOM      7  C5  PXY d   1      -2.247  -1.789  -0.960  0.00  0.00     0.003 A 
ATOM      8  C6  PXY d   1      -1.826  -0.471  -0.804  0.00  0.00     0.003 A 
ENDROOT
TORSDOF 0
ENDMDL
