MODEL 1
REMARK minimizedAffinity 3.94168901
REMARK minimizedRMSD -1
REMARK  0 active torsions:
REMARK  status: ('A' for Active; 'I' for Inactive)
ROOT
ATOM      1  C4' PXY d   1       2.381  -1.551  -1.290  0.00  0.00     0.077 C 
ATOM      2  C1' PXY d   1       1.668   3.746  -3.491  0.00  0.00     0.077 C 
ATOM      3  C1  PXY d   1       1.848   2.361  -2.903  0.00  0.00    -0.082 A 
ATOM      4  C2  PXY d   1       2.844   1.597  -3.322  0.00  0.00     0.003 A 
ATOM      5  C3  PXY d   1       3.003   0.329  -2.825  0.00  0.00     0.003 A 
ATOM      6  C4  PXY d   1       2.166  -0.142  -1.849  0.00  0.00    -0.082 A 
ATOM      7  C5  PXY d   1       1.154   0.635  -1.409  0.00  0.00     0.003 A 
ATOM      8  C6  PXY d   1       0.985   1.903  -1.956  0.00  0.00     0.003 A 
ENDROOT
TORSDOF 0
ENDMDL
