MODEL 1
REMARK minimizedAffinity 10.9588003
REMARK minimizedRMSD -1
REMARK  0 active torsions:
REMARK  status: ('A' for Active; 'I' for Inactive)
ROOT
ATOM      1  C4' PXY d   1       2.624  -1.508  -0.524  0.00  0.00     0.077 C 
ATOM      2  C1' PXY d   1       1.344   3.327  -3.422  0.00  0.00     0.077 C 
ATOM      3  C1  PXY d   1       1.670   2.061  -2.654  0.00  0.00    -0.082 A 
ATOM      4  C2  PXY d   1       2.897   1.567  -2.696  0.00  0.00     0.003 A 
ATOM      5  C3  PXY d   1       3.201   0.406  -2.033  0.00  0.00     0.003 A 
ATOM      6  C4  PXY d   1       2.253  -0.228  -1.276  0.00  0.00    -0.082 A 
ATOM      7  C5  PXY d   1       1.001   0.275  -1.219  0.00  0.00     0.003 A 
ATOM      8  C6  PXY d   1       0.703   1.433  -1.932  0.00  0.00     0.003 A 
ENDROOT
TORSDOF 0
ENDMDL
