MODEL 1
REMARK minimizedAffinity 0.57930994
REMARK minimizedRMSD -1
REMARK  0 active torsions:
REMARK  status: ('A' for Active; 'I' for Inactive)
ROOT
ATOM      1  C4' PXY d   1      -1.452  -3.008  -1.081  0.00  0.00     0.077 C 
ATOM      2  C1' PXY d   1       3.635  -0.285  -1.420  0.00  0.00     0.077 C 
ATOM      3  C1  PXY d   1       2.305  -1.009  -1.339  0.00  0.00    -0.082 A 
ATOM      4  C2  PXY d   1       1.218  -0.341  -0.989  0.00  0.00     0.003 A 
ATOM      5  C3  PXY d   1       0.013  -0.986  -0.880  0.00  0.00     0.003 A 
ATOM      6  C4  PXY d   1      -0.090  -2.317  -1.184  0.00  0.00    -0.082 A 
ATOM      7  C5  PXY d   1       1.013  -3.003  -1.553  0.00  0.00     0.003 A 
ATOM      8  C6  PXY d   1       2.234  -2.339  -1.617  0.00  0.00     0.003 A 
ENDROOT
TORSDOF 0
ENDMDL
