MODEL 1
REMARK minimizedAffinity 1.69879818
REMARK minimizedRMSD -1
REMARK  0 active torsions:
REMARK  status: ('A' for Active; 'I' for Inactive)
ROOT
ATOM      1  C4' PXY d   1       2.560  -1.548  -0.345  0.00  0.00     0.077 C 
ATOM      2  C1' PXY d   1       1.338   3.229  -3.362  0.00  0.00     0.077 C 
ATOM      3  C1  PXY d   1       1.652   1.981  -2.560  0.00  0.00    -0.082 A 
ATOM      4  C2  PXY d   1       2.688   1.230  -2.898  0.00  0.00     0.003 A 
ATOM      5  C3  PXY d   1       2.967   0.081  -2.204  0.00  0.00     0.003 A 
ATOM      6  C4  PXY d   1       2.211  -0.274  -1.120  0.00  0.00    -0.082 A 
ATOM      7  C5  PXY d   1       1.159   0.492  -0.762  0.00  0.00     0.003 A 
ATOM      8  C6  PXY d   1       0.867   1.633  -1.505  0.00  0.00     0.003 A 
ENDROOT
TORSDOF 0
ENDMDL
