MODEL 1
REMARK minimizedAffinity 11.0650415
REMARK minimizedRMSD -1
REMARK  0 active torsions:
REMARK  status: ('A' for Active; 'I' for Inactive)
ROOT
ATOM      1  C4' PXY d   1      -6.000  -4.704  -2.018  0.00  0.00     0.077 C 
ATOM      2  C1' PXY d   1      -1.758  -1.074  -0.517  0.00  0.00     0.077 C 
ATOM      3  C1  PXY d   1      -2.862  -2.036  -0.912  0.00  0.00    -0.082 A 
ATOM      4  C2  PXY d   1      -3.976  -1.567  -1.450  0.00  0.00     0.003 A 
ATOM      5  C3  PXY d   1      -4.997  -2.419  -1.783  0.00  0.00     0.003 A 
ATOM      6  C4  PXY d   1      -4.855  -3.771  -1.613  0.00  0.00    -0.082 A 
ATOM      7  C5  PXY d   1      -3.717  -4.257  -1.075  0.00  0.00     0.003 A 
ATOM      8  C6  PXY d   1      -2.709  -3.372  -0.705  0.00  0.00     0.003 A 
ENDROOT
TORSDOF 0
ENDMDL
