MODEL 1
REMARK minimizedAffinity 8.89294052
REMARK minimizedRMSD -1
REMARK  0 active torsions:
REMARK  status: ('A' for Active; 'I' for Inactive)
ROOT
ATOM      1  C4' PXY d   1       1.525   4.046  -3.446  0.00  0.00     0.077 C 
ATOM      2  C1' PXY d   1       2.589  -1.099  -1.035  0.00  0.00     0.077 C 
ATOM      3  C1  PXY d   1       2.323   0.251  -1.671  0.00  0.00    -0.082 A 
ATOM      4  C2  PXY d   1       1.321   0.995  -1.231  0.00  0.00     0.003 A 
ATOM      5  C3  PXY d   1       1.046   2.204  -1.816  0.00  0.00     0.003 A 
ATOM      6  C4  PXY d   1       1.837   2.681  -2.827  0.00  0.00    -0.082 A 
ATOM      7  C5  PXY d   1       2.867   1.932  -3.275  0.00  0.00     0.003 A 
ATOM      8  C6  PXY d   1       3.105   0.689  -2.695  0.00  0.00     0.003 A 
ENDROOT
TORSDOF 0
ENDMDL
