MODEL 1
REMARK minimizedAffinity 5.18126822
REMARK minimizedRMSD -1
REMARK  0 active torsions:
REMARK  status: ('A' for Active; 'I' for Inactive)
ROOT
ATOM      1  C4' PXY d   1      -1.459   1.136   0.468  0.00  0.00     0.077 C 
ATOM      2  C1' PXY d   1       3.882   0.918  -1.732  0.00  0.00     0.077 C 
ATOM      3  C1  PXY d   1       2.486   0.978  -1.143  0.00  0.00    -0.082 A 
ATOM      4  C2  PXY d   1       1.506   0.296  -1.713  0.00  0.00     0.003 A 
ATOM      5  C3  PXY d   1       0.231   0.365  -1.213  0.00  0.00     0.003 A 
ATOM      6  C4  PXY d   1      -0.033   1.097  -0.086  0.00  0.00    -0.082 A 
ATOM      7  C5  PXY d   1       0.964   1.787   0.507  0.00  0.00     0.003 A 
ATOM      8  C6  PXY d   1       2.243   1.737  -0.040  0.00  0.00     0.003 A 
ENDROOT
TORSDOF 0
ENDMDL
