MODEL 1
REMARK minimizedAffinity 4.73437834
REMARK minimizedRMSD -1
REMARK  0 active torsions:
REMARK  status: ('A' for Active; 'I' for Inactive)
ROOT
ATOM      1  C4' PXY d   1      -1.941  -3.075  -0.753  0.00  0.00     0.077 C 
ATOM      2  C1' PXY d   1       2.940  -0.061  -1.464  0.00  0.00     0.077 C 
ATOM      3  C1  PXY d   1       1.655  -0.842  -1.269  0.00  0.00    -0.082 A 
ATOM      4  C2  PXY d   1       1.635  -2.141  -1.523  0.00  0.00     0.003 A 
ATOM      5  C3  PXY d   1       0.474  -2.857  -1.382  0.00  0.00     0.003 A 
ATOM      6  C4  PXY d   1      -0.665  -2.248  -0.926  0.00  0.00    -0.082 A 
ATOM      7  C5  PXY d   1      -0.649  -0.926  -0.655  0.00  0.00     0.003 A 
ATOM      8  C6  PXY d   1       0.529  -0.209  -0.843  0.00  0.00     0.003 A 
ENDROOT
TORSDOF 0
ENDMDL
