MODEL 1
REMARK minimizedAffinity 5.41395712
REMARK minimizedRMSD -1
REMARK  0 active torsions:
REMARK  status: ('A' for Active; 'I' for Inactive)
ROOT
ATOM      1  C4' PXY d   1       1.677   0.255  -1.160  0.00  0.00     0.077 C 
ATOM      2  C1' PXY d   1      -3.085  -2.986  -0.677  0.00  0.00     0.077 C 
ATOM      3  C1  PXY d   1      -1.844  -2.126  -0.805  0.00  0.00    -0.082 A 
ATOM      4  C2  PXY d   1      -0.711  -2.668  -1.222  0.00  0.00     0.003 A 
ATOM      5  C3  PXY d   1       0.428  -1.912  -1.313  0.00  0.00     0.003 A 
ATOM      6  C4  PXY d   1       0.396  -0.574  -1.025  0.00  0.00    -0.082 A 
ATOM      7  C5  PXY d   1      -0.757  -0.010  -0.609  0.00  0.00     0.003 A 
ATOM      8  C6  PXY d   1      -1.894  -0.804  -0.483  0.00  0.00     0.003 A 
ENDROOT
TORSDOF 0
ENDMDL
