MODEL 1
REMARK minimizedAffinity -3.43383813
REMARK minimizedRMSD -1
REMARK  0 active torsions:
REMARK  status: ('A' for Active; 'I' for Inactive)
ROOT
ATOM      1  C4' PXY d   1       0.457  -2.540  -0.000  0.00  0.00     0.077 C 
ATOM      2  C1' PXY d   1      -0.688   2.994  -1.213  0.00  0.00     0.077 C 
ATOM      3  C1  PXY d   1      -0.376   1.544  -0.899  0.00  0.00    -0.082 A 
ATOM      4  C2  PXY d   1      -1.362   0.668  -0.808  0.00  0.00     0.003 A 
ATOM      5  C3  PXY d   1      -1.100  -0.641  -0.493  0.00  0.00     0.003 A 
ATOM      6  C4  PXY d   1       0.189  -1.068  -0.324  0.00  0.00    -0.082 A 
ATOM      7  C5  PXY d   1       1.202  -0.182  -0.426  0.00  0.00     0.003 A 
ATOM      8  C6  PXY d   1       0.912   1.150  -0.705  0.00  0.00     0.003 A 
ENDROOT
TORSDOF 0
ENDMDL
