MODEL 1
REMARK minimizedAffinity 2.86480904
REMARK minimizedRMSD -1
REMARK  0 active torsions:
REMARK  status: ('A' for Active; 'I' for Inactive)
ROOT
ATOM      1  C4' PXY d   1       1.266  -4.074   1.176  0.00  0.00     0.077 C 
ATOM      2  C1' PXY d   1       1.955   0.480  -2.317  0.00  0.00     0.077 C 
ATOM      3  C1  PXY d   1       1.762  -0.711  -1.399  0.00  0.00    -0.082 A 
ATOM      4  C2  PXY d   1       2.805  -1.229  -0.771  0.00  0.00     0.003 A 
ATOM      5  C3  PXY d   1       2.653  -2.326   0.037  0.00  0.00     0.003 A 
ATOM      6  C4  PXY d   1       1.413  -2.866   0.247  0.00  0.00    -0.082 A 
ATOM      7  C5  PXY d   1       0.342  -2.337  -0.382  0.00  0.00     0.003 A 
ATOM      8  C6  PXY d   1       0.523  -1.249  -1.231  0.00  0.00     0.003 A 
ENDROOT
TORSDOF 0
ENDMDL
