MODEL 1
REMARK minimizedAffinity 3.52209377
REMARK minimizedRMSD -1
REMARK  0 active torsions:
REMARK  status: ('A' for Active; 'I' for Inactive)
ROOT
ATOM      1  C4' PXY d   1       2.711  -1.973  -0.638  0.00  0.00     0.077 C 
ATOM      2  C1' PXY d   1       1.575   2.715  -3.823  0.00  0.00     0.077 C 
ATOM      3  C1  PXY d   1       1.868   1.492  -2.977  0.00  0.00    -0.082 A 
ATOM      4  C2  PXY d   1       2.829   0.659  -3.342  0.00  0.00     0.003 A 
ATOM      5  C3  PXY d   1       3.085  -0.469  -2.607  0.00  0.00     0.003 A 
ATOM      6  C4  PXY d   1       2.387  -0.720  -1.456  0.00  0.00    -0.082 A 
ATOM      7  C5  PXY d   1       1.411   0.130  -1.071  0.00  0.00     0.003 A 
ATOM      8  C6  PXY d   1       1.139   1.248  -1.854  0.00  0.00     0.003 A 
ENDROOT
TORSDOF 0
ENDMDL
