MODEL 1
REMARK minimizedAffinity 2.9813416
REMARK minimizedRMSD -1
REMARK  0 active torsions:
REMARK  status: ('A' for Active; 'I' for Inactive)
ROOT
ATOM      1  C4' PXY d   1       2.321  -1.695  -0.725  0.00  0.00     0.077 C 
ATOM      2  C1' PXY d   1       1.369   3.302  -3.471  0.00  0.00     0.077 C 
ATOM      3  C1  PXY d   1       1.613   1.996  -2.741  0.00  0.00    -0.082 A 
ATOM      4  C2  PXY d   1       2.599   1.204  -3.128  0.00  0.00     0.003 A 
ATOM      5  C3  PXY d   1       2.814   0.005  -2.499  0.00  0.00     0.003 A 
ATOM      6  C4  PXY d   1       2.044  -0.363  -1.428  0.00  0.00    -0.082 A 
ATOM      7  C5  PXY d   1       1.043   0.445  -1.020  0.00  0.00     0.003 A 
ATOM      8  C6  PXY d   1       0.815   1.638  -1.698  0.00  0.00     0.003 A 
ENDROOT
TORSDOF 0
ENDMDL
