MODEL 1
REMARK minimizedAffinity -2.93753767
REMARK minimizedRMSD -1
REMARK  0 active torsions:
REMARK  status: ('A' for Active; 'I' for Inactive)
ROOT
ATOM      1  C   UNL d   1       0.402   0.851  -0.963  0.00  0.00     0.078 C 
ATOM      2  C1  UNL d   1      -0.046  -0.238  -0.034  0.00  0.00    -0.077 A 
ATOM      3  C2  UNL d   1       0.571  -1.495  -0.045  0.00  0.00    -0.001 A 
ATOM      4  C3  UNL d   1       0.137  -2.502   0.818  0.00  0.00     0.003 A 
ATOM      5  C4  UNL d   1      -0.916  -2.263   1.699  0.00  0.00    -0.005 A 
ATOM      6  C5  UNL d   1      -1.537  -1.016   1.716  0.00  0.00     0.003 A 
ATOM      7  C6  UNL d   1      -1.105  -0.008   0.853  0.00  0.00    -0.001 A 
ENDROOT
TORSDOF 0
ENDMDL
