MODEL 1
REMARK minimizedAffinity -5.57246161
REMARK minimizedRMSD -1
REMARK  0 active torsions:
REMARK  status: ('A' for Active; 'I' for Inactive)
ROOT
ATOM      1  C   UNL d   1       0.551   1.060   0.286  0.00  0.00     0.078 C 
ATOM      2  C1  UNL d   1      -0.508   0.070   0.668  0.00  0.00    -0.077 A 
ATOM      3  C2  UNL d   1      -0.402  -1.277   0.300  0.00  0.00    -0.001 A 
ATOM      4  C3  UNL d   1      -1.401  -2.186   0.654  0.00  0.00     0.003 A 
ATOM      5  C4  UNL d   1      -2.513  -1.758   1.376  0.00  0.00    -0.005 A 
ATOM      6  C5  UNL d   1      -2.628  -0.419   1.744  0.00  0.00     0.003 A 
ATOM      7  C6  UNL d   1      -1.631   0.491   1.391  0.00  0.00    -0.001 A 
ENDROOT
TORSDOF 0
ENDMDL
