MODEL 1
REMARK minimizedAffinity -5.35679197
REMARK minimizedRMSD -1
REMARK  0 active torsions:
REMARK  status: ('A' for Active; 'I' for Inactive)
ROOT
ATOM      1  C   UNL d   1      -2.355  -3.181   1.883  0.00  0.00     0.078 C 
ATOM      2  C1  UNL d   1      -1.498  -2.094   1.306  0.00  0.00    -0.077 A 
ATOM      3  C2  UNL d   1      -1.882  -0.750   1.393  0.00  0.00    -0.001 A 
ATOM      4  C3  UNL d   1      -1.079   0.250   0.842  0.00  0.00     0.003 A 
ATOM      5  C4  UNL d   1       0.112  -0.083   0.200  0.00  0.00    -0.005 A 
ATOM      6  C5  UNL d   1       0.501  -1.418   0.107  0.00  0.00     0.003 A 
ATOM      7  C6  UNL d   1      -0.300  -2.419   0.656  0.00  0.00    -0.001 A 
ENDROOT
TORSDOF 0
ENDMDL
