MODEL 1
REMARK minimizedAffinity -5.35702705
REMARK minimizedRMSD -1
REMARK  0 active torsions:
REMARK  status: ('A' for Active; 'I' for Inactive)
ROOT
ATOM      1  C   UNL d   1       1.511  -0.751   0.843  0.00  0.00     0.078 C 
ATOM      2  C1  UNL d   1       0.106  -1.220   0.610  0.00  0.00    -0.077 A 
ATOM      3  C2  UNL d   1      -0.522  -2.092   1.508  0.00  0.00    -0.001 A 
ATOM      4  C3  UNL d   1      -1.827  -2.528   1.273  0.00  0.00     0.003 A 
ATOM      5  C4  UNL d   1      -2.515  -2.098   0.141  0.00  0.00    -0.005 A 
ATOM      6  C5  UNL d   1      -1.898  -1.231  -0.759  0.00  0.00     0.003 A 
ATOM      7  C6  UNL d   1      -0.593  -0.795  -0.527  0.00  0.00    -0.001 A 
ENDROOT
TORSDOF 0
ENDMDL
