MODEL 1
REMARK minimizedAffinity -4.6184206
REMARK minimizedRMSD -1
REMARK  0 active torsions:
REMARK  status: ('A' for Active; 'I' for Inactive)
ROOT
ATOM      1  C   UNL d   1      -1.362  -2.543   0.278  0.00  0.00     0.078 C 
ATOM      2  C1  UNL d   1      -0.501  -1.316   0.233  0.00  0.00    -0.077 A 
ATOM      3  C2  UNL d   1       0.891  -1.406   0.361  0.00  0.00    -0.001 A 
ATOM      4  C3  UNL d   1       1.679  -0.254   0.326  0.00  0.00     0.003 A 
ATOM      5  C4  UNL d   1       1.084   0.996   0.165  0.00  0.00    -0.005 A 
ATOM      6  C5  UNL d   1      -0.300   1.096   0.039  0.00  0.00     0.003 A 
ATOM      7  C6  UNL d   1      -1.090  -0.055   0.073  0.00  0.00    -0.001 A 
ENDROOT
TORSDOF 0
ENDMDL
