MODEL 1
REMARK minimizedAffinity -3.88118577
REMARK minimizedRMSD -1
REMARK  0 active torsions:
REMARK  status: ('A' for Active; 'I' for Inactive)
ROOT
ATOM      1  C   UNL d   1      -1.473  -2.331   1.023  0.00  0.00     0.078 C 
ATOM      2  C1  UNL d   1      -0.636  -1.207   0.489  0.00  0.00    -0.077 A 
ATOM      3  C2  UNL d   1      -1.228  -0.026   0.024  0.00  0.00    -0.001 A 
ATOM      4  C3  UNL d   1      -0.437   1.008  -0.480  0.00  0.00     0.003 A 
ATOM      5  C4  UNL d   1       0.949   0.871  -0.524  0.00  0.00    -0.005 A 
ATOM      6  C5  UNL d   1       1.546  -0.301  -0.066  0.00  0.00     0.003 A 
ATOM      7  C6  UNL d   1       0.757  -1.336   0.438  0.00  0.00    -0.001 A 
ENDROOT
TORSDOF 0
ENDMDL
