MODEL 1
REMARK minimizedAffinity -5.00956726
REMARK minimizedRMSD -1
REMARK  0 active torsions:
REMARK  status: ('A' for Active; 'I' for Inactive)
ROOT
ATOM      1  C   UNL d   1      -2.036  -2.849   1.417  0.00  0.00     0.078 C 
ATOM      2  C1  UNL d   1      -1.017  -1.828   1.008  0.00  0.00    -0.077 A 
ATOM      3  C2  UNL d   1       0.344  -2.151   0.947  0.00  0.00    -0.001 A 
ATOM      4  C3  UNL d   1       1.283  -1.188   0.574  0.00  0.00     0.003 A 
ATOM      5  C4  UNL d   1       0.871   0.105   0.259  0.00  0.00    -0.005 A 
ATOM      6  C5  UNL d   1      -0.481   0.437   0.319  0.00  0.00     0.003 A 
ATOM      7  C6  UNL d   1      -1.421  -0.524   0.692  0.00  0.00    -0.001 A 
ENDROOT
TORSDOF 0
ENDMDL
