MODEL 1
REMARK minimizedAffinity -2.76879334
REMARK minimizedRMSD -1
REMARK  0 active torsions:
REMARK  status: ('A' for Active; 'I' for Inactive)
ROOT
ATOM      1  C   UNL d   1       0.182   1.254  -0.635  0.00  0.00     0.078 C 
ATOM      2  C1  UNL d   1      -0.264  -0.051  -0.047  0.00  0.00    -0.077 A 
ATOM      3  C2  UNL d   1      -1.625  -0.364   0.064  0.00  0.00    -0.001 A 
ATOM      4  C3  UNL d   1      -2.026  -1.578   0.623  0.00  0.00     0.003 A 
ATOM      5  C4  UNL d   1      -1.074  -2.489   1.076  0.00  0.00    -0.005 A 
ATOM      6  C5  UNL d   1       0.282  -2.185   0.971  0.00  0.00     0.003 A 
ATOM      7  C6  UNL d   1       0.685  -0.971   0.413  0.00  0.00    -0.001 A 
ENDROOT
TORSDOF 0
ENDMDL
