MODEL 1
REMARK minimizedAffinity -4.59144068
REMARK minimizedRMSD -1
REMARK  0 active torsions:
REMARK  status: ('A' for Active; 'I' for Inactive)
ROOT
ATOM      1  C   UNL d   1       0.685   0.897  -0.596  0.00  0.00     0.078 C 
ATOM      2  C1  UNL d   1       0.029  -0.304   0.017  0.00  0.00    -0.077 A 
ATOM      3  C2  UNL d   1       0.770  -1.451   0.326  0.00  0.00    -0.001 A 
ATOM      4  C3  UNL d   1       0.145  -2.566   0.888  0.00  0.00     0.003 A 
ATOM      5  C4  UNL d   1      -1.224  -2.544   1.145  0.00  0.00    -0.005 A 
ATOM      6  C5  UNL d   1      -1.970  -1.408   0.839  0.00  0.00     0.003 A 
ATOM      7  C6  UNL d   1      -1.347  -0.292   0.277  0.00  0.00    -0.001 A 
ENDROOT
TORSDOF 0
ENDMDL
