MODEL 1
REMARK minimizedAffinity -5.76679039
REMARK minimizedRMSD -1
REMARK  0 active torsions:
REMARK  status: ('A' for Active; 'I' for Inactive)
ROOT
ATOM      1  C   UNL d   1      -2.095  -2.570   1.498  0.00  0.00     0.078 C 
ATOM      2  C1  UNL d   1      -1.297  -1.379   1.058  0.00  0.00    -0.077 A 
ATOM      3  C2  UNL d   1       0.044  -1.509   0.678  0.00  0.00    -0.001 A 
ATOM      4  C3  UNL d   1       0.777  -0.390   0.280  0.00  0.00     0.003 A 
ATOM      5  C4  UNL d   1       0.178   0.868   0.259  0.00  0.00    -0.005 A 
ATOM      6  C5  UNL d   1      -1.156   1.008   0.637  0.00  0.00     0.003 A 
ATOM      7  C6  UNL d   1      -1.891  -0.110   1.036  0.00  0.00    -0.001 A 
ENDROOT
TORSDOF 0
ENDMDL
