MODEL 1
REMARK minimizedAffinity -2.99502254
REMARK minimizedRMSD -1
REMARK  0 active torsions:
REMARK  status: ('A' for Active; 'I' for Inactive)
ROOT
ATOM      1  C   UNL d   1       1.259   2.312  -3.384  0.00  0.00     0.078 C 
ATOM      2  C1  UNL d   1       0.930   1.341  -2.290  0.00  0.00    -0.077 A 
ATOM      3  C2  UNL d   1       0.573   0.019  -2.582  0.00  0.00    -0.001 A 
ATOM      4  C3  UNL d   1       0.260  -0.872  -1.554  0.00  0.00     0.003 A 
ATOM      5  C4  UNL d   1       0.300  -0.450  -0.227  0.00  0.00    -0.005 A 
ATOM      6  C5  UNL d   1       0.652   0.864   0.074  0.00  0.00     0.003 A 
ATOM      7  C6  UNL d   1       0.966   1.756  -0.953  0.00  0.00    -0.001 A 
ENDROOT
TORSDOF 0
ENDMDL
