MODEL 1
REMARK minimizedAffinity -4.77003002
REMARK minimizedRMSD -1
REMARK  0 active torsions:
REMARK  status: ('A' for Active; 'I' for Inactive)
ROOT
ATOM      1  C   UNL d   1      -1.539  -2.701   0.471  0.00  0.00     0.078 C 
ATOM      2  C1  UNL d   1      -0.938  -1.330   0.383  0.00  0.00    -0.077 A 
ATOM      3  C2  UNL d   1       0.394  -1.151  -0.011  0.00  0.00    -0.001 A 
ATOM      4  C3  UNL d   1       0.943   0.131  -0.080  0.00  0.00     0.003 A 
ATOM      5  C4  UNL d   1       0.169   1.242   0.246  0.00  0.00    -0.005 A 
ATOM      6  C5  UNL d   1      -1.157   1.073   0.641  0.00  0.00     0.003 A 
ATOM      7  C6  UNL d   1      -1.708  -0.207   0.710  0.00  0.00    -0.001 A 
ENDROOT
TORSDOF 0
ENDMDL
