MODEL 1
REMARK minimizedAffinity -4.20018959
REMARK minimizedRMSD -1
REMARK  0 active torsions:
REMARK  status: ('A' for Active; 'I' for Inactive)
ROOT
ATOM      1  C   UNL d   1      -2.498  -0.047   2.517  0.00  0.00     0.078 C 
ATOM      2  C1  UNL d   1      -1.366  -0.526   1.659  0.00  0.00    -0.077 A 
ATOM      3  C2  UNL d   1      -0.976  -1.871   1.663  0.00  0.00    -0.001 A 
ATOM      4  C3  UNL d   1       0.086  -2.301   0.866  0.00  0.00     0.003 A 
ATOM      5  C4  UNL d   1       0.768  -1.392   0.060  0.00  0.00    -0.005 A 
ATOM      6  C5  UNL d   1       0.389  -0.051   0.051  0.00  0.00     0.003 A 
ATOM      7  C6  UNL d   1      -0.673   0.381   0.847  0.00  0.00    -0.001 A 
ENDROOT
TORSDOF 0
ENDMDL
