MODEL 1
REMARK minimizedAffinity -5.6461935
REMARK minimizedRMSD -1
REMARK  0 active torsions:
REMARK  status: ('A' for Active; 'I' for Inactive)
ROOT
ATOM      1  C   UNL d   1       0.099   0.864   0.038  0.00  0.00     0.078 C 
ATOM      2  C1  UNL d   1      -0.620  -0.286   0.678  0.00  0.00    -0.077 A 
ATOM      3  C2  UNL d   1      -1.918  -0.135   1.182  0.00  0.00    -0.001 A 
ATOM      4  C3  UNL d   1      -2.571  -1.211   1.784  0.00  0.00     0.003 A 
ATOM      5  C4  UNL d   1      -1.935  -2.446   1.890  0.00  0.00    -0.005 A 
ATOM      6  C5  UNL d   1      -0.642  -2.606   1.394  0.00  0.00     0.003 A 
ATOM      7  C6  UNL d   1       0.013  -1.530   0.791  0.00  0.00    -0.001 A 
ENDROOT
TORSDOF 0
ENDMDL
