MODEL 1
REMARK minimizedAffinity -4.74176216
REMARK minimizedRMSD -1
REMARK  0 active torsions:
REMARK  status: ('A' for Active; 'I' for Inactive)
ROOT
ATOM      1  C   UNL d   1       0.430   1.035  -0.828  0.00  0.00     0.078 C 
ATOM      2  C1  UNL d   1      -0.194  -0.192  -0.232  0.00  0.00    -0.077 A 
ATOM      3  C2  UNL d   1      -1.581  -0.290  -0.072  0.00  0.00    -0.001 A 
ATOM      4  C3  UNL d   1      -2.147  -1.434   0.493  0.00  0.00     0.003 A 
ATOM      5  C4  UNL d   1      -1.332  -2.487   0.905  0.00  0.00    -0.005 A 
ATOM      6  C5  UNL d   1       0.050  -2.397   0.751  0.00  0.00     0.003 A 
ATOM      7  C6  UNL d   1       0.617  -1.254   0.186  0.00  0.00    -0.001 A 
ENDROOT
TORSDOF 0
ENDMDL
