MODEL 1
REMARK minimizedAffinity 0.523423016
REMARK minimizedRMSD -1
REMARK  1 active torsions:
REMARK  status: ('A' for Active; 'I' for Inactive)
REMARK    1  A    between atoms: C1_2  and  C2_3 
ROOT
ATOM      1  C2  UNL d   1       1.147   0.249  -2.193  0.00  0.00    -0.073 A 
ATOM      2  C3  UNL d   1       0.618  -1.030  -1.982  0.00  0.00    -0.002 A 
ATOM      3  C4  UNL d   1       0.160  -1.404  -0.718  0.00  0.00     0.004 A 
ATOM      4  C5  UNL d   1       0.220  -0.503   0.345  0.00  0.00    -0.004 A 
ATOM      5  C6  UNL d   1       0.735   0.783   0.151  0.00  0.00    -0.075 A 
ATOM      6  C7  UNL d   1       0.808   1.764   1.285  0.00  0.00     0.076 C 
ATOM      7  C8  UNL d   1       1.195   1.150  -1.120  0.00  0.00     0.001 A 
ENDROOT
BRANCH   1   8
ATOM      8  C1  UNL d   1       1.636   0.659  -3.558  0.00  0.00     0.053 C 
ATOM      9  C   UNL d   1       0.621   1.519  -4.293  0.00  0.00     0.018 C 
ENDBRANCH   1   8
TORSDOF 1
ENDMDL
