MODEL 1
REMARK minimizedAffinity -2.77275777
REMARK minimizedRMSD -1
REMARK  1 active torsions:
REMARK  status: ('A' for Active; 'I' for Inactive)
REMARK    1  A    between atoms: C1_2  and  C2_3 
ROOT
ATOM      1  C2  UNL d   1      -0.290  -0.428  -0.381  0.00  0.00    -0.073 A 
ATOM      2  C3  UNL d   1      -1.585  -0.657  -0.860  0.00  0.00    -0.002 A 
ATOM      3  C4  UNL d   1      -2.691  -0.170  -0.163  0.00  0.00     0.004 A 
ATOM      4  C5  UNL d   1      -2.514   0.558   1.014  0.00  0.00    -0.004 A 
ATOM      5  C6  UNL d   1      -1.228   0.808   1.502  0.00  0.00    -0.075 A 
ATOM      6  C7  UNL d   1      -1.021   1.586   2.768  0.00  0.00     0.076 C 
ATOM      7  C8  UNL d   1      -0.122   0.312   0.798  0.00  0.00     0.001 A 
ENDROOT
BRANCH   1   8
ATOM      8  C1  UNL d   1       0.908  -0.947  -1.134  0.00  0.00     0.053 C 
ATOM      9  C   UNL d   1       0.791  -0.703  -2.630  0.00  0.00     0.018 C 
ENDBRANCH   1   8
TORSDOF 1
ENDMDL
