MODEL 1
REMARK minimizedAffinity -4.37716913
REMARK minimizedRMSD -1
REMARK  1 active torsions:
REMARK  status: ('A' for Active; 'I' for Inactive)
REMARK    1  A    between atoms: C1_2  and  C2_3 
ROOT
ATOM      1  C2  UNL d   1       0.315   0.537   1.858  0.00  0.00    -0.073 A 
ATOM      2  C3  UNL d   1      -0.942   0.393   2.455  0.00  0.00    -0.002 A 
ATOM      3  C4  UNL d   1      -2.041  -0.011   1.695  0.00  0.00     0.004 A 
ATOM      4  C5  UNL d   1      -1.892  -0.280   0.334  0.00  0.00    -0.004 A 
ATOM      5  C6  UNL d   1      -0.641  -0.153  -0.277  0.00  0.00    -0.075 A 
ATOM      6  C7  UNL d   1      -0.465  -0.436  -1.740  0.00  0.00     0.076 C 
ATOM      7  C8  UNL d   1       0.457   0.255   0.492  0.00  0.00     0.001 A 
ENDROOT
BRANCH   1   8
ATOM      8  C1  UNL d   1       1.506   0.966   2.677  0.00  0.00     0.053 C 
ATOM      9  C   UNL d   1       2.647  -0.035   2.591  0.00  0.00     0.018 C 
ENDBRANCH   1   8
TORSDOF 1
ENDMDL
