MODEL 1
REMARK minimizedAffinity -4.47030115
REMARK minimizedRMSD -1
REMARK  1 active torsions:
REMARK  status: ('A' for Active; 'I' for Inactive)
REMARK    1  A    between atoms: C1_2  and  C2_3 
ROOT
ATOM      1  C2  UNL d   1      -0.459   0.182  -0.550  0.00  0.00    -0.073 A 
ATOM      2  C3  UNL d   1       0.438  -0.708   0.052  0.00  0.00    -0.002 A 
ATOM      3  C4  UNL d   1       1.480  -1.267  -0.689  0.00  0.00     0.004 A 
ATOM      4  C5  UNL d   1       1.640  -0.938  -2.035  0.00  0.00    -0.004 A 
ATOM      5  C6  UNL d   1       0.761  -0.041  -2.651  0.00  0.00    -0.075 A 
ATOM      6  C7  UNL d   1       0.918   0.322  -4.099  0.00  0.00     0.076 C 
ATOM      7  C8  UNL d   1      -0.285   0.514  -1.901  0.00  0.00     0.001 A 
ENDROOT
BRANCH   1   8
ATOM      8  C1  UNL d   1      -1.582   0.793   0.248  0.00  0.00     0.053 C 
ATOM      9  C   UNL d   1      -1.612   0.278   1.678  0.00  0.00     0.018 C 
ENDBRANCH   1   8
TORSDOF 1
ENDMDL
