MODEL 1
REMARK minimizedAffinity -4.79077673
REMARK minimizedRMSD -1
REMARK  0 active torsions:
REMARK  status: ('A' for Active; 'I' for Inactive)
ROOT
ATOM      1  C1  BNZ d   1      -0.470  -0.543   0.407  0.00  0.00     0.000 A 
ATOM      2  C2  BNZ d   1      -0.459  -1.372   1.496  0.00  0.00     0.000 A 
ATOM      3  C3  BNZ d   1      -1.619  -1.916   1.974  0.00  0.00     0.000 A 
ATOM      4  C4  BNZ d   1      -2.791  -1.598   1.387  0.00  0.00     0.000 A 
ATOM      5  C5  BNZ d   1      -2.819  -0.756   0.293  0.00  0.00     0.000 A 
ATOM      6  C6  BNZ d   1      -1.646  -0.241  -0.208  0.00  0.00     0.000 A 
ENDROOT
TORSDOF 0
ENDMDL
