MODEL 1
REMARK minimizedAffinity -5.04439545
REMARK minimizedRMSD -1
REMARK  0 active torsions:
REMARK  status: ('A' for Active; 'I' for Inactive)
ROOT
ATOM      1  C1  BNZ d   1      -0.788  -1.051   0.891  0.00  0.00     0.000 A 
ATOM      2  C2  BNZ d   1      -1.191  -2.213   1.494  0.00  0.00     0.000 A 
ATOM      3  C3  BNZ d   1      -2.406  -2.766   1.204  0.00  0.00     0.000 A 
ATOM      4  C4  BNZ d   1      -3.233  -2.138   0.343  0.00  0.00     0.000 A 
ATOM      5  C5  BNZ d   1      -2.845  -0.961  -0.265  0.00  0.00     0.000 A 
ATOM      6  C6  BNZ d   1      -1.605  -0.427  -0.000  0.00  0.00     0.000 A 
ENDROOT
TORSDOF 0
ENDMDL
