MODEL 1
REMARK minimizedAffinity -4.64768219
REMARK minimizedRMSD -1
REMARK  0 active torsions:
REMARK  status: ('A' for Active; 'I' for Inactive)
ROOT
ATOM      1  C1  BNZ d   1      -2.938  -1.787   0.376  0.00  0.00     0.000 A 
ATOM      2  C2  BNZ d   1      -2.716  -0.696  -0.422  0.00  0.00     0.000 A 
ATOM      3  C3  BNZ d   1      -1.505  -0.063  -0.421  0.00  0.00     0.000 A 
ATOM      4  C4  BNZ d   1      -0.531  -0.496   0.406  0.00  0.00     0.000 A 
ATOM      5  C5  BNZ d   1      -0.742  -1.588   1.223  0.00  0.00     0.000 A 
ATOM      6  C6  BNZ d   1      -1.950  -2.247   1.191  0.00  0.00     0.000 A 
ENDROOT
TORSDOF 0
ENDMDL
