MODEL 1
REMARK minimizedAffinity -4.86254978
REMARK minimizedRMSD -1
REMARK  0 active torsions:
REMARK  status: ('A' for Active; 'I' for Inactive)
ROOT
ATOM      1  C1  BNZ d   1       0.319  -0.406   0.034  0.00  0.00     0.000 A 
ATOM      2  C2  BNZ d   1       0.101  -1.306   1.043  0.00  0.00     0.000 A 
ATOM      3  C3  BNZ d   1      -1.163  -1.733   1.340  0.00  0.00     0.000 A 
ATOM      4  C4  BNZ d   1      -2.210  -1.230   0.654  0.00  0.00     0.000 A 
ATOM      5  C5  BNZ d   1      -2.008  -0.315  -0.360  0.00  0.00     0.000 A 
ATOM      6  C6  BNZ d   1      -0.730   0.083  -0.681  0.00  0.00     0.000 A 
ENDROOT
TORSDOF 0
ENDMDL
