MODEL 1
REMARK minimizedAffinity -4.60760164
REMARK minimizedRMSD -1
REMARK  0 active torsions:
REMARK  status: ('A' for Active; 'I' for Inactive)
ROOT
ATOM      1  C1  BNZ d   1      -3.053  -1.485   1.239  0.00  0.00     0.000 A 
ATOM      2  C2  BNZ d   1      -3.258  -0.857   0.040  0.00  0.00     0.000 A 
ATOM      3  C3  BNZ d   1      -2.217  -0.289  -0.640  0.00  0.00     0.000 A 
ATOM      4  C4  BNZ d   1      -0.981  -0.315  -0.101  0.00  0.00     0.000 A 
ATOM      5  C5  BNZ d   1      -0.760  -0.936   1.112  0.00  0.00     0.000 A 
ATOM      6  C6  BNZ d   1      -1.803  -1.540   1.775  0.00  0.00     0.000 A 
ENDROOT
TORSDOF 0
ENDMDL
