MODEL 1
REMARK minimizedAffinity -1.15364814
REMARK minimizedRMSD -1
REMARK  0 active torsions:
REMARK  status: ('A' for Active; 'I' for Inactive)
ROOT
ATOM      1  C1  BNZ d   1       0.527  -0.906  -0.235  0.00  0.00     0.000 A 
ATOM      2  C2  BNZ d   1      -0.353  -1.265  -1.220  0.00  0.00     0.000 A 
ATOM      3  C3  BNZ d   1      -0.819  -0.342  -2.114  0.00  0.00     0.000 A 
ATOM      4  C4  BNZ d   1      -0.436   0.946  -1.997  0.00  0.00     0.000 A 
ATOM      5  C5  BNZ d   1       0.444   1.326  -1.003  0.00  0.00     0.000 A 
ATOM      6  C6  BNZ d   1       0.941   0.386  -0.129  0.00  0.00     0.000 A 
ENDROOT
TORSDOF 0
ENDMDL
