MODEL 1
REMARK minimizedAffinity 0.531991303
REMARK minimizedRMSD -1
REMARK  0 active torsions:
REMARK  status: ('A' for Active; 'I' for Inactive)
ROOT
ATOM      1  C1  BNZ d   1       3.003   3.074   0.290  0.00  0.00     0.000 A 
ATOM      2  C2  BNZ d   1       2.402   1.914  -0.121  0.00  0.00     0.000 A 
ATOM      3  C3  BNZ d   1       1.437   1.318   0.641  0.00  0.00     0.000 A 
ATOM      4  C4  BNZ d   1       1.102   1.860   1.829  0.00  0.00     0.000 A 
ATOM      5  C5  BNZ d   1       1.705   3.024   2.262  0.00  0.00     0.000 A 
ATOM      6  C6  BNZ d   1       2.649   3.643   1.474  0.00  0.00     0.000 A 
ENDROOT
TORSDOF 0
ENDMDL
