MODEL 1
REMARK minimizedAffinity -2.10174322
REMARK minimizedRMSD -1
REMARK  0 active torsions:
REMARK  status: ('A' for Active; 'I' for Inactive)
ROOT
ATOM      1  C1  BNZ d   1      -1.695  -1.040  -1.004  0.00  0.00     0.000 A 
ATOM      2  C2  BNZ d   1      -0.851  -1.453  -0.007  0.00  0.00     0.000 A 
ATOM      3  C3  BNZ d   1       0.281  -0.746   0.290  0.00  0.00     0.000 A 
ATOM      4  C4  BNZ d   1       0.588   0.349  -0.435  0.00  0.00     0.000 A 
ATOM      5  C5  BNZ d   1      -0.248   0.773  -1.448  0.00  0.00     0.000 A 
ATOM      6  C6  BNZ d   1      -1.406   0.081  -1.719  0.00  0.00     0.000 A 
ENDROOT
TORSDOF 0
ENDMDL
