MODEL 1
REMARK minimizedAffinity -3.67699909
REMARK minimizedRMSD -1
REMARK  0 active torsions:
REMARK  status: ('A' for Active; 'I' for Inactive)
ROOT
ATOM      1  C1  BNZ d   1      -1.866  -0.988  -0.546  0.00  0.00     0.000 A 
ATOM      2  C2  BNZ d   1      -0.861  -0.072  -0.384  0.00  0.00     0.000 A 
ATOM      3  C3  BNZ d   1       0.105  -0.254   0.566  0.00  0.00     0.000 A 
ATOM      4  C4  BNZ d   1       0.041  -1.329   1.379  0.00  0.00     0.000 A 
ATOM      5  C5  BNZ d   1      -0.972  -2.256   1.234  0.00  0.00     0.000 A 
ATOM      6  C6  BNZ d   1      -1.920  -2.089   0.251  0.00  0.00     0.000 A 
ENDROOT
TORSDOF 0
ENDMDL
