MODEL 1
REMARK minimizedAffinity -4.91749001
REMARK minimizedRMSD -1
REMARK  0 active torsions:
REMARK  status: ('A' for Active; 'I' for Inactive)
ROOT
ATOM      1  C1  BNZ d   1      -3.294  -1.056  -0.949  0.00  0.00     0.000 A 
ATOM      2  C2  BNZ d   1      -2.488  -0.032  -1.373  0.00  0.00     0.000 A 
ATOM      3  C3  BNZ d   1      -1.278   0.197  -0.781  0.00  0.00     0.000 A 
ATOM      4  C4  BNZ d   1      -0.893  -0.571   0.259  0.00  0.00     0.000 A 
ATOM      5  C5  BNZ d   1      -1.698  -1.601   0.704  0.00  0.00     0.000 A 
ATOM      6  C6  BNZ d   1      -2.898  -1.853   0.080  0.00  0.00     0.000 A 
ENDROOT
TORSDOF 0
ENDMDL
