MODEL 1
REMARK minimizedAffinity -4.15802765
REMARK minimizedRMSD -1
REMARK  0 active torsions:
REMARK  status: ('A' for Active; 'I' for Inactive)
ROOT
ATOM      1  C1  BNZ d   1      -1.615  -1.433  -1.048  0.00  0.00     0.000 A 
ATOM      2  C2  BNZ d   1      -2.899  -1.771  -1.383  0.00  0.00     0.000 A 
ATOM      3  C3  BNZ d   1      -3.849  -1.953  -0.417  0.00  0.00     0.000 A 
ATOM      4  C4  BNZ d   1      -3.506  -1.836   0.881  0.00  0.00     0.000 A 
ATOM      5  C5  BNZ d   1      -2.214  -1.505   1.236  0.00  0.00     0.000 A 
ATOM      6  C6  BNZ d   1      -1.269  -1.284   0.260  0.00  0.00     0.000 A 
ENDROOT
TORSDOF 0
ENDMDL
