MODEL 1
REMARK minimizedAffinity -1.76504743
REMARK minimizedRMSD -1
REMARK  0 active torsions:
REMARK  status: ('A' for Active; 'I' for Inactive)
ROOT
ATOM      1  C1  BNZ d   1       2.664   2.799   0.251  0.00  0.00     0.000 A 
ATOM      2  C2  BNZ d   1       2.349   1.594  -0.318  0.00  0.00     0.000 A 
ATOM      3  C3  BNZ d   1       2.061   0.507   0.460  0.00  0.00     0.000 A 
ATOM      4  C4  BNZ d   1       2.129   0.616   1.802  0.00  0.00     0.000 A 
ATOM      5  C5  BNZ d   1       2.454   1.822   2.390  0.00  0.00     0.000 A 
ATOM      6  C6  BNZ d   1       2.705   2.924   1.605  0.00  0.00     0.000 A 
ENDROOT
TORSDOF 0
ENDMDL
