MODEL 1
REMARK minimizedAffinity -2.20030522
REMARK minimizedRMSD -1
REMARK  0 active torsions:
REMARK  status: ('A' for Active; 'I' for Inactive)
ROOT
ATOM      1  C1  BNZ d   1       0.103   0.362  -0.139  0.00  0.00     0.000 A 
ATOM      2  C2  BNZ d   1      -1.087   0.220  -0.802  0.00  0.00     0.000 A 
ATOM      3  C3  BNZ d   1      -1.942  -0.802  -0.494  0.00  0.00     0.000 A 
ATOM      4  C4  BNZ d   1      -1.589  -1.701   0.446  0.00  0.00     0.000 A 
ATOM      5  C5  BNZ d   1      -0.389  -1.577   1.117  0.00  0.00     0.000 A 
ATOM      6  C6  BNZ d   1       0.452  -0.525   0.832  0.00  0.00     0.000 A 
ENDROOT
TORSDOF 0
ENDMDL
