MODEL 1
REMARK minimizedAffinity 9.13597775
REMARK minimizedRMSD -1
REMARK  0 active torsions:
REMARK  status: ('A' for Active; 'I' for Inactive)
ROOT
ATOM      1  C   UNL d   1       2.550  -2.295  -2.937  0.00  0.00     0.020 A 
ATOM      2  C1  UNL d   1       1.357  -2.407  -3.649  0.00  0.00     0.020 A 
ATOM      3  C2  UNL d   1       0.199  -1.788  -3.173  0.00  0.00     0.034 A 
ATOM      4  C3  UNL d   1       0.233  -1.053  -1.982  0.00  0.00     0.017 A 
ATOM      5  C4  UNL d   1       1.431  -0.940  -1.269  0.00  0.00     0.017 A 
ATOM      6  C5  UNL d   1       2.588  -1.563  -1.750  0.00  0.00     0.034 A 
ATOM      7 Cl   UNL d   1       1.551  -0.051   0.208  0.00  0.00    -0.070 Cl
ATOM      8 Cl1  UNL d   1      -1.237  -0.313  -1.453  0.00  0.00    -0.070 Cl
ENDROOT
TORSDOF 0
ENDMDL
