MODEL 1
REMARK minimizedAffinity 8.82585716
REMARK minimizedRMSD -1
REMARK  0 active torsions:
REMARK  status: ('A' for Active; 'I' for Inactive)
ROOT
ATOM      1  C   UNL d   1       1.784  -1.945   1.137  0.00  0.00     0.020 A 
ATOM      2  C1  UNL d   1       2.137  -1.810  -0.205  0.00  0.00     0.020 A 
ATOM      3  C2  UNL d   1       2.380  -0.542  -0.738  0.00  0.00     0.034 A 
ATOM      4  C3  UNL d   1       2.269   0.595   0.070  0.00  0.00     0.017 A 
ATOM      5  C4  UNL d   1       1.915   0.458   1.417  0.00  0.00     0.017 A 
ATOM      6  C5  UNL d   1       1.674  -0.814   1.946  0.00  0.00     0.034 A 
ATOM      7 Cl   UNL d   1       1.759   1.814   2.477  0.00  0.00    -0.070 Cl
ATOM      8 Cl1  UNL d   1       2.584   2.131  -0.656  0.00  0.00    -0.070 Cl
ENDROOT
TORSDOF 0
ENDMDL
