MODEL 1
REMARK minimizedAffinity 3.71456981
REMARK minimizedRMSD -1
REMARK  0 active torsions:
REMARK  status: ('A' for Active; 'I' for Inactive)
ROOT
ATOM      1  C   UNL d   1       2.725   3.269   5.406  0.00  0.00     0.020 A 
ATOM      2  C1  UNL d   1       2.581   3.246   4.019  0.00  0.00     0.020 A 
ATOM      3  C2  UNL d   1       3.367   4.081   3.221  0.00  0.00     0.034 A 
ATOM      4  C3  UNL d   1       4.300   4.942   3.810  0.00  0.00     0.017 A 
ATOM      5  C4  UNL d   1       4.444   4.965   5.202  0.00  0.00     0.017 A 
ATOM      6  C5  UNL d   1       3.655   4.127   5.996  0.00  0.00     0.034 A 
ATOM      7 Cl   UNL d   1       5.575   6.000   6.000  0.00  0.00    -0.070 Cl
ATOM      8 Cl1  UNL d   1       5.238   5.947   2.762  0.00  0.00    -0.070 Cl
ENDROOT
TORSDOF 0
ENDMDL
