MODEL 1
REMARK minimizedAffinity 6.21653414
REMARK minimizedRMSD -1
REMARK  0 active torsions:
REMARK  status: ('A' for Active; 'I' for Inactive)
ROOT
ATOM      1  C   UNL d   1       3.574   0.660  -0.143  0.00  0.00     0.020 A 
ATOM      2  C1  UNL d   1       4.480   0.526  -1.194  0.00  0.00     0.020 A 
ATOM      3  C2  UNL d   1       4.560  -0.677  -1.898  0.00  0.00     0.034 A 
ATOM      4  C3  UNL d   1       3.732  -1.751  -1.553  0.00  0.00     0.017 A 
ATOM      5  C4  UNL d   1       2.822  -1.616  -0.498  0.00  0.00     0.017 A 
ATOM      6  C5  UNL d   1       2.747  -0.409   0.204  0.00  0.00     0.034 A 
ATOM      7 Cl   UNL d   1       1.768  -2.897  -0.013  0.00  0.00    -0.070 Cl
ATOM      8 Cl1  UNL d   1       3.884  -3.210  -2.467  0.00  0.00    -0.070 Cl
ENDROOT
TORSDOF 0
ENDMDL
