MODEL 1
REMARK minimizedAffinity 1.4589566
REMARK minimizedRMSD -1
REMARK  0 active torsions:
REMARK  status: ('A' for Active; 'I' for Inactive)
ROOT
ATOM      1  C   UNL d   1       5.747   6.000   3.991  0.00  0.00     0.020 A 
ATOM      2  C1  UNL d   1       5.780   5.818   5.373  0.00  0.00     0.020 A 
ATOM      3  C2  UNL d   1       4.946   4.871   5.973  0.00  0.00     0.034 A 
ATOM      4  C3  UNL d   1       4.076   4.103   5.191  0.00  0.00     0.017 A 
ATOM      5  C4  UNL d   1       4.044   4.287   3.804  0.00  0.00     0.017 A 
ATOM      6  C5  UNL d   1       4.880   5.236   3.208  0.00  0.00     0.034 A 
ATOM      7 Cl   UNL d   1       2.996   3.377   2.773  0.00  0.00    -0.070 Cl
ATOM      8 Cl1  UNL d   1       3.074   2.951   5.999  0.00  0.00    -0.070 Cl
ENDROOT
TORSDOF 0
ENDMDL
