MODEL 1
REMARK minimizedAffinity 2.70525217
REMARK minimizedRMSD -1
REMARK  0 active torsions:
REMARK  status: ('A' for Active; 'I' for Inactive)
ROOT
ATOM      1  C   UNL d   1      -4.958   6.000   6.000  0.00  0.00     0.020 A 
ATOM      2  C1  UNL d   1      -5.998   5.107   5.745  0.00  0.00     0.020 A 
ATOM      3  C2  UNL d   1      -5.902   4.208   4.680  0.00  0.00     0.034 A 
ATOM      4  C3  UNL d   1      -4.764   4.202   3.866  0.00  0.00     0.017 A 
ATOM      5  C4  UNL d   1      -3.720   5.099   4.122  0.00  0.00     0.017 A 
ATOM      6  C5  UNL d   1      -3.822   5.996   5.190  0.00  0.00     0.034 A 
ATOM      7 Cl   UNL d   1      -2.284   5.150   3.162  0.00  0.00    -0.070 Cl
ATOM      8 Cl1  UNL d   1      -4.712   3.064   2.567  0.00  0.00    -0.070 Cl
ENDROOT
TORSDOF 0
ENDMDL
