MODEL 1
REMARK minimizedAffinity 11.4129353
REMARK minimizedRMSD -1
REMARK  0 active torsions:
REMARK  status: ('A' for Active; 'I' for Inactive)
ROOT
ATOM      1  C   UNL d   1      -4.895   5.921   5.979  0.00  0.00     0.020 A 
ATOM      2  C1  UNL d   1      -5.947   5.062   5.665  0.00  0.00     0.020 A 
ATOM      3  C2  UNL d   1      -5.890   4.282   4.508  0.00  0.00     0.034 A 
ATOM      4  C3  UNL d   1      -4.779   4.359   3.661  0.00  0.00     0.017 A 
ATOM      5  C4  UNL d   1      -3.723   5.221   3.977  0.00  0.00     0.017 A 
ATOM      6  C5  UNL d   1      -3.785   6.000   5.137  0.00  0.00     0.034 A 
ATOM      7 Cl   UNL d   1      -2.318   5.370   2.981  0.00  0.00    -0.070 Cl
ATOM      8 Cl1  UNL d   1      -4.775   3.365   2.248  0.00  0.00    -0.070 Cl
ENDROOT
TORSDOF 0
ENDMDL
