MODEL 1
REMARK minimizedAffinity 12.729804
REMARK minimizedRMSD -1
REMARK  0 active torsions:
REMARK  status: ('A' for Active; 'I' for Inactive)
ROOT
ATOM      1  C   UNL d   1       1.906   1.300  -0.905  0.00  0.00     0.020 A 
ATOM      2  C1  UNL d   1       2.300  -0.017  -1.134  0.00  0.00     0.020 A 
ATOM      3  C2  UNL d   1       2.746  -0.807  -0.072  0.00  0.00     0.034 A 
ATOM      4  C3  UNL d   1       2.799  -0.280   1.224  0.00  0.00     0.017 A 
ATOM      5  C4  UNL d   1       2.402   1.042   1.452  0.00  0.00     0.017 A 
ATOM      6  C5  UNL d   1       1.957   1.829   0.385  0.00  0.00     0.034 A 
ATOM      7 Cl   UNL d   1       2.439   1.763   3.023  0.00  0.00    -0.070 Cl
ATOM      8 Cl1  UNL d   1       3.360  -1.314   2.489  0.00  0.00    -0.070 Cl
ENDROOT
TORSDOF 0
ENDMDL
