MODEL 1
REMARK minimizedAffinity 7.11178541
REMARK minimizedRMSD -1
REMARK  0 active torsions:
REMARK  status: ('A' for Active; 'I' for Inactive)
ROOT
ATOM      1  O1  BZF d   1       1.569  -3.903   1.280  0.00  0.00    -0.204 OA
ATOM      2  C2  BZF d   1       2.476  -2.946   0.868  0.00  0.00     0.174 A 
ATOM      3  C3  BZF d   1       2.031  -1.707   1.162  0.00  0.00    -0.012 A 
ATOM      4  C3A BZF d   1       0.810  -1.907   1.882  0.00  0.00    -0.107 A 
ATOM      5  C4  BZF d   1      -0.091  -1.057   2.455  0.00  0.00     0.055 A 
ATOM      6  C5  BZF d   1      -1.217  -1.569   3.017  0.00  0.00    -0.016 A 
ATOM      7  C6  BZF d   1      -1.475  -2.924   3.020  0.00  0.00     0.022 A 
ATOM      8  C7  BZF d   1      -0.608  -3.807   2.468  0.00  0.00     0.029 A 
ATOM      9  C7A BZF d   1       0.546  -3.295   1.928  0.00  0.00     0.058 A 
ENDROOT
TORSDOF 0
ENDMDL
