MODEL 1
REMARK minimizedAffinity 3.77680016
REMARK minimizedRMSD -1
REMARK  0 active torsions:
REMARK  status: ('A' for Active; 'I' for Inactive)
ROOT
ATOM      1  O1  BZF d   1      -5.376   0.162  -3.689  0.00  0.00    -0.204 OA
ATOM      2  C2  BZF d   1      -5.352   0.529  -5.021  0.00  0.00     0.174 A 
ATOM      3  C3  BZF d   1      -4.347   1.395  -5.260  0.00  0.00    -0.012 A 
ATOM      4  C3A BZF d   1      -3.645   1.509  -4.018  0.00  0.00    -0.107 A 
ATOM      5  C4  BZF d   1      -2.542   2.211  -3.624  0.00  0.00     0.055 A 
ATOM      6  C5  BZF d   1      -2.157   2.161  -2.322  0.00  0.00    -0.016 A 
ATOM      7  C6  BZF d   1      -2.855   1.425  -1.387  0.00  0.00     0.022 A 
ATOM      8  C7  BZF d   1      -3.952   0.708  -1.731  0.00  0.00     0.029 A 
ATOM      9  C7A BZF d   1      -4.324   0.730  -3.053  0.00  0.00     0.058 A 
ENDROOT
TORSDOF 0
ENDMDL
