MODEL 1
REMARK minimizedAffinity 14.8983593
REMARK minimizedRMSD -1
REMARK  0 active torsions:
REMARK  status: ('A' for Active; 'I' for Inactive)
ROOT
ATOM      1  O1  BZF d   1       4.512  -1.688   2.414  0.00  0.00    -0.204 OA
ATOM      2  C2  BZF d   1       4.227  -1.569   3.760  0.00  0.00     0.174 A 
ATOM      3  C3  BZF d   1       2.899  -1.449   3.960  0.00  0.00    -0.012 A 
ATOM      4  C3A BZF d   1       2.310  -1.589   2.663  0.00  0.00    -0.107 A 
ATOM      5  C4  BZF d   1       1.021  -1.578   2.211  0.00  0.00     0.055 A 
ATOM      6  C5  BZF d   1       0.789  -1.669   0.875  0.00  0.00    -0.016 A 
ATOM      7  C6  BZF d   1       1.820  -1.765  -0.036  0.00  0.00     0.022 A 
ATOM      8  C7  BZF d   1       3.115  -1.785   0.365  0.00  0.00     0.029 A 
ATOM      9  C7A BZF d   1       3.351  -1.728   1.717  0.00  0.00     0.058 A 
ENDROOT
TORSDOF 0
ENDMDL
