MODEL 1
REMARK minimizedAffinity 3.59300756
REMARK minimizedRMSD -1
REMARK  0 active torsions:
REMARK  status: ('A' for Active; 'I' for Inactive)
ROOT
ATOM      1  O1  BZF d   1       2.485  -4.741   0.378  0.00  0.00    -0.204 OA
ATOM      2  C2  BZF d   1       2.828  -5.987  -0.109  0.00  0.00     0.174 A 
ATOM      3  C3  BZF d   1       4.108  -6.000  -0.532  0.00  0.00    -0.012 A 
ATOM      4  C3A BZF d   1       4.624  -4.705  -0.209  0.00  0.00    -0.107 A 
ATOM      5  C4  BZF d   1       5.845  -4.114  -0.367  0.00  0.00     0.055 A 
ATOM      6  C5  BZF d   1       6.000  -2.812  -0.012  0.00  0.00    -0.016 A 
ATOM      7  C6  BZF d   1       4.955  -2.069   0.498  0.00  0.00     0.022 A 
ATOM      8  C7  BZF d   1       3.727  -2.613   0.678  0.00  0.00     0.029 A 
ATOM      9  C7A BZF d   1       3.576  -3.938   0.351  0.00  0.00     0.058 A 
ENDROOT
TORSDOF 0
ENDMDL
