MODEL 1
REMARK minimizedAffinity 6.94779921
REMARK minimizedRMSD -1
REMARK  0 active torsions:
REMARK  status: ('A' for Active; 'I' for Inactive)
ROOT
ATOM      1  O1  BZF d   1       1.070  -5.012   0.238  0.00  0.00    -0.204 OA
ATOM      2  C2  BZF d   1       2.199  -5.807   0.289  0.00  0.00     0.174 A 
ATOM      3  C3  BZF d   1       3.294  -5.068   0.560  0.00  0.00    -0.012 A 
ATOM      4  C3A BZF d   1       2.806  -3.740   0.779  0.00  0.00    -0.107 A 
ATOM      5  C4  BZF d   1       3.411  -2.559   1.102  0.00  0.00     0.055 A 
ATOM      6  C5  BZF d   1       2.659  -1.429   1.169  0.00  0.00    -0.016 A 
ATOM      7  C6  BZF d   1       1.304  -1.443   0.914  0.00  0.00     0.022 A 
ATOM      8  C7  BZF d   1       0.658  -2.591   0.595  0.00  0.00     0.029 A 
ATOM      9  C7A BZF d   1       1.409  -3.740   0.559  0.00  0.00     0.058 A 
ENDROOT
TORSDOF 0
ENDMDL
