MODEL 1
REMARK minimizedAffinity 11.7149582
REMARK minimizedRMSD -1
REMARK  0 active torsions:
REMARK  status: ('A' for Active; 'I' for Inactive)
ROOT
ATOM      1  O1  BZF d   1       2.147  -0.383   3.205  0.00  0.00    -0.204 OA
ATOM      2  C2  BZF d   1       2.911  -1.064   4.133  0.00  0.00     0.174 A 
ATOM      3  C3  BZF d   1       2.985  -2.375   3.824  0.00  0.00    -0.012 A 
ATOM      4  C3A BZF d   1       2.295  -2.506   2.577  0.00  0.00    -0.107 A 
ATOM      5  C4  BZF d   1       2.042  -3.564   1.751  0.00  0.00     0.055 A 
ATOM      6  C5  BZF d   1       1.278  -3.369   0.644  0.00  0.00    -0.016 A 
ATOM      7  C6  BZF d   1       0.747  -2.134   0.336  0.00  0.00     0.022 A 
ATOM      8  C7  BZF d   1       0.976  -1.054   1.122  0.00  0.00     0.029 A 
ATOM      9  C7A BZF d   1       1.775  -1.240   2.224  0.00  0.00     0.058 A 
ENDROOT
TORSDOF 0
ENDMDL
