MODEL 1
REMARK minimizedAffinity 11.5424681
REMARK minimizedRMSD -1
REMARK  0 active torsions:
REMARK  status: ('A' for Active; 'I' for Inactive)
ROOT
ATOM      1  O1  BZF d   1       3.918   5.201   4.473  0.00  0.00    -0.204 OA
ATOM      2  C2  BZF d   1       3.322   6.000   5.430  0.00  0.00     0.174 A 
ATOM      3  C3  BZF d   1       1.981   6.000   5.286  0.00  0.00    -0.012 A 
ATOM      4  C3A BZF d   1       1.717   5.075   4.226  0.00  0.00    -0.107 A 
ATOM      5  C4  BZF d   1       0.570   4.633   3.631  0.00  0.00     0.055 A 
ATOM      6  C5  BZF d   1       0.661   3.783   2.574  0.00  0.00    -0.016 A 
ATOM      7  C6  BZF d   1       1.879   3.361   2.084  0.00  0.00     0.022 A 
ATOM      8  C7  BZF d   1       3.043   3.769   2.645  0.00  0.00     0.029 A 
ATOM      9  C7A BZF d   1       2.955   4.601   3.734  0.00  0.00     0.058 A 
ENDROOT
TORSDOF 0
ENDMDL
