MODEL 1
REMARK minimizedAffinity 15.7994404
REMARK minimizedRMSD -1
REMARK  0 active torsions:
REMARK  status: ('A' for Active; 'I' for Inactive)
ROOT
ATOM      1  O1  BZF d   1      -1.120   1.891  -2.321  0.00  0.00    -0.204 OA
ATOM      2  C2  BZF d   1      -1.879   2.806  -3.026  0.00  0.00     0.174 A 
ATOM      3  C3  BZF d   1      -3.102   2.305  -3.297  0.00  0.00    -0.012 A 
ATOM      4  C3A BZF d   1      -3.139   1.031  -2.646  0.00  0.00    -0.107 A 
ATOM      5  C4  BZF d   1      -4.094   0.061  -2.537  0.00  0.00     0.055 A 
ATOM      6  C5  BZF d   1      -3.788  -1.097  -1.894  0.00  0.00    -0.016 A 
ATOM      7  C6  BZF d   1      -2.538  -1.319  -1.354  0.00  0.00     0.022 A 
ATOM      8  C7  BZF d   1      -1.560  -0.384  -1.433  0.00  0.00     0.029 A 
ATOM      9  C7A BZF d   1      -1.876   0.800  -2.053  0.00  0.00     0.058 A 
ENDROOT
TORSDOF 0
ENDMDL
