MODEL 1
REMARK minimizedAffinity 7.00919724
REMARK minimizedRMSD -1
REMARK  0 active torsions:
REMARK  status: ('A' for Active; 'I' for Inactive)
ROOT
ATOM      1  O1  BZF d   1       4.671   5.892  -5.997  0.00  0.00    -0.204 OA
ATOM      2  C2  BZF d   1       5.583   4.870  -5.818  0.00  0.00     0.174 A 
ATOM      3  C3  BZF d   1       4.954   3.707  -5.554  0.00  0.00    -0.012 A 
ATOM      4  C3A BZF d   1       3.558   4.002  -5.661  0.00  0.00    -0.107 A 
ATOM      5  C4  BZF d   1       2.426   3.250  -5.525  0.00  0.00     0.055 A 
ATOM      6  C5  BZF d   1       1.214   3.858  -5.620  0.00  0.00    -0.016 A 
ATOM      7  C6  BZF d   1       1.097   5.214  -5.846  0.00  0.00     0.022 A 
ATOM      8  C7  BZF d   1       2.191   6.000  -5.993  0.00  0.00     0.029 A 
ATOM      9  C7A BZF d   1       3.417   5.383  -5.930  0.00  0.00     0.058 A 
ENDROOT
TORSDOF 0
ENDMDL
