MODEL 1
REMARK minimizedAffinity 12.0640631
REMARK minimizedRMSD -1
REMARK  0 active torsions:
REMARK  status: ('A' for Active; 'I' for Inactive)
ROOT
ATOM      1  O1  BZF d   1      -0.942   1.454  -2.078  0.00  0.00    -0.204 OA
ATOM      2  C2  BZF d   1      -1.476   2.476  -2.838  0.00  0.00     0.174 A 
ATOM      3  C3  BZF d   1      -2.788   2.265  -3.070  0.00  0.00    -0.012 A 
ATOM      4  C3A BZF d   1      -3.114   1.081  -2.336  0.00  0.00    -0.107 A 
ATOM      5  C4  BZF d   1      -4.269   0.375  -2.158  0.00  0.00     0.055 A 
ATOM      6  C5  BZF d   1      -4.234  -0.778  -1.440  0.00  0.00    -0.016 A 
ATOM      7  C6  BZF d   1      -3.062  -1.257  -0.892  0.00  0.00     0.022 A 
ATOM      8  C7  BZF d   1      -1.892  -0.589  -1.038  0.00  0.00     0.029 A 
ATOM      9  C7A BZF d   1      -1.930   0.594  -1.734  0.00  0.00     0.058 A 
ENDROOT
TORSDOF 0
ENDMDL
