MODEL 1
REMARK minimizedAffinity 11.5211487
REMARK minimizedRMSD -1
REMARK  0 active torsions:
REMARK  status: ('A' for Active; 'I' for Inactive)
ROOT
ATOM      1  O1  BZF d   1       3.678   5.991  -6.000  0.00  0.00    -0.204 OA
ATOM      2  C2  BZF d   1       4.632   5.037  -5.701  0.00  0.00     0.174 A 
ATOM      3  C3  BZF d   1       4.051   3.890  -5.294  0.00  0.00    -0.012 A 
ATOM      4  C3A BZF d   1       2.644   4.112  -5.430  0.00  0.00    -0.107 A 
ATOM      5  C4  BZF d   1       1.544   3.337  -5.198  0.00  0.00     0.055 A 
ATOM      6  C5  BZF d   1       0.308   3.878  -5.361  0.00  0.00    -0.016 A 
ATOM      7  C6  BZF d   1       0.135   5.190  -5.750  0.00  0.00     0.022 A 
ATOM      8  C7  BZF d   1       1.196   5.996  -5.997  0.00  0.00     0.029 A 
ATOM      9  C7A BZF d   1       2.446   5.443  -5.865  0.00  0.00     0.058 A 
ENDROOT
TORSDOF 0
ENDMDL
