MODEL 1
REMARK minimizedAffinity -0.763807952
REMARK minimizedRMSD -1
REMARK  0 active torsions:
REMARK  status: ('A' for Active; 'I' for Inactive)
ROOT
ATOM      1  C1  BNZ d   1      -1.239  -2.308   1.153  0.00  0.00     0.000 A 
ATOM      2  C2  BNZ d   1      -0.772  -1.026   1.268  0.00  0.00     0.000 A 
ATOM      3  C3  BNZ d   1      -0.267  -0.365   0.184  0.00  0.00     0.000 A 
ATOM      4  C4  BNZ d   1      -0.192  -1.000  -1.004  0.00  0.00     0.000 A 
ATOM      5  C5  BNZ d   1      -0.650  -2.296  -1.134  0.00  0.00     0.000 A 
ATOM      6  C6  BNZ d   1      -1.193  -2.944  -0.049  0.00  0.00     0.000 A 
ENDROOT
TORSDOF 0
ENDMDL
