MODEL 1
REMARK minimizedAffinity -2.07138419
REMARK minimizedRMSD -1
REMARK  0 active torsions:
REMARK  status: ('A' for Active; 'I' for Inactive)
ROOT
ATOM      1  C1  BNZ d   1       1.893   1.764  -0.091  0.00  0.00     0.000 A 
ATOM      2  C2  BNZ d   1       3.029   2.394   0.342  0.00  0.00     0.000 A 
ATOM      3  C3  BNZ d   1       2.959   3.438   1.222  0.00  0.00     0.000 A 
ATOM      4  C4  BNZ d   1       1.752   3.876   1.635  0.00  0.00     0.000 A 
ATOM      5  C5  BNZ d   1       0.597   3.258   1.200  0.00  0.00     0.000 A 
ATOM      6  C6  BNZ d   1       0.674   2.182   0.345  0.00  0.00     0.000 A 
ENDROOT
TORSDOF 0
ENDMDL
