MODEL 1
REMARK minimizedAffinity -0.81175983
REMARK minimizedRMSD -1
REMARK  0 active torsions:
REMARK  status: ('A' for Active; 'I' for Inactive)
ROOT
ATOM      1  C1  BNZ d   1       0.147   1.181   0.278  0.00  0.00     0.000 A 
ATOM      2  C2  BNZ d   1      -1.135   0.733   0.103  0.00  0.00     0.000 A 
ATOM      3  C3  BNZ d   1      -1.719  -0.094   1.021  0.00  0.00     0.000 A 
ATOM      4  C4  BNZ d   1      -1.008  -0.504   2.092  0.00  0.00     0.000 A 
ATOM      5  C5  BNZ d   1       0.289  -0.068   2.278  0.00  0.00     0.000 A 
ATOM      6  C6  BNZ d   1       0.860   0.796   1.372  0.00  0.00     0.000 A 
ENDROOT
TORSDOF 0
ENDMDL
