MODEL 1
REMARK minimizedAffinity -2.44974947
REMARK minimizedRMSD -1
REMARK  0 active torsions:
REMARK  status: ('A' for Active; 'I' for Inactive)
ROOT
ATOM      1  C1  BNZ d   1       1.908   0.851  -0.348  0.00  0.00     0.000 A 
ATOM      2  C2  BNZ d   1       2.923   1.739  -0.111  0.00  0.00     0.000 A 
ATOM      3  C3  BNZ d   1       2.721   2.840   0.674  0.00  0.00     0.000 A 
ATOM      4  C4  BNZ d   1       1.495   3.072   1.188  0.00  0.00     0.000 A 
ATOM      5  C5  BNZ d   1       0.460   2.190   0.950  0.00  0.00     0.000 A 
ATOM      6  C6  BNZ d   1       0.677   1.063   0.192  0.00  0.00     0.000 A 
ENDROOT
TORSDOF 0
ENDMDL
