MODEL 1
REMARK minimizedAffinity 3.83297324
REMARK minimizedRMSD -1
REMARK  0 active torsions:
REMARK  status: ('A' for Active; 'I' for Inactive)
ROOT
ATOM      1  C1  BNZ d   1       0.415   0.486   0.345  0.00  0.00     0.000 A 
ATOM      2  C2  BNZ d   1       0.067   1.523   1.168  0.00  0.00     0.000 A 
ATOM      3  C3  BNZ d   1       0.920   2.571   1.373  0.00  0.00     0.000 A 
ATOM      4  C4  BNZ d   1       2.135   2.561   0.787  0.00  0.00     0.000 A 
ATOM      5  C5  BNZ d   1       2.504   1.518  -0.039  0.00  0.00     0.000 A 
ATOM      6  C6  BNZ d   1       1.627   0.484  -0.273  0.00  0.00     0.000 A 
ENDROOT
TORSDOF 0
ENDMDL
