MODEL 1
REMARK minimizedAffinity -4.6981864
REMARK minimizedRMSD -1
REMARK  0 active torsions:
REMARK  status: ('A' for Active; 'I' for Inactive)
ROOT
ATOM      1  C1  BNZ d   1      -0.139  -0.372   0.018  0.00  0.00     0.000 A 
ATOM      2  C2  BNZ d   1       0.032  -1.130  -1.110  0.00  0.00     0.000 A 
ATOM      3  C3  BNZ d   1       0.046  -2.496  -1.040  0.00  0.00     0.000 A 
ATOM      4  C4  BNZ d   1      -0.071  -3.099   0.161  0.00  0.00     0.000 A 
ATOM      5  C5  BNZ d   1      -0.234  -2.348   1.308  0.00  0.00     0.000 A 
ATOM      6  C6  BNZ d   1      -0.287  -0.976   1.229  0.00  0.00     0.000 A 
ENDROOT
TORSDOF 0
ENDMDL
