MODEL 1
REMARK minimizedAffinity -1.39716649
REMARK minimizedRMSD -1
REMARK  0 active torsions:
REMARK  status: ('A' for Active; 'I' for Inactive)
ROOT
ATOM      1  C1  BNZ d   1      -0.796   1.033  -0.837  0.00  0.00     0.000 A 
ATOM      2  C2  BNZ d   1      -1.510   0.105  -0.127  0.00  0.00     0.000 A 
ATOM      3  C3  BNZ d   1      -1.032  -0.393   1.053  0.00  0.00     0.000 A 
ATOM      4  C4  BNZ d   1       0.176   0.005   1.500  0.00  0.00     0.000 A 
ATOM      5  C5  BNZ d   1       0.913   0.933   0.791  0.00  0.00     0.000 A 
ATOM      6  C6  BNZ d   1       0.411   1.462  -0.376  0.00  0.00     0.000 A 
ENDROOT
TORSDOF 0
ENDMDL
