MODEL 1
REMARK minimizedAffinity -2.70528126
REMARK minimizedRMSD -1
REMARK  0 active torsions:
REMARK  status: ('A' for Active; 'I' for Inactive)
ROOT
ATOM      1  C1  BNZ d   1      -1.013   0.978   0.232  0.00  0.00     0.000 A 
ATOM      2  C2  BNZ d   1      -1.314   0.653   1.528  0.00  0.00     0.000 A 
ATOM      3  C3  BNZ d   1      -0.813  -0.484   2.098  0.00  0.00     0.000 A 
ATOM      4  C4  BNZ d   1      -0.045  -1.312   1.362  0.00  0.00     0.000 A 
ATOM      5  C5  BNZ d   1       0.260  -1.003   0.051  0.00  0.00     0.000 A 
ATOM      6  C6  BNZ d   1      -0.215   0.162  -0.508  0.00  0.00     0.000 A 
ENDROOT
TORSDOF 0
ENDMDL
