MODEL 1
REMARK minimizedAffinity 4.1045928
REMARK minimizedRMSD -1
REMARK  0 active torsions:
REMARK  status: ('A' for Active; 'I' for Inactive)
ROOT
ATOM      1  C1  BNZ d   1      -1.333  -0.065   2.203  0.00  0.00     0.000 A 
ATOM      2  C2  BNZ d   1      -1.763  -1.336   2.476  0.00  0.00     0.000 A 
ATOM      3  C3  BNZ d   1      -1.855  -2.272   1.485  0.00  0.00     0.000 A 
ATOM      4  C4  BNZ d   1      -1.556  -1.925   0.216  0.00  0.00     0.000 A 
ATOM      5  C5  BNZ d   1      -1.130  -0.645  -0.077  0.00  0.00     0.000 A 
ATOM      6  C6  BNZ d   1      -1.001   0.283   0.930  0.00  0.00     0.000 A 
ENDROOT
TORSDOF 0
ENDMDL
