MODEL 1
REMARK minimizedAffinity -0.284408212
REMARK minimizedRMSD -1
REMARK  0 active torsions:
REMARK  status: ('A' for Active; 'I' for Inactive)
ROOT
ATOM      1  C1  BNZ d   1      -0.620  -1.882   0.557  0.00  0.00     0.000 A 
ATOM      2  C2  BNZ d   1       0.046  -1.358  -0.518  0.00  0.00     0.000 A 
ATOM      3  C3  BNZ d   1       0.201  -0.007  -0.654  0.00  0.00     0.000 A 
ATOM      4  C4  BNZ d   1      -0.343   0.819   0.263  0.00  0.00     0.000 A 
ATOM      5  C5  BNZ d   1      -1.026   0.306   1.348  0.00  0.00     0.000 A 
ATOM      6  C6  BNZ d   1      -1.147  -1.056   1.502  0.00  0.00     0.000 A 
ENDROOT
TORSDOF 0
ENDMDL
