MODEL 1
REMARK minimizedAffinity -4.51820087
REMARK minimizedRMSD -1
REMARK  0 active torsions:
REMARK  status: ('A' for Active; 'I' for Inactive)
ROOT
ATOM      1  C1  BNZ d   1       0.072  -1.997  -2.126  0.00  0.00     0.000 A 
ATOM      2  C2  BNZ d   1       0.286  -0.651  -1.994  0.00  0.00     0.000 A 
ATOM      3  C3  BNZ d   1       0.094  -0.026  -0.793  0.00  0.00     0.000 A 
ATOM      4  C4  BNZ d   1      -0.350  -0.740   0.261  0.00  0.00     0.000 A 
ATOM      5  C5  BNZ d   1      -0.580  -2.096   0.141  0.00  0.00     0.000 A 
ATOM      6  C6  BNZ d   1      -0.347  -2.729  -1.058  0.00  0.00     0.000 A 
ENDROOT
TORSDOF 0
ENDMDL
