MODEL 1
REMARK minimizedAffinity 0.314911336
REMARK minimizedRMSD -1
REMARK  1 active torsions:
REMARK  status: ('A' for Active; 'I' for Inactive)
REMARK    1  A    between atoms: C3_4  and  O_7 
ROOT
ATOM      1  C   UNL d   1       0.248   0.728   0.303  0.00  0.00    -0.033 A 
ATOM      2  C1  UNL d   1       0.034  -0.078  -0.817  0.00  0.00     0.039 A 
ATOM      3  C2  UNL d   1       0.305   0.414  -2.095  0.00  0.00    -0.080 A 
ATOM      4  C3  UNL d   1       0.790   1.710  -2.240  0.00  0.00     0.150 A 
ATOM      5  C4  UNL d   1       1.010   2.518  -1.129  0.00  0.00    -0.007 A 
ATOM      6  C5  UNL d   1       0.737   2.026   0.147  0.00  0.00     0.039 A 
ENDROOT
BRANCH   4   7
ATOM      7  O   UNL d   1       1.065   2.235  -3.468  0.00  0.00    -0.526 OA
ATOM      8  H5  UNL d   1       0.839   1.574  -4.143  0.00  0.00     0.418 HD
ENDBRANCH   4   7
TORSDOF 1
ENDMDL
