MODEL 1
REMARK minimizedAffinity -3.80253196
REMARK minimizedRMSD -1
REMARK  1 active torsions:
REMARK  status: ('A' for Active; 'I' for Inactive)
REMARK    1  A    between atoms: C3_4  and  O_7 
ROOT
ATOM      1  C   UNL d   1      -1.347  -1.916   2.535  0.00  0.00    -0.033 A 
ATOM      2  C1  UNL d   1      -1.889  -0.632   2.454  0.00  0.00     0.039 A 
ATOM      3  C2  UNL d   1      -1.320   0.316   1.601  0.00  0.00    -0.080 A 
ATOM      4  C3  UNL d   1      -0.211  -0.033   0.835  0.00  0.00     0.150 A 
ATOM      5  C4  UNL d   1       0.332  -1.311   0.908  0.00  0.00    -0.007 A 
ATOM      6  C5  UNL d   1      -0.237  -2.256   1.761  0.00  0.00     0.039 A 
ENDROOT
BRANCH   4   7
ATOM      7  O   UNL d   1       0.381   0.859  -0.009  0.00  0.00    -0.526 OA
ATOM      8  H5  UNL d   1      -0.083   1.709   0.067  0.00  0.00     0.418 HD
ENDBRANCH   4   7
TORSDOF 1
ENDMDL
