MODEL 1
REMARK minimizedAffinity -1.57662296
REMARK minimizedRMSD -1
REMARK  1 active torsions:
REMARK  status: ('A' for Active; 'I' for Inactive)
REMARK    1  A    between atoms: C3_4  and  O_7 
ROOT
ATOM      1  C   UNL d   1       1.973   0.111  -0.026  0.00  0.00    -0.033 A 
ATOM      2  C1  UNL d   1       1.087   1.114  -0.421  0.00  0.00     0.039 A 
ATOM      3  C2  UNL d   1      -0.278   0.987  -0.154  0.00  0.00    -0.080 A 
ATOM      4  C3  UNL d   1      -0.742  -0.146   0.507  0.00  0.00     0.150 A 
ATOM      5  C4  UNL d   1       0.136  -1.149   0.907  0.00  0.00    -0.007 A 
ATOM      6  C5  UNL d   1       1.498  -1.020   0.639  0.00  0.00     0.039 A 
ENDROOT
BRANCH   4   7
ATOM      7  O   UNL d   1      -2.066  -0.317   0.785  0.00  0.00    -0.526 OA
ATOM      8  H5  UNL d   1      -2.556   0.440   0.425  0.00  0.00     0.418 HD
ENDBRANCH   4   7
TORSDOF 1
ENDMDL
