MODEL 1
REMARK minimizedAffinity -4.92830992
REMARK minimizedRMSD -1
REMARK  1 active torsions:
REMARK  status: ('A' for Active; 'I' for Inactive)
REMARK    1  A    between atoms: C3_4  and  O_7 
ROOT
ATOM      1  C   UNL d   1      -0.370  -3.219  -0.120  0.00  0.00    -0.033 A 
ATOM      2  C1  UNL d   1       0.106  -2.453  -1.186  0.00  0.00     0.039 A 
ATOM      3  C2  UNL d   1       0.284  -1.077  -1.033  0.00  0.00    -0.080 A 
ATOM      4  C3  UNL d   1      -0.015  -0.480   0.189  0.00  0.00     0.150 A 
ATOM      5  C4  UNL d   1      -0.486  -1.238   1.256  0.00  0.00    -0.007 A 
ATOM      6  C5  UNL d   1      -0.665  -2.612   1.101  0.00  0.00     0.039 A 
ENDROOT
BRANCH   4   7
ATOM      7  O   UNL d   1       0.139   0.860   0.384  0.00  0.00    -0.526 OA
ATOM      8  H5  UNL d   1       0.443   1.259  -0.448  0.00  0.00     0.418 HD
ENDBRANCH   4   7
TORSDOF 1
ENDMDL
