MODEL 1
REMARK minimizedAffinity -4.00064468
REMARK minimizedRMSD -1
REMARK  1 active torsions:
REMARK  status: ('A' for Active; 'I' for Inactive)
REMARK    1  A    between atoms: C3_4  and  O_7 
ROOT
ATOM      1  C   UNL d   1      -0.573   1.540   0.590  0.00  0.00    -0.033 A 
ATOM      2  C1  UNL d   1       0.394   0.648   0.122  0.00  0.00     0.039 A 
ATOM      3  C2  UNL d   1       0.303  -0.710   0.436  0.00  0.00    -0.080 A 
ATOM      4  C3  UNL d   1      -0.757  -1.161   1.217  0.00  0.00     0.150 A 
ATOM      5  C4  UNL d   1      -1.725  -0.279   1.683  0.00  0.00    -0.007 A 
ATOM      6  C5  UNL d   1      -1.633   1.077   1.370  0.00  0.00     0.039 A 
ENDROOT
BRANCH   4   7
ATOM      7  O   UNL d   1      -0.884  -2.476   1.553  0.00  0.00    -0.526 OA
ATOM      8  H5  UNL d   1      -0.128  -2.963   1.185  0.00  0.00     0.418 HD
ENDBRANCH   4   7
TORSDOF 1
ENDMDL
