MODEL 1
REMARK minimizedAffinity -5.13085032
REMARK minimizedRMSD -1
REMARK  1 active torsions:
REMARK  status: ('A' for Active; 'I' for Inactive)
REMARK    1  A    between atoms: C3_4  and  O_7 
ROOT
ATOM      1  C   UNL d   1      -0.165  -0.329   0.550  0.00  0.00    -0.033 A 
ATOM      2  C1  UNL d   1       0.380  -1.403   1.257  0.00  0.00     0.039 A 
ATOM      3  C2  UNL d   1      -0.393  -2.537   1.514  0.00  0.00    -0.080 A 
ATOM      4  C3  UNL d   1      -1.708  -2.584   1.059  0.00  0.00     0.150 A 
ATOM      5  C4  UNL d   1      -2.256  -1.520   0.352  0.00  0.00    -0.007 A 
ATOM      6  C5  UNL d   1      -1.483  -0.388   0.097  0.00  0.00     0.039 A 
ENDROOT
BRANCH   4   7
ATOM      7  O   UNL d   1      -2.503  -3.667   1.290  0.00  0.00    -0.526 OA
ATOM      8  H5  UNL d   1      -2.000  -4.312   1.815  0.00  0.00     0.418 HD
ENDBRANCH   4   7
TORSDOF 1
ENDMDL
