MODEL 1
REMARK minimizedAffinity -3.58811545
REMARK minimizedRMSD -1
REMARK  1 active torsions:
REMARK  status: ('A' for Active; 'I' for Inactive)
REMARK    1  A    between atoms: C3_4  and  O_7 
ROOT
ATOM      1  C   UNL d   1      -2.055  -2.008   0.820  0.00  0.00    -0.033 A 
ATOM      2  C1  UNL d   1      -1.111  -2.232   1.823  0.00  0.00     0.039 A 
ATOM      3  C2  UNL d   1       0.116  -1.566   1.791  0.00  0.00    -0.080 A 
ATOM      4  C3  UNL d   1       0.385  -0.680   0.751  0.00  0.00     0.150 A 
ATOM      5  C4  UNL d   1      -0.553  -0.449  -0.250  0.00  0.00    -0.007 A 
ATOM      6  C5  UNL d   1      -1.777  -1.116  -0.216  0.00  0.00     0.039 A 
ENDROOT
BRANCH   4   7
ATOM      7  O   UNL d   1       1.570  -0.010   0.675  0.00  0.00    -0.526 OA
ATOM      8  H5  UNL d   1       2.131  -0.291   1.417  0.00  0.00     0.418 HD
ENDBRANCH   4   7
TORSDOF 1
ENDMDL
