MODEL 1
REMARK minimizedAffinity -4.90915442
REMARK minimizedRMSD -1
REMARK  1 active torsions:
REMARK  status: ('A' for Active; 'I' for Inactive)
REMARK    1  A    between atoms: C3_4  and  O_7 
ROOT
ATOM      1  C   UNL d   1      -0.354   0.660  -0.182  0.00  0.00    -0.033 A 
ATOM      2  C1  UNL d   1      -0.031  -0.328  -1.114  0.00  0.00     0.039 A 
ATOM      3  C2  UNL d   1      -0.446  -1.645  -0.910  0.00  0.00    -0.080 A 
ATOM      4  C3  UNL d   1      -1.182  -1.961   0.229  0.00  0.00     0.150 A 
ATOM      5  C4  UNL d   1      -1.511  -0.981   1.159  0.00  0.00    -0.007 A 
ATOM      6  C5  UNL d   1      -1.095   0.334   0.954  0.00  0.00     0.039 A 
ENDROOT
BRANCH   4   7
ATOM      7  O   UNL d   1      -1.605  -3.233   0.474  0.00  0.00    -0.526 OA
ATOM      8  H5  UNL d   1      -1.280  -3.808  -0.239  0.00  0.00     0.418 HD
ENDBRANCH   4   7
TORSDOF 1
ENDMDL
