MODEL 1
REMARK minimizedAffinity -4.09574127
REMARK minimizedRMSD -1
REMARK  1 active torsions:
REMARK  status: ('A' for Active; 'I' for Inactive)
REMARK    1  A    between atoms: C3_4  and  O_7 
ROOT
ATOM      1  C   UNL d   1      -0.306  -2.762   1.509  0.00  0.00    -0.033 A 
ATOM      2  C1  UNL d   1       0.805  -2.743   0.663  0.00  0.00     0.039 A 
ATOM      3  C2  UNL d   1       1.081  -1.608  -0.103  0.00  0.00    -0.080 A 
ATOM      4  C3  UNL d   1       0.241  -0.502  -0.013  0.00  0.00     0.150 A 
ATOM      5  C4  UNL d   1      -0.865  -0.513   0.831  0.00  0.00    -0.007 A 
ATOM      6  C5  UNL d   1      -1.140  -1.647   1.594  0.00  0.00     0.039 A 
ENDROOT
BRANCH   4   7
ATOM      7  O   UNL d   1       0.468   0.626  -0.744  0.00  0.00    -0.526 OA
ATOM      8  H5  UNL d   1       1.250   0.479  -1.303  0.00  0.00     0.418 HD
ENDBRANCH   4   7
TORSDOF 1
ENDMDL
