MODEL 1
REMARK minimizedAffinity -5.11833811
REMARK minimizedRMSD -1
REMARK  1 active torsions:
REMARK  status: ('A' for Active; 'I' for Inactive)
REMARK    1  A    between atoms: C3_4  and  O_7 
ROOT
ATOM      1  C   UNL d   1       0.794  -0.452   0.072  0.00  0.00    -0.033 A 
ATOM      2  C1  UNL d   1      -0.578  -0.324  -0.151  0.00  0.00     0.039 A 
ATOM      3  C2  UNL d   1      -1.458  -1.300   0.323  0.00  0.00    -0.080 A 
ATOM      4  C3  UNL d   1      -0.953  -2.396   1.018  0.00  0.00     0.150 A 
ATOM      5  C4  UNL d   1       0.412  -2.527   1.246  0.00  0.00    -0.007 A 
ATOM      6  C5  UNL d   1       1.289  -1.552   0.772  0.00  0.00     0.039 A 
ENDROOT
BRANCH   4   7
ATOM      7  O   UNL d   1      -1.772  -3.376   1.495  0.00  0.00    -0.526 OA
ATOM      8  H5  UNL d   1      -2.685  -3.166   1.237  0.00  0.00     0.418 HD
ENDBRANCH   4   7
TORSDOF 1
ENDMDL
