MODEL 1
REMARK minimizedAffinity -4.85026169
REMARK minimizedRMSD -1
REMARK  1 active torsions:
REMARK  status: ('A' for Active; 'I' for Inactive)
REMARK    1  A    between atoms: C3_4  and  O_7 
ROOT
ATOM      1  C   UNL d   1       1.316   1.729  -0.822  0.00  0.00    -0.033 A 
ATOM      2  C1  UNL d   1       0.349   0.736  -0.992  0.00  0.00     0.039 A 
ATOM      3  C2  UNL d   1      -0.107   0.416  -2.272  0.00  0.00    -0.080 A 
ATOM      4  C3  UNL d   1       0.412   1.094  -3.372  0.00  0.00     0.150 A 
ATOM      5  C4  UNL d   1       1.378   2.081  -3.210  0.00  0.00    -0.007 A 
ATOM      6  C5  UNL d   1       1.832   2.400  -1.931  0.00  0.00     0.039 A 
ENDROOT
BRANCH   4   7
ATOM      7  O   UNL d   1      -0.006   0.819  -4.640  0.00  0.00    -0.526 OA
ATOM      8  H5  UNL d   1      -0.696   0.136  -4.596  0.00  0.00     0.418 HD
ENDBRANCH   4   7
TORSDOF 1
ENDMDL
