MODEL 1
REMARK minimizedAffinity -1.93579912
REMARK minimizedRMSD -1
REMARK  1 active torsions:
REMARK  status: ('A' for Active; 'I' for Inactive)
REMARK    1  A    between atoms: C3_4  and  O_7 
ROOT
ATOM      1  C   UNL d   1       0.329  -2.403   1.324  0.00  0.00    -0.033 A 
ATOM      2  C1  UNL d   1       0.860  -2.603   0.048  0.00  0.00     0.039 A 
ATOM      3  C2  UNL d   1       0.791  -1.586  -0.906  0.00  0.00    -0.080 A 
ATOM      4  C3  UNL d   1       0.190  -0.376  -0.573  0.00  0.00     0.150 A 
ATOM      5  C4  UNL d   1      -0.338  -0.168   0.698  0.00  0.00    -0.007 A 
ATOM      6  C5  UNL d   1      -0.268  -1.185   1.649  0.00  0.00     0.039 A 
ENDROOT
BRANCH   4   7
ATOM      7  O   UNL d   1       0.094   0.644  -1.472  0.00  0.00    -0.526 OA
ATOM      8  H5  UNL d   1       0.475   0.347  -2.316  0.00  0.00     0.418 HD
ENDBRANCH   4   7
TORSDOF 1
ENDMDL
