MODEL 1
REMARK minimizedAffinity -4.0686264
REMARK minimizedRMSD -1
REMARK  1 active torsions:
REMARK  status: ('A' for Active; 'I' for Inactive)
REMARK    1  A    between atoms: C3_4  and  O_7 
ROOT
ATOM      1  C   UNL d   1       0.289   0.583  -0.457  0.00  0.00    -0.033 A 
ATOM      2  C1  UNL d   1       1.330  -0.344  -0.539  0.00  0.00     0.039 A 
ATOM      3  C2  UNL d   1       1.209  -1.589   0.081  0.00  0.00    -0.080 A 
ATOM      4  C3  UNL d   1       0.044  -1.894   0.779  0.00  0.00     0.150 A 
ATOM      5  C4  UNL d   1      -0.999  -0.977   0.862  0.00  0.00    -0.007 A 
ATOM      6  C5  UNL d   1      -0.876   0.265   0.242  0.00  0.00     0.039 A 
ENDROOT
BRANCH   4   7
ATOM      7  O   UNL d   1      -0.118  -3.095   1.405  0.00  0.00    -0.526 OA
ATOM      8  H5  UNL d   1       0.695  -3.615   1.288  0.00  0.00     0.418 HD
ENDBRANCH   4   7
TORSDOF 1
ENDMDL
