MODEL 1
REMARK minimizedAffinity -3.16965842
REMARK minimizedRMSD -1
REMARK  1 active torsions:
REMARK  status: ('A' for Active; 'I' for Inactive)
REMARK    1  A    between atoms: C3_4  and  O_7 
ROOT
ATOM      1  C   UNL d   1       1.463   1.342  -2.424  0.00  0.00    -0.033 A 
ATOM      2  C1  UNL d   1       1.484   1.897  -1.143  0.00  0.00     0.039 A 
ATOM      3  C2  UNL d   1       1.062   1.143  -0.047  0.00  0.00    -0.080 A 
ATOM      4  C3  UNL d   1       0.624  -0.164  -0.244  0.00  0.00     0.150 A 
ATOM      5  C4  UNL d   1       0.604  -0.725  -1.517  0.00  0.00    -0.007 A 
ATOM      6  C5  UNL d   1       1.025   0.030  -2.611  0.00  0.00     0.039 A 
ENDROOT
BRANCH   4   7
ATOM      7  O   UNL d   1       0.198  -0.937   0.795  0.00  0.00    -0.526 OA
ATOM      8  H5  UNL d   1       0.240  -0.409   1.610  0.00  0.00     0.418 HD
ENDBRANCH   4   7
TORSDOF 1
ENDMDL
