MODEL 1
REMARK minimizedAffinity 6.56796455
REMARK minimizedRMSD -1
REMARK  0 active torsions:
REMARK  status: ('A' for Active; 'I' for Inactive)
ROOT
ATOM      1  C1  DEN d   1       4.673   1.391  -0.621  0.00  0.00     0.130 A 
ATOM      2  C2  DEN d   1       4.546   1.818  -2.012  0.00  0.00    -0.031 A 
ATOM      3  C3  DEN d   1       3.175   2.329  -2.210  0.00  0.00     0.027 A 
ATOM      4  C4  DEN d   1       1.247   2.504  -0.506  0.00  0.00     0.027 A 
ATOM      5  C5  DEN d   1       0.874   2.257   0.797  0.00  0.00    -0.003 A 
ATOM      6  C6  DEN d   1       1.723   1.676   1.701  0.00  0.00     0.001 A 
ATOM      7  C7  DEN d   1       3.004   1.366   1.328  0.00  0.00     0.017 A 
ATOM      8  C8  DEN d   1       3.385   1.606   0.014  0.00  0.00    -0.094 A 
ATOM      9  C9  DEN d   1       2.516   2.204  -0.882  0.00  0.00    -0.072 A 
ENDROOT
TORSDOF 0
ENDMDL
