MODEL 1
REMARK minimizedAffinity 13.3406897
REMARK minimizedRMSD -1
REMARK  0 active torsions:
REMARK  status: ('A' for Active; 'I' for Inactive)
ROOT
ATOM      1  C1  DEN d   1       2.725   1.914   3.803  0.00  0.00     0.130 A 
ATOM      2  C2  DEN d   1       4.151   2.146   3.591  0.00  0.00    -0.031 A 
ATOM      3  C3  DEN d   1       4.351   2.491   2.169  0.00  0.00     0.027 A 
ATOM      4  C4  DEN d   1       2.600   2.691   0.286  0.00  0.00     0.027 A 
ATOM      5  C5  DEN d   1       1.262   2.575  -0.020  0.00  0.00    -0.003 A 
ATOM      6  C6  DEN d   1       0.330   2.200   0.912  0.00  0.00     0.001 A 
ATOM      7  C7  DEN d   1       0.718   1.972   2.206  0.00  0.00     0.017 A 
ATOM      8  C8  DEN d   1       2.066   2.080   2.520  0.00  0.00    -0.094 A 
ATOM      9  C9  DEN d   1       2.991   2.472   1.567  0.00  0.00    -0.072 A 
ENDROOT
TORSDOF 0
ENDMDL
