MODEL 1
REMARK minimizedAffinity 12.8693914
REMARK minimizedRMSD -1
REMARK  0 active torsions:
REMARK  status: ('A' for Active; 'I' for Inactive)
ROOT
ATOM      1  C1  DEN d   1       5.079  -4.711  -3.785  0.00  0.00     0.130 A 
ATOM      2  C2  DEN d   1       5.942  -5.128  -4.887  0.00  0.00    -0.031 A 
ATOM      3  C3  DEN d   1       5.087  -5.699  -5.946  0.00  0.00     0.027 A 
ATOM      4  C4  DEN d   1       2.522  -5.972  -5.989  0.00  0.00     0.027 A 
ATOM      5  C5  DEN d   1       1.360  -5.775  -5.277  0.00  0.00    -0.003 A 
ATOM      6  C6  DEN d   1       1.359  -5.245  -4.014  0.00  0.00     0.001 A 
ATOM      7  C7  DEN d   1       2.540  -4.852  -3.442  0.00  0.00     0.017 A 
ATOM      8  C8  DEN d   1       3.717  -5.054  -4.151  0.00  0.00    -0.094 A 
ATOM      9  C9  DEN d   1       3.696  -5.580  -5.432  0.00  0.00    -0.072 A 
ENDROOT
TORSDOF 0
ENDMDL
