MODEL 1
REMARK minimizedAffinity 10.2594509
REMARK minimizedRMSD -1
REMARK  0 active torsions:
REMARK  status: ('A' for Active; 'I' for Inactive)
ROOT
ATOM      1  C1  DEN d   1       6.000   2.677   0.084  0.00  0.00     0.130 A 
ATOM      2  C2  DEN d   1       4.950   2.712  -0.931  0.00  0.00    -0.031 A 
ATOM      3  C3  DEN d   1       3.668   2.389  -0.273  0.00  0.00     0.027 A 
ATOM      4  C4  DEN d   1       3.209   1.845   2.206  0.00  0.00     0.027 A 
ATOM      5  C5  DEN d   1       3.787   1.683   3.446  0.00  0.00    -0.003 A 
ATOM      6  C6  DEN d   1       5.137   1.806   3.643  0.00  0.00     0.001 A 
ATOM      7  C7  DEN d   1       5.949   2.145   2.593  0.00  0.00     0.017 A 
ATOM      8  C8  DEN d   1       5.374   2.303   1.339  0.00  0.00    -0.094 A 
ATOM      9  C9  DEN d   1       4.006   2.186   1.162  0.00  0.00    -0.072 A 
ENDROOT
TORSDOF 0
ENDMDL
