MODEL 1
REMARK minimizedAffinity 5.70534801
REMARK minimizedRMSD -1
REMARK  0 active torsions:
REMARK  status: ('A' for Active; 'I' for Inactive)
ROOT
ATOM      1  C1  DEN d   1       1.889   1.793   2.867  0.00  0.00     0.130 A 
ATOM      2  C2  DEN d   1       2.980   2.080   1.940  0.00  0.00    -0.031 A 
ATOM      3  C3  DEN d   1       2.390   2.582   0.683  0.00  0.00     0.027 A 
ATOM      4  C4  DEN d   1      -0.093   2.946   0.087  0.00  0.00     0.027 A 
ATOM      5  C5  DEN d   1      -1.386   2.833   0.547  0.00  0.00    -0.003 A 
ATOM      6  C6  DEN d   1      -1.678   2.337   1.791  0.00  0.00     0.001 A 
ATOM      7  C7  DEN d   1      -0.660   1.978   2.634  0.00  0.00     0.017 A 
ATOM      8  C8  DEN d   1       0.646   2.083   2.174  0.00  0.00    -0.094 A 
ATOM      9  C9  DEN d   1       0.921   2.598   0.919  0.00  0.00    -0.072 A 
ENDROOT
TORSDOF 0
ENDMDL
