MODEL 1
REMARK minimizedAffinity 10.8994083
REMARK minimizedRMSD -1
REMARK  0 active torsions:
REMARK  status: ('A' for Active; 'I' for Inactive)
ROOT
ATOM      1  C1  DEN d   1       0.008   3.149  -0.206  0.00  0.00     0.130 A 
ATOM      2  C2  DEN d   1      -1.322   3.299   0.377  0.00  0.00    -0.031 A 
ATOM      3  C3  DEN d   1      -1.233   2.961   1.812  0.00  0.00     0.027 A 
ATOM      4  C4  DEN d   1       0.827   2.229   3.181  0.00  0.00     0.027 A 
ATOM      5  C5  DEN d   1       2.174   1.948   3.119  0.00  0.00    -0.003 A 
ATOM      6  C6  DEN d   1       2.881   2.015   1.948  0.00  0.00     0.001 A 
ATOM      7  C7  DEN d   1       2.252   2.414   0.798  0.00  0.00     0.017 A 
ATOM      8  C8  DEN d   1       0.893   2.692   0.851  0.00  0.00    -0.094 A 
ATOM      9  C9  DEN d   1       0.199   2.630   2.047  0.00  0.00    -0.072 A 
ENDROOT
TORSDOF 0
ENDMDL
