MODEL 1
REMARK minimizedAffinity 5.86206818
REMARK minimizedRMSD -1
REMARK  0 active torsions:
REMARK  status: ('A' for Active; 'I' for Inactive)
ROOT
ATOM      1  C1  DEN d   1       0.683   2.012   0.141  0.00  0.00     0.130 A 
ATOM      2  C2  DEN d   1      -0.614   2.422   0.672  0.00  0.00    -0.031 A 
ATOM      3  C3  DEN d   1      -0.496   2.520   2.141  0.00  0.00     0.027 A 
ATOM      4  C4  DEN d   1       1.561   2.085   3.636  0.00  0.00     0.027 A 
ATOM      5  C5  DEN d   1       2.884   1.704   3.641  0.00  0.00    -0.003 A 
ATOM      6  C6  DEN d   1       3.553   1.370   2.493  0.00  0.00     0.001 A 
ATOM      7  C7  DEN d   1       2.911   1.453   1.285  0.00  0.00     0.017 A 
ATOM      8  C8  DEN d   1       1.574   1.828   1.273  0.00  0.00    -0.094 A 
ATOM      9  C9  DEN d   1       0.920   2.174   2.443  0.00  0.00    -0.072 A 
ENDROOT
TORSDOF 0
ENDMDL
