MODEL 1
REMARK minimizedAffinity 11.3791456
REMARK minimizedRMSD -1
REMARK  0 active torsions:
REMARK  status: ('A' for Active; 'I' for Inactive)
ROOT
ATOM      1  C1  DEN d   1       2.551   0.725   1.260  0.00  0.00     0.130 A 
ATOM      2  C2  DEN d   1       3.026   2.063   0.920  0.00  0.00    -0.031 A 
ATOM      3  C3  DEN d   1       1.848   2.926   0.703  0.00  0.00     0.027 A 
ATOM      4  C4  DEN d   1      -0.655   2.323   0.865  0.00  0.00     0.027 A 
ATOM      5  C5  DEN d   1      -1.552   1.308   1.113  0.00  0.00    -0.003 A 
ATOM      6  C6  DEN d   1      -1.147   0.029   1.392  0.00  0.00     0.001 A 
ATOM      7  C7  DEN d   1       0.190  -0.257   1.474  0.00  0.00     0.017 A 
ATOM      8  C8  DEN d   1       1.100   0.760   1.218  0.00  0.00    -0.094 A 
ATOM      9  C9  DEN d   1       0.671   2.049   0.950  0.00  0.00    -0.072 A 
ENDROOT
TORSDOF 0
ENDMDL
