MODEL 1
REMARK minimizedAffinity 3.95520425
REMARK minimizedRMSD -1
REMARK  0 active torsions:
REMARK  status: ('A' for Active; 'I' for Inactive)
ROOT
ATOM      1  C1  DEN d   1       2.406   1.400   1.572  0.00  0.00     0.130 A 
ATOM      2  C2  DEN d   1       1.338   2.292   1.130  0.00  0.00    -0.031 A 
ATOM      3  C3  DEN d   1       1.961   3.521   0.598  0.00  0.00     0.027 A 
ATOM      4  C4  DEN d   1       4.462   4.123   0.413  0.00  0.00     0.027 A 
ATOM      5  C5  DEN d   1       5.744   3.687   0.669  0.00  0.00    -0.003 A 
ATOM      6  C6  DEN d   1       5.999   2.483   1.270  0.00  0.00     0.001 A 
ATOM      7  C7  DEN d   1       4.959   1.652   1.594  0.00  0.00     0.017 A 
ATOM      8  C8  DEN d   1       3.664   2.088   1.346  0.00  0.00    -0.094 A 
ATOM      9  C9  DEN d   1       3.427   3.303   0.727  0.00  0.00    -0.072 A 
ENDROOT
TORSDOF 0
ENDMDL
