MODEL 1
REMARK minimizedAffinity 13.5076647
REMARK minimizedRMSD -1
REMARK  0 active torsions:
REMARK  status: ('A' for Active; 'I' for Inactive)
ROOT
ATOM      1  C1  DEN d   1       2.842   1.842   1.214  0.00  0.00     0.130 A 
ATOM      2  C2  DEN d   1       1.585   1.098   1.200  0.00  0.00    -0.031 A 
ATOM      3  C3  DEN d   1       1.325   0.616   2.572  0.00  0.00     0.027 A 
ATOM      4  C4  DEN d   1       2.735   0.953   4.705  0.00  0.00     0.027 A 
ATOM      5  C5  DEN d   1       3.891   1.506   5.211  0.00  0.00    -0.003 A 
ATOM      6  C6  DEN d   1       4.787   2.176   4.420  0.00  0.00     0.001 A 
ATOM      7  C7  DEN d   1       4.520   2.348   3.088  0.00  0.00     0.017 A 
ATOM      8  C8  DEN d   1       3.361   1.786   2.569  0.00  0.00    -0.094 A 
ATOM      9  C9  DEN d   1       2.461   1.124   3.387  0.00  0.00    -0.072 A 
ENDROOT
TORSDOF 0
ENDMDL
