MODEL 1
REMARK minimizedAffinity 1.46178365
REMARK minimizedRMSD -1
REMARK  0 active torsions:
REMARK  status: ('A' for Active; 'I' for Inactive)
ROOT
ATOM      1  C1  DEN d   1       4.647   2.015   5.206  0.00  0.00     0.130 A 
ATOM      2  C2  DEN d   1       4.125   1.548   3.924  0.00  0.00    -0.031 A 
ATOM      3  C3  DEN d   1       4.123   2.690   2.988  0.00  0.00     0.027 A 
ATOM      4  C4  DEN d   1       4.878   5.123   3.395  0.00  0.00     0.027 A 
ATOM      5  C5  DEN d   1       5.384   6.000   4.329  0.00  0.00    -0.003 A 
ATOM      6  C6  DEN d   1       5.646   5.622   5.619  0.00  0.00     0.001 A 
ATOM      7  C7  DEN d   1       5.445   4.321   6.000  0.00  0.00     0.017 A 
ATOM      8  C8  DEN d   1       4.928   3.433   5.066  0.00  0.00    -0.094 A 
ATOM      9  C9  DEN d   1       4.682   3.831   3.763  0.00  0.00    -0.072 A 
ENDROOT
TORSDOF 0
ENDMDL
