MODEL 1
REMARK minimizedAffinity 9.03679943
REMARK minimizedRMSD -1
REMARK  0 active torsions:
REMARK  status: ('A' for Active; 'I' for Inactive)
ROOT
ATOM      1  C1  DEN d   1       5.169   1.597   2.840  0.00  0.00     0.130 A 
ATOM      2  C2  DEN d   1       4.570   1.942   4.127  0.00  0.00    -0.031 A 
ATOM      3  C3  DEN d   1       3.102   1.913   3.970  0.00  0.00     0.027 A 
ATOM      4  C4  DEN d   1       1.705   1.364   1.873  0.00  0.00     0.027 A 
ATOM      5  C5  DEN d   1       1.768   1.022   0.540  0.00  0.00    -0.003 A 
ATOM      6  C6  DEN d   1       2.959   0.882  -0.123  0.00  0.00     0.001 A 
ATOM      7  C7  DEN d   1       4.137   1.041   0.558  0.00  0.00     0.017 A 
ATOM      8  C8  DEN d   1       4.082   1.393   1.900  0.00  0.00    -0.094 A 
ATOM      9  C9  DEN d   1       2.868   1.518   2.555  0.00  0.00    -0.072 A 
ENDROOT
TORSDOF 0
ENDMDL
