MODEL 1
REMARK minimizedAffinity -3.1817143
REMARK minimizedRMSD -1
REMARK  0 active torsions:
REMARK  status: ('A' for Active; 'I' for Inactive)
ROOT
ATOM      1  C1  DEN d   1       0.129   1.492  -3.713  0.00  0.00     0.130 A 
ATOM      2  C2  DEN d   1      -0.728   1.483  -4.895  0.00  0.00    -0.031 A 
ATOM      3  C3  DEN d   1       0.011   2.127  -6.000  0.00  0.00     0.027 A 
ATOM      4  C4  DEN d   1       2.389   3.128  -5.994  0.00  0.00     0.027 A 
ATOM      5  C5  DEN d   1       3.499   3.379  -5.219  0.00  0.00    -0.003 A 
ATOM      6  C6  DEN d   1       3.551   3.052  -3.890  0.00  0.00     0.001 A 
ATOM      7  C7  DEN d   1       2.488   2.414  -3.306  0.00  0.00     0.017 A 
ATOM      8  C8  DEN d   1       1.362   2.164  -4.079  0.00  0.00    -0.094 A 
ATOM      9  C9  DEN d   1       1.334   2.492  -5.424  0.00  0.00    -0.072 A 
ENDROOT
TORSDOF 0
ENDMDL
