MODEL 1
REMARK minimizedAffinity 7.97910357
REMARK minimizedRMSD -1
REMARK  0 active torsions:
REMARK  status: ('A' for Active; 'I' for Inactive)
ROOT
ATOM      1  C1  DEN d   1       3.549   5.873   0.274  0.00  0.00     0.130 A 
ATOM      2  C2  DEN d   1       4.769   5.836  -0.528  0.00  0.00    -0.031 A 
ATOM      3  C3  DEN d   1       5.921   5.818   0.395  0.00  0.00     0.027 A 
ATOM      4  C4  DEN d   1       5.935   5.838   2.974  0.00  0.00     0.027 A 
ATOM      5  C5  DEN d   1       5.143   5.878   4.101  0.00  0.00    -0.003 A 
ATOM      6  C6  DEN d   1       3.777   5.953   4.031  0.00  0.00     0.001 A 
ATOM      7  C7  DEN d   1       3.159   5.945   2.809  0.00  0.00     0.017 A 
ATOM      8  C8  DEN d   1       3.951   5.912   1.669  0.00  0.00    -0.094 A 
ATOM      9  C9  DEN d   1       5.329   5.823   1.760  0.00  0.00    -0.072 A 
ENDROOT
TORSDOF 0
ENDMDL
