MODEL 1
REMARK minimizedAffinity 5.2547946
REMARK minimizedRMSD -1
REMARK  0 active torsions:
REMARK  status: ('A' for Active; 'I' for Inactive)
ROOT
ATOM      1  C1  DEN d   1       5.948   4.582  -1.615  0.00  0.00     0.130 A 
ATOM      2  C2  DEN d   1       5.620   3.219  -2.022  0.00  0.00    -0.031 A 
ATOM      3  C3  DEN d   1       4.687   2.656  -1.025  0.00  0.00     0.027 A 
ATOM      4  C4  DEN d   1       3.720   3.760   1.096  0.00  0.00     0.027 A 
ATOM      5  C5  DEN d   1       3.717   4.904   1.864  0.00  0.00    -0.003 A 
ATOM      6  C6  DEN d   1       4.476   5.998   1.548  0.00  0.00     0.001 A 
ATOM      7  C7  DEN d   1       5.237   5.990   0.409  0.00  0.00     0.017 A 
ATOM      8  C8  DEN d   1       5.252   4.838  -0.367  0.00  0.00    -0.094 A 
ATOM      9  C9  DEN d   1       4.468   3.746  -0.037  0.00  0.00    -0.072 A 
ENDROOT
TORSDOF 0
ENDMDL
