MODEL 1
REMARK minimizedAffinity 5.63318253
REMARK minimizedRMSD -1
REMARK  0 active torsions:
REMARK  status: ('A' for Active; 'I' for Inactive)
ROOT
ATOM      1  C1  DEN d   1      -4.751   5.984  -5.976  0.00  0.00     0.130 A 
ATOM      2  C2  DEN d   1      -6.000   5.227  -6.000  0.00  0.00    -0.031 A 
ATOM      3  C3  DEN d   1      -5.688   3.822  -5.669  0.00  0.00     0.027 A 
ATOM      4  C4  DEN d   1      -3.406   2.752  -5.121  0.00  0.00     0.027 A 
ATOM      5  C5  DEN d   1      -2.057   2.992  -4.989  0.00  0.00    -0.003 A 
ATOM      6  C6  DEN d   1      -1.510   4.229  -5.208  0.00  0.00     0.001 A 
ATOM      7  C7  DEN d   1      -2.324   5.284  -5.527  0.00  0.00     0.017 A 
ATOM      8  C8  DEN d   1      -3.685   5.048  -5.669  0.00  0.00    -0.094 A 
ATOM      9  C9  DEN d   1      -4.220   3.793  -5.432  0.00  0.00    -0.072 A 
ENDROOT
TORSDOF 0
ENDMDL
