MODEL 1
REMARK minimizedAffinity 5.68211269
REMARK minimizedRMSD -1
REMARK  1 active torsions:
REMARK  status: ('A' for Active; 'I' for Inactive)
REMARK    1  A    between atoms: C3_4  and  O_7 
ROOT
ATOM      1  C   UNL d   1       2.102  -2.100   2.005  0.00  0.00    -0.033 A 
ATOM      2  C1  UNL d   1       0.884  -1.451   2.216  0.00  0.00     0.039 A 
ATOM      3  C2  UNL d   1       0.262  -1.519   3.465  0.00  0.00    -0.080 A 
ATOM      4  C3  UNL d   1       0.868  -2.237   4.492  0.00  0.00     0.150 A 
ATOM      5  C4  UNL d   1       2.083  -2.883   4.289  0.00  0.00    -0.007 A 
ATOM      6  C5  UNL d   1       2.702  -2.815   3.042  0.00  0.00     0.039 A 
ENDROOT
BRANCH   4   7
ATOM      7  O   UNL d   1       0.296  -2.335   5.726  0.00  0.00    -0.526 OA
ATOM      8  H5  UNL d   1      -0.553  -1.864   5.710  0.00  0.00     0.418 HD
ENDBRANCH   4   7
TORSDOF 1
ENDMDL
