MODEL 1
REMARK minimizedAffinity 3.91449285
REMARK minimizedRMSD -1
REMARK  1 active torsions:
REMARK  status: ('A' for Active; 'I' for Inactive)
REMARK    1  A    between atoms: C3_4  and  O_7 
ROOT
ATOM      1  C   UNL d   1       4.873   5.126  -4.854  0.00  0.00    -0.033 A 
ATOM      2  C1  UNL d   1       3.751   4.834  -4.076  0.00  0.00     0.039 A 
ATOM      3  C2  UNL d   1       3.752   5.123  -2.710  0.00  0.00    -0.080 A 
ATOM      4  C3  UNL d   1       4.880   5.703  -2.136  0.00  0.00     0.150 A 
ATOM      5  C4  UNL d   1       6.000   6.000  -2.906  0.00  0.00    -0.007 A 
ATOM      6  C5  UNL d   1       5.997   5.710  -4.269  0.00  0.00     0.039 A 
ENDROOT
BRANCH   4   7
ATOM      7  O   UNL d   1       4.930   5.999  -0.806  0.00  0.00    -0.526 OA
ATOM      8  H5  UNL d   1       4.097   5.713  -0.396  0.00  0.00     0.418 HD
ENDBRANCH   4   7
TORSDOF 1
ENDMDL
