MODEL 1
REMARK minimizedAffinity -2.08728123
REMARK minimizedRMSD -1
REMARK  1 active torsions:
REMARK  status: ('A' for Active; 'I' for Inactive)
REMARK    1  A    between atoms: C3_4  and  O_7 
ROOT
ATOM      1  C   UNL d   1      -4.503  -5.943  -5.031  0.00  0.00    -0.033 A 
ATOM      2  C1  UNL d   1      -3.751  -4.914  -4.461  0.00  0.00     0.039 A 
ATOM      3  C2  UNL d   1      -4.120  -3.582  -4.662  0.00  0.00    -0.080 A 
ATOM      4  C3  UNL d   1      -5.243  -3.294  -5.433  0.00  0.00     0.150 A 
ATOM      5  C4  UNL d   1      -6.000  -4.314  -6.000  0.00  0.00    -0.007 A 
ATOM      6  C5  UNL d   1      -5.629  -5.643  -5.799  0.00  0.00     0.039 A 
ENDROOT
BRANCH   4   7
ATOM      7  O   UNL d   1      -5.640  -2.010  -5.661  0.00  0.00    -0.526 OA
ATOM      8  H5  UNL d   1      -5.007  -1.411  -5.231  0.00  0.00     0.418 HD
ENDBRANCH   4   7
TORSDOF 1
ENDMDL
