MODEL 1
REMARK minimizedAffinity 11.0295448
REMARK minimizedRMSD -1
REMARK  1 active torsions:
REMARK  status: ('A' for Active; 'I' for Inactive)
REMARK    1  A    between atoms: C3_4  and  O_7 
ROOT
ATOM      1  C   UNL d   1       1.205  -0.962   1.920  0.00  0.00    -0.033 A 
ATOM      2  C1  UNL d   1       0.674   0.221   2.437  0.00  0.00     0.039 A 
ATOM      3  C2  UNL d   1       1.276   1.446   2.142  0.00  0.00    -0.080 A 
ATOM      4  C3  UNL d   1       2.407   1.473   1.330  0.00  0.00     0.150 A 
ATOM      5  C4  UNL d   1       2.939   0.299   0.809  0.00  0.00    -0.007 A 
ATOM      6  C5  UNL d   1       2.337  -0.923   1.105  0.00  0.00     0.039 A 
ENDROOT
BRANCH   4   7
ATOM      7  O   UNL d   1       3.032   2.644   1.019  0.00  0.00    -0.526 OA
ATOM      8  H5  UNL d   1       2.571   3.369   1.473  0.00  0.00     0.418 HD
ENDBRANCH   4   7
TORSDOF 1
ENDMDL
