MODEL 1
REMARK minimizedAffinity 1.66278696
REMARK minimizedRMSD -1
REMARK  1 active torsions:
REMARK  status: ('A' for Active; 'I' for Inactive)
REMARK    1  A    between atoms: C3_4  and  O_7 
ROOT
ATOM      1  C   UNL d   1      -5.247  -1.197  -2.261  0.00  0.00    -0.033 A 
ATOM      2  C1  UNL d   1      -4.502  -2.374  -2.360  0.00  0.00     0.039 A 
ATOM      3  C2  UNL d   1      -4.507  -3.108  -3.548  0.00  0.00    -0.080 A 
ATOM      4  C3  UNL d   1      -5.258  -2.654  -4.628  0.00  0.00     0.150 A 
ATOM      5  C4  UNL d   1      -6.000  -1.481  -4.538  0.00  0.00    -0.007 A 
ATOM      6  C5  UNL d   1      -5.995  -0.750  -3.351  0.00  0.00     0.039 A 
ENDROOT
BRANCH   4   7
ATOM      7  O   UNL d   1      -5.298  -3.339  -5.806  0.00  0.00    -0.526 OA
ATOM      8  H5  UNL d   1      -4.761  -4.143  -5.713  0.00  0.00     0.418 HD
ENDBRANCH   4   7
TORSDOF 1
ENDMDL
