MODEL 1
REMARK minimizedAffinity 3.60754228
REMARK minimizedRMSD -1
REMARK  1 active torsions:
REMARK  status: ('A' for Active; 'I' for Inactive)
REMARK    1  A    between atoms: C3_4  and  O_7 
ROOT
ATOM      1  C   UNL d   1      -4.813  -0.019  -1.448  0.00  0.00    -0.033 A 
ATOM      2  C1  UNL d   1      -5.892   0.865  -1.513  0.00  0.00     0.039 A 
ATOM      3  C2  UNL d   1      -5.966   1.804  -2.544  0.00  0.00    -0.080 A 
ATOM      4  C3  UNL d   1      -4.958   1.847  -3.503  0.00  0.00     0.150 A 
ATOM      5  C4  UNL d   1      -3.883   0.966  -3.447  0.00  0.00    -0.007 A 
ATOM      6  C5  UNL d   1      -3.810   0.030  -2.416  0.00  0.00     0.039 A 
ENDROOT
BRANCH   4   7
ATOM      7  O   UNL d   1      -4.985   2.748  -4.525  0.00  0.00    -0.526 OA
ATOM      8  H5  UNL d   1      -5.771   3.310  -4.419  0.00  0.00     0.418 HD
ENDBRANCH   4   7
TORSDOF 1
ENDMDL
