MODEL 1
REMARK minimizedAffinity 0.576921284
REMARK minimizedRMSD -1
REMARK  1 active torsions:
REMARK  status: ('A' for Active; 'I' for Inactive)
REMARK    1  A    between atoms: C3_4  and  O_7 
ROOT
ATOM      1  C   UNL d   1       6.000  -2.660   5.270  0.00  0.00    -0.033 A 
ATOM      2  C1  UNL d   1       5.965  -2.661   3.874  0.00  0.00     0.039 A 
ATOM      3  C2  UNL d   1       4.740  -2.670   3.205  0.00  0.00    -0.080 A 
ATOM      4  C3  UNL d   1       3.559  -2.677   3.942  0.00  0.00     0.150 A 
ATOM      5  C4  UNL d   1       3.586  -2.672   5.332  0.00  0.00    -0.007 A 
ATOM      6  C5  UNL d   1       4.810  -2.664   5.999  0.00  0.00     0.039 A 
ENDROOT
BRANCH   4   7
ATOM      7  O   UNL d   1       2.339  -2.690   3.333  0.00  0.00    -0.526 OA
ATOM      8  H5  UNL d   1       2.475  -2.722   2.371  0.00  0.00     0.418 HD
ENDBRANCH   4   7
TORSDOF 1
ENDMDL
