MODEL 1
REMARK minimizedAffinity 12.4069366
REMARK minimizedRMSD -1
REMARK  1 active torsions:
REMARK  status: ('A' for Active; 'I' for Inactive)
REMARK    1  A    between atoms: C1_2  and  C2_3 
ROOT
ATOM      1  C2  UNL d   1       4.158   3.773   1.402  0.00  0.00    -0.081 A 
ATOM      2  C3  UNL d   1       3.551   2.512   1.355  0.00  0.00     0.006 A 
ATOM      3  C4  UNL d   1       3.731   1.680   0.247  0.00  0.00     0.002 A 
ATOM      4  C5  UNL d   1       4.526   2.092  -0.828  0.00  0.00    -0.080 A 
ATOM      5  C6  UNL d   1       4.752   1.197  -2.010  0.00  0.00     0.076 C 
ATOM      6  C7  UNL d   1       5.118   3.359  -0.789  0.00  0.00     0.002 A 
ATOM      7  C8  UNL d   1       4.938   4.191   0.318  0.00  0.00     0.006 A 
ENDROOT
BRANCH   1   8
ATOM      8  C1  UNL d   1       4.019   4.646   2.623  0.00  0.00     0.054 C 
ATOM      9  C   UNL d   1       5.356   4.832   3.326  0.00  0.00     0.018 C 
ENDBRANCH   1   8
TORSDOF 1
ENDMDL
