MODEL 1
REMARK minimizedAffinity 8.91453838
REMARK minimizedRMSD -1
REMARK  1 active torsions:
REMARK  status: ('A' for Active; 'I' for Inactive)
REMARK    1  A    between atoms: C1_2  and  C2_3 
ROOT
ATOM      1  C2  UNL d   1       0.874   2.572   0.853  0.00  0.00    -0.081 A 
ATOM      2  C3  UNL d   1       1.191   1.463   0.060  0.00  0.00     0.006 A 
ATOM      3  C4  UNL d   1       2.493   0.956   0.040  0.00  0.00     0.002 A 
ATOM      4  C5  UNL d   1       3.496   1.543   0.818  0.00  0.00    -0.080 A 
ATOM      5  C6  UNL d   1       4.890   0.990   0.828  0.00  0.00     0.076 C 
ATOM      6  C7  UNL d   1       3.183   2.662   1.597  0.00  0.00     0.002 A 
ATOM      7  C8  UNL d   1       1.882   3.171   1.617  0.00  0.00     0.006 A 
ENDROOT
BRANCH   1   8
ATOM      8  C1  UNL d   1      -0.542   3.082   0.927  0.00  0.00     0.054 C 
ATOM      9  C   UNL d   1      -1.204   2.690   2.241  0.00  0.00     0.018 C 
ENDBRANCH   1   8
TORSDOF 1
ENDMDL
