MODEL 1
REMARK minimizedAffinity 7.10459805
REMARK minimizedRMSD -1
REMARK  1 active torsions:
REMARK  status: ('A' for Active; 'I' for Inactive)
REMARK    1  A    between atoms: C1_2  and  C2_3 
ROOT
ATOM      1  C2  UNL d   1       3.951  -5.203  -4.635  0.00  0.00    -0.081 A 
ATOM      2  C3  UNL d   1       4.626  -4.810  -3.473  0.00  0.00     0.006 A 
ATOM      3  C4  UNL d   1       4.023  -4.952  -2.221  0.00  0.00     0.002 A 
ATOM      4  C5  UNL d   1       2.739  -5.496  -2.110  0.00  0.00    -0.080 A 
ATOM      5  C6  UNL d   1       2.091  -5.681  -0.770  0.00  0.00     0.076 C 
ATOM      6  C7  UNL d   1       2.057  -5.872  -3.272  0.00  0.00     0.002 A 
ATOM      7  C8  UNL d   1       2.660  -5.730  -4.524  0.00  0.00     0.006 A 
ENDROOT
BRANCH   1   8
ATOM      8  C1  UNL d   1       4.625  -5.111  -5.981  0.00  0.00     0.054 C 
ATOM      9  C   UNL d   1       5.932  -5.891  -5.999  0.00  0.00     0.018 C 
ENDBRANCH   1   8
TORSDOF 1
ENDMDL
