MODEL 1
REMARK minimizedAffinity 2.20410323
REMARK minimizedRMSD -1
REMARK  1 active torsions:
REMARK  status: ('A' for Active; 'I' for Inactive)
REMARK    1  A    between atoms: C1_2  and  C2_3 
ROOT
ATOM      1  C2  UNL d   1       0.240   2.535   1.305  0.00  0.00    -0.081 A 
ATOM      2  C3  UNL d   1       0.388   1.694   0.195  0.00  0.00     0.006 A 
ATOM      3  C4  UNL d   1       1.658   1.288  -0.221  0.00  0.00     0.002 A 
ATOM      4  C5  UNL d   1       2.800   1.709   0.470  0.00  0.00    -0.080 A 
ATOM      5  C6  UNL d   1       4.167   1.256   0.052  0.00  0.00     0.076 C 
ATOM      6  C7  UNL d   1       2.653   2.563   1.568  0.00  0.00     0.002 A 
ATOM      7  C8  UNL d   1       1.383   2.970   1.984  0.00  0.00     0.006 A 
ENDROOT
BRANCH   1   8
ATOM      8  C1  UNL d   1      -1.132   2.922   1.795  0.00  0.00     0.054 C 
ATOM      9  C   UNL d   1      -1.172   3.012   3.313  0.00  0.00     0.018 C 
ENDBRANCH   1   8
TORSDOF 1
ENDMDL
