MODEL 1
REMARK minimizedAffinity 2.74289727
REMARK minimizedRMSD -1
REMARK  1 active torsions:
REMARK  status: ('A' for Active; 'I' for Inactive)
REMARK    1  A    between atoms: C1_2  and  C2_3 
ROOT
ATOM      1  C2  UNL d   1       5.099   5.096   3.609  0.00  0.00    -0.081 A 
ATOM      2  C3  UNL d   1       3.985   5.252   2.776  0.00  0.00     0.006 A 
ATOM      3  C4  UNL d   1       3.771   4.376   1.709  0.00  0.00     0.002 A 
ATOM      4  C5  UNL d   1       4.663   3.326   1.462  0.00  0.00    -0.080 A 
ATOM      5  C6  UNL d   1       4.428   2.361   0.339  0.00  0.00     0.076 C 
ATOM      6  C7  UNL d   1       5.785   3.182   2.285  0.00  0.00     0.002 A 
ATOM      7  C8  UNL d   1       6.000   4.057   3.351  0.00  0.00     0.006 A 
ENDROOT
BRANCH   1   8
ATOM      8  C1  UNL d   1       5.298   6.000   4.800  0.00  0.00     0.054 C 
ATOM      9  C   UNL d   1       4.495   5.518   6.000  0.00  0.00     0.018 C 
ENDBRANCH   1   8
TORSDOF 1
ENDMDL
