MODEL 1
REMARK minimizedAffinity -1.1534425
REMARK minimizedRMSD -1
REMARK  1 active torsions:
REMARK  status: ('A' for Active; 'I' for Inactive)
REMARK    1  A    between atoms: C1_2  and  C2_3 
ROOT
ATOM      1  C2  UNL d   1       2.895   1.912   0.822  0.00  0.00    -0.081 A 
ATOM      2  C3  UNL d   1       3.004   3.129   1.506  0.00  0.00     0.006 A 
ATOM      3  C4  UNL d   1       1.880   3.716   2.092  0.00  0.00     0.002 A 
ATOM      4  C5  UNL d   1       0.630   3.092   2.011  0.00  0.00    -0.080 A 
ATOM      5  C6  UNL d   1      -0.579   3.696   2.662  0.00  0.00     0.076 C 
ATOM      6  C7  UNL d   1       0.518   1.885   1.313  0.00  0.00     0.002 A 
ATOM      7  C8  UNL d   1       1.641   1.298   0.726  0.00  0.00     0.006 A 
ENDROOT
BRANCH   1   8
ATOM      8  C1  UNL d   1       4.117   1.245   0.244  0.00  0.00     0.054 C 
ATOM      9  C   UNL d   1       4.129   1.332  -1.275  0.00  0.00     0.018 C 
ENDBRANCH   1   8
TORSDOF 1
ENDMDL
