MODEL 1
REMARK minimizedAffinity 4.51697683
REMARK minimizedRMSD -1
REMARK  1 active torsions:
REMARK  status: ('A' for Active; 'I' for Inactive)
REMARK    1  A    between atoms: C1_2  and  C2_3 
ROOT
ATOM      1  C2  UNL d   1       1.139   2.652   0.914  0.00  0.00    -0.081 A 
ATOM      2  C3  UNL d   1       2.043   3.699   1.132  0.00  0.00     0.006 A 
ATOM      3  C4  UNL d   1       3.409   3.440   1.260  0.00  0.00     0.002 A 
ATOM      4  C5  UNL d   1       3.896   2.132   1.164  0.00  0.00    -0.080 A 
ATOM      5  C6  UNL d   1       5.364   1.844   1.270  0.00  0.00     0.076 C 
ATOM      6  C7  UNL d   1       2.992   1.084   0.963  0.00  0.00     0.002 A 
ATOM      7  C8  UNL d   1       1.625   1.342   0.836  0.00  0.00     0.006 A 
ENDROOT
BRANCH   1   8
ATOM      8  C1  UNL d   1      -0.327   2.935   0.711  0.00  0.00     0.054 C 
ATOM      9  C   UNL d   1      -1.180   2.196   1.732  0.00  0.00     0.018 C 
ENDBRANCH   1   8
TORSDOF 1
ENDMDL
