MODEL 1
REMARK minimizedAffinity 4.02553654
REMARK minimizedRMSD -1
REMARK  1 active torsions:
REMARK  status: ('A' for Active; 'I' for Inactive)
REMARK    1  A    between atoms: C1_2  and  C2_3 
ROOT
ATOM      1  C2  UNL d   1      -1.516   2.989  -4.761  0.00  0.00    -0.081 A 
ATOM      2  C3  UNL d   1      -1.954   4.034  -5.583  0.00  0.00     0.006 A 
ATOM      3  C4  UNL d   1      -3.287   4.099  -5.996  0.00  0.00     0.002 A 
ATOM      4  C5  UNL d   1      -4.205   3.125  -5.588  0.00  0.00    -0.080 A 
ATOM      5  C6  UNL d   1      -5.645   3.200  -5.999  0.00  0.00     0.076 C 
ATOM      6  C7  UNL d   1      -3.763   2.072  -4.780  0.00  0.00     0.002 A 
ATOM      7  C8  UNL d   1      -2.431   2.006  -4.367  0.00  0.00     0.006 A 
ENDROOT
BRANCH   1   8
ATOM      8  C1  UNL d   1      -0.094   2.951  -4.261  0.00  0.00     0.054 C 
ATOM      9  C   UNL d   1       0.127   1.783  -3.310  0.00  0.00     0.018 C 
ENDBRANCH   1   8
TORSDOF 1
ENDMDL
