MODEL 1
REMARK minimizedAffinity 4.94222355
REMARK minimizedRMSD -1
REMARK  1 active torsions:
REMARK  status: ('A' for Active; 'I' for Inactive)
REMARK    1  A    between atoms: C1_2  and  C2_3 
ROOT
ATOM      1  C2  UNL d   1       1.563   1.956   0.509  0.00  0.00    -0.081 A 
ATOM      2  C3  UNL d   1       2.509   1.521  -0.428  0.00  0.00     0.006 A 
ATOM      3  C4  UNL d   1       3.875   1.613  -0.151  0.00  0.00     0.002 A 
ATOM      4  C5  UNL d   1       4.318   2.134   1.070  0.00  0.00    -0.080 A 
ATOM      5  C6  UNL d   1       5.780   2.210   1.392  0.00  0.00     0.076 C 
ATOM      6  C7  UNL d   1       3.374   2.585   1.998  0.00  0.00     0.002 A 
ATOM      7  C8  UNL d   1       2.008   2.493   1.721  0.00  0.00     0.006 A 
ENDROOT
BRANCH   1   8
ATOM      8  C1  UNL d   1       0.089   1.798   0.239  0.00  0.00     0.054 C 
ATOM      9  C   UNL d   1      -0.746   2.404   1.358  0.00  0.00     0.018 C 
ENDBRANCH   1   8
TORSDOF 1
ENDMDL
