MODEL 1
REMARK minimizedAffinity 9.12508774
REMARK minimizedRMSD -1
REMARK  1 active torsions:
REMARK  status: ('A' for Active; 'I' for Inactive)
REMARK    1  A    between atoms: C1_2  and  C2_3 
ROOT
ATOM      1  C2  UNL d   1       2.673   1.904   0.418  0.00  0.00    -0.081 A 
ATOM      2  C3  UNL d   1       1.575   1.046   0.280  0.00  0.00     0.006 A 
ATOM      3  C4  UNL d   1       0.290   1.482   0.614  0.00  0.00     0.002 A 
ATOM      4  C5  UNL d   1       0.081   2.783   1.083  0.00  0.00    -0.080 A 
ATOM      5  C6  UNL d   1      -1.297   3.272   1.417  0.00  0.00     0.076 C 
ATOM      6  C7  UNL d   1       1.181   3.634   1.238  0.00  0.00     0.002 A 
ATOM      7  C8  UNL d   1       2.466   3.199   0.905  0.00  0.00     0.006 A 
ENDROOT
BRANCH   1   8
ATOM      8  C1  UNL d   1       4.051   1.459  -0.003  0.00  0.00     0.054 C 
ATOM      9  C   UNL d   1       4.232   1.570  -1.510  0.00  0.00     0.018 C 
ENDBRANCH   1   8
TORSDOF 1
ENDMDL
