MODEL 1
REMARK minimizedAffinity 5.89587975
REMARK minimizedRMSD -1
REMARK  1 active torsions:
REMARK  status: ('A' for Active; 'I' for Inactive)
REMARK    1  A    between atoms: C1_2  and  C2_3 
ROOT
ATOM      1  C2  UNL d   1       2.436   2.582   1.103  0.00  0.00    -0.081 A 
ATOM      2  C3  UNL d   1       1.239   1.858   1.168  0.00  0.00     0.006 A 
ATOM      3  C4  UNL d   1       0.102   2.307   0.492  0.00  0.00     0.002 A 
ATOM      4  C5  UNL d   1       0.144   3.481  -0.267  0.00  0.00    -0.080 A 
ATOM      5  C6  UNL d   1      -1.061   3.957  -1.022  0.00  0.00     0.076 C 
ATOM      6  C7  UNL d   1       1.335   4.214  -0.318  0.00  0.00     0.002 A 
ATOM      7  C8  UNL d   1       2.472   3.767   0.358  0.00  0.00     0.006 A 
ENDROOT
BRANCH   1   8
ATOM      8  C1  UNL d   1       3.681   2.068   1.778  0.00  0.00     0.054 C 
ATOM      9  C   UNL d   1       4.412   1.063   0.898  0.00  0.00     0.018 C 
ENDBRANCH   1   8
TORSDOF 1
ENDMDL
