MODEL 1
REMARK minimizedAffinity 7.75216436
REMARK minimizedRMSD -1
REMARK  1 active torsions:
REMARK  status: ('A' for Active; 'I' for Inactive)
REMARK    1  A    between atoms: C1_2  and  C2_3 
ROOT
ATOM      1  C2  UNL d   1       2.685  -5.649  -4.945  0.00  0.00    -0.081 A 
ATOM      2  C3  UNL d   1       4.023  -5.446  -5.305  0.00  0.00     0.006 A 
ATOM      3  C4  UNL d   1       4.987  -5.187  -4.328  0.00  0.00     0.002 A 
ATOM      4  C5  UNL d   1       4.632  -5.133  -2.976  0.00  0.00    -0.080 A 
ATOM      5  C6  UNL d   1       5.663  -4.886  -1.915  0.00  0.00     0.076 C 
ATOM      6  C7  UNL d   1       3.292  -5.318  -2.618  0.00  0.00     0.002 A 
ATOM      7  C8  UNL d   1       2.327  -5.577  -3.594  0.00  0.00     0.006 A 
ENDROOT
BRANCH   1   8
ATOM      8  C1  UNL d   1       1.654  -5.993  -5.990  0.00  0.00     0.054 C 
ATOM      9  C   UNL d   1       0.249  -5.986  -5.404  0.00  0.00     0.018 C 
ENDBRANCH   1   8
TORSDOF 1
ENDMDL
