MODEL 1
REMARK minimizedAffinity 2.0484283
REMARK minimizedRMSD -1
REMARK  2 active torsions:
REMARK  status: ('A' for Active; 'I' for Inactive)
REMARK    1  A    between atoms: C1_2  and  C2_3 
REMARK    2  A    between atoms: C2_3  and  C3_4 
ROOT
ATOM      1  C3  UNL d   1       3.454  -4.525  -1.803  0.00  0.00    -0.075 A 
ATOM      2  C4  UNL d   1       4.479  -4.566  -2.759  0.00  0.00     0.002 A 
ATOM      3  C5  UNL d   1       4.236  -4.172  -4.075  0.00  0.00     0.002 A 
ATOM      4  C6  UNL d   1       2.966  -3.743  -4.454  0.00  0.00    -0.004 A 
ATOM      5  C7  UNL d   1       1.936  -3.713  -3.516  0.00  0.00     0.002 A 
ATOM      6  C8  UNL d   1       2.177  -4.103  -2.198  0.00  0.00     0.002 A 
ENDROOT
BRANCH   1   7
ATOM      7  C2  UNL d   1       3.718  -4.922  -0.370  0.00  0.00     0.056 C 
BRANCH   7   8
ATOM      8  C1  UNL d   1       4.518  -3.887   0.427  0.00  0.00     0.007 C 
ATOM      9  C   UNL d   1       5.999  -3.871   0.073  0.00  0.00     0.009 C 
ENDBRANCH   7   8
ENDBRANCH   1   7
TORSDOF 2
ENDMDL
