MODEL 1
REMARK minimizedAffinity 0.525816619
REMARK minimizedRMSD -1
REMARK  2 active torsions:
REMARK  status: ('A' for Active; 'I' for Inactive)
REMARK    1  A    between atoms: C1_2  and  C2_3 
REMARK    2  A    between atoms: C2_3  and  C3_4 
ROOT
ATOM      1  C3  UNL d   1       3.410  -4.048  -1.326  0.00  0.00    -0.075 A 
ATOM      2  C4  UNL d   1       4.169  -4.717  -2.297  0.00  0.00     0.002 A 
ATOM      3  C5  UNL d   1       3.869  -4.576  -3.652  0.00  0.00     0.002 A 
ATOM      4  C6  UNL d   1       2.802  -3.775  -4.052  0.00  0.00    -0.004 A 
ATOM      5  C7  UNL d   1       2.030  -3.120  -3.095  0.00  0.00     0.002 A 
ATOM      6  C8  UNL d   1       2.331  -3.255  -1.739  0.00  0.00     0.002 A 
ENDROOT
BRANCH   1   7
ATOM      7  C2  UNL d   1       3.748  -4.173   0.140  0.00  0.00     0.056 C 
BRANCH   7   8
ATOM      8  C1  UNL d   1       5.041  -3.457   0.545  0.00  0.00     0.007 C 
ATOM      9  C   UNL d   1       4.908  -1.940   0.559  0.00  0.00     0.009 C 
ENDBRANCH   7   8
ENDBRANCH   1   7
TORSDOF 2
ENDMDL
