MODEL 1
REMARK minimizedAffinity 0.7862795
REMARK minimizedRMSD -1
REMARK  2 active torsions:
REMARK  status: ('A' for Active; 'I' for Inactive)
REMARK    1  A    between atoms: C1_2  and  C2_3 
REMARK    2  A    between atoms: C2_3  and  C3_4 
ROOT
ATOM      1  C3  UNL d   1       2.726  -1.927  -1.629  0.00  0.00    -0.075 A 
ATOM      2  C4  UNL d   1       2.857  -2.372  -2.952  0.00  0.00     0.002 A 
ATOM      3  C5  UNL d   1       3.295  -3.668  -3.224  0.00  0.00     0.002 A 
ATOM      4  C6  UNL d   1       3.617  -4.531  -2.179  0.00  0.00    -0.004 A 
ATOM      5  C7  UNL d   1       3.507  -4.095  -0.861  0.00  0.00     0.002 A 
ATOM      6  C8  UNL d   1       3.064  -2.800  -0.586  0.00  0.00     0.002 A 
ENDROOT
BRANCH   1   7
ATOM      7  C2  UNL d   1       2.224  -0.535  -1.327  0.00  0.00     0.056 C 
BRANCH   7   8
ATOM      8  C1  UNL d   1       2.474   0.475  -2.452  0.00  0.00     0.007 C 
ATOM      9  C   UNL d   1       1.893   1.853  -2.162  0.00  0.00     0.009 C 
ENDBRANCH   7   8
ENDBRANCH   1   7
TORSDOF 2
ENDMDL
