MODEL 1
REMARK minimizedAffinity 9.69746876
REMARK minimizedRMSD -1
REMARK  2 active torsions:
REMARK  status: ('A' for Active; 'I' for Inactive)
REMARK    1  A    between atoms: C1_2  and  C2_3 
REMARK    2  A    between atoms: C2_3  and  C3_4 
ROOT
ATOM      1  C3  UNL d   1       3.437  -4.822  -1.736  0.00  0.00    -0.075 A 
ATOM      2  C4  UNL d   1       3.959  -4.987  -3.027  0.00  0.00     0.002 A 
ATOM      3  C5  UNL d   1       3.202  -4.644  -4.147  0.00  0.00     0.002 A 
ATOM      4  C6  UNL d   1       1.911  -4.143  -3.992  0.00  0.00    -0.004 A 
ATOM      5  C7  UNL d   1       1.375  -3.991  -2.715  0.00  0.00     0.002 A 
ATOM      6  C8  UNL d   1       2.133  -4.329  -1.592  0.00  0.00     0.002 A 
ENDROOT
BRANCH   1   7
ATOM      7  C2  UNL d   1       4.262  -5.163  -0.519  0.00  0.00     0.056 C 
BRANCH   7   8
ATOM      8  C1  UNL d   1       4.688  -3.945   0.308  0.00  0.00     0.007 C 
ATOM      9  C   UNL d   1       3.581  -2.911   0.466  0.00  0.00     0.009 C 
ENDBRANCH   7   8
ENDBRANCH   1   7
TORSDOF 2
ENDMDL
