MODEL 1
REMARK minimizedAffinity -0.813129544
REMARK minimizedRMSD -1
REMARK  2 active torsions:
REMARK  status: ('A' for Active; 'I' for Inactive)
REMARK    1  A    between atoms: C1_2  and  C2_3 
REMARK    2  A    between atoms: C2_3  and  C3_4 
ROOT
ATOM      1  C3  UNL d   1       2.623  -2.962  -2.197  0.00  0.00    -0.075 A 
ATOM      2  C4  UNL d   1       3.377  -3.813  -1.376  0.00  0.00     0.002 A 
ATOM      3  C5  UNL d   1       4.264  -4.734  -1.935  0.00  0.00     0.002 A 
ATOM      4  C6  UNL d   1       4.399  -4.824  -3.318  0.00  0.00    -0.004 A 
ATOM      5  C7  UNL d   1       3.643  -3.995  -4.144  0.00  0.00     0.002 A 
ATOM      6  C8  UNL d   1       2.759  -3.069  -3.588  0.00  0.00     0.002 A 
ENDROOT
BRANCH   1   7
ATOM      7  C2  UNL d   1       1.684  -1.942  -1.598  0.00  0.00     0.056 C 
BRANCH   7   8
ATOM      8  C1  UNL d   1       2.268  -1.185  -0.400  0.00  0.00     0.007 C 
ATOM      9  C   UNL d   1       3.032   0.071  -0.798  0.00  0.00     0.009 C 
ENDBRANCH   7   8
ENDBRANCH   1   7
TORSDOF 2
ENDMDL
