MODEL 1
REMARK minimizedAffinity 4.95017338
REMARK minimizedRMSD -1
REMARK  2 active torsions:
REMARK  status: ('A' for Active; 'I' for Inactive)
REMARK    1  A    between atoms: C1_2  and  C2_3 
REMARK    2  A    between atoms: C2_3  and  C3_4 
ROOT
ATOM      1  C3  UNL d   1       3.565  -3.932  -1.764  0.00  0.00    -0.075 A 
ATOM      2  C4  UNL d   1       4.689  -4.384  -2.471  0.00  0.00     0.002 A 
ATOM      3  C5  UNL d   1       4.754  -4.253  -3.858  0.00  0.00     0.002 A 
ATOM      4  C6  UNL d   1       3.694  -3.680  -4.557  0.00  0.00    -0.004 A 
ATOM      5  C7  UNL d   1       2.566  -3.242  -3.867  0.00  0.00     0.002 A 
ATOM      6  C8  UNL d   1       2.500  -3.368  -2.479  0.00  0.00     0.002 A 
ENDROOT
BRANCH   1   7
ATOM      7  C2  UNL d   1       3.502  -4.044  -0.260  0.00  0.00     0.056 C 
BRANCH   7   8
ATOM      8  C1  UNL d   1       4.099  -2.843   0.481  0.00  0.00     0.007 C 
ATOM      9  C   UNL d   1       5.621  -2.868   0.536  0.00  0.00     0.009 C 
ENDBRANCH   7   8
ENDBRANCH   1   7
TORSDOF 2
ENDMDL
