MODEL 1
REMARK minimizedAffinity -4.19101095
REMARK minimizedRMSD -1
REMARK  2 active torsions:
REMARK  status: ('A' for Active; 'I' for Inactive)
REMARK    1  A    between atoms: C1_2  and  C2_3 
REMARK    2  A    between atoms: C2_3  and  C3_4 
ROOT
ATOM      1  C3  UNL d   1       3.021  -3.665  -1.990  0.00  0.00    -0.075 A 
ATOM      2  C4  UNL d   1       2.570  -2.584  -2.761  0.00  0.00     0.002 A 
ATOM      3  C5  UNL d   1       2.475  -1.308  -2.205  0.00  0.00     0.002 A 
ATOM      4  C6  UNL d   1       2.819  -1.099  -0.872  0.00  0.00    -0.004 A 
ATOM      5  C7  UNL d   1       3.252  -2.169  -0.092  0.00  0.00     0.002 A 
ATOM      6  C8  UNL d   1       3.353  -3.446  -0.646  0.00  0.00     0.002 A 
ENDROOT
BRANCH   1   7
ATOM      7  C2  UNL d   1       3.155  -5.043  -2.594  0.00  0.00     0.056 C 
BRANCH   7   8
ATOM      8  C1  UNL d   1       4.263  -5.158  -3.646  0.00  0.00     0.007 C 
ATOM      9  C   UNL d   1       5.527  -4.395  -3.272  0.00  0.00     0.009 C 
ENDBRANCH   7   8
ENDBRANCH   1   7
TORSDOF 2
ENDMDL
