MODEL 1
REMARK minimizedAffinity 2.94214606
REMARK minimizedRMSD -1
REMARK  2 active torsions:
REMARK  status: ('A' for Active; 'I' for Inactive)
REMARK    1  A    between atoms: C1_2  and  C2_3 
REMARK    2  A    between atoms: C2_3  and  C3_4 
ROOT
ATOM      1  C3  UNL d   1       3.014  -3.231  -1.275  0.00  0.00    -0.075 A 
ATOM      2  C4  UNL d   1       3.949  -3.938  -0.505  0.00  0.00     0.002 A 
ATOM      3  C5  UNL d   1       4.593  -5.060  -1.028  0.00  0.00     0.002 A 
ATOM      4  C6  UNL d   1       4.304  -5.494  -2.319  0.00  0.00    -0.004 A 
ATOM      5  C7  UNL d   1       3.364  -4.809  -3.087  0.00  0.00     0.002 A 
ATOM      6  C8  UNL d   1       2.722  -3.684  -2.568  0.00  0.00     0.002 A 
ENDROOT
BRANCH   1   7
ATOM      7  C2  UNL d   1       2.335  -1.999  -0.726  0.00  0.00     0.056 C 
BRANCH   7   8
ATOM      8  C1  UNL d   1       1.892  -1.000  -1.800  0.00  0.00     0.007 C 
ATOM      9  C   UNL d   1       2.531   0.374  -1.642  0.00  0.00     0.009 C 
ENDBRANCH   7   8
ENDBRANCH   1   7
TORSDOF 2
ENDMDL
