MODEL 1
REMARK minimizedAffinity -0.302403718
REMARK minimizedRMSD -1
REMARK  2 active torsions:
REMARK  status: ('A' for Active; 'I' for Inactive)
REMARK    1  A    between atoms: C1_2  and  C2_3 
REMARK    2  A    between atoms: C2_3  and  C3_4 
ROOT
ATOM      1  C3  UNL d   1      -0.541  -2.983   1.282  0.00  0.00    -0.075 A 
ATOM      2  C4  UNL d   1       0.717  -2.420   1.022  0.00  0.00     0.002 A 
ATOM      3  C5  UNL d   1       1.164  -2.260  -0.290  0.00  0.00     0.002 A 
ATOM      4  C6  UNL d   1       0.366  -2.671  -1.356  0.00  0.00    -0.004 A 
ATOM      5  C7  UNL d   1      -0.878  -3.247  -1.109  0.00  0.00     0.002 A 
ATOM      6  C8  UNL d   1      -1.330  -3.404   0.203  0.00  0.00     0.002 A 
ENDROOT
BRANCH   1   7
ATOM      7  C2  UNL d   1      -1.043  -3.131   2.698  0.00  0.00     0.056 C 
BRANCH   7   8
ATOM      8  C1  UNL d   1      -2.525  -3.507   2.799  0.00  0.00     0.007 C 
ATOM      9  C   UNL d   1      -2.766  -4.795   3.575  0.00  0.00     0.009 C 
ENDBRANCH   7   8
ENDBRANCH   1   7
TORSDOF 2
ENDMDL
