MODEL 1
REMARK minimizedAffinity 5.14514446
REMARK minimizedRMSD -1
REMARK  2 active torsions:
REMARK  status: ('A' for Active; 'I' for Inactive)
REMARK    1  A    between atoms: C1_2  and  C2_3 
REMARK    2  A    between atoms: C2_3  and  C3_4 
ROOT
ATOM      1  C3  UNL d   1      -2.628  -4.124  -4.170  0.00  0.00    -0.075 A 
ATOM      2  C4  UNL d   1      -1.888  -5.191  -3.640  0.00  0.00     0.002 A 
ATOM      3  C5  UNL d   1      -1.533  -5.206  -2.291  0.00  0.00     0.002 A 
ATOM      4  C6  UNL d   1      -1.903  -4.152  -1.458  0.00  0.00    -0.004 A 
ATOM      5  C7  UNL d   1      -2.624  -3.079  -1.978  0.00  0.00     0.002 A 
ATOM      6  C8  UNL d   1      -2.985  -3.064  -3.326  0.00  0.00     0.002 A 
ENDROOT
BRANCH   1   7
ATOM      7  C2  UNL d   1      -3.041  -4.116  -5.622  0.00  0.00     0.056 C 
BRANCH   7   8
ATOM      8  C1  UNL d   1      -4.017  -5.236  -5.999  0.00  0.00     0.007 C 
ATOM      9  C   UNL d   1      -5.473  -4.790  -5.993  0.00  0.00     0.009 C 
ENDBRANCH   7   8
ENDBRANCH   1   7
TORSDOF 2
ENDMDL
