MODEL 1
REMARK minimizedAffinity 6.70302725
REMARK minimizedRMSD -1
REMARK  2 active torsions:
REMARK  status: ('A' for Active; 'I' for Inactive)
REMARK    1  A    between atoms: C1_2  and  C2_3 
REMARK    2  A    between atoms: C2_3  and  C3_4 
ROOT
ATOM      1  C3  UNL d   1       1.680   3.658  -1.318  0.00  0.00    -0.075 A 
ATOM      2  C4  UNL d   1       1.324   3.596   0.037  0.00  0.00     0.002 A 
ATOM      3  C5  UNL d   1       1.419   4.728   0.847  0.00  0.00     0.002 A 
ATOM      4  C6  UNL d   1       1.881   5.931   0.317  0.00  0.00    -0.004 A 
ATOM      5  C7  UNL d   1       2.253   6.000  -1.024  0.00  0.00     0.002 A 
ATOM      6  C8  UNL d   1       2.154   4.870  -1.838  0.00  0.00     0.002 A 
ENDROOT
BRANCH   1   7
ATOM      7  C2  UNL d   1       1.551   2.445  -2.207  0.00  0.00     0.056 C 
BRANCH   7   8
ATOM      8  C1  UNL d   1       0.636   2.653  -3.418  0.00  0.00     0.007 C 
ATOM      9  C   UNL d   1      -0.652   3.391  -3.078  0.00  0.00     0.009 C 
ENDBRANCH   7   8
ENDBRANCH   1   7
TORSDOF 2
ENDMDL
