MODEL 1
REMARK minimizedAffinity 5.81025171
REMARK minimizedRMSD -1
REMARK  2 active torsions:
REMARK  status: ('A' for Active; 'I' for Inactive)
REMARK    1  A    between atoms: C1_2  and  C2_3 
REMARK    2  A    between atoms: C2_3  and  C3_4 
ROOT
ATOM      1  C3  UNL d   1       2.471   0.488  -0.123  0.00  0.00    -0.075 A 
ATOM      2  C4  UNL d   1       2.559   0.950   1.199  0.00  0.00     0.002 A 
ATOM      3  C5  UNL d   1       2.210   2.263   1.515  0.00  0.00     0.002 A 
ATOM      4  C6  UNL d   1       1.781   3.133   0.515  0.00  0.00    -0.004 A 
ATOM      5  C7  UNL d   1       1.706   2.690  -0.804  0.00  0.00     0.002 A 
ATOM      6  C8  UNL d   1       2.050   1.375  -1.122  0.00  0.00     0.002 A 
ENDROOT
BRANCH   1   7
ATOM      7  C2  UNL d   1       2.818  -0.941  -0.466  0.00  0.00     0.056 C 
BRANCH   7   8
ATOM      8  C1  UNL d   1       4.059  -1.473   0.259  0.00  0.00     0.007 C 
ATOM      9  C   UNL d   1       4.365  -2.929  -0.065  0.00  0.00     0.009 C 
ENDBRANCH   7   8
ENDBRANCH   1   7
TORSDOF 2
ENDMDL
