MODEL 1
REMARK minimizedAffinity 0.545868158
REMARK minimizedRMSD -1
REMARK  2 active torsions:
REMARK  status: ('A' for Active; 'I' for Inactive)
REMARK    1  A    between atoms: C1_2  and  C2_3 
REMARK    2  A    between atoms: C2_3  and  C3_4 
ROOT
ATOM      1  C3  UNL d   1       2.065   3.590  -1.329  0.00  0.00    -0.075 A 
ATOM      2  C4  UNL d   1       2.620   4.756  -1.877  0.00  0.00     0.002 A 
ATOM      3  C5  UNL d   1       2.611   5.951  -1.158  0.00  0.00     0.002 A 
ATOM      4  C6  UNL d   1       2.038   6.000   0.111  0.00  0.00    -0.004 A 
ATOM      5  C7  UNL d   1       1.469   4.852   0.659  0.00  0.00     0.002 A 
ATOM      6  C8  UNL d   1       1.481   3.653  -0.057  0.00  0.00     0.002 A 
ENDROOT
BRANCH   1   7
ATOM      7  C2  UNL d   1       2.099   2.286  -2.090  0.00  0.00     0.056 C 
BRANCH   7   8
ATOM      8  C1  UNL d   1       0.774   1.927  -2.771  0.00  0.00     0.007 C 
ATOM      9  C   UNL d   1       0.306   2.980  -3.766  0.00  0.00     0.009 C 
ENDBRANCH   7   8
ENDBRANCH   1   7
TORSDOF 2
ENDMDL
