MODEL 1
REMARK minimizedAffinity 10.4330301
REMARK minimizedRMSD -1
REMARK  2 active torsions:
REMARK  status: ('A' for Active; 'I' for Inactive)
REMARK    1  A    between atoms: C1_2  and  C2_3 
REMARK    2  A    between atoms: C2_3  and  C3_4 
ROOT
ATOM      1  C3  UNL d   1      -2.088  -2.505  -3.598  0.00  0.00    -0.075 A 
ATOM      2  C4  UNL d   1      -1.994  -3.011  -2.294  0.00  0.00     0.002 A 
ATOM      3  C5  UNL d   1      -1.481  -4.288  -2.064  0.00  0.00     0.002 A 
ATOM      4  C6  UNL d   1      -1.064  -5.077  -3.134  0.00  0.00    -0.004 A 
ATOM      5  C7  UNL d   1      -1.168  -4.590  -4.436  0.00  0.00     0.002 A 
ATOM      6  C8  UNL d   1      -1.677  -3.312  -4.668  0.00  0.00     0.002 A 
ENDROOT
BRANCH   1   7
ATOM      7  C2  UNL d   1      -2.615  -1.112  -3.851  0.00  0.00     0.056 C 
BRANCH   7   8
ATOM      8  C1  UNL d   1      -2.145  -0.072  -2.828  0.00  0.00     0.007 C 
ATOM      9  C   UNL d   1      -2.665   1.330  -3.116  0.00  0.00     0.009 C 
ENDBRANCH   7   8
ENDBRANCH   1   7
TORSDOF 2
ENDMDL
