MODEL 1
REMARK minimizedAffinity 1.91173673
REMARK minimizedRMSD -1
REMARK  1 active torsions:
REMARK  status: ('A' for Active; 'I' for Inactive)
REMARK    1  A    between atoms: N_2  and  C1_3 
ROOT
ATOM      1  C1  UNL d   1       0.570   0.237   0.583  0.00  0.00     0.143 A 
ATOM      2  C2  UNL d   1       1.611   1.159   0.737  0.00  0.00    -0.057 A 
ATOM      3  C3  UNL d   1       2.045   1.561   2.006  0.00  0.00     0.033 A 
ATOM      4  C4  UNL d   1       1.422   1.068   3.148  0.00  0.00    -0.042 A 
ATOM      5  C5  UNL d   1       0.369   0.170   3.019  0.00  0.00     0.033 A 
ATOM      6  C6  UNL d   1      -0.055  -0.233   1.749  0.00  0.00    -0.057 A 
ENDROOT
BRANCH   1   7
ATOM      7  N   UNL d   1       0.029  -0.127  -0.652  0.00  0.00    -0.732 N 
ATOM      8  C   UNL d   1       0.002   0.814  -1.751  0.00  0.00     0.284 C 
ATOM      9  H3  UNL d   1       0.281  -1.075  -0.922  0.00  0.00     0.395 HD
ENDBRANCH   1   7
TORSDOF 1
ENDMDL
