MODEL 1
REMARK minimizedAffinity -4.16766644
REMARK minimizedRMSD -1
REMARK  1 active torsions:
REMARK  status: ('A' for Active; 'I' for Inactive)
REMARK    1  A    between atoms: N_2  and  C1_3 
ROOT
ATOM      1  C1  UNL d   1       0.348   0.366   0.195  0.00  0.00     0.143 A 
ATOM      2  C2  UNL d   1       1.397   0.702   1.057  0.00  0.00    -0.057 A 
ATOM      3  C3  UNL d   1       1.274   0.555   2.444  0.00  0.00     0.033 A 
ATOM      4  C4  UNL d   1       0.084   0.095   2.997  0.00  0.00    -0.042 A 
ATOM      5  C5  UNL d   1      -0.982  -0.221   2.162  0.00  0.00     0.033 A 
ATOM      6  C6  UNL d   1      -0.850  -0.079   0.777  0.00  0.00    -0.057 A 
ENDROOT
BRANCH   1   7
ATOM      7  N   UNL d   1       0.374   0.583  -1.185  0.00  0.00    -0.732 N 
ATOM      8  C   UNL d   1       0.779  -0.472  -2.089  0.00  0.00     0.284 C 
ATOM      9  H3  UNL d   1      -0.424   1.124  -1.508  0.00  0.00     0.395 HD
ENDBRANCH   1   7
TORSDOF 1
ENDMDL
