MODEL 1
REMARK minimizedAffinity -5.19111729
REMARK minimizedRMSD -1
REMARK  1 active torsions:
REMARK  status: ('A' for Active; 'I' for Inactive)
REMARK    1  A    between atoms: N_2  and  C1_3 
ROOT
ATOM      1  C1  UNL d   1      -0.390   0.027   0.771  0.00  0.00     0.143 A 
ATOM      2  C2  UNL d   1      -0.021  -0.283   2.084  0.00  0.00    -0.057 A 
ATOM      3  C3  UNL d   1      -0.984  -0.488   3.080  0.00  0.00     0.033 A 
ATOM      4  C4  UNL d   1      -2.337  -0.358   2.785  0.00  0.00    -0.042 A 
ATOM      5  C5  UNL d   1      -2.726  -0.026   1.492  0.00  0.00     0.033 A 
ATOM      6  C6  UNL d   1      -1.760   0.171   0.501  0.00  0.00    -0.057 A 
ENDROOT
BRANCH   1   7
ATOM      7  N   UNL d   1       0.522   0.338  -0.240  0.00  0.00    -0.732 N 
ATOM      8  C   UNL d   1       0.104   0.369  -1.626  0.00  0.00     0.284 C 
ATOM      9  H3  UNL d   1       1.148   1.096   0.022  0.00  0.00     0.395 HD
ENDBRANCH   1   7
TORSDOF 1
ENDMDL
