MODEL 1
REMARK minimizedAffinity -4.27894211
REMARK minimizedRMSD -1
REMARK  1 active torsions:
REMARK  status: ('A' for Active; 'I' for Inactive)
REMARK    1  A    between atoms: N_2  and  C1_3 
ROOT
ATOM      1  C1  UNL d   1       0.150   0.283   0.578  0.00  0.00     0.143 A 
ATOM      2  C2  UNL d   1       0.676   0.499   1.856  0.00  0.00    -0.057 A 
ATOM      3  C3  UNL d   1      -0.087   0.261   3.006  0.00  0.00     0.033 A 
ATOM      4  C4  UNL d   1      -1.404  -0.172   2.896  0.00  0.00    -0.042 A 
ATOM      5  C5  UNL d   1      -1.956  -0.370   1.635  0.00  0.00     0.033 A 
ATOM      6  C6  UNL d   1      -1.187  -0.137   0.491  0.00  0.00    -0.057 A 
ENDROOT
BRANCH   1   7
ATOM      7  N   UNL d   1       0.825   0.595  -0.604  0.00  0.00    -0.732 N 
ATOM      8  C   UNL d   1       0.211   0.347  -1.891  0.00  0.00     0.284 C 
ATOM      9  H3  UNL d   1       1.323   1.481  -0.545  0.00  0.00     0.395 HD
ENDBRANCH   1   7
TORSDOF 1
ENDMDL
