MODEL 1
REMARK minimizedAffinity -2.90247607
REMARK minimizedRMSD -1
REMARK  1 active torsions:
REMARK  status: ('A' for Active; 'I' for Inactive)
REMARK    1  A    between atoms: N_2  and  C1_3 
ROOT
ATOM      1  C1  UNL d   1       0.474   0.381  -1.015  0.00  0.00     0.143 A 
ATOM      2  C2  UNL d   1      -0.809  -0.059  -0.670  0.00  0.00    -0.057 A 
ATOM      3  C3  UNL d   1      -1.165  -0.281   0.666  0.00  0.00     0.033 A 
ATOM      4  C4  UNL d   1      -0.233  -0.093   1.681  0.00  0.00    -0.042 A 
ATOM      5  C5  UNL d   1       1.055   0.320   1.359  0.00  0.00     0.033 A 
ATOM      6  C6  UNL d   1       1.403   0.546   0.024  0.00  0.00    -0.057 A 
ENDROOT
BRANCH   1   7
ATOM      7  N   UNL d   1       0.918   0.525  -2.332  0.00  0.00    -0.732 N 
ATOM      8  C   UNL d   1       1.213  -0.637  -3.141  0.00  0.00     0.284 C 
ATOM      9  H3  UNL d   1       0.427   1.264  -2.829  0.00  0.00     0.395 HD
ENDBRANCH   1   7
TORSDOF 1
ENDMDL
