MODEL 1
REMARK minimizedAffinity -4.01729441
REMARK minimizedRMSD -1
REMARK  1 active torsions:
REMARK  status: ('A' for Active; 'I' for Inactive)
REMARK    1  A    between atoms: N_2  and  C1_3 
ROOT
ATOM      1  C1  UNL d   1      -0.074   0.214   0.792  0.00  0.00     0.143 A 
ATOM      2  C2  UNL d   1       0.590   0.299   2.021  0.00  0.00    -0.057 A 
ATOM      3  C3  UNL d   1      -0.014  -0.143   3.204  0.00  0.00     0.033 A 
ATOM      4  C4  UNL d   1      -1.309  -0.652   3.184  0.00  0.00    -0.042 A 
ATOM      5  C5  UNL d   1      -1.996  -0.723   1.977  0.00  0.00     0.033 A 
ATOM      6  C6  UNL d   1      -1.385  -0.287   0.798  0.00  0.00    -0.057 A 
ENDROOT
BRANCH   1   7
ATOM      7  N   UNL d   1       0.435   0.726  -0.404  0.00  0.00    -0.732 N 
ATOM      8  C   UNL d   1      -0.404   0.826  -1.579  0.00  0.00     0.284 C 
ATOM      9  H3  UNL d   1       1.040   1.531  -0.255  0.00  0.00     0.395 HD
ENDBRANCH   1   7
TORSDOF 1
ENDMDL
