MODEL 1
REMARK minimizedAffinity -4.34082508
REMARK minimizedRMSD -1
REMARK  1 active torsions:
REMARK  status: ('A' for Active; 'I' for Inactive)
REMARK    1  A    between atoms: N_2  and  C1_3 
ROOT
ATOM      1  C1  UNL d   1      -0.038   0.478   0.238  0.00  0.00     0.143 A 
ATOM      2  C2  UNL d   1       0.794   0.497   1.362  0.00  0.00    -0.057 A 
ATOM      3  C3  UNL d   1       0.325   0.098   2.619  0.00  0.00     0.033 A 
ATOM      4  C4  UNL d   1      -0.998  -0.300   2.781  0.00  0.00    -0.042 A 
ATOM      5  C5  UNL d   1      -1.850  -0.302   1.682  0.00  0.00     0.033 A 
ATOM      6  C6  UNL d   1      -1.374   0.090   0.428  0.00  0.00    -0.057 A 
ENDROOT
BRANCH   1   7
ATOM      7  N   UNL d   1       0.341   0.955  -1.019  0.00  0.00    -0.732 N 
ATOM      8  C   UNL d   1      -0.657   1.349  -1.990  0.00  0.00     0.284 C 
ATOM      9  H3  UNL d   1       1.144   1.579  -0.972  0.00  0.00     0.395 HD
ENDBRANCH   1   7
TORSDOF 1
ENDMDL
