MODEL 1
REMARK minimizedAffinity -2.93474007
REMARK minimizedRMSD -1
REMARK  1 active torsions:
REMARK  status: ('A' for Active; 'I' for Inactive)
REMARK    1  A    between atoms: N_2  and  C1_3 
ROOT
ATOM      1  C1  UNL d   1      -0.806  -0.197   0.631  0.00  0.00     0.143 A 
ATOM      2  C2  UNL d   1       0.154   0.481   1.392  0.00  0.00    -0.057 A 
ATOM      3  C3  UNL d   1       0.318   0.216   2.756  0.00  0.00     0.033 A 
ATOM      4  C4  UNL d   1      -0.497  -0.714   3.394  0.00  0.00    -0.042 A 
ATOM      5  C5  UNL d   1      -1.474  -1.382   2.663  0.00  0.00     0.033 A 
ATOM      6  C6  UNL d   1      -1.629  -1.117   1.299  0.00  0.00    -0.057 A 
ENDROOT
BRANCH   1   7
ATOM      7  N   UNL d   1      -1.084   0.092  -0.707  0.00  0.00    -0.732 N 
ATOM      8  C   UNL d   1      -0.010   0.272  -1.661  0.00  0.00     0.284 C 
ATOM      9  H3  UNL d   1      -1.872  -0.442  -1.064  0.00  0.00     0.395 HD
ENDBRANCH   1   7
TORSDOF 1
ENDMDL
