MODEL 1
REMARK minimizedAffinity -3.77491808
REMARK minimizedRMSD -1
REMARK  1 active torsions:
REMARK  status: ('A' for Active; 'I' for Inactive)
REMARK    1  A    between atoms: N_2  and  C1_3 
ROOT
ATOM      1  C1  UNL d   1      -1.473   0.716   1.787  0.00  0.00     0.143 A 
ATOM      2  C2  UNL d   1      -0.661  -0.087   2.596  0.00  0.00    -0.057 A 
ATOM      3  C3  UNL d   1       0.649  -0.406   2.220  0.00  0.00     0.033 A 
ATOM      4  C4  UNL d   1       1.163   0.050   1.010  0.00  0.00    -0.042 A 
ATOM      5  C5  UNL d   1       0.366   0.829   0.179  0.00  0.00     0.033 A 
ATOM      6  C6  UNL d   1      -0.940   1.150   0.563  0.00  0.00    -0.057 A 
ENDROOT
BRANCH   1   7
ATOM      7  N   UNL d   1      -2.816   0.987   2.059  0.00  0.00    -0.732 N 
ATOM      8  C   UNL d   1      -3.754   1.217   0.981  0.00  0.00     0.284 C 
ATOM      9  H3  UNL d   1      -3.183   0.412   2.814  0.00  0.00     0.395 HD
ENDBRANCH   1   7
TORSDOF 1
ENDMDL
