MODEL 1
REMARK minimizedAffinity -4.98826981
REMARK minimizedRMSD -1
REMARK  1 active torsions:
REMARK  status: ('A' for Active; 'I' for Inactive)
REMARK    1  A    between atoms: N_2  and  C1_3 
ROOT
ATOM      1  C1  UNL d   1      -0.133   0.095   0.233  0.00  0.00     0.143 A 
ATOM      2  C2  UNL d   1       0.873   0.327   1.178  0.00  0.00    -0.057 A 
ATOM      3  C3  UNL d   1       0.616   0.228   2.551  0.00  0.00     0.033 A 
ATOM      4  C4  UNL d   1      -0.662  -0.079   3.005  0.00  0.00    -0.042 A 
ATOM      5  C5  UNL d   1      -1.683  -0.290   2.085  0.00  0.00     0.033 A 
ATOM      6  C6  UNL d   1      -1.419  -0.195   0.715  0.00  0.00    -0.057 A 
ENDROOT
BRANCH   1   7
ATOM      7  N   UNL d   1       0.035   0.275  -1.142  0.00  0.00    -0.732 N 
ATOM      8  C   UNL d   1      -0.475   1.460  -1.798  0.00  0.00     0.284 C 
ATOM      9  H3  UNL d   1       0.957  -0.012  -1.462  0.00  0.00     0.395 HD
ENDBRANCH   1   7
TORSDOF 1
ENDMDL
