MODEL 1
REMARK minimizedAffinity -4.06686401
REMARK minimizedRMSD -1
REMARK  1 active torsions:
REMARK  status: ('A' for Active; 'I' for Inactive)
REMARK    1  A    between atoms: N_2  and  C1_3 
ROOT
ATOM      1  C1  UNL d   1       0.380   0.668   0.979  0.00  0.00     0.143 A 
ATOM      2  C2  UNL d   1      -0.693   0.011   0.367  0.00  0.00    -0.057 A 
ATOM      3  C3  UNL d   1      -1.628  -0.709   1.120  0.00  0.00     0.033 A 
ATOM      4  C4  UNL d   1      -1.489  -0.810   2.501  0.00  0.00    -0.042 A 
ATOM      5  C5  UNL d   1      -0.416  -0.187   3.127  0.00  0.00     0.033 A 
ATOM      6  C6  UNL d   1       0.511   0.537   2.371  0.00  0.00    -0.057 A 
ENDROOT
BRANCH   1   7
ATOM      7  N   UNL d   1       1.397   1.317   0.276  0.00  0.00    -0.732 N 
ATOM      8  C   UNL d   1       2.614   1.723   0.946  0.00  0.00     0.284 C 
ATOM      9  H3  UNL d   1       1.545   0.920  -0.649  0.00  0.00     0.395 HD
ENDBRANCH   1   7
TORSDOF 1
ENDMDL
