MODEL 1
REMARK minimizedAffinity -4.07973862
REMARK minimizedRMSD -1
REMARK  1 active torsions:
REMARK  status: ('A' for Active; 'I' for Inactive)
REMARK    1  A    between atoms: N_2  and  C1_3 
ROOT
ATOM      1  C1  UNL d   1       0.059   0.257   1.761  0.00  0.00     0.143 A 
ATOM      2  C2  UNL d   1       1.184   0.652   1.029  0.00  0.00    -0.057 A 
ATOM      3  C3  UNL d   1       1.099   0.922  -0.342  0.00  0.00     0.033 A 
ATOM      4  C4  UNL d   1      -0.110   0.774  -1.013  0.00  0.00    -0.042 A 
ATOM      5  C5  UNL d   1      -1.236   0.358  -0.310  0.00  0.00     0.033 A 
ATOM      6  C6  UNL d   1      -1.146   0.096   1.060  0.00  0.00    -0.057 A 
ENDROOT
BRANCH   1   7
ATOM      7  N   UNL d   1       0.100  -0.121   3.106  0.00  0.00    -0.732 N 
ATOM      8  C   UNL d   1      -1.109  -0.512   3.798  0.00  0.00     0.284 C 
ATOM      9  H3  UNL d   1       0.909  -0.699   3.322  0.00  0.00     0.395 HD
ENDBRANCH   1   7
TORSDOF 1
ENDMDL
