MODEL 1
REMARK minimizedAffinity 14.7156725
REMARK minimizedRMSD -1
REMARK  0 active torsions:
REMARK  status: ('A' for Active; 'I' for Inactive)
ROOT
ATOM      1  C   UNL d   1      -0.998   2.957  -0.771  0.00  0.00    -0.002 A 
ATOM      2  C1  UNL d   1      -0.323   4.113  -0.406  0.00  0.00     0.010 A 
ATOM      3  C2  UNL d   1       0.318   4.200   0.832  0.00  0.00     0.041 A 
ATOM      4  C3  UNL d   1       0.271   3.094   1.703  0.00  0.00    -0.075 A 
ATOM      5  S   UNL d   1       0.984   2.973   3.268  0.00  0.00     0.015 SA
ATOM      6  C4  UNL d   1       0.410   1.383   3.487  0.00  0.00     0.022 A 
ATOM      7  C5  UNL d   1      -0.310   0.940   2.403  0.00  0.00     0.026 A 
ATOM      8  C6  UNL d   1      -0.402   1.919   1.357  0.00  0.00    -0.082 A 
ATOM      9  C7  UNL d   1      -1.043   1.862   0.095  0.00  0.00     0.045 A 
ENDROOT
TORSDOF 0
ENDMDL
