MODEL 1
REMARK minimizedAffinity 9.48848724
REMARK minimizedRMSD -1
REMARK  0 active torsions:
REMARK  status: ('A' for Active; 'I' for Inactive)
ROOT
ATOM      1  C   UNL d   1       0.197  -0.880  -1.903  0.00  0.00    -0.002 A 
ATOM      2  C1  UNL d   1       0.231   0.396  -1.357  0.00  0.00     0.010 A 
ATOM      3  C2  UNL d   1      -0.943   1.136  -1.209  0.00  0.00     0.041 A 
ATOM      4  C3  UNL d   1      -2.165   0.567  -1.621  0.00  0.00    -0.075 A 
ATOM      5  S   UNL d   1      -3.729   1.287  -1.535  0.00  0.00     0.015 SA
ATOM      6  C4  UNL d   1      -4.479  -0.082  -2.219  0.00  0.00     0.022 A 
ATOM      7  C5  UNL d   1      -3.573  -1.073  -2.513  0.00  0.00     0.026 A 
ATOM      8  C6  UNL d   1      -2.224  -0.716  -2.172  0.00  0.00    -0.082 A 
ATOM      9  C7  UNL d   1      -1.016  -1.441  -2.310  0.00  0.00     0.045 A 
ENDROOT
TORSDOF 0
ENDMDL
