MODEL 1
REMARK minimizedAffinity 10.1717672
REMARK minimizedRMSD -1
REMARK  0 active torsions:
REMARK  status: ('A' for Active; 'I' for Inactive)
ROOT
ATOM      1  C   UNL d   1      -0.113   4.425  -0.156  0.00  0.00    -0.002 A 
ATOM      2  C1  UNL d   1      -0.467   3.138  -0.536  0.00  0.00     0.010 A 
ATOM      3  C2  UNL d   1      -0.335   2.073   0.357  0.00  0.00     0.041 A 
ATOM      4  C3  UNL d   1       0.163   2.325   1.651  0.00  0.00    -0.075 A 
ATOM      5  S   UNL d   1       0.409   1.176   2.912  0.00  0.00     0.015 SA
ATOM      6  C4  UNL d   1       0.989   2.366   3.985  0.00  0.00     0.022 A 
ATOM      7  C5  UNL d   1       1.002   3.615   3.411  0.00  0.00     0.026 A 
ATOM      8  C6  UNL d   1       0.525   3.613   2.057  0.00  0.00    -0.082 A 
ATOM      9  C7  UNL d   1       0.380   4.672   1.128  0.00  0.00     0.045 A 
ENDROOT
TORSDOF 0
ENDMDL
