MODEL 1
REMARK minimizedAffinity 10.9317732
REMARK minimizedRMSD -1
REMARK  0 active torsions:
REMARK  status: ('A' for Active; 'I' for Inactive)
ROOT
ATOM      1  C   UNL d   1      -0.083   2.547   0.008  0.00  0.00    -0.002 A 
ATOM      2  C1  UNL d   1      -0.857   2.625   1.157  0.00  0.00     0.010 A 
ATOM      3  C2  UNL d   1      -1.934   1.757   1.348  0.00  0.00     0.041 A 
ATOM      4  C3  UNL d   1      -2.222   0.800   0.356  0.00  0.00    -0.075 A 
ATOM      5  S   UNL d   1      -3.491  -0.367   0.374  0.00  0.00     0.015 SA
ATOM      6  C4  UNL d   1      -3.035  -0.997  -1.142  0.00  0.00     0.022 A 
ATOM      7  C5  UNL d   1      -1.943  -0.345  -1.664  0.00  0.00     0.026 A 
ATOM      8  C6  UNL d   1      -1.456   0.701  -0.809  0.00  0.00    -0.082 A 
ATOM      9  C7  UNL d   1      -0.371   1.595  -0.974  0.00  0.00     0.045 A 
ENDROOT
TORSDOF 0
ENDMDL
