MODEL 1
REMARK minimizedAffinity 14.234252
REMARK minimizedRMSD -1
REMARK  0 active torsions:
REMARK  status: ('A' for Active; 'I' for Inactive)
ROOT
ATOM      1  C   UNL d   1       4.400  -5.655  -3.503  0.00  0.00    -0.002 A 
ATOM      2  C1  UNL d   1       4.864  -5.308  -4.764  0.00  0.00     0.010 A 
ATOM      3  C2  UNL d   1       4.101  -4.492  -5.603  0.00  0.00     0.041 A 
ATOM      4  C3  UNL d   1       2.852  -4.026  -5.147  0.00  0.00    -0.075 A 
ATOM      5  S   UNL d   1       1.746  -3.015  -6.000  0.00  0.00     0.015 SA
ATOM      6  C4  UNL d   1       0.632  -3.019  -4.710  0.00  0.00     0.022 A 
ATOM      7  C5  UNL d   1       1.076  -3.769  -3.647  0.00  0.00     0.026 A 
ATOM      8  C6  UNL d   1       2.364  -4.361  -3.881  0.00  0.00    -0.082 A 
ATOM      9  C7  UNL d   1       3.161  -5.190  -3.055  0.00  0.00     0.045 A 
ENDROOT
TORSDOF 0
ENDMDL
