MODEL 1
REMARK minimizedAffinity 9.50244236
REMARK minimizedRMSD -1
REMARK  0 active torsions:
REMARK  status: ('A' for Active; 'I' for Inactive)
ROOT
ATOM      1  C   UNL d   1       5.260  -1.310  -1.119  0.00  0.00    -0.002 A 
ATOM      2  C1  UNL d   1       5.560  -2.139  -2.190  0.00  0.00     0.010 A 
ATOM      3  C2  UNL d   1       4.933  -3.379  -2.326  0.00  0.00     0.041 A 
ATOM      4  C3  UNL d   1       3.988  -3.774  -1.358  0.00  0.00    -0.075 A 
ATOM      5  S   UNL d   1       3.094  -5.248  -1.320  0.00  0.00     0.015 SA
ATOM      6  C4  UNL d   1       2.292  -4.810   0.119  0.00  0.00     0.022 A 
ATOM      7  C5  UNL d   1       2.684  -3.574   0.573  0.00  0.00     0.026 A 
ATOM      8  C6  UNL d   1       3.668  -2.956  -0.272  0.00  0.00    -0.082 A 
ATOM      9  C7  UNL d   1       4.322  -1.705  -0.162  0.00  0.00     0.045 A 
ENDROOT
TORSDOF 0
ENDMDL
