MODEL 1
REMARK minimizedAffinity -3.38225818
REMARK minimizedRMSD -1
REMARK  0 active torsions:
REMARK  status: ('A' for Active; 'I' for Inactive)
ROOT
ATOM      1  C   UNL d   1      -0.543   0.244  -0.943  0.00  0.00     0.020 A 
ATOM      2  C1  UNL d   1      -1.309   0.344   0.218  0.00  0.00     0.020 A 
ATOM      3  C2  UNL d   1      -0.729   0.082   1.461  0.00  0.00     0.034 A 
ATOM      4  C3  UNL d   1       0.620  -0.282   1.546  0.00  0.00     0.017 A 
ATOM      5  C4  UNL d   1       1.387  -0.382   0.380  0.00  0.00     0.017 A 
ATOM      6  C5  UNL d   1       0.802  -0.118  -0.862  0.00  0.00     0.034 A 
ATOM      7 Cl   UNL d   1       3.058  -0.825   0.405  0.00  0.00    -0.070 Cl
ATOM      8 Cl1  UNL d   1       1.271  -0.591   3.116  0.00  0.00    -0.070 Cl
ENDROOT
TORSDOF 0
ENDMDL
