MODEL 1
REMARK minimizedAffinity -2.71961832
REMARK minimizedRMSD -1
REMARK  0 active torsions:
REMARK  status: ('A' for Active; 'I' for Inactive)
ROOT
ATOM      1  C   UNL d   1       0.363   0.047  -0.520  0.00  0.00     0.020 A 
ATOM      2  C1  UNL d   1      -0.997  -0.235  -0.392  0.00  0.00     0.020 A 
ATOM      3  C2  UNL d   1      -1.475  -0.858   0.763  0.00  0.00     0.034 A 
ATOM      4  C3  UNL d   1      -0.593  -1.202   1.794  0.00  0.00     0.017 A 
ATOM      5  C4  UNL d   1       0.772  -0.918   1.664  0.00  0.00     0.017 A 
ATOM      6  C5  UNL d   1       1.245  -0.294   0.506  0.00  0.00     0.034 A 
ATOM      7 Cl   UNL d   1       1.921  -1.312   2.894  0.00  0.00    -0.070 Cl
ATOM      8 Cl1  UNL d   1      -1.253  -1.970   3.194  0.00  0.00    -0.070 Cl
ENDROOT
TORSDOF 0
ENDMDL
