MODEL 1
REMARK minimizedAffinity -2.6274929
REMARK minimizedRMSD -1
REMARK  0 active torsions:
REMARK  status: ('A' for Active; 'I' for Inactive)
ROOT
ATOM      1  C   UNL d   1       0.231   1.467  -3.274  0.00  0.00     0.020 A 
ATOM      2  C1  UNL d   1      -1.135   1.674  -3.088  0.00  0.00     0.020 A 
ATOM      3  C2  UNL d   1      -1.784   1.107  -1.989  0.00  0.00     0.034 A 
ATOM      4  C3  UNL d   1      -1.067   0.329  -1.072  0.00  0.00     0.017 A 
ATOM      5  C4  UNL d   1       0.305   0.122  -1.260  0.00  0.00     0.017 A 
ATOM      6  C5  UNL d   1       0.949   0.693  -2.362  0.00  0.00     0.034 A 
ATOM      7 Cl   UNL d   1       1.257  -0.824  -0.171  0.00  0.00    -0.070 Cl
ATOM      8 Cl1  UNL d   1      -1.933  -0.341   0.264  0.00  0.00    -0.070 Cl
ENDROOT
TORSDOF 0
ENDMDL
