MODEL 1
REMARK minimizedAffinity -2.98587275
REMARK minimizedRMSD -1
REMARK  0 active torsions:
REMARK  status: ('A' for Active; 'I' for Inactive)
ROOT
ATOM      1  C   UNL d   1      -1.486   2.412  -2.573  0.00  0.00     0.020 A 
ATOM      2  C1  UNL d   1      -0.115   2.663  -2.561  0.00  0.00     0.020 A 
ATOM      3  C2  UNL d   1       0.749   1.793  -1.892  0.00  0.00     0.034 A 
ATOM      4  C3  UNL d   1       0.241   0.667  -1.233  0.00  0.00     0.017 A 
ATOM      5  C4  UNL d   1      -1.136   0.415  -1.246  0.00  0.00     0.017 A 
ATOM      6  C5  UNL d   1      -1.995   1.291  -1.917  0.00  0.00     0.034 A 
ATOM      7 Cl   UNL d   1      -1.836  -0.953  -0.456  0.00  0.00    -0.070 Cl
ATOM      8 Cl1  UNL d   1       1.367  -0.367  -0.427  0.00  0.00    -0.070 Cl
ENDROOT
TORSDOF 0
ENDMDL
