MODEL 1
REMARK minimizedAffinity -5.33993101
REMARK minimizedRMSD -1
REMARK  0 active torsions:
REMARK  status: ('A' for Active; 'I' for Inactive)
ROOT
ATOM      1  C   UNL d   1       1.867  -1.552   1.405  0.00  0.00     0.020 A 
ATOM      2  C1  UNL d   1       1.090  -1.781   2.540  0.00  0.00     0.020 A 
ATOM      3  C2  UNL d   1      -0.220  -1.302   2.599  0.00  0.00     0.034 A 
ATOM      4  C3  UNL d   1      -0.758  -0.591   1.520  0.00  0.00     0.017 A 
ATOM      5  C4  UNL d   1       0.022  -0.361   0.381  0.00  0.00     0.017 A 
ATOM      6  C5  UNL d   1       1.333  -0.843   0.327  0.00  0.00     0.034 A 
ATOM      7 Cl   UNL d   1      -0.573   0.508  -0.990  0.00  0.00    -0.070 Cl
ATOM      8 Cl1  UNL d   1      -2.386  -0.028   1.661  0.00  0.00    -0.070 Cl
ENDROOT
TORSDOF 0
ENDMDL
