MODEL 1
REMARK minimizedAffinity 8.75922871
REMARK minimizedRMSD -1
REMARK  0 active torsions:
REMARK  status: ('A' for Active; 'I' for Inactive)
ROOT
ATOM      1  C   UNL d   1       1.907   3.273   0.773  0.00  0.00    -0.002 A 
ATOM      2  C1  UNL d   1       1.093   3.070   1.879  0.00  0.00     0.010 A 
ATOM      3  C2  UNL d   1       0.446   1.847   2.069  0.00  0.00     0.041 A 
ATOM      4  C3  UNL d   1       0.634   0.822   1.121  0.00  0.00    -0.075 A 
ATOM      5  S   UNL d   1      -0.057  -0.757   1.147  0.00  0.00     0.015 SA
ATOM      6  C4  UNL d   1       0.712  -1.199  -0.308  0.00  0.00     0.022 A 
ATOM      7  C5  UNL d   1       1.481  -0.179  -0.816  0.00  0.00     0.026 A 
ATOM      8  C6  UNL d   1       1.449   1.003  -0.000  0.00  0.00    -0.082 A 
ATOM      9  C7  UNL d   1       2.090   2.254  -0.166  0.00  0.00     0.045 A 
ENDROOT
TORSDOF 0
ENDMDL
