MODEL 1
REMARK minimizedAffinity 3.87706017
REMARK minimizedRMSD -1
REMARK  0 active torsions:
REMARK  status: ('A' for Active; 'I' for Inactive)
ROOT
ATOM      1  C   UNL d   1      -1.907  -5.280  -4.420  0.00  0.00    -0.002 A 
ATOM      2  C1  UNL d   1      -2.494  -5.999  -5.453  0.00  0.00     0.010 A 
ATOM      3  C2  UNL d   1      -3.712  -5.591  -5.999  0.00  0.00     0.041 A 
ATOM      4  C3  UNL d   1      -4.336  -4.436  -5.486  0.00  0.00    -0.075 A 
ATOM      5  S   UNL d   1      -5.831  -3.748  -6.000  0.00  0.00     0.015 SA
ATOM      6  C4  UNL d   1      -5.726  -2.484  -4.862  0.00  0.00     0.022 A 
ATOM      7  C5  UNL d   1      -4.585  -2.569  -4.100  0.00  0.00     0.026 A 
ATOM      8  C6  UNL d   1      -3.765  -3.696  -4.448  0.00  0.00    -0.082 A 
ATOM      9  C7  UNL d   1      -2.529  -4.136  -3.915  0.00  0.00     0.045 A 
ENDROOT
TORSDOF 0
ENDMDL
