MODEL 1
REMARK minimizedAffinity 11.1264677
REMARK minimizedRMSD -1
REMARK  0 active torsions:
REMARK  status: ('A' for Active; 'I' for Inactive)
ROOT
ATOM      1  C   UNL d   1      -0.006  -2.139  -1.316  0.00  0.00    -0.002 A 
ATOM      2  C1  UNL d   1       1.005  -3.051  -1.047  0.00  0.00     0.010 A 
ATOM      3  C2  UNL d   1       2.269  -2.613  -0.647  0.00  0.00     0.041 A 
ATOM      4  C3  UNL d   1       2.502  -1.229  -0.518  0.00  0.00    -0.075 A 
ATOM      5  S   UNL d   1       3.970  -0.462  -0.041  0.00  0.00     0.015 SA
ATOM      6  C4  UNL d   1       3.290   1.094  -0.182  0.00  0.00     0.022 A 
ATOM      7  C5  UNL d   1       1.976   1.049  -0.582  0.00  0.00     0.026 A 
ATOM      8  C6  UNL d   1       1.499  -0.291  -0.782  0.00  0.00    -0.082 A 
ATOM      9  C7  UNL d   1       0.229  -0.767  -1.187  0.00  0.00     0.045 A 
ENDROOT
TORSDOF 0
ENDMDL
