MODEL 1
REMARK minimizedAffinity 24.4640217
REMARK minimizedRMSD -1
REMARK  0 active torsions:
REMARK  status: ('A' for Active; 'I' for Inactive)
ROOT
ATOM      1  C   UNL d   1      -3.392  -1.886  -5.103  0.00  0.00    -0.002 A 
ATOM      2  C1  UNL d   1      -2.944  -1.716  -3.801  0.00  0.00     0.010 A 
ATOM      3  C2  UNL d   1      -2.780  -0.436  -3.267  0.00  0.00     0.041 A 
ATOM      4  C3  UNL d   1      -3.078   0.681  -4.072  0.00  0.00    -0.075 A 
ATOM      5  S   UNL d   1      -2.953   2.343  -3.631  0.00  0.00     0.015 SA
ATOM      6  C4  UNL d   1      -3.493   2.867  -5.161  0.00  0.00     0.022 A 
ATOM      7  C5  UNL d   1      -3.766   1.813  -6.000  0.00  0.00     0.026 A 
ATOM      8  C6  UNL d   1      -3.532   0.536  -5.386  0.00  0.00    -0.082 A 
ATOM      9  C7  UNL d   1      -3.687  -0.775  -5.898  0.00  0.00     0.045 A 
ENDROOT
TORSDOF 0
ENDMDL
