MODEL 1
REMARK minimizedAffinity 14.2262182
REMARK minimizedRMSD -1
REMARK  0 active torsions:
REMARK  status: ('A' for Active; 'I' for Inactive)
ROOT
ATOM      1  C   UNL d   1       0.298  -2.961  -1.510  0.00  0.00    -0.002 A 
ATOM      2  C1  UNL d   1       1.527  -3.422  -1.058  0.00  0.00     0.010 A 
ATOM      3  C2  UNL d   1       2.533  -2.524  -0.697  0.00  0.00     0.041 A 
ATOM      4  C3  UNL d   1       2.280  -1.141  -0.796  0.00  0.00    -0.075 A 
ATOM      5  S   UNL d   1       3.363   0.144  -0.407  0.00  0.00     0.015 SA
ATOM      6  C4  UNL d   1       2.219   1.334  -0.831  0.00  0.00     0.022 A 
ATOM      7  C5  UNL d   1       1.035   0.783  -1.260  0.00  0.00     0.026 A 
ATOM      8  C6  UNL d   1       1.051  -0.653  -1.247  0.00  0.00    -0.082 A 
ATOM      9  C7  UNL d   1       0.051  -1.589  -1.607  0.00  0.00     0.045 A 
ENDROOT
TORSDOF 0
ENDMDL
