MODEL 1
REMARK minimizedAffinity 8.79291534
REMARK minimizedRMSD -1
REMARK  0 active torsions:
REMARK  status: ('A' for Active; 'I' for Inactive)
ROOT
ATOM      1  C   UNL d   1       0.652  -2.970  -1.300  0.00  0.00    -0.002 A 
ATOM      2  C1  UNL d   1       1.738  -3.792  -1.563  0.00  0.00     0.010 A 
ATOM      3  C2  UNL d   1       3.042  -3.307  -1.442  0.00  0.00     0.041 A 
ATOM      4  C3  UNL d   1       3.237  -1.969  -1.045  0.00  0.00    -0.075 A 
ATOM      5  S   UNL d   1       4.743  -1.158  -0.829  0.00  0.00     0.015 SA
ATOM      6  C4  UNL d   1       3.979   0.299  -0.382  0.00  0.00     0.022 A 
ATOM      7  C5  UNL d   1       2.609   0.187  -0.392  0.00  0.00     0.026 A 
ATOM      8  C6  UNL d   1       2.158  -1.122  -0.774  0.00  0.00    -0.082 A 
ATOM      9  C7  UNL d   1       0.849  -1.643  -0.907  0.00  0.00     0.045 A 
ENDROOT
TORSDOF 0
ENDMDL
