MODEL 1
REMARK minimizedAffinity 16.4846611
REMARK minimizedRMSD -1
REMARK  0 active torsions:
REMARK  status: ('A' for Active; 'I' for Inactive)
ROOT
ATOM      1  C   UNL d   1       2.677  -5.053  -1.340  0.00  0.00    -0.002 A 
ATOM      2  C1  UNL d   1       2.117  -5.044  -2.610  0.00  0.00     0.010 A 
ATOM      3  C2  UNL d   1       1.369  -3.949  -3.049  0.00  0.00     0.041 A 
ATOM      4  C3  UNL d   1       1.194  -2.852  -2.182  0.00  0.00    -0.075 A 
ATOM      5  S   UNL d   1       0.319  -1.402  -2.505  0.00  0.00     0.015 SA
ATOM      6  C4  UNL d   1       0.669  -0.760  -0.966  0.00  0.00     0.022 A 
ATOM      7  C5  UNL d   1       1.433  -1.618  -0.211  0.00  0.00     0.026 A 
ATOM      8  C6  UNL d   1       1.749  -2.837  -0.900  0.00  0.00    -0.082 A 
ATOM      9  C7  UNL d   1       2.501  -3.962  -0.484  0.00  0.00     0.045 A 
ENDROOT
TORSDOF 0
ENDMDL
