MODEL 1
REMARK minimizedAffinity 7.03422689
REMARK minimizedRMSD -1
REMARK  0 active torsions:
REMARK  status: ('A' for Active; 'I' for Inactive)
ROOT
ATOM      1  C   UNL d   1      -5.321  -0.828  -3.993  0.00  0.00    -0.002 A 
ATOM      2  C1  UNL d   1      -4.143  -1.239  -3.385  0.00  0.00     0.010 A 
ATOM      3  C2  UNL d   1      -3.618  -2.508  -3.638  0.00  0.00     0.041 A 
ATOM      4  C3  UNL d   1      -4.302  -3.364  -4.523  0.00  0.00    -0.075 A 
ATOM      5  S   UNL d   1      -3.846  -4.962  -4.983  0.00  0.00     0.015 SA
ATOM      6  C4  UNL d   1      -5.204  -5.137  -5.999  0.00  0.00     0.022 A 
ATOM      7  C5  UNL d   1      -5.996  -4.013  -5.998  0.00  0.00     0.026 A 
ATOM      8  C6  UNL d   1      -5.489  -2.973  -5.148  0.00  0.00    -0.082 A 
ATOM      9  C7  UNL d   1      -5.997  -1.681  -4.870  0.00  0.00     0.045 A 
ENDROOT
TORSDOF 0
ENDMDL
