MODEL 1
REMARK minimizedAffinity 8.70556259
REMARK minimizedRMSD -1
REMARK  0 active torsions:
REMARK  status: ('A' for Active; 'I' for Inactive)
ROOT
ATOM      1  C   UNL d   1      -2.153   2.087  -2.686  0.00  0.00    -0.002 A 
ATOM      2  C1  UNL d   1      -2.919   3.160  -3.118  0.00  0.00     0.010 A 
ATOM      3  C2  UNL d   1      -3.875   2.992  -4.122  0.00  0.00     0.041 A 
ATOM      4  C3  UNL d   1      -4.052   1.713  -4.687  0.00  0.00    -0.075 A 
ATOM      5  S   UNL d   1      -5.164   1.270  -5.928  0.00  0.00     0.015 SA
ATOM      6  C4  UNL d   1      -4.650  -0.354  -5.912  0.00  0.00     0.022 A 
ATOM      7  C5  UNL d   1      -3.654  -0.571  -4.989  0.00  0.00     0.026 A 
ATOM      8  C6  UNL d   1      -3.294   0.617  -4.267  0.00  0.00    -0.082 A 
ATOM      9  C7  UNL d   1      -2.331   0.820  -3.249  0.00  0.00     0.045 A 
ENDROOT
TORSDOF 0
ENDMDL
