MODEL 1
REMARK minimizedAffinity -2.92348719
REMARK minimizedRMSD -1
REMARK  2 active torsions:
REMARK  status: ('A' for Active; 'I' for Inactive)
REMARK    1  A    between atoms: C1_2  and  C2_3 
REMARK    2  A    between atoms: C2_3  and  C3_4 
ROOT
ATOM      1  C3  UNL d   1       0.162   0.149   0.289  0.00  0.00    -0.075 A 
ATOM      2  C4  UNL d   1       0.858   0.948   1.208  0.00  0.00     0.002 A 
ATOM      3  C5  UNL d   1       0.670   0.776   2.580  0.00  0.00     0.002 A 
ATOM      4  C6  UNL d   1      -0.222  -0.186   3.049  0.00  0.00    -0.004 A 
ATOM      5  C7  UNL d   1      -0.931  -0.973   2.145  0.00  0.00     0.002 A 
ATOM      6  C8  UNL d   1      -0.741  -0.807   0.772  0.00  0.00     0.002 A 
ENDROOT
BRANCH   1   7
ATOM      7  C2  UNL d   1       0.383   0.309  -1.196  0.00  0.00     0.056 C 
BRANCH   7   8
ATOM      8  C1  UNL d   1       0.738  -0.995  -1.918  0.00  0.00     0.007 C 
ATOM      9  C   UNL d   1       1.084  -0.793  -3.387  0.00  0.00     0.009 C 
ENDBRANCH   7   8
ENDBRANCH   1   7
TORSDOF 2
ENDMDL
