MODEL 1
REMARK minimizedAffinity -4.46166134
REMARK minimizedRMSD -1
REMARK  2 active torsions:
REMARK  status: ('A' for Active; 'I' for Inactive)
REMARK    1  A    between atoms: C1_2  and  C2_3 
REMARK    2  A    between atoms: C2_3  and  C3_4 
ROOT
ATOM      1  C3  UNL d   1       0.010  -0.398   0.225  0.00  0.00    -0.075 A 
ATOM      2  C4  UNL d   1       0.969  -0.245   1.236  0.00  0.00     0.002 A 
ATOM      3  C5  UNL d   1       0.592  -0.271   2.579  0.00  0.00     0.002 A 
ATOM      4  C6  UNL d   1      -0.746  -0.440   2.927  0.00  0.00    -0.004 A 
ATOM      5  C7  UNL d   1      -1.709  -0.576   1.930  0.00  0.00     0.002 A 
ATOM      6  C8  UNL d   1      -1.334  -0.555   0.585  0.00  0.00     0.002 A 
ENDROOT
BRANCH   1   7
ATOM      7  C2  UNL d   1       0.416  -0.399  -1.230  0.00  0.00     0.056 C 
BRANCH   7   8
ATOM      8  C1  UNL d   1       0.655  -1.798  -1.809  0.00  0.00     0.007 C 
ATOM      9  C   UNL d   1       0.894  -1.792  -3.313  0.00  0.00     0.009 C 
ENDBRANCH   7   8
ENDBRANCH   1   7
TORSDOF 2
ENDMDL
