MODEL 1
REMARK minimizedAffinity -6.25605059
REMARK minimizedRMSD -1
REMARK  2 active torsions:
REMARK  status: ('A' for Active; 'I' for Inactive)
REMARK    1  A    between atoms: C1_2  and  C2_3 
REMARK    2  A    between atoms: C2_3  and  C3_4 
ROOT
ATOM      1  C3  UNL d   1       0.018  -0.039   0.128  0.00  0.00    -0.075 A 
ATOM      2  C4  UNL d   1       1.212   0.215   0.818  0.00  0.00     0.002 A 
ATOM      3  C5  UNL d   1       1.283   0.039   2.200  0.00  0.00     0.002 A 
ATOM      4  C6  UNL d   1       0.160  -0.382   2.910  0.00  0.00    -0.004 A 
ATOM      5  C7  UNL d   1      -1.036  -0.622   2.237  0.00  0.00     0.002 A 
ATOM      6  C8  UNL d   1      -1.108  -0.451   0.853  0.00  0.00     0.002 A 
ENDROOT
BRANCH   1   7
ATOM      7  C2  UNL d   1      -0.057   0.121  -1.372  0.00  0.00     0.056 C 
BRANCH   7   8
ATOM      8  C1  UNL d   1       1.032  -0.639  -2.136  0.00  0.00     0.007 C 
ATOM      9  C   UNL d   1       0.483  -1.754  -3.015  0.00  0.00     0.009 C 
ENDBRANCH   7   8
ENDBRANCH   1   7
TORSDOF 2
ENDMDL
