MODEL 1
REMARK minimizedAffinity -2.44493413
REMARK minimizedRMSD -1
REMARK  2 active torsions:
REMARK  status: ('A' for Active; 'I' for Inactive)
REMARK    1  A    between atoms: C1_2  and  C2_3 
REMARK    2  A    between atoms: C2_3  and  C3_4 
ROOT
ATOM      1  C3  UNL d   1       0.397  -0.641  -0.086  0.00  0.00    -0.075 A 
ATOM      2  C4  UNL d   1       1.041   0.223   0.811  0.00  0.00     0.002 A 
ATOM      3  C5  UNL d   1       0.685   0.238   2.160  0.00  0.00     0.002 A 
ATOM      4  C6  UNL d   1      -0.325  -0.601   2.626  0.00  0.00    -0.004 A 
ATOM      5  C7  UNL d   1      -0.983  -1.451   1.741  0.00  0.00     0.002 A 
ATOM      6  C8  UNL d   1      -0.626  -1.472   0.391  0.00  0.00     0.002 A 
ENDROOT
BRANCH   1   7
ATOM      7  C2  UNL d   1       0.798  -0.684  -1.542  0.00  0.00     0.056 C 
BRANCH   7   8
ATOM      8  C1  UNL d   1       1.329  -2.045  -2.003  0.00  0.00     0.007 C 
ATOM      9  C   UNL d   1       0.620  -2.577  -3.241  0.00  0.00     0.009 C 
ENDBRANCH   7   8
ENDBRANCH   1   7
TORSDOF 2
ENDMDL
