MODEL 1
REMARK minimizedAffinity -4.45842981
REMARK minimizedRMSD -1
REMARK  2 active torsions:
REMARK  status: ('A' for Active; 'I' for Inactive)
REMARK    1  A    between atoms: C1_2  and  C2_3 
REMARK    2  A    between atoms: C2_3  and  C3_4 
ROOT
ATOM      1  C3  UNL d   1       0.208   0.092  -0.089  0.00  0.00    -0.075 A 
ATOM      2  C4  UNL d   1      -0.868  -0.690   0.355  0.00  0.00     0.002 A 
ATOM      3  C5  UNL d   1      -1.105  -0.858   1.719  0.00  0.00     0.002 A 
ATOM      4  C6  UNL d   1      -0.267  -0.257   2.655  0.00  0.00    -0.004 A 
ATOM      5  C7  UNL d   1       0.815   0.509   2.225  0.00  0.00     0.002 A 
ATOM      6  C8  UNL d   1       1.053   0.683   0.860  0.00  0.00     0.002 A 
ENDROOT
BRANCH   1   7
ATOM      7  C2  UNL d   1       0.453   0.302  -1.565  0.00  0.00     0.056 C 
BRANCH   7   8
ATOM      8  C1  UNL d   1       0.100  -0.909  -2.434  0.00  0.00     0.007 C 
ATOM      9  C   UNL d   1       1.194  -1.273  -3.429  0.00  0.00     0.009 C 
ENDBRANCH   7   8
ENDBRANCH   1   7
TORSDOF 2
ENDMDL
