MODEL 1
REMARK minimizedAffinity -3.40579987
REMARK minimizedRMSD -1
REMARK  2 active torsions:
REMARK  status: ('A' for Active; 'I' for Inactive)
REMARK    1  A    between atoms: C1_2  and  C2_3 
REMARK    2  A    between atoms: C2_3  and  C3_4 
ROOT
ATOM      1  C3  UNL d   1      -0.391   0.002  -0.633  0.00  0.00    -0.075 A 
ATOM      2  C4  UNL d   1      -1.654  -0.453  -0.228  0.00  0.00     0.002 A 
ATOM      3  C5  UNL d   1      -1.874  -0.853   1.091  0.00  0.00     0.002 A 
ATOM      4  C6  UNL d   1      -0.833  -0.812   2.017  0.00  0.00    -0.004 A 
ATOM      5  C7  UNL d   1       0.430  -0.378   1.621  0.00  0.00     0.002 A 
ATOM      6  C8  UNL d   1       0.651   0.027   0.304  0.00  0.00     0.002 A 
ENDROOT
BRANCH   1   7
ATOM      7  C2  UNL d   1      -0.154   0.464  -2.051  0.00  0.00     0.056 C 
BRANCH   7   8
ATOM      8  C1  UNL d   1       0.916  -0.339  -2.798  0.00  0.00     0.007 C 
ATOM      9  C   UNL d   1       0.344  -1.499  -3.602  0.00  0.00     0.009 C 
ENDBRANCH   7   8
ENDBRANCH   1   7
TORSDOF 2
ENDMDL
