MODEL 1
REMARK minimizedAffinity -2.09287977
REMARK minimizedRMSD -1
REMARK  2 active torsions:
REMARK  status: ('A' for Active; 'I' for Inactive)
REMARK    1  A    between atoms: C1_2  and  C2_3 
REMARK    2  A    between atoms: C2_3  and  C3_4 
ROOT
ATOM      1  C3  UNL d   1       0.346  -0.255  -0.148  0.00  0.00    -0.075 A 
ATOM      2  C4  UNL d   1       0.834   0.199   1.086  0.00  0.00     0.002 A 
ATOM      3  C5  UNL d   1       0.044   0.115   2.233  0.00  0.00     0.002 A 
ATOM      4  C6  UNL d   1      -1.244  -0.411   2.160  0.00  0.00    -0.004 A 
ATOM      5  C7  UNL d   1      -1.744  -0.849   0.936  0.00  0.00     0.002 A 
ATOM      6  C8  UNL d   1      -0.955  -0.771  -0.213  0.00  0.00     0.002 A 
ENDROOT
BRANCH   1   7
ATOM      7  C2  UNL d   1       1.206  -0.194  -1.388  0.00  0.00     0.056 C 
BRANCH   7   8
ATOM      8  C1  UNL d   1       0.694  -1.058  -2.545  0.00  0.00     0.007 C 
ATOM      9  C   UNL d   1       1.770  -1.386  -3.572  0.00  0.00     0.009 C 
ENDBRANCH   7   8
ENDBRANCH   1   7
TORSDOF 2
ENDMDL
