MODEL 1
REMARK minimizedAffinity -5.49513054
REMARK minimizedRMSD -1
REMARK  2 active torsions:
REMARK  status: ('A' for Active; 'I' for Inactive)
REMARK    1  A    between atoms: C1_2  and  C2_3 
REMARK    2  A    between atoms: C2_3  and  C3_4 
ROOT
ATOM      1  C3  UNL d   1      -0.365   0.166  -0.350  0.00  0.00    -0.075 A 
ATOM      2  C4  UNL d   1      -1.700  -0.002   0.045  0.00  0.00     0.002 A 
ATOM      3  C5  UNL d   1      -2.029  -0.135   1.395  0.00  0.00     0.002 A 
ATOM      4  C6  UNL d   1      -1.028  -0.113   2.364  0.00  0.00    -0.004 A 
ATOM      5  C7  UNL d   1       0.303   0.037   1.982  0.00  0.00     0.002 A 
ATOM      6  C8  UNL d   1       0.634   0.175   0.633  0.00  0.00     0.002 A 
ENDROOT
BRANCH   1   7
ATOM      7  C2  UNL d   1      -0.006   0.340  -1.806  0.00  0.00     0.056 C 
BRANCH   7   8
ATOM      8  C1  UNL d   1       0.494  -0.941  -2.482  0.00  0.00     0.007 C 
ATOM      9  C   UNL d   1       1.572  -0.686  -3.527  0.00  0.00     0.009 C 
ENDBRANCH   7   8
ENDBRANCH   1   7
TORSDOF 2
ENDMDL
