MODEL 1
REMARK minimizedAffinity -4.69686127
REMARK minimizedRMSD -1
REMARK  2 active torsions:
REMARK  status: ('A' for Active; 'I' for Inactive)
REMARK    1  A    between atoms: C1_2  and  C2_3 
REMARK    2  A    between atoms: C2_3  and  C3_4 
ROOT
ATOM      1  C3  UNL d   1       0.058   0.009   0.055  0.00  0.00    -0.075 A 
ATOM      2  C4  UNL d   1       0.816   0.564   1.096  0.00  0.00     0.002 A 
ATOM      3  C5  UNL d   1       0.486   0.309   2.427  0.00  0.00     0.002 A 
ATOM      4  C6  UNL d   1      -0.610  -0.494   2.735  0.00  0.00    -0.004 A 
ATOM      5  C7  UNL d   1      -1.380  -1.037   1.709  0.00  0.00     0.002 A 
ATOM      6  C8  UNL d   1      -1.050  -0.788   0.376  0.00  0.00     0.002 A 
ENDROOT
BRANCH   1   7
ATOM      7  C2  UNL d   1       0.427   0.257  -1.388  0.00  0.00     0.056 C 
BRANCH   7   8
ATOM      8  C1  UNL d   1       0.800  -1.012  -2.163  0.00  0.00     0.007 C 
ATOM      9  C   UNL d   1       1.865  -0.774  -3.226  0.00  0.00     0.009 C 
ENDBRANCH   7   8
ENDBRANCH   1   7
TORSDOF 2
ENDMDL
