MODEL 1
REMARK minimizedAffinity -6.19262695
REMARK minimizedRMSD -1
REMARK  2 active torsions:
REMARK  status: ('A' for Active; 'I' for Inactive)
REMARK    1  A    between atoms: C1_2  and  C2_3 
REMARK    2  A    between atoms: C2_3  and  C3_4 
ROOT
ATOM      1  C3  UNL d   1      -0.027  -0.059  -0.166  0.00  0.00    -0.075 A 
ATOM      2  C4  UNL d   1       1.269   0.329   0.200  0.00  0.00     0.002 A 
ATOM      3  C5  UNL d   1       1.662   0.312   1.539  0.00  0.00     0.002 A 
ATOM      4  C6  UNL d   1       0.763  -0.082   2.527  0.00  0.00    -0.004 A 
ATOM      5  C7  UNL d   1      -0.533  -0.454   2.176  0.00  0.00     0.002 A 
ATOM      6  C8  UNL d   1      -0.928  -0.442   0.837  0.00  0.00     0.002 A 
ENDROOT
BRANCH   1   7
ATOM      7  C2  UNL d   1      -0.449  -0.072  -1.616  0.00  0.00     0.056 C 
BRANCH   7   8
ATOM      8  C1  UNL d   1       0.697  -0.339  -2.597  0.00  0.00     0.007 C 
ATOM      9  C   UNL d   1       0.430  -1.516  -3.526  0.00  0.00     0.009 C 
ENDBRANCH   7   8
ENDBRANCH   1   7
TORSDOF 2
ENDMDL
