MODEL 1
REMARK minimizedAffinity -4.49795246
REMARK minimizedRMSD -1
REMARK  2 active torsions:
REMARK  status: ('A' for Active; 'I' for Inactive)
REMARK    1  A    between atoms: C1_2  and  C2_3 
REMARK    2  A    between atoms: C2_3  and  C3_4 
ROOT
ATOM      1  C3  UNL d   1       0.204  -0.471  -1.398  0.00  0.00    -0.075 A 
ATOM      2  C4  UNL d   1      -0.015  -1.660  -2.108  0.00  0.00     0.002 A 
ATOM      3  C5  UNL d   1       0.666  -1.910  -3.299  0.00  0.00     0.002 A 
ATOM      4  C6  UNL d   1       1.565  -0.971  -3.801  0.00  0.00    -0.004 A 
ATOM      5  C7  UNL d   1       1.778   0.221  -3.113  0.00  0.00     0.002 A 
ATOM      6  C8  UNL d   1       1.101   0.472  -1.918  0.00  0.00     0.002 A 
ENDROOT
BRANCH   1   7
ATOM      7  C2  UNL d   1      -0.508  -0.208  -0.092  0.00  0.00     0.056 C 
BRANCH   7   8
ATOM      8  C1  UNL d   1       0.416  -0.188   1.129  0.00  0.00     0.007 C 
ATOM      9  C   UNL d   1      -0.298  -0.535   2.429  0.00  0.00     0.009 C 
ENDBRANCH   7   8
ENDBRANCH   1   7
TORSDOF 2
ENDMDL
