MODEL 1
REMARK minimizedAffinity -5.85178566
REMARK minimizedRMSD -1
REMARK  2 active torsions:
REMARK  status: ('A' for Active; 'I' for Inactive)
REMARK    1  A    between atoms: C1_2  and  C2_3 
REMARK    2  A    between atoms: C2_3  and  C3_4 
ROOT
ATOM      1  C3  UNL d   1      -0.154   0.051  -0.562  0.00  0.00    -0.075 A 
ATOM      2  C4  UNL d   1      -1.260  -0.366   0.192  0.00  0.00     0.002 A 
ATOM      3  C5  UNL d   1      -1.126  -0.641   1.553  0.00  0.00     0.002 A 
ATOM      4  C6  UNL d   1       0.115  -0.513   2.174  0.00  0.00    -0.004 A 
ATOM      5  C7  UNL d   1       1.224  -0.116   1.430  0.00  0.00     0.002 A 
ATOM      6  C8  UNL d   1       1.092   0.164   0.069  0.00  0.00     0.002 A 
ENDROOT
BRANCH   1   7
ATOM      7  C2  UNL d   1      -0.298   0.378  -2.029  0.00  0.00     0.056 C 
BRANCH   7   8
ATOM      8  C1  UNL d   1       0.712  -0.339  -2.931  0.00  0.00     0.007 C 
ATOM      9  C   UNL d   1       0.267  -1.738  -3.337  0.00  0.00     0.009 C 
ENDBRANCH   7   8
ENDBRANCH   1   7
TORSDOF 2
ENDMDL
