MODEL 1
REMARK minimizedAffinity -2.78317738
REMARK minimizedRMSD -1
REMARK  2 active torsions:
REMARK  status: ('A' for Active; 'I' for Inactive)
REMARK    1  A    between atoms: C1_2  and  C2_3 
REMARK    2  A    between atoms: C2_3  and  C3_4 
ROOT
ATOM      1  C3  UNL d   1       0.487  -0.049  -1.084  0.00  0.00    -0.075 A 
ATOM      2  C4  UNL d   1       1.613   0.501  -0.454  0.00  0.00     0.002 A 
ATOM      3  C5  UNL d   1       1.709   0.518   0.937  0.00  0.00     0.002 A 
ATOM      4  C6  UNL d   1       0.678  -0.003   1.716  0.00  0.00    -0.004 A 
ATOM      5  C7  UNL d   1      -0.453  -0.536   1.102  0.00  0.00     0.002 A 
ATOM      6  C8  UNL d   1      -0.549  -0.559  -0.291  0.00  0.00     0.002 A 
ENDROOT
BRANCH   1   7
ATOM      7  C2  UNL d   1       0.390  -0.097  -2.590  0.00  0.00     0.056 C 
BRANCH   7   8
ATOM      8  C1  UNL d   1       0.606  -1.493  -3.184  0.00  0.00     0.007 C 
ATOM      9  C   UNL d   1       1.956  -1.652  -3.870  0.00  0.00     0.009 C 
ENDBRANCH   7   8
ENDBRANCH   1   7
TORSDOF 2
ENDMDL
