MODEL 1
REMARK minimizedAffinity 1.03769815
REMARK minimizedRMSD -1
REMARK  0 active torsions:
REMARK  status: ('A' for Active; 'I' for Inactive)
ROOT
ATOM      1  C   UNL d   1       5.249   3.088   1.923  0.00  0.00     0.077 C 
ATOM      2  C1  UNL d   1       4.800   3.271   3.342  0.00  0.00    -0.074 A 
ATOM      3  C2  UNL d   1       4.172   2.233   4.037  0.00  0.00    -0.005 A 
ATOM      4  C3  UNL d   1       3.768   2.415   5.360  0.00  0.00     0.006 A 
ATOM      5  C4  UNL d   1       3.988   3.635   6.000  0.00  0.00    -0.005 A 
ATOM      6  C5  UNL d   1       4.616   4.685   5.321  0.00  0.00    -0.074 A 
ATOM      7  C6  UNL d   1       4.868   5.999   5.998  0.00  0.00     0.077 C 
ATOM      8  C7  UNL d   1       5.025   4.492   3.995  0.00  0.00    -0.001 A 
ENDROOT
TORSDOF 0
ENDMDL
