MODEL 1
REMARK minimizedAffinity -2.7342062
REMARK minimizedRMSD -1
REMARK  0 active torsions:
REMARK  status: ('A' for Active; 'I' for Inactive)
ROOT
ATOM      1  C   UNL d   1       2.629   1.574   4.128  0.00  0.00     0.077 C 
ATOM      2  C1  UNL d   1       3.662   2.579   4.543  0.00  0.00    -0.074 A 
ATOM      3  C2  UNL d   1       4.507   2.334   5.631  0.00  0.00    -0.005 A 
ATOM      4  C3  UNL d   1       5.469   3.274   5.999  0.00  0.00     0.006 A 
ATOM      5  C4  UNL d   1       5.597   4.466   5.285  0.00  0.00    -0.005 A 
ATOM      6  C5  UNL d   1       4.762   4.727   4.194  0.00  0.00    -0.074 A 
ATOM      7  C6  UNL d   1       4.893   5.999   3.409  0.00  0.00     0.077 C 
ATOM      8  C7  UNL d   1       3.802   3.775   3.826  0.00  0.00    -0.001 A 
ENDROOT
TORSDOF 0
ENDMDL
