MODEL 1
REMARK minimizedAffinity 2.21556234
REMARK minimizedRMSD -1
REMARK  0 active torsions:
REMARK  status: ('A' for Active; 'I' for Inactive)
ROOT
ATOM      1  C   UNL d   1       3.348   1.532   4.619  0.00  0.00     0.077 C 
ATOM      2  C1  UNL d   1       3.755   2.951   4.358  0.00  0.00    -0.074 A 
ATOM      3  C2  UNL d   1       3.277   3.642   3.239  0.00  0.00    -0.005 A 
ATOM      4  C3  UNL d   1       3.657   4.965   3.014  0.00  0.00     0.006 A 
ATOM      5  C4  UNL d   1       4.517   5.610   3.904  0.00  0.00    -0.005 A 
ATOM      6  C5  UNL d   1       5.003   4.936   5.028  0.00  0.00    -0.074 A 
ATOM      7  C6  UNL d   1       5.920   5.618   6.000  0.00  0.00     0.077 C 
ATOM      8  C7  UNL d   1       4.612   3.609   5.251  0.00  0.00    -0.001 A 
ENDROOT
TORSDOF 0
ENDMDL
