MODEL 1
REMARK minimizedAffinity -3.59124017
REMARK minimizedRMSD -1
REMARK  0 active torsions:
REMARK  status: ('A' for Active; 'I' for Inactive)
ROOT
ATOM      1  C   UNL d   1       2.912   1.701   5.834  0.00  0.00     0.077 C 
ATOM      2  C1  UNL d   1       2.926   3.200   5.882  0.00  0.00    -0.074 A 
ATOM      3  C2  UNL d   1       1.733   3.929   5.912  0.00  0.00    -0.005 A 
ATOM      4  C3  UNL d   1       1.762   5.323   5.967  0.00  0.00     0.006 A 
ATOM      5  C4  UNL d   1       2.982   6.000   5.992  0.00  0.00    -0.005 A 
ATOM      6  C5  UNL d   1       4.185   5.287   5.963  0.00  0.00    -0.074 A 
ATOM      7  C6  UNL d   1       5.505   5.999   5.999  0.00  0.00     0.077 C 
ATOM      8  C7  UNL d   1       4.148   3.887   5.915  0.00  0.00    -0.001 A 
ENDROOT
TORSDOF 0
ENDMDL
