MODEL 1
REMARK minimizedAffinity -2.50835848
REMARK minimizedRMSD -1
REMARK  0 active torsions:
REMARK  status: ('A' for Active; 'I' for Inactive)
ROOT
ATOM      1  C   UNL d   1       1.883   5.596   5.645  0.00  0.00     0.077 C 
ATOM      2  C1  UNL d   1       2.731   4.508   5.056  0.00  0.00    -0.074 A 
ATOM      3  C2  UNL d   1       3.377   4.685   3.828  0.00  0.00    -0.005 A 
ATOM      4  C3  UNL d   1       4.169   3.667   3.297  0.00  0.00     0.006 A 
ATOM      5  C4  UNL d   1       4.324   2.464   3.988  0.00  0.00    -0.005 A 
ATOM      6  C5  UNL d   1       3.687   2.270   5.217  0.00  0.00    -0.074 A 
ATOM      7  C6  UNL d   1       3.851   0.987   5.977  0.00  0.00     0.077 C 
ATOM      8  C7  UNL d   1       2.898   3.300   5.747  0.00  0.00    -0.001 A 
ENDROOT
TORSDOF 0
ENDMDL
