MODEL 1
REMARK minimizedAffinity 10.6375103
REMARK minimizedRMSD -1
REMARK  1 active torsions:
REMARK  status: ('A' for Active; 'I' for Inactive)
REMARK    1  A    between atoms: C1_2  and  C2_3 
ROOT
ATOM      1  C2  UNL d   1      -1.400  -2.737  -3.547  0.00  0.00    -0.073 A 
ATOM      2  C3  UNL d   1      -1.811  -1.476  -3.991  0.00  0.00    -0.002 A 
ATOM      3  C4  UNL d   1      -2.831  -1.359  -4.937  0.00  0.00     0.004 A 
ATOM      4  C5  UNL d   1      -3.453  -2.501  -5.443  0.00  0.00    -0.004 A 
ATOM      5  C6  UNL d   1      -3.063  -3.770  -5.002  0.00  0.00    -0.075 A 
ATOM      6  C7  UNL d   1      -3.721  -5.008  -5.538  0.00  0.00     0.076 C 
ATOM      7  C8  UNL d   1      -2.037  -3.879  -4.054  0.00  0.00     0.001 A 
ENDROOT
BRANCH   1   8
ATOM      8  C1  UNL d   1      -0.304  -2.868  -2.521  0.00  0.00     0.053 C 
ATOM      9  C   UNL d   1      -0.515  -1.934  -1.340  0.00  0.00     0.018 C 
ENDBRANCH   1   8
TORSDOF 1
ENDMDL
