MODEL 1
REMARK minimizedAffinity 7.23524857
REMARK minimizedRMSD -1
REMARK  1 active torsions:
REMARK  status: ('A' for Active; 'I' for Inactive)
REMARK    1  A    between atoms: C1_2  and  C2_3 
ROOT
ATOM      1  C2  UNL d   1       4.709  -1.090   2.411  0.00  0.00    -0.073 A 
ATOM      2  C3  UNL d   1       3.751  -2.094   2.590  0.00  0.00    -0.002 A 
ATOM      3  C4  UNL d   1       2.560  -2.068   1.863  0.00  0.00     0.004 A 
ATOM      4  C5  UNL d   1       2.318  -1.044   0.947  0.00  0.00    -0.004 A 
ATOM      5  C6  UNL d   1       3.269  -0.038   0.747  0.00  0.00    -0.075 A 
ATOM      6  C7  UNL d   1       3.023   1.072  -0.233  0.00  0.00     0.076 C 
ATOM      7  C8  UNL d   1       4.461  -0.069   1.482  0.00  0.00     0.001 A 
ENDROOT
BRANCH   1   8
ATOM      8  C1  UNL d   1       6.000  -1.117   3.189  0.00  0.00     0.053 C 
ATOM      9  C   UNL d   1       5.849  -1.839   4.518  0.00  0.00     0.018 C 
ENDBRANCH   1   8
TORSDOF 1
ENDMDL
