MODEL 1
REMARK minimizedAffinity 2.5892787
REMARK minimizedRMSD -1
REMARK  1 active torsions:
REMARK  status: ('A' for Active; 'I' for Inactive)
REMARK    1  A    between atoms: C1_2  and  C2_3 
ROOT
ATOM      1  C2  UNL d   1       4.858   2.285  -1.435  0.00  0.00    -0.073 A 
ATOM      2  C3  UNL d   1       5.241   2.674  -0.146  0.00  0.00    -0.002 A 
ATOM      3  C4  UNL d   1       4.449   2.344   0.954  0.00  0.00     0.004 A 
ATOM      4  C5  UNL d   1       3.271   1.618   0.779  0.00  0.00    -0.004 A 
ATOM      5  C6  UNL d   1       2.877   1.211  -0.500  0.00  0.00    -0.075 A 
ATOM      6  C7  UNL d   1       1.611   0.431  -0.705  0.00  0.00     0.076 C 
ATOM      7  C8  UNL d   1       3.676   1.548  -1.600  0.00  0.00     0.001 A 
ENDROOT
BRANCH   1   8
ATOM      8  C1  UNL d   1       5.713   2.634  -2.626  0.00  0.00     0.053 C 
ATOM      9  C   UNL d   1       5.998   4.125  -2.706  0.00  0.00     0.018 C 
ENDBRANCH   1   8
TORSDOF 1
ENDMDL
