MODEL 1
REMARK minimizedAffinity -1.42179501
REMARK minimizedRMSD -1
REMARK  1 active torsions:
REMARK  status: ('A' for Active; 'I' for Inactive)
REMARK    1  A    between atoms: C1_2  and  C2_3 
ROOT
ATOM      1  C2  UNL d   1       3.862   0.870   0.999  0.00  0.00    -0.073 A 
ATOM      2  C3  UNL d   1       2.788   0.481   0.191  0.00  0.00    -0.002 A 
ATOM      3  C4  UNL d   1       2.750   0.845  -1.155  0.00  0.00     0.004 A 
ATOM      4  C5  UNL d   1       3.788   1.595  -1.709  0.00  0.00    -0.004 A 
ATOM      5  C6  UNL d   1       4.876   1.983  -0.921  0.00  0.00    -0.075 A 
ATOM      6  C7  UNL d   1       5.999   2.792  -1.500  0.00  0.00     0.076 C 
ATOM      7  C8  UNL d   1       4.905   1.616   0.431  0.00  0.00     0.001 A 
ENDROOT
BRANCH   1   8
ATOM      8  C1  UNL d   1       3.910   0.473   2.452  0.00  0.00     0.053 C 
ATOM      9  C   UNL d   1       3.357  -0.924   2.680  0.00  0.00     0.018 C 
ENDBRANCH   1   8
TORSDOF 1
ENDMDL
