MODEL 1
REMARK minimizedAffinity 15.395277
REMARK minimizedRMSD -1
REMARK  0 active torsions:
REMARK  status: ('A' for Active; 'I' for Inactive)
ROOT
ATOM      1  C   UNL d   1      -5.521   4.491   5.175  0.00  0.00     0.020 A 
ATOM      2  C1  UNL d   1      -5.889   5.756   4.720  0.00  0.00     0.020 A 
ATOM      3  C2  UNL d   1      -6.000   6.000   3.349  0.00  0.00     0.034 A 
ATOM      4  C3  UNL d   1      -5.742   4.977   2.429  0.00  0.00     0.017 A 
ATOM      5  C4  UNL d   1      -5.373   3.707   2.887  0.00  0.00     0.017 A 
ATOM      6  C5  UNL d   1      -5.264   3.469   4.260  0.00  0.00     0.034 A 
ATOM      7 Cl   UNL d   1      -5.039   2.395   1.813  0.00  0.00    -0.070 Cl
ATOM      8 Cl1  UNL d   1      -5.899   5.349   0.749  0.00  0.00    -0.070 Cl
ENDROOT
TORSDOF 0
ENDMDL
