MODEL 1
REMARK minimizedAffinity 5.6130991
REMARK minimizedRMSD -1
REMARK  0 active torsions:
REMARK  status: ('A' for Active; 'I' for Inactive)
ROOT
ATOM      1  C   UNL d   1       3.003   0.593  -1.316  0.00  0.00     0.020 A 
ATOM      2  C1  UNL d   1       2.683   0.331   0.015  0.00  0.00     0.020 A 
ATOM      3  C2  UNL d   1       3.389   0.963   1.041  0.00  0.00     0.034 A 
ATOM      4  C3  UNL d   1       4.420   1.860   0.736  0.00  0.00     0.017 A 
ATOM      5  C4  UNL d   1       4.740   2.123  -0.601  0.00  0.00     0.017 A 
ATOM      6  C5  UNL d   1       4.030   1.487  -1.623  0.00  0.00     0.034 A 
ATOM      7 Cl   UNL d   1       5.998   3.217  -1.054  0.00  0.00    -0.070 Cl
ATOM      8 Cl1  UNL d   1       5.251   2.606   2.055  0.00  0.00    -0.070 Cl
ENDROOT
TORSDOF 0
ENDMDL
