MODEL 1
REMARK minimizedAffinity 4.78244591
REMARK minimizedRMSD -1
REMARK  0 active torsions:
REMARK  status: ('A' for Active; 'I' for Inactive)
ROOT
ATOM      1  C   UNL d   1       2.263   1.289  -0.930  0.00  0.00     0.020 A 
ATOM      2  C1  UNL d   1       3.472   1.971  -0.796  0.00  0.00     0.020 A 
ATOM      3  C2  UNL d   1       4.467   1.468   0.044  0.00  0.00     0.034 A 
ATOM      4  C3  UNL d   1       4.256   0.281   0.754  0.00  0.00     0.017 A 
ATOM      5  C4  UNL d   1       3.042  -0.403   0.620  0.00  0.00     0.017 A 
ATOM      6  C5  UNL d   1       2.049   0.104  -0.223  0.00  0.00     0.034 A 
ATOM      7 Cl   UNL d   1       2.709  -1.874   1.463  0.00  0.00    -0.070 Cl
ATOM      8 Cl1  UNL d   1       5.531  -0.282   1.775  0.00  0.00    -0.070 Cl
ENDROOT
TORSDOF 0
ENDMDL
