MODEL 1
REMARK minimizedAffinity 3.38890386
REMARK minimizedRMSD -1
REMARK  0 active torsions:
REMARK  status: ('A' for Active; 'I' for Inactive)
ROOT
ATOM      1  C   UNL d   1       3.741   1.541   0.203  0.00  0.00     0.020 A 
ATOM      2  C1  UNL d   1       3.491   1.581  -1.168  0.00  0.00     0.020 A 
ATOM      3  C2  UNL d   1       2.894   0.488  -1.800  0.00  0.00     0.034 A 
ATOM      4  C3  UNL d   1       2.545  -0.649  -1.061  0.00  0.00     0.017 A 
ATOM      5  C4  UNL d   1       2.797  -0.687   0.315  0.00  0.00     0.017 A 
ATOM      6  C5  UNL d   1       3.395   0.410   0.943  0.00  0.00     0.034 A 
ATOM      7 Cl   UNL d   1       2.395  -2.055   1.293  0.00  0.00    -0.070 Cl
ATOM      8 Cl1  UNL d   1       1.810  -1.963  -1.908  0.00  0.00    -0.070 Cl
ENDROOT
TORSDOF 0
ENDMDL
