MODEL 1
REMARK minimizedAffinity 15.8689985
REMARK minimizedRMSD -1
REMARK  0 active torsions:
REMARK  status: ('A' for Active; 'I' for Inactive)
ROOT
ATOM      1  C   UNL d   1       2.072  -2.375  -2.088  0.00  0.00     0.020 A 
ATOM      2  C1  UNL d   1       2.191  -1.628  -3.260  0.00  0.00     0.020 A 
ATOM      3  C2  UNL d   1       2.636  -0.306  -3.203  0.00  0.00     0.034 A 
ATOM      4  C3  UNL d   1       2.964   0.274  -1.972  0.00  0.00     0.017 A 
ATOM      5  C4  UNL d   1       2.844  -0.476  -0.797  0.00  0.00     0.017 A 
ATOM      6  C5  UNL d   1       2.398  -1.800  -0.860  0.00  0.00     0.034 A 
ATOM      7 Cl   UNL d   1       3.230   0.170   0.759  0.00  0.00    -0.070 Cl
ATOM      8 Cl1  UNL d   1       3.509   1.914  -1.976  0.00  0.00    -0.070 Cl
ENDROOT
TORSDOF 0
ENDMDL
