MODEL 1
REMARK minimizedAffinity 8.93831348
REMARK minimizedRMSD -1
REMARK  0 active torsions:
REMARK  status: ('A' for Active; 'I' for Inactive)
ROOT
ATOM      1  C   UNL d   1       4.127   3.801  -2.343  0.00  0.00     0.020 A 
ATOM      2  C1  UNL d   1       5.403   3.993  -2.870  0.00  0.00     0.020 A 
ATOM      3  C2  UNL d   1       5.963   3.030  -3.713  0.00  0.00     0.034 A 
ATOM      4  C3  UNL d   1       5.246   1.871  -4.031  0.00  0.00     0.017 A 
ATOM      5  C4  UNL d   1       3.965   1.679  -3.501  0.00  0.00     0.017 A 
ATOM      6  C5  UNL d   1       3.409   2.646  -2.658  0.00  0.00     0.034 A 
ATOM      7 Cl   UNL d   1       3.019   0.274  -3.848  0.00  0.00    -0.070 Cl
ATOM      8 Cl1  UNL d   1       5.999   0.723  -5.079  0.00  0.00    -0.070 Cl
ENDROOT
TORSDOF 0
ENDMDL
