MODEL 1
REMARK minimizedAffinity 6.5608511
REMARK minimizedRMSD -1
REMARK  0 active torsions:
REMARK  status: ('A' for Active; 'I' for Inactive)
ROOT
ATOM      1  C   UNL d   1      -4.188   3.952   1.911  0.00  0.00     0.020 A 
ATOM      2  C1  UNL d   1      -5.526   3.732   2.238  0.00  0.00     0.020 A 
ATOM      3  C2  UNL d   1      -6.000   4.077   3.506  0.00  0.00     0.034 A 
ATOM      4  C3  UNL d   1      -5.136   4.644   4.450  0.00  0.00     0.017 A 
ATOM      5  C4  UNL d   1      -3.794   4.865   4.120  0.00  0.00     0.017 A 
ATOM      6  C5  UNL d   1      -3.325   4.517   2.850  0.00  0.00     0.034 A 
ATOM      7 Cl   UNL d   1      -2.669   5.560   5.232  0.00  0.00    -0.070 Cl
ATOM      8 Cl1  UNL d   1      -5.791   5.046   5.998  0.00  0.00    -0.070 Cl
ENDROOT
TORSDOF 0
ENDMDL
