MODEL 1
REMARK minimizedAffinity 19.2655239
REMARK minimizedRMSD -1
REMARK  0 active torsions:
REMARK  status: ('A' for Active; 'I' for Inactive)
ROOT
ATOM      1  C   UNL d   1      -3.092   0.528  -5.923  0.00  0.00     0.020 A 
ATOM      2  C1  UNL d   1      -4.469   0.313  -5.923  0.00  0.00     0.020 A 
ATOM      3  C2  UNL d   1      -5.345   1.400  -5.947  0.00  0.00     0.034 A 
ATOM      4  C3  UNL d   1      -4.845   2.707  -5.971  0.00  0.00     0.017 A 
ATOM      5  C4  UNL d   1      -3.462   2.921  -5.971  0.00  0.00     0.017 A 
ATOM      6  C5  UNL d   1      -2.589   1.829  -5.947  0.00  0.00     0.034 A 
ATOM      7 Cl   UNL d   1      -2.770   4.505  -6.000  0.00  0.00    -0.070 Cl
ATOM      8 Cl1  UNL d   1      -5.987   4.003  -5.999  0.00  0.00    -0.070 Cl
ENDROOT
TORSDOF 0
ENDMDL
