MODEL 1
REMARK minimizedAffinity 10.7471781
REMARK minimizedRMSD -1
REMARK  0 active torsions:
REMARK  status: ('A' for Active; 'I' for Inactive)
ROOT
ATOM      1  C   UNL d   1      -4.986   5.793   5.999  0.00  0.00     0.020 A 
ATOM      2  C1  UNL d   1      -6.000   4.915   5.617  0.00  0.00     0.020 A 
ATOM      3  C2  UNL d   1      -5.819   4.077   4.515  0.00  0.00     0.034 A 
ATOM      4  C3  UNL d   1      -4.622   4.114   3.791  0.00  0.00     0.017 A 
ATOM      5  C4  UNL d   1      -3.605   4.996   4.175  0.00  0.00     0.017 A 
ATOM      6  C5  UNL d   1      -3.791   5.833   5.279  0.00  0.00     0.034 A 
ATOM      7 Cl   UNL d   1      -2.100   5.099   3.331  0.00  0.00    -0.070 Cl
ATOM      8 Cl1  UNL d   1      -4.466   3.049   2.439  0.00  0.00    -0.070 Cl
ENDROOT
TORSDOF 0
ENDMDL
