MODEL 1
REMARK minimizedAffinity 9.09201908
REMARK minimizedRMSD -1
REMARK  1 active torsions:
REMARK  status: ('A' for Active; 'I' for Inactive)
REMARK    1  A    between atoms: C1_2  and  C2_3 
ROOT
ATOM      1  C2  UNL d   1       0.480   5.033  -3.652  0.00  0.00    -0.076 A 
ATOM      2  C3  UNL d   1       0.778   5.999  -4.629  0.00  0.00     0.004 A 
ATOM      3  C4  UNL d   1       1.767   5.771  -5.585  0.00  0.00    -0.003 A 
ATOM      4  C5  UNL d   1       2.472   4.573  -5.580  0.00  0.00     0.000 A 
ATOM      5  C6  UNL d   1       2.177   3.596  -4.629  0.00  0.00     0.000 A 
ATOM      6  C7  UNL d   1       1.173   3.803  -3.669  0.00  0.00    -0.073 A 
ATOM      7  C8  UNL d   1       0.900   2.718  -2.664  0.00  0.00     0.078 C 
ENDROOT
BRANCH   1   8
ATOM      8  C1  UNL d   1      -0.584   5.347  -2.624  0.00  0.00     0.053 C 
ATOM      9  C   UNL d   1      -1.813   6.000  -3.238  0.00  0.00     0.018 C 
ENDBRANCH   1   8
TORSDOF 1
ENDMDL
