MODEL 1
REMARK minimizedAffinity -3.03586411
REMARK minimizedRMSD -1
REMARK  1 active torsions:
REMARK  status: ('A' for Active; 'I' for Inactive)
REMARK    1  A    between atoms: C1_2  and  C2_3 
ROOT
ATOM      1  C2  UNL d   1      -0.689   5.994  -3.577  0.00  0.00    -0.076 A 
ATOM      2  C3  UNL d   1       0.715   5.999  -3.508  0.00  0.00     0.004 A 
ATOM      3  C4  UNL d   1       1.491   5.972  -4.666  0.00  0.00    -0.003 A 
ATOM      4  C5  UNL d   1       0.875   5.938  -5.912  0.00  0.00     0.000 A 
ATOM      5  C6  UNL d   1      -0.517   5.950  -6.000  0.00  0.00     0.000 A 
ATOM      6  C7  UNL d   1      -1.313   5.994  -4.843  0.00  0.00    -0.073 A 
ATOM      7  C8  UNL d   1      -2.810   5.999  -4.996  0.00  0.00     0.078 C 
ENDROOT
BRANCH   1   8
ATOM      8  C1  UNL d   1      -1.478   5.997  -2.287  0.00  0.00     0.053 C 
ATOM      9  C   UNL d   1      -2.980   5.949  -2.523  0.00  0.00     0.018 C 
ENDBRANCH   1   8
TORSDOF 1
ENDMDL
