MODEL 1
REMARK minimizedAffinity -1.70485902
REMARK minimizedRMSD -1
REMARK  1 active torsions:
REMARK  status: ('A' for Active; 'I' for Inactive)
REMARK    1  A    between atoms: C1_2  and  C2_3 
ROOT
ATOM      1  C2  UNL d   1      -1.532   5.788  -3.964  0.00  0.00    -0.076 A 
ATOM      2  C3  UNL d   1      -2.599   5.907  -4.872  0.00  0.00     0.004 A 
ATOM      3  C4  UNL d   1      -3.915   5.998  -4.423  0.00  0.00    -0.003 A 
ATOM      4  C5  UNL d   1      -4.186   5.972  -3.059  0.00  0.00     0.000 A 
ATOM      5  C6  UNL d   1      -3.139   5.872  -2.144  0.00  0.00     0.000 A 
ATOM      6  C7  UNL d   1      -1.804   5.796  -2.579  0.00  0.00    -0.073 A 
ATOM      7  C8  UNL d   1      -0.714   5.683  -1.549  0.00  0.00     0.078 C 
ENDROOT
BRANCH   1   8
ATOM      8  C1  UNL d   1      -0.127   5.665  -4.510  0.00  0.00     0.053 C 
ATOM      9  C   UNL d   1      -0.052   5.963  -5.999  0.00  0.00     0.018 C 
ENDBRANCH   1   8
TORSDOF 1
ENDMDL
