MODEL 1
REMARK minimizedAffinity 4.2425375
REMARK minimizedRMSD -1
REMARK  1 active torsions:
REMARK  status: ('A' for Active; 'I' for Inactive)
REMARK    1  A    between atoms: C1_2  and  C2_3 
ROOT
ATOM      1  C2  UNL d   1      -0.848   5.804  -3.002  0.00  0.00    -0.076 A 
ATOM      2  C3  UNL d   1       0.155   5.817  -3.988  0.00  0.00     0.004 A 
ATOM      3  C4  UNL d   1      -0.170   5.908  -5.340  0.00  0.00    -0.003 A 
ATOM      4  C5  UNL d   1      -1.502   5.990  -5.729  0.00  0.00     0.000 A 
ATOM      5  C6  UNL d   1      -2.509   5.996  -4.764  0.00  0.00     0.000 A 
ATOM      6  C7  UNL d   1      -2.198   5.921  -3.396  0.00  0.00    -0.073 A 
ATOM      7  C8  UNL d   1      -3.324   5.925  -2.398  0.00  0.00     0.078 C 
ENDROOT
BRANCH   1   8
ATOM      8  C1  UNL d   1      -0.437   5.675  -1.553  0.00  0.00     0.053 C 
ATOM      9  C   UNL d   1      -0.324   4.225  -1.106  0.00  0.00     0.018 C 
ENDBRANCH   1   8
TORSDOF 1
ENDMDL
