MODEL 1
REMARK minimizedAffinity 4.3989563
REMARK minimizedRMSD -1
REMARK  1 active torsions:
REMARK  status: ('A' for Active; 'I' for Inactive)
REMARK    1  A    between atoms: C1_2  and  C2_3 
ROOT
ATOM      1  C2  UNL d   1       4.666   4.010  -4.966  0.00  0.00    -0.076 A 
ATOM      2  C3  UNL d   1       3.424   3.377  -4.784  0.00  0.00     0.004 A 
ATOM      3  C4  UNL d   1       2.240   3.988  -5.195  0.00  0.00    -0.003 A 
ATOM      4  C5  UNL d   1       2.279   5.241  -5.795  0.00  0.00     0.000 A 
ATOM      5  C6  UNL d   1       3.504   5.876  -6.000  0.00  0.00     0.000 A 
ATOM      6  C7  UNL d   1       4.708   5.267  -5.607  0.00  0.00    -0.073 A 
ATOM      7  C8  UNL d   1       5.999   6.000  -5.846  0.00  0.00     0.078 C 
ENDROOT
BRANCH   1   8
ATOM      8  C1  UNL d   1       5.914   3.311  -4.476  0.00  0.00     0.053 C 
ATOM      9  C   UNL d   1       5.641   1.889  -4.011  0.00  0.00     0.018 C 
ENDBRANCH   1   8
TORSDOF 1
ENDMDL
