MODEL 1
REMARK minimizedAffinity 3.93342996
REMARK minimizedRMSD -1
REMARK  1 active torsions:
REMARK  status: ('A' for Active; 'I' for Inactive)
REMARK    1  A    between atoms: C1_2  and  C2_3 
ROOT
ATOM      1  C2  UNL d   1       0.070   5.134  -3.947  0.00  0.00    -0.076 A 
ATOM      2  C3  UNL d   1      -0.896   5.850  -4.676  0.00  0.00     0.004 A 
ATOM      3  C4  UNL d   1      -2.195   5.999  -4.192  0.00  0.00    -0.003 A 
ATOM      4  C5  UNL d   1      -2.549   5.434  -2.972  0.00  0.00     0.000 A 
ATOM      5  C6  UNL d   1      -1.599   4.735  -2.228  0.00  0.00     0.000 A 
ATOM      6  C7  UNL d   1      -0.281   4.590  -2.693  0.00  0.00    -0.073 A 
ATOM      7  C8  UNL d   1       0.700   3.821  -1.852  0.00  0.00     0.078 C 
ENDROOT
BRANCH   1   8
ATOM      8  C1  UNL d   1       1.455   4.982  -4.535  0.00  0.00     0.053 C 
ATOM      9  C   UNL d   1       1.648   5.813  -5.794  0.00  0.00     0.018 C 
ENDBRANCH   1   8
TORSDOF 1
ENDMDL
