MODEL 1
REMARK minimizedAffinity 13.527545
REMARK minimizedRMSD -1
REMARK  1 active torsions:
REMARK  status: ('A' for Active; 'I' for Inactive)
REMARK    1  A    between atoms: C1_2  and  C2_3 
ROOT
ATOM      1  C2  UNL d   1      -0.102  -0.373  -3.270  0.00  0.00    -0.076 A 
ATOM      2  C3  UNL d   1      -1.128  -1.134  -3.857  0.00  0.00     0.004 A 
ATOM      3  C4  UNL d   1      -1.091  -1.465  -5.211  0.00  0.00    -0.003 A 
ATOM      4  C5  UNL d   1      -0.028  -1.039  -5.999  0.00  0.00     0.000 A 
ATOM      5  C6  UNL d   1       1.007  -0.298  -5.430  0.00  0.00     0.000 A 
ATOM      6  C7  UNL d   1       0.994   0.029  -4.063  0.00  0.00    -0.073 A 
ATOM      7  C8  UNL d   1       2.133   0.836  -3.503  0.00  0.00     0.078 C 
ENDROOT
BRANCH   1   8
ATOM      8  C1  UNL d   1      -0.210  -0.022  -1.803  0.00  0.00     0.053 C 
ATOM      9  C   UNL d   1      -1.642  -0.078  -1.294  0.00  0.00     0.018 C 
ENDBRANCH   1   8
TORSDOF 1
ENDMDL
