MODEL 1
REMARK minimizedAffinity 19.6975498
REMARK minimizedRMSD -1
REMARK  1 active torsions:
REMARK  status: ('A' for Active; 'I' for Inactive)
REMARK    1  A    between atoms: C1_2  and  C2_3 
ROOT
ATOM      1  C2  UNL d   1      -4.641  -1.282   5.256  0.00  0.00    -0.076 A 
ATOM      2  C3  UNL d   1      -3.773  -0.357   4.650  0.00  0.00     0.004 A 
ATOM      3  C4  UNL d   1      -2.521  -0.750   4.180  0.00  0.00    -0.003 A 
ATOM      4  C5  UNL d   1      -2.117  -2.075   4.308  0.00  0.00     0.000 A 
ATOM      5  C6  UNL d   1      -2.973  -3.009   4.890  0.00  0.00     0.000 A 
ATOM      6  C7  UNL d   1      -4.245  -2.633   5.354  0.00  0.00    -0.073 A 
ATOM      7  C8  UNL d   1      -5.125  -3.680   5.979  0.00  0.00     0.078 C 
ENDROOT
BRANCH   1   8
ATOM      8  C1  UNL d   1      -5.976  -0.792   5.771  0.00  0.00     0.053 C 
ATOM      9  C   UNL d   1      -5.997   0.713   5.996  0.00  0.00     0.018 C 
ENDBRANCH   1   8
TORSDOF 1
ENDMDL
