MODEL 1
REMARK minimizedAffinity 3.44473004
REMARK minimizedRMSD -1
REMARK  1 active torsions:
REMARK  status: ('A' for Active; 'I' for Inactive)
REMARK    1  A    between atoms: C1_2  and  C2_3 
ROOT
ATOM      1  C2  UNL d   1      -0.604   5.982  -3.436  0.00  0.00    -0.076 A 
ATOM      2  C3  UNL d   1      -1.103   5.967  -2.122  0.00  0.00     0.004 A 
ATOM      3  C4  UNL d   1      -2.475   5.977  -1.876  0.00  0.00    -0.003 A 
ATOM      4  C5  UNL d   1      -3.370   6.000  -2.940  0.00  0.00     0.000 A 
ATOM      5  C6  UNL d   1      -2.892   5.997  -4.250  0.00  0.00     0.000 A 
ATOM      6  C7  UNL d   1      -1.512   5.971  -4.516  0.00  0.00    -0.073 A 
ATOM      7  C8  UNL d   1      -1.053   5.975  -5.948  0.00  0.00     0.078 C 
ENDROOT
BRANCH   1   8
ATOM      8  C1  UNL d   1       0.894   5.998  -3.641  0.00  0.00     0.053 C 
ATOM      9  C   UNL d   1       1.321   5.229  -4.882  0.00  0.00     0.018 C 
ENDBRANCH   1   8
TORSDOF 1
ENDMDL
