MODEL 1
REMARK minimizedAffinity 6.55145502
REMARK minimizedRMSD -1
REMARK  1 active torsions:
REMARK  status: ('A' for Active; 'I' for Inactive)
REMARK    1  A    between atoms: C1_2  and  C2_3 
ROOT
ATOM      1  C2  UNL d   1       1.815   1.795   0.651  0.00  0.00    -0.076 A 
ATOM      2  C3  UNL d   1       1.443   1.113   1.823  0.00  0.00     0.004 A 
ATOM      3  C4  UNL d   1       0.461   0.125   1.797  0.00  0.00    -0.003 A 
ATOM      4  C5  UNL d   1      -0.165  -0.199   0.598  0.00  0.00     0.000 A 
ATOM      5  C6  UNL d   1       0.204   0.455  -0.577  0.00  0.00     0.000 A 
ATOM      6  C7  UNL d   1       1.203   1.443  -0.571  0.00  0.00    -0.073 A 
ATOM      7  C8  UNL d   1       1.557   2.120  -1.867  0.00  0.00     0.078 C 
ENDROOT
BRANCH   1   8
ATOM      8  C1  UNL d   1       2.867   2.877   0.745  0.00  0.00     0.053 C 
ATOM      9  C   UNL d   1       4.275   2.340   0.544  0.00  0.00     0.018 C 
ENDBRANCH   1   8
TORSDOF 1
ENDMDL
