MODEL 1
REMARK minimizedAffinity 9.77845192
REMARK minimizedRMSD -1
REMARK  1 active torsions:
REMARK  status: ('A' for Active; 'I' for Inactive)
REMARK    1  A    between atoms: C1_2  and  C2_3 
ROOT
ATOM      1  C2  UNL d   1      -2.299   5.886  -3.548  0.00  0.00    -0.076 A 
ATOM      2  C3  UNL d   1      -1.429   5.868  -2.444  0.00  0.00     0.004 A 
ATOM      3  C4  UNL d   1      -1.922   5.925  -1.141  0.00  0.00    -0.003 A 
ATOM      4  C5  UNL d   1      -3.293   5.999  -0.921  0.00  0.00     0.000 A 
ATOM      5  C6  UNL d   1      -4.171   6.000  -2.004  0.00  0.00     0.000 A 
ATOM      6  C7  UNL d   1      -3.692   5.927  -3.323  0.00  0.00    -0.073 A 
ATOM      7  C8  UNL d   1      -4.684   5.937  -4.454  0.00  0.00     0.078 C 
ENDROOT
BRANCH   1   8
ATOM      8  C1  UNL d   1      -1.706   5.850  -4.938  0.00  0.00     0.053 C 
ATOM      9  C   UNL d   1      -1.197   4.468  -5.318  0.00  0.00     0.018 C 
ENDBRANCH   1   8
TORSDOF 1
ENDMDL
