MODEL 1
REMARK minimizedAffinity 5.81163597
REMARK minimizedRMSD -1
REMARK  1 active torsions:
REMARK  status: ('A' for Active; 'I' for Inactive)
REMARK    1  A    between atoms: C1_2  and  C2_3 
ROOT
ATOM      1  C2  UNL d   1       3.421   3.580  -3.289  0.00  0.00    -0.076 A 
ATOM      2  C3  UNL d   1       4.424   3.814  -2.332  0.00  0.00     0.004 A 
ATOM      3  C4  UNL d   1       5.702   4.217  -2.717  0.00  0.00    -0.003 A 
ATOM      4  C5  UNL d   1       5.997   4.392  -4.064  0.00  0.00     0.000 A 
ATOM      5  C6  UNL d   1       5.009   4.182  -5.025  0.00  0.00     0.000 A 
ATOM      6  C7  UNL d   1       3.711   3.792  -4.653  0.00  0.00    -0.073 A 
ATOM      7  C8  UNL d   1       2.686   3.573  -5.732  0.00  0.00     0.078 C 
ENDROOT
BRANCH   1   8
ATOM      8  C1  UNL d   1       2.061   3.118  -2.814  0.00  0.00     0.053 C 
ATOM      9  C   UNL d   1       2.108   2.500  -1.425  0.00  0.00     0.018 C 
ENDBRANCH   1   8
TORSDOF 1
ENDMDL
