MODEL 1
REMARK minimizedAffinity 2.46191788
REMARK minimizedRMSD -1
REMARK  1 active torsions:
REMARK  status: ('A' for Active; 'I' for Inactive)
REMARK    1  A    between atoms: C1_2  and  C2_3 
ROOT
ATOM      1  C2  UNL d   1      -2.278   5.219  -2.883  0.00  0.00    -0.076 A 
ATOM      2  C3  UNL d   1      -2.265   4.969  -4.266  0.00  0.00     0.004 A 
ATOM      3  C4  UNL d   1      -1.133   5.239  -5.033  0.00  0.00    -0.003 A 
ATOM      4  C5  UNL d   1       0.005   5.762  -4.430  0.00  0.00     0.000 A 
ATOM      5  C6  UNL d   1       0.016   6.000  -3.056  0.00  0.00     0.000 A 
ATOM      6  C7  UNL d   1      -1.111   5.718  -2.265  0.00  0.00    -0.073 A 
ATOM      7  C8  UNL d   1      -1.046   6.000  -0.789  0.00  0.00     0.078 C 
ENDROOT
BRANCH   1   8
ATOM      8  C1  UNL d   1      -3.543   4.933  -2.107  0.00  0.00     0.053 C 
ATOM      9  C   UNL d   1      -4.620   5.982  -2.339  0.00  0.00     0.018 C 
ENDBRANCH   1   8
TORSDOF 1
ENDMDL
