MODEL 1
REMARK minimizedAffinity 12.7800112
REMARK minimizedRMSD -1
REMARK  1 active torsions:
REMARK  status: ('A' for Active; 'I' for Inactive)
REMARK    1  A    between atoms: C1_2  and  C2_3 
ROOT
ATOM      1  C2  UNL d   1      -0.248   1.418   0.883  0.00  0.00    -0.076 A 
ATOM      2  C3  UNL d   1       0.057   1.801   2.200  0.00  0.00     0.004 A 
ATOM      3  C4  UNL d   1      -0.882   2.464   2.990  0.00  0.00    -0.003 A 
ATOM      4  C5  UNL d   1      -2.140   2.753   2.474  0.00  0.00     0.000 A 
ATOM      5  C6  UNL d   1      -2.466   2.364   1.175  0.00  0.00     0.000 A 
ATOM      6  C7  UNL d   1      -1.537   1.681   0.372  0.00  0.00    -0.073 A 
ATOM      7  C8  UNL d   1      -1.939   1.291  -1.024  0.00  0.00     0.078 C 
ENDROOT
BRANCH   1   8
ATOM      8  C1  UNL d   1       0.820   0.726   0.065  0.00  0.00     0.053 C 
ATOM      9  C   UNL d   1       1.812  -0.038   0.929  0.00  0.00     0.018 C 
ENDBRANCH   1   8
TORSDOF 1
ENDMDL
