MODEL 1
REMARK minimizedAffinity 12.4630642
REMARK minimizedRMSD -1
REMARK  1 active torsions:
REMARK  status: ('A' for Active; 'I' for Inactive)
REMARK    1  A    between atoms: C1_2  and  C2_3 
ROOT
ATOM      1  C2  UNL d   1      -3.769  -5.269  -3.484  0.00  0.00    -0.076 A 
ATOM      2  C3  UNL d   1      -3.312  -5.027  -4.792  0.00  0.00     0.004 A 
ATOM      3  C4  UNL d   1      -4.132  -5.263  -5.894  0.00  0.00    -0.003 A 
ATOM      4  C5  UNL d   1      -5.423  -5.744  -5.707  0.00  0.00     0.000 A 
ATOM      5  C6  UNL d   1      -5.899  -5.973  -4.416  0.00  0.00     0.000 A 
ATOM      6  C7  UNL d   1      -5.091  -5.725  -3.293  0.00  0.00    -0.073 A 
ATOM      7  C8  UNL d   1      -5.654  -5.995  -1.925  0.00  0.00     0.078 C 
ENDROOT
BRANCH   1   8
ATOM      8  C1  UNL d   1      -2.826  -5.020  -2.329  0.00  0.00     0.053 C 
ATOM      9  C   UNL d   1      -1.364  -5.098  -2.743  0.00  0.00     0.018 C 
ENDBRANCH   1   8
TORSDOF 1
ENDMDL
