MODEL 1
REMARK minimizedAffinity 4.47686243
REMARK minimizedRMSD -1
REMARK  1 active torsions:
REMARK  status: ('A' for Active; 'I' for Inactive)
REMARK    1  A    between atoms: C1_2  and  C2_3 
ROOT
ATOM      1  C2  UNL d   1       0.083   3.594   0.854  0.00  0.00    -0.076 A 
ATOM      2  C3  UNL d   1       1.348   4.192   0.993  0.00  0.00     0.004 A 
ATOM      3  C4  UNL d   1       1.975   4.263   2.236  0.00  0.00    -0.003 A 
ATOM      4  C5  UNL d   1       1.349   3.736   3.360  0.00  0.00     0.000 A 
ATOM      5  C6  UNL d   1       0.102   3.123   3.238  0.00  0.00     0.000 A 
ATOM      6  C7  UNL d   1      -0.537   3.029   1.989  0.00  0.00    -0.073 A 
ATOM      7  C8  UNL d   1      -1.884   2.363   1.916  0.00  0.00     0.078 C 
ENDROOT
BRANCH   1   8
ATOM      8  C1  UNL d   1      -0.560   3.570  -0.514  0.00  0.00     0.053 C 
ATOM      9  C   UNL d   1      -0.383   2.234  -1.218  0.00  0.00     0.018 C 
ENDBRANCH   1   8
TORSDOF 1
ENDMDL
