MODEL 1
REMARK minimizedAffinity 14.4545641
REMARK minimizedRMSD -1
REMARK  1 active torsions:
REMARK  status: ('A' for Active; 'I' for Inactive)
REMARK    1  A    between atoms: C1_2  and  C2_3 
ROOT
ATOM      1  C2  UNL d   1      -2.919  -4.906  -4.567  0.00  0.00    -0.076 A 
ATOM      2  C3  UNL d   1      -3.803  -5.984  -4.389  0.00  0.00     0.004 A 
ATOM      3  C4  UNL d   1      -5.058  -5.992  -4.996  0.00  0.00    -0.003 A 
ATOM      4  C5  UNL d   1      -5.449  -4.921  -5.792  0.00  0.00     0.000 A 
ATOM      5  C6  UNL d   1      -4.578  -3.851  -5.994  0.00  0.00     0.000 A 
ATOM      6  C7  UNL d   1      -3.303  -3.835  -5.403  0.00  0.00    -0.073 A 
ATOM      7  C8  UNL d   1      -2.406  -2.653  -5.650  0.00  0.00     0.078 C 
ENDROOT
BRANCH   1   8
ATOM      8  C1  UNL d   1      -1.582  -4.941  -3.862  0.00  0.00     0.053 C 
ATOM      9  C   UNL d   1      -0.425  -4.607  -4.790  0.00  0.00     0.018 C 
ENDBRANCH   1   8
TORSDOF 1
ENDMDL
