MODEL 1
REMARK minimizedAffinity 3.99513602
REMARK minimizedRMSD -1
REMARK  1 active torsions:
REMARK  status: ('A' for Active; 'I' for Inactive)
REMARK    1  A    between atoms: C1_2  and  C2_3 
ROOT
ATOM      1  C2  UNL d   1      -0.775   0.909  -1.134  0.00  0.00    -0.076 A 
ATOM      2  C3  UNL d   1       0.409   0.163  -1.270  0.00  0.00     0.004 A 
ATOM      3  C4  UNL d   1       0.368  -1.200  -1.558  0.00  0.00    -0.003 A 
ATOM      4  C5  UNL d   1      -0.857  -1.839  -1.714  0.00  0.00     0.000 A 
ATOM      5  C6  UNL d   1      -2.040  -1.111  -1.599  0.00  0.00     0.000 A 
ATOM      6  C7  UNL d   1      -2.017   0.267  -1.326  0.00  0.00    -0.073 A 
ATOM      7  C8  UNL d   1      -3.324   1.002  -1.207  0.00  0.00     0.078 C 
ENDROOT
BRANCH   1   8
ATOM      8  C1  UNL d   1      -0.670   2.379  -0.795  0.00  0.00     0.053 C 
ATOM      9  C   UNL d   1      -0.237   2.616   0.644  0.00  0.00     0.018 C 
ENDBRANCH   1   8
TORSDOF 1
ENDMDL
