MODEL 1
REMARK minimizedAffinity 13.3474026
REMARK minimizedRMSD -1
REMARK  1 active torsions:
REMARK  status: ('A' for Active; 'I' for Inactive)
REMARK    1  A    between atoms: C1_2  and  C2_3 
ROOT
ATOM      1  C2  UNL d   1       3.383  -3.760  -0.493  0.00  0.00    -0.076 A 
ATOM      2  C3  UNL d   1       4.771  -3.823  -0.282  0.00  0.00     0.004 A 
ATOM      3  C4  UNL d   1       5.509  -4.931  -0.693  0.00  0.00    -0.003 A 
ATOM      4  C5  UNL d   1       4.871  -5.994  -1.323  0.00  0.00     0.000 A 
ATOM      5  C6  UNL d   1       3.498  -5.941  -1.556  0.00  0.00     0.000 A 
ATOM      6  C7  UNL d   1       2.741  -4.824  -1.163  0.00  0.00    -0.073 A 
ATOM      7  C8  UNL d   1       1.262  -4.822  -1.434  0.00  0.00     0.078 C 
ENDROOT
BRANCH   1   8
ATOM      8  C1  UNL d   1       2.630  -2.544  -0.002  0.00  0.00     0.053 C 
ATOM      9  C   UNL d   1       3.367  -1.246  -0.291  0.00  0.00     0.018 C 
ENDBRANCH   1   8
TORSDOF 1
ENDMDL
