MODEL 1
REMARK minimizedAffinity 4.43387651
REMARK minimizedRMSD -1
REMARK  1 active torsions:
REMARK  status: ('A' for Active; 'I' for Inactive)
REMARK    1  A    between atoms: C1_2  and  C2_3 
ROOT
ATOM      1  C2  UNL d   1       0.194   3.409   1.043  0.00  0.00    -0.076 A 
ATOM      2  C3  UNL d   1       1.409   4.104   1.165  0.00  0.00     0.004 A 
ATOM      3  C4  UNL d   1       2.144   4.062   2.348  0.00  0.00    -0.003 A 
ATOM      4  C5  UNL d   1       1.676   3.323   3.429  0.00  0.00     0.000 A 
ATOM      5  C6  UNL d   1       0.481   2.612   3.320  0.00  0.00     0.000 A 
ATOM      6  C7  UNL d   1      -0.264   2.631   2.128  0.00  0.00    -0.073 A 
ATOM      7  C8  UNL d   1      -1.548   1.851   2.068  0.00  0.00     0.078 C 
ENDROOT
BRANCH   1   8
ATOM      8  C1  UNL d   1      -0.573   3.514  -0.256  0.00  0.00     0.053 C 
ATOM      9  C   UNL d   1      -0.587   2.206  -1.032  0.00  0.00     0.018 C 
ENDBRANCH   1   8
TORSDOF 1
ENDMDL
