MODEL 1
REMARK minimizedAffinity 2.80509353
REMARK minimizedRMSD -1
REMARK  1 active torsions:
REMARK  status: ('A' for Active; 'I' for Inactive)
REMARK    1  A    between atoms: C1_2  and  C2_3 
ROOT
ATOM      1  C2  UNL d   1      -5.857  -1.958   3.846  0.00  0.00    -0.076 A 
ATOM      2  C3  UNL d   1      -5.881  -3.219   3.225  0.00  0.00     0.004 A 
ATOM      3  C4  UNL d   1      -5.950  -4.389   3.979  0.00  0.00    -0.003 A 
ATOM      4  C5  UNL d   1      -5.997  -4.317   5.367  0.00  0.00     0.000 A 
ATOM      5  C6  UNL d   1      -5.992  -3.074   5.999  0.00  0.00     0.000 A 
ATOM      6  C7  UNL d   1      -5.939  -1.885   5.253  0.00  0.00    -0.073 A 
ATOM      7  C8  UNL d   1      -5.931  -0.572   5.987  0.00  0.00     0.078 C 
ENDROOT
BRANCH   1   8
ATOM      8  C1  UNL d   1      -5.755  -0.724   2.977  0.00  0.00     0.053 C 
ATOM      9  C   UNL d   1      -4.374  -0.089   3.029  0.00  0.00     0.018 C 
ENDBRANCH   1   8
TORSDOF 1
ENDMDL
