MODEL 1
REMARK minimizedAffinity -2.3451755
REMARK minimizedRMSD -1
REMARK  1 active torsions:
REMARK  status: ('A' for Active; 'I' for Inactive)
REMARK    1  A    between atoms: C1_2  and  C2_3 
ROOT
ATOM      1  C2  UNL d   1       4.505  -2.559  -0.699  0.00  0.00    -0.076 A 
ATOM      2  C3  UNL d   1       3.529  -2.082  -1.591  0.00  0.00     0.004 A 
ATOM      3  C4  UNL d   1       3.036  -2.890  -2.615  0.00  0.00    -0.003 A 
ATOM      4  C5  UNL d   1       3.511  -4.188  -2.763  0.00  0.00     0.000 A 
ATOM      5  C6  UNL d   1       4.467  -4.684  -1.877  0.00  0.00     0.000 A 
ATOM      6  C7  UNL d   1       4.962  -3.888  -0.829  0.00  0.00    -0.073 A 
ATOM      7  C8  UNL d   1       5.997  -4.472   0.094  0.00  0.00     0.078 C 
ENDROOT
BRANCH   1   8
ATOM      8  C1  UNL d   1       5.022  -1.629   0.374  0.00  0.00     0.053 C 
ATOM      9  C   UNL d   1       3.909  -1.067   1.244  0.00  0.00     0.018 C 
ENDBRANCH   1   8
TORSDOF 1
ENDMDL
