MODEL 1
REMARK minimizedAffinity 11.2026434
REMARK minimizedRMSD -1
REMARK  1 active torsions:
REMARK  status: ('A' for Active; 'I' for Inactive)
REMARK    1  A    between atoms: C1_2  and  C2_3 
ROOT
ATOM      1  C2  UNL d   1       4.670  -3.230  -2.209  0.00  0.00    -0.076 A 
ATOM      2  C3  UNL d   1       4.453  -2.701  -3.493  0.00  0.00     0.004 A 
ATOM      3  C4  UNL d   1       4.454  -3.525  -4.617  0.00  0.00    -0.003 A 
ATOM      4  C5  UNL d   1       4.673  -4.891  -4.476  0.00  0.00     0.000 A 
ATOM      5  C6  UNL d   1       4.872  -5.435  -3.207  0.00  0.00     0.000 A 
ATOM      6  C7  UNL d   1       4.857  -4.621  -2.062  0.00  0.00    -0.073 A 
ATOM      7  C8  UNL d   1       5.084  -5.260  -0.719  0.00  0.00     0.078 C 
ENDROOT
BRANCH   1   8
ATOM      8  C1  UNL d   1       4.684  -2.284  -1.029  0.00  0.00     0.053 C 
ATOM      9  C   UNL d   1       3.294  -1.783  -0.667  0.00  0.00     0.018 C 
ENDBRANCH   1   8
TORSDOF 1
ENDMDL
