MODEL 1
REMARK minimizedAffinity 11.1165724
REMARK minimizedRMSD -1
REMARK  1 active torsions:
REMARK  status: ('A' for Active; 'I' for Inactive)
REMARK    1  A    between atoms: C1_2  and  C2_3 
ROOT
ATOM      1  C2  UNL d   1       3.357  -4.799  -1.134  0.00  0.00    -0.076 A 
ATOM      2  C3  UNL d   1       3.029  -3.969  -0.048  0.00  0.00     0.004 A 
ATOM      3  C4  UNL d   1       3.816  -2.864   0.273  0.00  0.00    -0.003 A 
ATOM      4  C5  UNL d   1       4.942  -2.571  -0.487  0.00  0.00     0.000 A 
ATOM      5  C6  UNL d   1       5.272  -3.373  -1.579  0.00  0.00     0.000 A 
ATOM      6  C7  UNL d   1       4.481  -4.481  -1.926  0.00  0.00    -0.073 A 
ATOM      7  C8  UNL d   1       4.887  -5.316  -3.110  0.00  0.00     0.078 C 
ENDROOT
BRANCH   1   8
ATOM      8  C1  UNL d   1       2.482  -5.999  -1.419  0.00  0.00     0.053 C 
ATOM      9  C   UNL d   1       1.150  -5.935  -0.688  0.00  0.00     0.018 C 
ENDBRANCH   1   8
TORSDOF 1
ENDMDL
