MODEL 1
REMARK minimizedAffinity 1.95122671
REMARK minimizedRMSD -1
REMARK  0 active torsions:
REMARK  status: ('A' for Active; 'I' for Inactive)
ROOT
ATOM      1  C   UNL d   1       3.294  -4.839   5.549  0.00  0.00     0.078 C 
ATOM      2  C1  UNL d   1       4.233  -3.751   5.119  0.00  0.00    -0.077 A 
ATOM      3  C2  UNL d   1       4.822  -3.768   3.849  0.00  0.00    -0.001 A 
ATOM      4  C3  UNL d   1       5.701  -2.754   3.465  0.00  0.00     0.003 A 
ATOM      5  C4  UNL d   1       6.000  -1.717   4.346  0.00  0.00    -0.005 A 
ATOM      6  C5  UNL d   1       5.420  -1.693   5.613  0.00  0.00     0.003 A 
ATOM      7  C6  UNL d   1       4.540  -2.706   5.998  0.00  0.00    -0.001 A 
ENDROOT
TORSDOF 0
ENDMDL
