MODEL 1
REMARK minimizedAffinity 0.461111069
REMARK minimizedRMSD -1
REMARK  0 active torsions:
REMARK  status: ('A' for Active; 'I' for Inactive)
ROOT
ATOM      1  C   UNL d   1      -0.464  -0.545  -1.566  0.00  0.00     0.078 C 
ATOM      2  C1  UNL d   1      -1.223  -1.135  -0.415  0.00  0.00    -0.077 A 
ATOM      3  C2  UNL d   1      -1.680  -2.458  -0.454  0.00  0.00    -0.001 A 
ATOM      4  C3  UNL d   1      -2.393  -2.991   0.621  0.00  0.00     0.003 A 
ATOM      5  C4  UNL d   1      -2.657  -2.207   1.743  0.00  0.00    -0.005 A 
ATOM      6  C5  UNL d   1      -2.208  -0.889   1.790  0.00  0.00     0.003 A 
ATOM      7  C6  UNL d   1      -1.495  -0.355   0.716  0.00  0.00    -0.001 A 
ENDROOT
TORSDOF 0
ENDMDL
