MODEL 1
REMARK minimizedAffinity -5.66807461
REMARK minimizedRMSD -1
REMARK  0 active torsions:
REMARK  status: ('A' for Active; 'I' for Inactive)
ROOT
ATOM      1  C   UNL d   1      -0.032   1.355  -0.195  0.00  0.00     0.078 C 
ATOM      2  C1  UNL d   1      -0.114  -0.127   0.019  0.00  0.00    -0.077 A 
ATOM      3  C2  UNL d   1      -0.821  -0.661   1.103  0.00  0.00    -0.001 A 
ATOM      4  C3  UNL d   1      -0.880  -2.042   1.296  0.00  0.00     0.003 A 
ATOM      5  C4  UNL d   1      -0.233  -2.901   0.410  0.00  0.00    -0.005 A 
ATOM      6  C5  UNL d   1       0.476  -2.379  -0.670  0.00  0.00     0.003 A 
ATOM      7  C6  UNL d   1       0.536  -0.998  -0.865  0.00  0.00    -0.001 A 
ENDROOT
TORSDOF 0
ENDMDL
