MODEL 1
REMARK minimizedAffinity -5.62571907
REMARK minimizedRMSD -1
REMARK  0 active torsions:
REMARK  status: ('A' for Active; 'I' for Inactive)
ROOT
ATOM      1  C   UNL d   1      -1.986   0.010   1.810  0.00  0.00     0.078 C 
ATOM      2  C1  UNL d   1      -1.223  -1.069   1.100  0.00  0.00    -0.077 A 
ATOM      3  C2  UNL d   1      -1.555  -2.418   1.271  0.00  0.00    -0.001 A 
ATOM      4  C3  UNL d   1      -0.831  -3.413   0.611  0.00  0.00     0.003 A 
ATOM      5  C4  UNL d   1       0.231  -3.068  -0.223  0.00  0.00    -0.005 A 
ATOM      6  C5  UNL d   1       0.570  -1.728  -0.397  0.00  0.00     0.003 A 
ATOM      7  C6  UNL d   1      -0.153  -0.732   0.261  0.00  0.00    -0.001 A 
ENDROOT
TORSDOF 0
ENDMDL
