MODEL 1
REMARK minimizedAffinity -5.60761118
REMARK minimizedRMSD -1
REMARK  0 active torsions:
REMARK  status: ('A' for Active; 'I' for Inactive)
ROOT
ATOM      1  C   UNL d   1      -0.431   0.849  -0.068  0.00  0.00     0.078 C 
ATOM      2  C1  UNL d   1      -0.394  -0.597   0.327  0.00  0.00    -0.077 A 
ATOM      3  C2  UNL d   1      -0.964  -1.031   1.530  0.00  0.00    -0.001 A 
ATOM      4  C3  UNL d   1      -0.914  -2.378   1.889  0.00  0.00     0.003 A 
ATOM      5  C4  UNL d   1      -0.295  -3.303   1.052  0.00  0.00    -0.005 A 
ATOM      6  C5  UNL d   1       0.277  -2.881  -0.147  0.00  0.00     0.003 A 
ATOM      7  C6  UNL d   1       0.228  -1.533  -0.508  0.00  0.00    -0.001 A 
ENDROOT
TORSDOF 0
ENDMDL
