MODEL 1
REMARK minimizedAffinity -4.08347178
REMARK minimizedRMSD -1
REMARK  0 active torsions:
REMARK  status: ('A' for Active; 'I' for Inactive)
ROOT
ATOM      1  C   UNL d   1       0.425  -0.738  -2.963  0.00  0.00     0.078 C 
ATOM      2  C1  UNL d   1      -0.042  -0.711  -1.538  0.00  0.00    -0.077 A 
ATOM      3  C2  UNL d   1      -0.594  -1.850  -0.939  0.00  0.00    -0.001 A 
ATOM      4  C3  UNL d   1      -1.033  -1.808   0.386  0.00  0.00     0.003 A 
ATOM      5  C4  UNL d   1      -0.926  -0.629   1.122  0.00  0.00    -0.005 A 
ATOM      6  C5  UNL d   1      -0.379   0.509   0.533  0.00  0.00     0.003 A 
ATOM      7  C6  UNL d   1       0.060   0.469  -0.791  0.00  0.00    -0.001 A 
ENDROOT
TORSDOF 0
ENDMDL
