MODEL 1
REMARK minimizedAffinity -5.66555548
REMARK minimizedRMSD -1
REMARK  0 active torsions:
REMARK  status: ('A' for Active; 'I' for Inactive)
ROOT
ATOM      1  C   UNL d   1       0.423   1.321   0.461  0.00  0.00     0.078 C 
ATOM      2  C1  UNL d   1       0.078  -0.138   0.411  0.00  0.00    -0.077 A 
ATOM      3  C2  UNL d   1      -1.156  -0.604   0.882  0.00  0.00    -0.001 A 
ATOM      4  C3  UNL d   1      -1.459  -1.966   0.838  0.00  0.00     0.003 A 
ATOM      5  C4  UNL d   1      -0.534  -2.873   0.325  0.00  0.00    -0.005 A 
ATOM      6  C5  UNL d   1       0.697  -2.418  -0.144  0.00  0.00     0.003 A 
ATOM      7  C6  UNL d   1       1.002  -1.057  -0.101  0.00  0.00    -0.001 A 
ENDROOT
TORSDOF 0
ENDMDL
