MODEL 1
REMARK minimizedAffinity -4.81034565
REMARK minimizedRMSD -1
REMARK  0 active torsions:
REMARK  status: ('A' for Active; 'I' for Inactive)
ROOT
ATOM      1  C   UNL d   1      -0.077   0.766  -0.037  0.00  0.00     0.078 C 
ATOM      2  C1  UNL d   1      -0.433  -0.689   0.031  0.00  0.00    -0.077 A 
ATOM      3  C2  UNL d   1      -0.270  -1.524  -1.080  0.00  0.00    -0.001 A 
ATOM      4  C3  UNL d   1      -0.615  -2.874  -1.005  0.00  0.00     0.003 A 
ATOM      5  C4  UNL d   1      -1.127  -3.401   0.179  0.00  0.00    -0.005 A 
ATOM      6  C5  UNL d   1      -1.295  -2.577   1.290  0.00  0.00     0.003 A 
ATOM      7  C6  UNL d   1      -0.950  -1.226   1.217  0.00  0.00    -0.001 A 
ENDROOT
TORSDOF 0
ENDMDL
