MODEL 1
REMARK minimizedAffinity -4.53134584
REMARK minimizedRMSD -1
REMARK  0 active torsions:
REMARK  status: ('A' for Active; 'I' for Inactive)
ROOT
ATOM      1  C   UNL d   1       0.199   1.310  -0.127  0.00  0.00     0.078 C 
ATOM      2  C1  UNL d   1       0.177  -0.160   0.170  0.00  0.00    -0.077 A 
ATOM      3  C2  UNL d   1      -1.015  -0.808   0.515  0.00  0.00    -0.001 A 
ATOM      4  C3  UNL d   1      -1.018  -2.175   0.799  0.00  0.00     0.003 A 
ATOM      5  C4  UNL d   1       0.168  -2.905   0.741  0.00  0.00    -0.005 A 
ATOM      6  C5  UNL d   1       1.359  -2.267   0.401  0.00  0.00     0.003 A 
ATOM      7  C6  UNL d   1       1.365  -0.901   0.117  0.00  0.00    -0.001 A 
ENDROOT
TORSDOF 0
ENDMDL
