MODEL 1
REMARK minimizedAffinity -5.14102507
REMARK minimizedRMSD -1
REMARK  0 active torsions:
REMARK  status: ('A' for Active; 'I' for Inactive)
ROOT
ATOM      1  C   UNL d   1       0.524  -3.462   0.765  0.00  0.00     0.078 C 
ATOM      2  C1  UNL d   1      -0.121  -2.111   0.679  0.00  0.00    -0.077 A 
ATOM      3  C2  UNL d   1      -1.391  -1.882   1.223  0.00  0.00    -0.001 A 
ATOM      4  C3  UNL d   1      -1.984  -0.622   1.126  0.00  0.00     0.003 A 
ATOM      5  C4  UNL d   1      -1.315   0.419   0.485  0.00  0.00    -0.005 A 
ATOM      6  C5  UNL d   1      -0.052   0.200  -0.061  0.00  0.00     0.003 A 
ATOM      7  C6  UNL d   1       0.542  -1.060   0.034  0.00  0.00    -0.001 A 
ENDROOT
TORSDOF 0
ENDMDL
