MODEL 1
REMARK minimizedAffinity -5.75249815
REMARK minimizedRMSD -1
REMARK  0 active torsions:
REMARK  status: ('A' for Active; 'I' for Inactive)
ROOT
ATOM      1  C   UNL d   1      -0.083   1.278  -0.158  0.00  0.00     0.078 C 
ATOM      2  C1  UNL d   1      -0.188  -0.214  -0.048  0.00  0.00    -0.077 A 
ATOM      3  C2  UNL d   1       0.379  -1.050  -1.018  0.00  0.00    -0.001 A 
ATOM      4  C3  UNL d   1       0.265  -2.436  -0.908  0.00  0.00     0.003 A 
ATOM      5  C4  UNL d   1      -0.417  -2.999   0.169  0.00  0.00    -0.005 A 
ATOM      6  C5  UNL d   1      -0.987  -2.175   1.137  0.00  0.00     0.003 A 
ATOM      7  C6  UNL d   1      -0.874  -0.788   1.030  0.00  0.00    -0.001 A 
ENDROOT
TORSDOF 0
ENDMDL
