MODEL 1
REMARK minimizedAffinity -4.27758312
REMARK minimizedRMSD -1
REMARK  0 active torsions:
REMARK  status: ('A' for Active; 'I' for Inactive)
ROOT
ATOM      1  C   UNL d   1      -0.011   0.978  -0.702  0.00  0.00     0.078 C 
ATOM      2  C1  UNL d   1      -0.255  -0.335  -0.019  0.00  0.00    -0.077 A 
ATOM      3  C2  UNL d   1      -1.352  -0.511   0.834  0.00  0.00    -0.001 A 
ATOM      4  C3  UNL d   1      -1.561  -1.735   1.471  0.00  0.00     0.003 A 
ATOM      5  C4  UNL d   1      -0.677  -2.792   1.263  0.00  0.00    -0.005 A 
ATOM      6  C5  UNL d   1       0.418  -2.625   0.419  0.00  0.00     0.003 A 
ATOM      7  C6  UNL d   1       0.629  -1.402  -0.219  0.00  0.00    -0.001 A 
ENDROOT
TORSDOF 0
ENDMDL
