MODEL 1
REMARK minimizedAffinity -4.64322138
REMARK minimizedRMSD -1
REMARK  0 active torsions:
REMARK  status: ('A' for Active; 'I' for Inactive)
ROOT
ATOM      1  C   UNL d   1       0.019   4.244   2.307  0.00  0.00     0.078 C 
ATOM      2  C1  UNL d   1       0.492   3.351   1.199  0.00  0.00    -0.077 A 
ATOM      3  C2  UNL d   1      -0.356   2.390   0.635  0.00  0.00    -0.001 A 
ATOM      4  C3  UNL d   1       0.100   1.559  -0.389  0.00  0.00     0.003 A 
ATOM      5  C4  UNL d   1       1.407   1.679  -0.858  0.00  0.00    -0.005 A 
ATOM      6  C5  UNL d   1       2.259   2.631  -0.302  0.00  0.00     0.003 A 
ATOM      7  C6  UNL d   1       1.804   3.463   0.723  0.00  0.00    -0.001 A 
ENDROOT
TORSDOF 0
ENDMDL
