MODEL 1
REMARK minimizedAffinity -5.61080599
REMARK minimizedRMSD -1
REMARK  0 active torsions:
REMARK  status: ('A' for Active; 'I' for Inactive)
ROOT
ATOM      1  C   UNL d   1       1.039  -2.237  -2.969  0.00  0.00     0.078 C 
ATOM      2  C1  UNL d   1       0.460  -2.112  -1.592  0.00  0.00    -0.077 A 
ATOM      3  C2  UNL d   1      -0.019  -3.235  -0.906  0.00  0.00    -0.001 A 
ATOM      4  C3  UNL d   1      -0.564  -3.103   0.372  0.00  0.00     0.003 A 
ATOM      5  C4  UNL d   1      -0.637  -1.849   0.975  0.00  0.00    -0.005 A 
ATOM      6  C5  UNL d   1      -0.166  -0.725   0.299  0.00  0.00     0.003 A 
ATOM      7  C6  UNL d   1       0.380  -0.855  -0.979  0.00  0.00    -0.001 A 
ENDROOT
TORSDOF 0
ENDMDL
