MODEL 1
REMARK minimizedAffinity -4.82012701
REMARK minimizedRMSD -1
REMARK  0 active torsions:
REMARK  status: ('A' for Active; 'I' for Inactive)
ROOT
ATOM      1  C   UNL d   1       0.050   4.218   3.350  0.00  0.00     0.078 C 
ATOM      2  C1  UNL d   1       0.681   3.621   2.127  0.00  0.00    -0.077 A 
ATOM      3  C2  UNL d   1       2.073   3.545   1.998  0.00  0.00    -0.001 A 
ATOM      4  C3  UNL d   1       2.647   2.996   0.850  0.00  0.00     0.003 A 
ATOM      5  C4  UNL d   1       1.836   2.521  -0.179  0.00  0.00    -0.005 A 
ATOM      6  C5  UNL d   1       0.449   2.595  -0.060  0.00  0.00     0.003 A 
ATOM      7  C6  UNL d   1      -0.126   3.144   1.087  0.00  0.00    -0.001 A 
ENDROOT
TORSDOF 0
ENDMDL
