MODEL 1
REMARK minimizedAffinity 12.1759148
REMARK minimizedRMSD -1
REMARK  1 active torsions:
REMARK  status: ('A' for Active; 'I' for Inactive)
REMARK    1  A    between atoms: C1_2  and  C2_3 
ROOT
ATOM      1  C2  UNL d   1      -3.616  -0.416   3.839  0.00  0.00    -0.076 A 
ATOM      2  C3  UNL d   1      -3.689  -1.670   3.208  0.00  0.00     0.004 A 
ATOM      3  C4  UNL d   1      -3.734  -2.847   3.953  0.00  0.00    -0.003 A 
ATOM      4  C5  UNL d   1      -3.707  -2.789   5.342  0.00  0.00     0.000 A 
ATOM      5  C6  UNL d   1      -3.653  -1.554   5.985  0.00  0.00     0.000 A 
ATOM      6  C7  UNL d   1      -3.623  -0.357   5.249  0.00  0.00    -0.073 A 
ATOM      7  C8  UNL d   1      -3.559   0.948   5.995  0.00  0.00     0.078 C 
ENDROOT
BRANCH   1   8
ATOM      8  C1  UNL d   1      -3.542   0.825   2.979  0.00  0.00     0.053 C 
ATOM      9  C   UNL d   1      -2.117   1.172   2.577  0.00  0.00     0.018 C 
ENDBRANCH   1   8
TORSDOF 1
ENDMDL
