MODEL 1
REMARK minimizedAffinity 12.0988579
REMARK minimizedRMSD -1
REMARK  1 active torsions:
REMARK  status: ('A' for Active; 'I' for Inactive)
REMARK    1  A    between atoms: C1_2  and  C2_3 
ROOT
ATOM      1  C2  UNL d   1       3.221  -0.384  -0.373  0.00  0.00    -0.076 A 
ATOM      2  C3  UNL d   1       4.233  -1.110   0.280  0.00  0.00     0.004 A 
ATOM      3  C4  UNL d   1       4.236  -2.503   0.271  0.00  0.00    -0.003 A 
ATOM      4  C5  UNL d   1       3.228  -3.195  -0.391  0.00  0.00     0.000 A 
ATOM      5  C6  UNL d   1       2.226  -2.491  -1.059  0.00  0.00     0.000 A 
ATOM      6  C7  UNL d   1       2.217  -1.086  -1.074  0.00  0.00    -0.073 A 
ATOM      7  C8  UNL d   1       1.109  -0.379  -1.805  0.00  0.00     0.078 C 
ENDROOT
BRANCH   1   8
ATOM      8  C1  UNL d   1       3.255   1.126  -0.307  0.00  0.00     0.053 C 
ATOM      9  C   UNL d   1       4.622   1.661   0.090  0.00  0.00     0.018 C 
ENDBRANCH   1   8
TORSDOF 1
ENDMDL
