MODEL 1
REMARK minimizedAffinity 10.0246267
REMARK minimizedRMSD -1
REMARK  1 active torsions:
REMARK  status: ('A' for Active; 'I' for Inactive)
REMARK    1  A    between atoms: C1_2  and  C2_3 
ROOT
ATOM      1  C2  UNL d   1      -2.201   3.585  -4.586  0.00  0.00    -0.076 A 
ATOM      2  C3  UNL d   1      -3.178   3.607  -5.596  0.00  0.00     0.004 A 
ATOM      3  C4  UNL d   1      -3.766   4.804  -6.000  0.00  0.00    -0.003 A 
ATOM      4  C5  UNL d   1      -3.387   5.999  -5.399  0.00  0.00     0.000 A 
ATOM      5  C6  UNL d   1      -2.407   5.999  -4.407  0.00  0.00     0.000 A 
ATOM      6  C7  UNL d   1      -1.792   4.802  -4.000  0.00  0.00    -0.073 A 
ATOM      7  C8  UNL d   1      -0.746   4.859  -2.922  0.00  0.00     0.078 C 
ENDROOT
BRANCH   1   8
ATOM      8  C1  UNL d   1      -1.618   2.253  -4.171  0.00  0.00     0.053 C 
ATOM      9  C   UNL d   1      -1.003   1.497  -5.338  0.00  0.00     0.018 C 
ENDBRANCH   1   8
TORSDOF 1
ENDMDL
