MODEL 1
REMARK minimizedAffinity 14.7975025
REMARK minimizedRMSD -1
REMARK  1 active torsions:
REMARK  status: ('A' for Active; 'I' for Inactive)
REMARK    1  A    between atoms: C1_2  and  C2_3 
ROOT
ATOM      1  C2  UNL d   1       3.937   0.808  -0.317  0.00  0.00    -0.076 A 
ATOM      2  C3  UNL d   1       4.131  -0.521   0.097  0.00  0.00     0.004 A 
ATOM      3  C4  UNL d   1       3.281  -1.538  -0.334  0.00  0.00    -0.003 A 
ATOM      4  C5  UNL d   1       2.223  -1.242  -1.186  0.00  0.00     0.000 A 
ATOM      5  C6  UNL d   1       2.026   0.068  -1.621  0.00  0.00     0.000 A 
ATOM      6  C7  UNL d   1       2.884   1.102  -1.209  0.00  0.00    -0.073 A 
ATOM      7  C8  UNL d   1       2.621   2.498  -1.704  0.00  0.00     0.078 C 
ENDROOT
BRANCH   1   8
ATOM      8  C1  UNL d   1       4.875   1.874   0.204  0.00  0.00     0.053 C 
ATOM      9  C   UNL d   1       5.999   2.188  -0.770  0.00  0.00     0.018 C 
ENDBRANCH   1   8
TORSDOF 1
ENDMDL
