MODEL 1
REMARK minimizedAffinity 22.2485657
REMARK minimizedRMSD -1
REMARK  1 active torsions:
REMARK  status: ('A' for Active; 'I' for Inactive)
REMARK    1  A    between atoms: C1_2  and  C2_3 
ROOT
ATOM      1  C2  UNL d   1      -2.719   1.099   2.725  0.00  0.00    -0.076 A 
ATOM      2  C3  UNL d   1      -1.910   2.045   2.071  0.00  0.00     0.004 A 
ATOM      3  C4  UNL d   1      -0.527   1.887   2.009  0.00  0.00    -0.003 A 
ATOM      4  C5  UNL d   1       0.071   0.779   2.600  0.00  0.00     0.000 A 
ATOM      5  C6  UNL d   1      -0.717  -0.178   3.237  0.00  0.00     0.000 A 
ATOM      6  C7  UNL d   1      -2.115  -0.042   3.294  0.00  0.00    -0.073 A 
ATOM      7  C8  UNL d   1      -2.915  -1.102   4.000  0.00  0.00     0.078 C 
ENDROOT
BRANCH   1   8
ATOM      8  C1  UNL d   1      -4.210   1.338   2.783  0.00  0.00     0.053 C 
ATOM      9  C   UNL d   1      -4.602   2.312   3.884  0.00  0.00     0.018 C 
ENDBRANCH   1   8
TORSDOF 1
ENDMDL
