MODEL 1
REMARK minimizedAffinity 15.1687613
REMARK minimizedRMSD -1
REMARK  1 active torsions:
REMARK  status: ('A' for Active; 'I' for Inactive)
REMARK    1  A    between atoms: C1_2  and  C2_3 
ROOT
ATOM      1  C2  UNL d   1       2.345  -3.559  -0.692  0.00  0.00    -0.076 A 
ATOM      2  C3  UNL d   1       1.213  -3.613  -1.524  0.00  0.00     0.004 A 
ATOM      3  C4  UNL d   1       0.854  -2.525  -2.319  0.00  0.00    -0.003 A 
ATOM      4  C5  UNL d   1       1.623  -1.367  -2.296  0.00  0.00     0.000 A 
ATOM      5  C6  UNL d   1       2.759  -1.303  -1.490  0.00  0.00     0.000 A 
ATOM      6  C7  UNL d   1       3.143  -2.396  -0.695  0.00  0.00    -0.073 A 
ATOM      7  C8  UNL d   1       4.375  -2.270   0.160  0.00  0.00     0.078 C 
ENDROOT
BRANCH   1   8
ATOM      8  C1  UNL d   1       2.668  -4.760   0.168  0.00  0.00     0.053 C 
ATOM      9  C   UNL d   1       2.982  -5.999  -0.655  0.00  0.00     0.018 C 
ENDBRANCH   1   8
TORSDOF 1
ENDMDL
