MODEL 1
REMARK minimizedAffinity 8.43392372
REMARK minimizedRMSD -1
REMARK  1 active torsions:
REMARK  status: ('A' for Active; 'I' for Inactive)
REMARK    1  A    between atoms: C1_2  and  C2_3 
ROOT
ATOM      1  C2  UNL d   1       3.145  -1.067  -0.131  0.00  0.00    -0.076 A 
ATOM      2  C3  UNL d   1       3.870  -0.365   0.848  0.00  0.00     0.004 A 
ATOM      3  C4  UNL d   1       4.221   0.970   0.662  0.00  0.00    -0.003 A 
ATOM      4  C5  UNL d   1       3.853   1.627  -0.507  0.00  0.00     0.000 A 
ATOM      5  C6  UNL d   1       3.119   0.952  -1.482  0.00  0.00     0.000 A 
ATOM      6  C7  UNL d   1       2.743  -0.390  -1.302  0.00  0.00    -0.073 A 
ATOM      7  C8  UNL d   1       1.956  -1.070  -2.389  0.00  0.00     0.078 C 
ENDROOT
BRANCH   1   8
ATOM      8  C1  UNL d   1       2.816  -2.522   0.114  0.00  0.00     0.053 C 
ATOM      9  C   UNL d   1       4.023  -3.430  -0.062  0.00  0.00     0.018 C 
ENDBRANCH   1   8
TORSDOF 1
ENDMDL
