MODEL 1
REMARK minimizedAffinity 17.7016811
REMARK minimizedRMSD -1
REMARK  1 active torsions:
REMARK  status: ('A' for Active; 'I' for Inactive)
REMARK    1  A    between atoms: C1_2  and  C2_3 
ROOT
ATOM      1  C2  UNL d   1       3.068  -1.238  -1.054  0.00  0.00    -0.076 A 
ATOM      2  C3  UNL d   1       2.332  -1.594  -2.197  0.00  0.00     0.004 A 
ATOM      3  C4  UNL d   1       1.786  -0.620  -3.031  0.00  0.00    -0.003 A 
ATOM      4  C5  UNL d   1       1.968   0.727  -2.736  0.00  0.00     0.000 A 
ATOM      5  C6  UNL d   1       2.711   1.098  -1.616  0.00  0.00     0.000 A 
ATOM      6  C7  UNL d   1       3.282   0.129  -0.773  0.00  0.00    -0.073 A 
ATOM      7  C8  UNL d   1       4.068   0.587   0.424  0.00  0.00     0.078 C 
ENDROOT
BRANCH   1   8
ATOM      8  C1  UNL d   1       3.613  -2.338  -0.171  0.00  0.00     0.053 C 
ATOM      9  C   UNL d   1       2.652  -3.509  -0.039  0.00  0.00     0.018 C 
ENDBRANCH   1   8
TORSDOF 1
ENDMDL
