MODEL 1
REMARK minimizedAffinity 21.7871246
REMARK minimizedRMSD -1
REMARK  1 active torsions:
REMARK  status: ('A' for Active; 'I' for Inactive)
REMARK    1  A    between atoms: C1_2  and  C2_3 
ROOT
ATOM      1  C2  UNL d   1      -0.979   0.716   2.720  0.00  0.00    -0.076 A 
ATOM      2  C3  UNL d   1      -1.260   1.487   3.861  0.00  0.00     0.004 A 
ATOM      3  C4  UNL d   1      -0.267   1.770   4.797  0.00  0.00    -0.003 A 
ATOM      4  C5  UNL d   1       1.023   1.288   4.607  0.00  0.00     0.000 A 
ATOM      5  C6  UNL d   1       1.323   0.535   3.472  0.00  0.00     0.000 A 
ATOM      6  C7  UNL d   1       0.338   0.254   2.510  0.00  0.00    -0.073 A 
ATOM      7  C8  UNL d   1       0.716  -0.567   1.308  0.00  0.00     0.078 C 
ENDROOT
BRANCH   1   8
ATOM      8  C1  UNL d   1      -2.103   0.418   1.753  0.00  0.00     0.053 C 
ATOM      9  C   UNL d   1      -3.412   0.101   2.460  0.00  0.00     0.018 C 
ENDBRANCH   1   8
TORSDOF 1
ENDMDL
