MODEL 1
REMARK minimizedAffinity 15.4058514
REMARK minimizedRMSD -1
REMARK  1 active torsions:
REMARK  status: ('A' for Active; 'I' for Inactive)
REMARK    1  A    between atoms: C1_2  and  C2_3 
ROOT
ATOM      1  C2  UNL d   1      -4.934  -1.273   2.783  0.00  0.00    -0.076 A 
ATOM      2  C3  UNL d   1      -4.743  -0.172   1.930  0.00  0.00     0.004 A 
ATOM      3  C4  UNL d   1      -3.794   0.806   2.222  0.00  0.00    -0.003 A 
ATOM      4  C5  UNL d   1      -3.019   0.698   3.371  0.00  0.00     0.000 A 
ATOM      5  C6  UNL d   1      -3.182  -0.397   4.219  0.00  0.00     0.000 A 
ATOM      6  C7  UNL d   1      -4.124  -1.400   3.931  0.00  0.00    -0.073 A 
ATOM      7  C8  UNL d   1      -4.262  -2.556   4.884  0.00  0.00     0.078 C 
ENDROOT
BRANCH   1   8
ATOM      8  C1  UNL d   1      -5.998  -2.288   2.428  0.00  0.00     0.053 C 
ATOM      9  C   UNL d   1      -5.998  -2.639   0.949  0.00  0.00     0.018 C 
ENDBRANCH   1   8
TORSDOF 1
ENDMDL
