MODEL 1
REMARK minimizedAffinity 14.5832176
REMARK minimizedRMSD -1
REMARK  1 active torsions:
REMARK  status: ('A' for Active; 'I' for Inactive)
REMARK    1  A    between atoms: C1_2  and  C2_3 
ROOT
ATOM      1  C2  UNL d   1      -1.304   1.317   3.617  0.00  0.00    -0.076 A 
ATOM      2  C3  UNL d   1      -1.649   1.736   4.914  0.00  0.00     0.004 A 
ATOM      3  C4  UNL d   1      -0.818   1.467   6.000  0.00  0.00    -0.003 A 
ATOM      4  C5  UNL d   1       0.372   0.774   5.807  0.00  0.00     0.000 A 
ATOM      5  C6  UNL d   1       0.739   0.367   4.525  0.00  0.00     0.000 A 
ATOM      6  C7  UNL d   1      -0.080   0.645   3.417  0.00  0.00    -0.073 A 
ATOM      7  C8  UNL d   1       0.362   0.176   2.057  0.00  0.00     0.078 C 
ENDROOT
BRANCH   1   8
ATOM      8  C1  UNL d   1      -2.258   1.615   2.482  0.00  0.00     0.053 C 
ATOM      9  C   UNL d   1      -3.035   0.385   2.037  0.00  0.00     0.018 C 
ENDBRANCH   1   8
TORSDOF 1
ENDMDL
