MODEL 1
REMARK minimizedAffinity 13.1526279
REMARK minimizedRMSD -1
REMARK  1 active torsions:
REMARK  status: ('A' for Active; 'I' for Inactive)
REMARK    1  A    between atoms: C1_2  and  C2_3 
ROOT
ATOM      1  C2  UNL d   1      -3.775   1.374   3.937  0.00  0.00    -0.076 A 
ATOM      2  C3  UNL d   1      -4.858   1.977   3.274  0.00  0.00     0.004 A 
ATOM      3  C4  UNL d   1      -5.605   2.982   3.886  0.00  0.00    -0.003 A 
ATOM      4  C5  UNL d   1      -5.281   3.401   5.172  0.00  0.00     0.000 A 
ATOM      5  C6  UNL d   1      -4.199   2.826   5.838  0.00  0.00     0.000 A 
ATOM      6  C7  UNL d   1      -3.425   1.823   5.228  0.00  0.00    -0.073 A 
ATOM      7  C8  UNL d   1      -2.273   1.234   5.995  0.00  0.00     0.078 C 
ENDROOT
BRANCH   1   8
ATOM      8  C1  UNL d   1      -3.019   0.270   3.233  0.00  0.00     0.053 C 
ATOM      9  C   UNL d   1      -2.055   0.802   2.183  0.00  0.00     0.018 C 
ENDBRANCH   1   8
TORSDOF 1
ENDMDL
