MODEL 1
REMARK minimizedAffinity -1.01751614
REMARK minimizedRMSD -1
REMARK  1 active torsions:
REMARK  status: ('A' for Active; 'I' for Inactive)
REMARK    1  A    between atoms: C1_2  and  C2_3 
ROOT
ATOM      1  C2  UNL d   1       4.979   1.469  -5.280  0.00  0.00    -0.077 A 
ATOM      2  C3  UNL d   1       6.000   2.427  -5.350  0.00  0.00     0.002 A 
ATOM      3  C4  UNL d   1       5.709   3.744  -5.711  0.00  0.00     0.002 A 
ATOM      4  C5  UNL d   1       4.398   4.116  -6.000  0.00  0.00    -0.004 A 
ATOM      5  C6  UNL d   1       3.376   3.170  -5.934  0.00  0.00     0.002 A 
ATOM      6  C7  UNL d   1       3.664   1.853  -5.575  0.00  0.00     0.002 A 
ENDROOT
BRANCH   1   7
ATOM      7  C1  UNL d   1       5.282   0.060  -4.843  0.00  0.00     0.055 C 
ATOM      8  C   UNL d   1       5.604  -0.002  -3.357  0.00  0.00     0.019 C 
ENDBRANCH   1   7
TORSDOF 1
ENDMDL
