MODEL 1
REMARK minimizedAffinity -2.75767851
REMARK minimizedRMSD -1
REMARK  1 active torsions:
REMARK  status: ('A' for Active; 'I' for Inactive)
REMARK    1  A    between atoms: C1_2  and  C2_3 
ROOT
ATOM      1  C2  UNL d   1       3.469   2.817   1.656  0.00  0.00    -0.077 A 
ATOM      2  C3  UNL d   1       3.469   3.799   0.656  0.00  0.00     0.002 A 
ATOM      3  C4  UNL d   1       2.412   3.883  -0.252  0.00  0.00     0.002 A 
ATOM      4  C5  UNL d   1       1.346   2.990  -0.166  0.00  0.00    -0.004 A 
ATOM      5  C6  UNL d   1       1.337   2.008   0.823  0.00  0.00     0.002 A 
ATOM      6  C7  UNL d   1       2.394   1.922   1.731  0.00  0.00     0.002 A 
ENDROOT
BRANCH   1   7
ATOM      7  C1  UNL d   1       4.584   2.757   2.667  0.00  0.00     0.055 C 
ATOM      8  C   UNL d   1       4.104   2.168   3.986  0.00  0.00     0.019 C 
ENDBRANCH   1   7
TORSDOF 1
ENDMDL
