MODEL 1
REMARK minimizedAffinity 6.19639254
REMARK minimizedRMSD -1
REMARK  1 active torsions:
REMARK  status: ('A' for Active; 'I' for Inactive)
REMARK    1  A    between atoms: C1_2  and  C2_3 
ROOT
ATOM      1  C2  UNL d   1       3.797   2.494   2.822  0.00  0.00    -0.077 A 
ATOM      2  C3  UNL d   1       4.587   3.581   2.420  0.00  0.00     0.002 A 
ATOM      3  C4  UNL d   1       4.385   4.177   1.173  0.00  0.00     0.002 A 
ATOM      4  C5  UNL d   1       3.393   3.697   0.322  0.00  0.00    -0.004 A 
ATOM      5  C6  UNL d   1       2.603   2.616   0.711  0.00  0.00     0.002 A 
ATOM      6  C7  UNL d   1       2.804   2.018   1.956  0.00  0.00     0.002 A 
ENDROOT
BRANCH   1   7
ATOM      7  C1  UNL d   1       3.979   1.881   4.185  0.00  0.00     0.055 C 
ATOM      8  C   UNL d   1       5.118   2.547   4.944  0.00  0.00     0.019 C 
ENDBRANCH   1   7
TORSDOF 1
ENDMDL
