MODEL 1
REMARK minimizedAffinity -1.92975199
REMARK minimizedRMSD -1
REMARK  1 active torsions:
REMARK  status: ('A' for Active; 'I' for Inactive)
REMARK    1  A    between atoms: C1_2  and  C2_3 
ROOT
ATOM      1  C2  UNL d   1      -1.606  -4.169   0.637  0.00  0.00    -0.077 A 
ATOM      2  C3  UNL d   1      -1.229  -5.406   1.178  0.00  0.00     0.002 A 
ATOM      3  C4  UNL d   1      -1.039  -5.548   2.554  0.00  0.00     0.002 A 
ATOM      4  C5  UNL d   1      -1.227  -4.457   3.400  0.00  0.00    -0.004 A 
ATOM      5  C6  UNL d   1      -1.599  -3.222   2.872  0.00  0.00     0.002 A 
ATOM      6  C7  UNL d   1      -1.789  -3.078   1.497  0.00  0.00     0.002 A 
ENDROOT
BRANCH   1   7
ATOM      7  C1  UNL d   1      -1.859  -4.026  -0.841  0.00  0.00     0.055 C 
ATOM      8  C   UNL d   1      -0.725  -3.280  -1.528  0.00  0.00     0.019 C 
ENDBRANCH   1   7
TORSDOF 1
ENDMDL
