MODEL 1
REMARK minimizedAffinity -1.53229749
REMARK minimizedRMSD -1
REMARK  1 active torsions:
REMARK  status: ('A' for Active; 'I' for Inactive)
REMARK    1  A    between atoms: C1_2  and  C2_3 
ROOT
ATOM      1  C2  UNL d   1       3.736   3.133   2.105  0.00  0.00    -0.077 A 
ATOM      2  C3  UNL d   1       3.509   3.702   0.844  0.00  0.00     0.002 A 
ATOM      3  C4  UNL d   1       2.459   3.249   0.043  0.00  0.00     0.002 A 
ATOM      4  C5  UNL d   1       1.626   2.228   0.495  0.00  0.00    -0.004 A 
ATOM      5  C6  UNL d   1       1.844   1.655   1.747  0.00  0.00     0.002 A 
ATOM      6  C7  UNL d   1       2.894   2.105   2.549  0.00  0.00     0.002 A 
ENDROOT
BRANCH   1   7
ATOM      7  C1  UNL d   1       4.837   3.654   2.991  0.00  0.00     0.055 C 
ATOM      8  C   UNL d   1       4.744   3.069   4.393  0.00  0.00     0.019 C 
ENDBRANCH   1   7
TORSDOF 1
ENDMDL
