MODEL 1
REMARK minimizedAffinity 0.617250502
REMARK minimizedRMSD -1
REMARK  1 active torsions:
REMARK  status: ('A' for Active; 'I' for Inactive)
REMARK    1  A    between atoms: C1_2  and  C2_3 
ROOT
ATOM      1  C2  UNL d   1       3.895   2.792   1.779  0.00  0.00    -0.077 A 
ATOM      2  C3  UNL d   1       3.728   3.692   0.717  0.00  0.00     0.002 A 
ATOM      3  C4  UNL d   1       2.637   3.570  -0.147  0.00  0.00     0.002 A 
ATOM      4  C5  UNL d   1       1.704   2.553   0.046  0.00  0.00    -0.004 A 
ATOM      5  C6  UNL d   1       1.863   1.652   1.098  0.00  0.00     0.002 A 
ATOM      6  C7  UNL d   1       2.953   1.772   1.961  0.00  0.00     0.002 A 
ENDROOT
BRANCH   1   7
ATOM      7  C1  UNL d   1       5.043   2.952   2.741  0.00  0.00     0.055 C 
ATOM      8  C   UNL d   1       4.734   2.308   4.084  0.00  0.00     0.019 C 
ENDBRANCH   1   7
TORSDOF 1
ENDMDL
