MODEL 1
REMARK minimizedAffinity -1.51723337
REMARK minimizedRMSD -1
REMARK  1 active torsions:
REMARK  status: ('A' for Active; 'I' for Inactive)
REMARK    1  A    between atoms: C1_2  and  C2_3 
ROOT
ATOM      1  C2  UNL d   1       2.528   2.589   1.407  0.00  0.00    -0.077 A 
ATOM      2  C3  UNL d   1       2.641   1.878   2.610  0.00  0.00     0.002 A 
ATOM      3  C4  UNL d   1       3.650   2.190   3.523  0.00  0.00     0.002 A 
ATOM      4  C5  UNL d   1       4.550   3.216   3.244  0.00  0.00    -0.004 A 
ATOM      5  C6  UNL d   1       4.447   3.928   2.049  0.00  0.00     0.002 A 
ATOM      6  C7  UNL d   1       3.440   3.616   1.135  0.00  0.00     0.002 A 
ENDROOT
BRANCH   1   7
ATOM      7  C1  UNL d   1       1.410   2.286   0.443  0.00  0.00     0.055 C 
ATOM      8  C   UNL d   1       0.140   1.882   1.178  0.00  0.00     0.019 C 
ENDBRANCH   1   7
TORSDOF 1
ENDMDL
