MODEL 1
REMARK minimizedAffinity -2.23385429
REMARK minimizedRMSD -1
REMARK  1 active torsions:
REMARK  status: ('A' for Active; 'I' for Inactive)
REMARK    1  A    between atoms: C1_2  and  C2_3 
ROOT
ATOM      1  C2  UNL d   1       4.053   2.828   2.951  0.00  0.00    -0.077 A 
ATOM      2  C3  UNL d   1       4.463   3.971   2.249  0.00  0.00     0.002 A 
ATOM      3  C4  UNL d   1       3.997   4.211   0.955  0.00  0.00     0.002 A 
ATOM      4  C5  UNL d   1       3.116   3.315   0.353  0.00  0.00    -0.004 A 
ATOM      5  C6  UNL d   1       2.703   2.175   1.042  0.00  0.00     0.002 A 
ATOM      6  C7  UNL d   1       3.169   1.933   2.335  0.00  0.00     0.002 A 
ENDROOT
BRANCH   1   7
ATOM      7  C1  UNL d   1       4.516   2.593   4.365  0.00  0.00     0.055 C 
ATOM      8  C   UNL d   1       5.780   1.747   4.400  0.00  0.00     0.019 C 
ENDBRANCH   1   7
TORSDOF 1
ENDMDL
