MODEL 1
REMARK minimizedAffinity -0.367882967
REMARK minimizedRMSD -1
REMARK  1 active torsions:
REMARK  status: ('A' for Active; 'I' for Inactive)
REMARK    1  A    between atoms: C1_2  and  C2_3 
ROOT
ATOM      1  C2  UNL d   1       1.016  -0.492   1.113  0.00  0.00    -0.077 A 
ATOM      2  C3  UNL d   1       2.374  -0.744   1.350  0.00  0.00     0.002 A 
ATOM      3  C4  UNL d   1       3.296   0.304   1.361  0.00  0.00     0.002 A 
ATOM      4  C5  UNL d   1       2.869   1.612   1.140  0.00  0.00    -0.004 A 
ATOM      5  C6  UNL d   1       1.521   1.873   0.902  0.00  0.00     0.002 A 
ATOM      6  C7  UNL d   1       0.598   0.826   0.889  0.00  0.00     0.002 A 
ENDROOT
BRANCH   1   7
ATOM      7  C1  UNL d   1       0.013  -1.615   1.150  0.00  0.00     0.055 C 
ATOM      8  C   UNL d   1      -0.420  -2.017  -0.252  0.00  0.00     0.019 C 
ENDBRANCH   1   7
TORSDOF 1
ENDMDL
