MODEL 1
REMARK minimizedAffinity 1.83522868
REMARK minimizedRMSD -1
REMARK  1 active torsions:
REMARK  status: ('A' for Active; 'I' for Inactive)
REMARK    1  A    between atoms: C1_2  and  C2_3 
ROOT
ATOM      1  C2  UNL d   1       3.322   2.751   1.139  0.00  0.00    -0.077 A 
ATOM      2  C3  UNL d   1       2.366   3.159   0.198  0.00  0.00     0.002 A 
ATOM      3  C4  UNL d   1       1.188   2.430   0.027  0.00  0.00     0.002 A 
ATOM      4  C5  UNL d   1       0.952   1.292   0.795  0.00  0.00    -0.004 A 
ATOM      5  C6  UNL d   1       1.897   0.876   1.732  0.00  0.00     0.002 A 
ATOM      6  C7  UNL d   1       3.076   1.603   1.904  0.00  0.00     0.002 A 
ENDROOT
BRANCH   1   7
ATOM      7  C1  UNL d   1       4.571   3.563   1.361  0.00  0.00     0.055 C 
ATOM      8  C   UNL d   1       4.773   3.877   2.836  0.00  0.00     0.019 C 
ENDBRANCH   1   7
TORSDOF 1
ENDMDL
