MODEL 1
REMARK minimizedAffinity 1.03566265
REMARK minimizedRMSD -1
REMARK  1 active torsions:
REMARK  status: ('A' for Active; 'I' for Inactive)
REMARK    1  A    between atoms: C1_2  and  C2_3 
ROOT
ATOM      1  C2  UNL d   1       3.590   3.236   1.003  0.00  0.00    -0.077 A 
ATOM      2  C3  UNL d   1       3.157   2.157   1.786  0.00  0.00     0.002 A 
ATOM      3  C4  UNL d   1       3.761   1.889   3.015  0.00  0.00     0.002 A 
ATOM      4  C5  UNL d   1       4.799   2.697   3.474  0.00  0.00    -0.004 A 
ATOM      5  C6  UNL d   1       5.238   3.772   2.702  0.00  0.00     0.002 A 
ATOM      6  C7  UNL d   1       4.636   4.040   1.472  0.00  0.00     0.002 A 
ENDROOT
BRANCH   1   7
ATOM      7  C1  UNL d   1       2.906   3.557  -0.301  0.00  0.00     0.055 C 
ATOM      8  C   UNL d   1       1.427   3.204  -0.251  0.00  0.00     0.019 C 
ENDBRANCH   1   7
TORSDOF 1
ENDMDL
