MODEL 1
REMARK minimizedAffinity -1.59931099
REMARK minimizedRMSD -1
REMARK  1 active torsions:
REMARK  status: ('A' for Active; 'I' for Inactive)
REMARK    1  A    between atoms: C1_2  and  C2_3 
ROOT
ATOM      1  C2  UNL d   1       3.554   2.692   1.695  0.00  0.00    -0.077 A 
ATOM      2  C3  UNL d   1       3.152   3.519   0.636  0.00  0.00     0.002 A 
ATOM      3  C4  UNL d   1       1.837   3.479   0.169  0.00  0.00     0.002 A 
ATOM      4  C5  UNL d   1       0.913   2.617   0.757  0.00  0.00    -0.004 A 
ATOM      5  C6  UNL d   1       1.303   1.790   1.809  0.00  0.00     0.002 A 
ATOM      6  C7  UNL d   1       2.618   1.828   2.276  0.00  0.00     0.002 A 
ENDROOT
BRANCH   1   7
ATOM      7  C1  UNL d   1       4.959   2.769   2.233  0.00  0.00     0.055 C 
ATOM      8  C   UNL d   1       5.229   4.117   2.886  0.00  0.00     0.019 C 
ENDBRANCH   1   7
TORSDOF 1
ENDMDL
