MODEL 1
REMARK minimizedAffinity -1.94937706
REMARK minimizedRMSD -1
REMARK  1 active torsions:
REMARK  status: ('A' for Active; 'I' for Inactive)
REMARK    1  A    between atoms: C1_2  and  C2_3 
ROOT
ATOM      1  C2  UNL d   1      -0.487   3.199   3.068  0.00  0.00    -0.077 A 
ATOM      2  C3  UNL d   1      -1.577   2.485   2.550  0.00  0.00     0.002 A 
ATOM      3  C4  UNL d   1      -1.421   1.679   1.421  0.00  0.00     0.002 A 
ATOM      4  C5  UNL d   1      -0.177   1.577   0.801  0.00  0.00    -0.004 A 
ATOM      5  C6  UNL d   1       0.912   2.286   1.307  0.00  0.00     0.002 A 
ATOM      6  C7  UNL d   1       0.758   3.092   2.435  0.00  0.00     0.002 A 
ENDROOT
BRANCH   1   7
ATOM      7  C1  UNL d   1      -0.641   4.029   4.315  0.00  0.00     0.055 C 
ATOM      8  C   UNL d   1      -2.065   3.969   4.847  0.00  0.00     0.019 C 
ENDBRANCH   1   7
TORSDOF 1
ENDMDL
