MODEL 1
REMARK minimizedAffinity 4.00863457
REMARK minimizedRMSD -1
REMARK  2 active torsions:
REMARK  status: ('A' for Active; 'I' for Inactive)
REMARK    1  A    between atoms: C1_2  and  C2_3 
REMARK    2  A    between atoms: C2_3  and  C3_4 
ROOT
ATOM      1  C3  UNL d   1       3.149  -3.792  -2.127  0.00  0.00    -0.075 A 
ATOM      2  C4  UNL d   1       3.345  -2.806  -1.148  0.00  0.00     0.002 A 
ATOM      3  C5  UNL d   1       3.741  -1.518  -1.509  0.00  0.00     0.002 A 
ATOM      4  C6  UNL d   1       3.955  -1.202  -2.849  0.00  0.00    -0.004 A 
ATOM      5  C7  UNL d   1       3.780  -2.177  -3.828  0.00  0.00     0.002 A 
ATOM      6  C8  UNL d   1       3.380  -3.466  -3.470  0.00  0.00     0.002 A 
ENDROOT
BRANCH   1   7
ATOM      7  C2  UNL d   1       2.692  -5.179  -1.745  0.00  0.00     0.056 C 
BRANCH   7   8
ATOM      8  C1  UNL d   1       1.590  -5.203  -0.681  0.00  0.00     0.007 C 
ATOM      9  C   UNL d   1       0.364  -4.387  -1.069  0.00  0.00     0.009 C 
ENDBRANCH   7   8
ENDBRANCH   1   7
TORSDOF 2
ENDMDL
