MODEL 1
REMARK minimizedAffinity 2.41052198
REMARK minimizedRMSD -1
REMARK  2 active torsions:
REMARK  status: ('A' for Active; 'I' for Inactive)
REMARK    1  A    between atoms: C1_2  and  C2_3 
REMARK    2  A    between atoms: C2_3  and  C3_4 
ROOT
ATOM      1  C3  UNL d   1       4.204  -3.607  -1.982  0.00  0.00    -0.075 A 
ATOM      2  C4  UNL d   1       3.778  -3.151  -3.238  0.00  0.00     0.002 A 
ATOM      3  C5  UNL d   1       3.143  -4.017  -4.128  0.00  0.00     0.002 A 
ATOM      4  C6  UNL d   1       2.934  -5.349  -3.780  0.00  0.00    -0.004 A 
ATOM      5  C7  UNL d   1       3.368  -5.818  -2.541  0.00  0.00     0.002 A 
ATOM      6  C8  UNL d   1       4.000  -4.953  -1.647  0.00  0.00     0.002 A 
ENDROOT
BRANCH   1   7
ATOM      7  C2  UNL d   1       4.866  -2.668  -1.002  0.00  0.00     0.056 C 
BRANCH   7   8
ATOM      8  C1  UNL d   1       3.897  -1.704  -0.310  0.00  0.00     0.007 C 
ATOM      9  C   UNL d   1       2.578  -2.357   0.083  0.00  0.00     0.009 C 
ENDBRANCH   7   8
ENDBRANCH   1   7
TORSDOF 2
ENDMDL
