MODEL 1
REMARK minimizedAffinity 17.8555069
REMARK minimizedRMSD -1
REMARK  2 active torsions:
REMARK  status: ('A' for Active; 'I' for Inactive)
REMARK    1  A    between atoms: C1_2  and  C2_3 
REMARK    2  A    between atoms: C2_3  and  C3_4 
ROOT
ATOM      1  C3  UNL d   1      -1.142   1.340  -0.553  0.00  0.00    -0.075 A 
ATOM      2  C4  UNL d   1      -0.693   1.664   0.736  0.00  0.00     0.002 A 
ATOM      3  C5  UNL d   1       0.045   2.828   0.957  0.00  0.00     0.002 A 
ATOM      4  C6  UNL d   1       0.351   3.674  -0.107  0.00  0.00    -0.004 A 
ATOM      5  C7  UNL d   1      -0.075   3.353  -1.394  0.00  0.00     0.002 A 
ATOM      6  C8  UNL d   1      -0.817   2.192  -1.617  0.00  0.00     0.002 A 
ENDROOT
BRANCH   1   7
ATOM      7  C2  UNL d   1      -1.965   0.097  -0.794  0.00  0.00     0.056 C 
BRANCH   7   8
ATOM      8  C1  UNL d   1      -3.011   0.248  -1.903  0.00  0.00     0.007 C 
ATOM      9  C   UNL d   1      -4.097   1.262  -1.571  0.00  0.00     0.009 C 
ENDBRANCH   7   8
ENDBRANCH   1   7
TORSDOF 2
ENDMDL
