MODEL 1
REMARK minimizedAffinity 3.13702893
REMARK minimizedRMSD -1
REMARK  2 active torsions:
REMARK  status: ('A' for Active; 'I' for Inactive)
REMARK    1  A    between atoms: C1_2  and  C2_3 
REMARK    2  A    between atoms: C2_3  and  C3_4 
ROOT
ATOM      1  C3  UNL d   1       4.297  -4.099  -1.228  0.00  0.00    -0.075 A 
ATOM      2  C4  UNL d   1       3.045  -3.566  -0.891  0.00  0.00     0.002 A 
ATOM      3  C5  UNL d   1       2.944  -2.287  -0.343  0.00  0.00     0.002 A 
ATOM      4  C6  UNL d   1       4.091  -1.531  -0.115  0.00  0.00    -0.004 A 
ATOM      5  C7  UNL d   1       5.342  -2.057  -0.430  0.00  0.00     0.002 A 
ATOM      6  C8  UNL d   1       5.446  -3.335  -0.983  0.00  0.00     0.002 A 
ENDROOT
BRANCH   1   7
ATOM      7  C2  UNL d   1       4.411  -5.471  -1.849  0.00  0.00     0.056 C 
BRANCH   7   8
ATOM      8  C1  UNL d   1       3.679  -5.612  -3.188  0.00  0.00     0.007 C 
ATOM      9  C   UNL d   1       4.616  -5.596  -4.388  0.00  0.00     0.009 C 
ENDBRANCH   7   8
ENDBRANCH   1   7
TORSDOF 2
ENDMDL
