MODEL 1
REMARK minimizedAffinity 2.29206419
REMARK minimizedRMSD -1
REMARK  2 active torsions:
REMARK  status: ('A' for Active; 'I' for Inactive)
REMARK    1  A    between atoms: C1_2  and  C2_3 
REMARK    2  A    between atoms: C2_3  and  C3_4 
ROOT
ATOM      1  C3  UNL d   1       3.862  -4.703  -1.588  0.00  0.00    -0.075 A 
ATOM      2  C4  UNL d   1       4.362  -3.737  -0.702  0.00  0.00     0.002 A 
ATOM      3  C5  UNL d   1       4.872  -2.531  -1.184  0.00  0.00     0.002 A 
ATOM      4  C6  UNL d   1       4.898  -2.279  -2.554  0.00  0.00    -0.004 A 
ATOM      5  C7  UNL d   1       4.419  -3.239  -3.444  0.00  0.00     0.002 A 
ATOM      6  C8  UNL d   1       3.904  -4.445  -2.964  0.00  0.00     0.002 A 
ENDROOT
BRANCH   1   7
ATOM      7  C2  UNL d   1       3.282  -5.998  -1.071  0.00  0.00     0.056 C 
BRANCH   7   8
ATOM      8  C1  UNL d   1       1.753  -6.000  -0.971  0.00  0.00     0.007 C 
ATOM      9  C   UNL d   1       1.200  -4.811  -0.196  0.00  0.00     0.009 C 
ENDBRANCH   7   8
ENDBRANCH   1   7
TORSDOF 2
ENDMDL
