MODEL 1
REMARK minimizedAffinity 2.00653601
REMARK minimizedRMSD -1
REMARK  2 active torsions:
REMARK  status: ('A' for Active; 'I' for Inactive)
REMARK    1  A    between atoms: C1_2  and  C2_3 
REMARK    2  A    between atoms: C2_3  and  C3_4 
ROOT
ATOM      1  C3  UNL d   1       4.291  -1.867   0.229  0.00  0.00    -0.075 A 
ATOM      2  C4  UNL d   1       3.618  -2.961   0.793  0.00  0.00     0.002 A 
ATOM      3  C5  UNL d   1       3.657  -4.211   0.175  0.00  0.00     0.002 A 
ATOM      4  C6  UNL d   1       4.358  -4.381  -1.016  0.00  0.00    -0.004 A 
ATOM      5  C7  UNL d   1       5.016  -3.298  -1.594  0.00  0.00     0.002 A 
ATOM      6  C8  UNL d   1       4.983  -2.047  -0.976  0.00  0.00     0.002 A 
ENDROOT
BRANCH   1   7
ATOM      7  C2  UNL d   1       4.278  -0.518   0.908  0.00  0.00     0.056 C 
BRANCH   7   8
ATOM      8  C1  UNL d   1       2.937  -0.160   1.558  0.00  0.00     0.007 C 
ATOM      9  C   UNL d   1       3.085   0.426   2.956  0.00  0.00     0.009 C 
ENDBRANCH   7   8
ENDBRANCH   1   7
TORSDOF 2
ENDMDL
