MODEL 1
REMARK minimizedAffinity -1.44778669
REMARK minimizedRMSD -1
REMARK  2 active torsions:
REMARK  status: ('A' for Active; 'I' for Inactive)
REMARK    1  A    between atoms: C1_2  and  C2_3 
REMARK    2  A    between atoms: C2_3  and  C3_4 
ROOT
ATOM      1  C3  UNL d   1       3.883  -4.006  -1.589  0.00  0.00    -0.075 A 
ATOM      2  C4  UNL d   1       5.231  -4.158  -1.230  0.00  0.00     0.002 A 
ATOM      3  C5  UNL d   1       5.884  -3.170  -0.494  0.00  0.00     0.002 A 
ATOM      4  C6  UNL d   1       5.204  -2.014  -0.116  0.00  0.00    -0.004 A 
ATOM      5  C7  UNL d   1       3.870  -1.844  -0.482  0.00  0.00     0.002 A 
ATOM      6  C8  UNL d   1       3.212  -2.834  -1.215  0.00  0.00     0.002 A 
ENDROOT
BRANCH   1   7
ATOM      7  C2  UNL d   1       3.162  -5.085  -2.360  0.00  0.00     0.056 C 
BRANCH   7   8
ATOM      8  C1  UNL d   1       2.266  -5.977  -1.495  0.00  0.00     0.007 C 
ATOM      9  C   UNL d   1       1.471  -5.200  -0.454  0.00  0.00     0.009 C 
ENDBRANCH   7   8
ENDBRANCH   1   7
TORSDOF 2
ENDMDL
