MODEL 1
REMARK minimizedAffinity -3.18424964
REMARK minimizedRMSD -1
REMARK  2 active torsions:
REMARK  status: ('A' for Active; 'I' for Inactive)
REMARK    1  A    between atoms: C1_2  and  C2_3 
REMARK    2  A    between atoms: C2_3  and  C3_4 
ROOT
ATOM      1  C3  UNL d   1      -1.895   5.216  -0.567  0.00  0.00    -0.075 A 
ATOM      2  C4  UNL d   1      -2.015   5.611   0.774  0.00  0.00     0.002 A 
ATOM      3  C5  UNL d   1      -3.254   5.987   1.293  0.00  0.00     0.002 A 
ATOM      4  C6  UNL d   1      -4.384   5.983   0.478  0.00  0.00    -0.004 A 
ATOM      5  C7  UNL d   1      -4.274   5.608  -0.859  0.00  0.00     0.002 A 
ATOM      6  C8  UNL d   1      -3.036   5.227  -1.380  0.00  0.00     0.002 A 
ENDROOT
BRANCH   1   7
ATOM      7  C2  UNL d   1      -0.562   4.779  -1.127  0.00  0.00     0.056 C 
BRANCH   7   8
ATOM      8  C1  UNL d   1       0.023   3.536  -0.447  0.00  0.00     0.007 C 
ATOM      9  C   UNL d   1      -0.733   2.257  -0.782  0.00  0.00     0.009 C 
ENDBRANCH   7   8
ENDBRANCH   1   7
TORSDOF 2
ENDMDL
