MODEL 1
REMARK minimizedAffinity -2.23888659
REMARK minimizedRMSD -1
REMARK  1 active torsions:
REMARK  status: ('A' for Active; 'I' for Inactive)
REMARK    1  A    between atoms: C3_4  and  O_7 
ROOT
ATOM      1  C   UNL d   1       1.688   1.015   0.046  0.00  0.00    -0.033 A 
ATOM      2  C1  UNL d   1       2.703   0.693   0.949  0.00  0.00     0.039 A 
ATOM      3  C2  UNL d   1       2.676  -0.527   1.627  0.00  0.00    -0.080 A 
ATOM      4  C3  UNL d   1       1.630  -1.416   1.392  0.00  0.00     0.150 A 
ATOM      5  C4  UNL d   1       0.618  -1.103   0.491  0.00  0.00    -0.007 A 
ATOM      6  C5  UNL d   1       0.646   0.116  -0.184  0.00  0.00     0.039 A 
ENDROOT
BRANCH   4   7
ATOM      7  O   UNL d   1       1.559  -2.617   2.033  0.00  0.00    -0.526 OA
ATOM      8  H5  UNL d   1       2.310  -2.684   2.646  0.00  0.00     0.418 HD
ENDBRANCH   4   7
TORSDOF 1
ENDMDL
