MODEL 1
REMARK minimizedAffinity -4.97497988
REMARK minimizedRMSD -1
REMARK  1 active torsions:
REMARK  status: ('A' for Active; 'I' for Inactive)
REMARK    1  A    between atoms: C3_4  and  O_7 
ROOT
ATOM      1  C   UNL d   1      -0.724  -0.066   0.158  0.00  0.00    -0.033 A 
ATOM      2  C1  UNL d   1      -0.082   1.168   0.285  0.00  0.00     0.039 A 
ATOM      3  C2  UNL d   1       1.289   1.221   0.541  0.00  0.00    -0.080 A 
ATOM      4  C3  UNL d   1       2.007   0.034   0.667  0.00  0.00     0.150 A 
ATOM      5  C4  UNL d   1       1.375  -1.198   0.539  0.00  0.00    -0.007 A 
ATOM      6  C5  UNL d   1       0.005  -1.249   0.284  0.00  0.00     0.039 A 
ENDROOT
BRANCH   4   7
ATOM      7  O   UNL d   1       3.346   0.036   0.922  0.00  0.00    -0.526 OA
ATOM      8  H5  UNL d   1       3.641   0.957   1.014  0.00  0.00     0.418 HD
ENDBRANCH   4   7
TORSDOF 1
ENDMDL
