MODEL 1
REMARK minimizedAffinity -5.33773041
REMARK minimizedRMSD -1
REMARK  1 active torsions:
REMARK  status: ('A' for Active; 'I' for Inactive)
REMARK    1  A    between atoms: C3_4  and  O_7 
ROOT
ATOM      1  C   UNL d   1       2.787  -1.324   2.024  0.00  0.00    -0.033 A 
ATOM      2  C1  UNL d   1       1.730  -2.233   2.105  0.00  0.00     0.039 A 
ATOM      3  C2  UNL d   1       0.538  -1.983   1.422  0.00  0.00    -0.080 A 
ATOM      4  C3  UNL d   1       0.416  -0.823   0.662  0.00  0.00     0.150 A 
ATOM      5  C4  UNL d   1       1.466   0.085   0.574  0.00  0.00    -0.007 A 
ATOM      6  C5  UNL d   1       2.656  -0.166   1.257  0.00  0.00     0.039 A 
ENDROOT
BRANCH   4   7
ATOM      7  O   UNL d   1      -0.729  -0.534  -0.018  0.00  0.00    -0.526 OA
ATOM      8  H5  UNL d   1      -1.378  -1.235   0.159  0.00  0.00     0.418 HD
ENDBRANCH   4   7
TORSDOF 1
ENDMDL
