MODEL 1
REMARK minimizedAffinity -3.46521902
REMARK minimizedRMSD -1
REMARK  1 active torsions:
REMARK  status: ('A' for Active; 'I' for Inactive)
REMARK    1  A    between atoms: C3_4  and  O_7 
ROOT
ATOM      1  C   UNL d   1      -0.118  -0.025   0.239  0.00  0.00    -0.033 A 
ATOM      2  C1  UNL d   1       0.532  -1.261   0.252  0.00  0.00     0.039 A 
ATOM      3  C2  UNL d   1       1.913  -1.323   0.447  0.00  0.00    -0.080 A 
ATOM      4  C3  UNL d   1       2.631  -0.144   0.628  0.00  0.00     0.150 A 
ATOM      5  C4  UNL d   1       1.989   1.090   0.620  0.00  0.00    -0.007 A 
ATOM      6  C5  UNL d   1       0.610   1.150   0.425  0.00  0.00     0.039 A 
ENDROOT
BRANCH   4   7
ATOM      7  O   UNL d   1       3.981  -0.154   0.817  0.00  0.00    -0.526 OA
ATOM      8  H5  UNL d   1       4.292  -1.074   0.770  0.00  0.00     0.418 HD
ENDBRANCH   4   7
TORSDOF 1
ENDMDL
