MODEL 1
REMARK minimizedAffinity -2.96009159
REMARK minimizedRMSD -1
REMARK  1 active torsions:
REMARK  status: ('A' for Active; 'I' for Inactive)
REMARK    1  A    between atoms: C3_4  and  O_7 
ROOT
ATOM      1  C   UNL d   1       2.601  -0.853   2.131  0.00  0.00    -0.033 A 
ATOM      2  C1  UNL d   1       1.599  -1.741   1.733  0.00  0.00     0.039 A 
ATOM      3  C2  UNL d   1       0.572  -1.306   0.893  0.00  0.00    -0.080 A 
ATOM      4  C3  UNL d   1       0.559   0.016   0.457  0.00  0.00     0.150 A 
ATOM      5  C4  UNL d   1       1.556   0.904   0.846  0.00  0.00    -0.007 A 
ATOM      6  C5  UNL d   1       2.580   0.469   1.686  0.00  0.00     0.039 A 
ENDROOT
BRANCH   4   7
ATOM      7  O   UNL d   1      -0.426   0.487  -0.360  0.00  0.00    -0.526 OA
ATOM      8  H5  UNL d   1      -1.061  -0.231  -0.522  0.00  0.00     0.418 HD
ENDBRANCH   4   7
TORSDOF 1
ENDMDL
