MODEL 1
REMARK minimizedAffinity -4.72604227
REMARK minimizedRMSD -1
REMARK  1 active torsions:
REMARK  status: ('A' for Active; 'I' for Inactive)
REMARK    1  A    between atoms: C3_4  and  O_7 
ROOT
ATOM      1  C   UNL d   1      -0.961   0.026   0.341  0.00  0.00    -0.033 A 
ATOM      2  C1  UNL d   1      -0.213  -1.088   0.724  0.00  0.00     0.039 A 
ATOM      3  C2  UNL d   1       1.166  -0.975   0.910  0.00  0.00    -0.080 A 
ATOM      4  C3  UNL d   1       1.783   0.258   0.712  0.00  0.00     0.150 A 
ATOM      5  C4  UNL d   1       1.043   1.373   0.334  0.00  0.00    -0.007 A 
ATOM      6  C5  UNL d   1      -0.334   1.257   0.147  0.00  0.00     0.039 A 
ENDROOT
BRANCH   4   7
ATOM      7  O   UNL d   1       3.127   0.416   0.877  0.00  0.00    -0.526 OA
ATOM      8  H5  UNL d   1       3.512  -0.445   1.110  0.00  0.00     0.418 HD
ENDBRANCH   4   7
TORSDOF 1
ENDMDL
