MODEL 1
REMARK minimizedAffinity -4.37205887
REMARK minimizedRMSD -1
REMARK  1 active torsions:
REMARK  status: ('A' for Active; 'I' for Inactive)
REMARK    1  A    between atoms: C3_4  and  O_7 
ROOT
ATOM      1  C   UNL d   1       2.774   0.081   0.449  0.00  0.00    -0.033 A 
ATOM      2  C1  UNL d   1       1.496  -0.076  -0.091  0.00  0.00     0.039 A 
ATOM      3  C2  UNL d   1       0.675  -1.118   0.343  0.00  0.00    -0.080 A 
ATOM      4  C3  UNL d   1       1.143  -1.995   1.318  0.00  0.00     0.150 A 
ATOM      5  C4  UNL d   1       2.413  -1.843   1.864  0.00  0.00    -0.007 A 
ATOM      6  C5  UNL d   1       3.232  -0.802   1.428  0.00  0.00     0.039 A 
ENDROOT
BRANCH   4   7
ATOM      7  O   UNL d   1       0.380  -3.030   1.771  0.00  0.00    -0.526 OA
ATOM      8  H5  UNL d   1      -0.461  -3.028   1.284  0.00  0.00     0.418 HD
ENDBRANCH   4   7
TORSDOF 1
ENDMDL
