MODEL 1
REMARK minimizedAffinity 10.1415253
REMARK minimizedRMSD -1
REMARK  0 active torsions:
REMARK  status: ('A' for Active; 'I' for Inactive)
ROOT
ATOM      1  C1  DEN d   1       2.991   0.624   0.968  0.00  0.00     0.130 A 
ATOM      2  C2  DEN d   1       1.691   1.274   0.833  0.00  0.00    -0.031 A 
ATOM      3  C3  DEN d   1       0.647   0.276   1.142  0.00  0.00     0.027 A 
ATOM      4  C4  DEN d   1       0.918  -2.198   1.818  0.00  0.00     0.027 A 
ATOM      5  C5  DEN d   1       1.828  -3.205   2.053  0.00  0.00    -0.003 A 
ATOM      6  C6  DEN d   1       3.177  -3.017   1.910  0.00  0.00     0.001 A 
ATOM      7  C7  DEN d   1       3.658  -1.781   1.566  0.00  0.00     0.017 A 
ATOM      8  C8  DEN d   1       2.745  -0.763   1.321  0.00  0.00    -0.094 A 
ATOM      9  C9  DEN d   1       1.386  -0.970   1.482  0.00  0.00    -0.072 A 
ENDROOT
TORSDOF 0
ENDMDL
