MODEL 1
REMARK minimizedAffinity -0.820452511
REMARK minimizedRMSD -1
REMARK  0 active torsions:
REMARK  status: ('A' for Active; 'I' for Inactive)
ROOT
ATOM      1  C1  DEN d   1       3.284  -2.444   2.998  0.00  0.00     0.130 A 
ATOM      2  C2  DEN d   1       2.190  -3.394   3.180  0.00  0.00    -0.031 A 
ATOM      3  C3  DEN d   1       1.045  -2.933   2.369  0.00  0.00     0.027 A 
ATOM      4  C4  DEN d   1       0.863  -0.853   0.855  0.00  0.00     0.027 A 
ATOM      5  C5  DEN d   1       1.529   0.260   0.391  0.00  0.00    -0.003 A 
ATOM      6  C6  DEN d   1       2.805   0.565   0.787  0.00  0.00     0.001 A 
ATOM      7  C7  DEN d   1       3.471  -0.276   1.638  0.00  0.00     0.017 A 
ATOM      8  C8  DEN d   1       2.803  -1.396   2.115  0.00  0.00    -0.094 A 
ATOM      9  C9  DEN d   1       1.518  -1.694   1.694  0.00  0.00    -0.072 A 
ENDROOT
TORSDOF 0
ENDMDL
