MODEL 1
REMARK minimizedAffinity 10.3295784
REMARK minimizedRMSD -1
REMARK  0 active torsions:
REMARK  status: ('A' for Active; 'I' for Inactive)
ROOT
ATOM      1  C1  DEN d   1      -0.404  -3.378   1.648  0.00  0.00     0.130 A 
ATOM      2  C2  DEN d   1       0.108  -2.011   1.646  0.00  0.00    -0.031 A 
ATOM      3  C3  DEN d   1      -0.758  -1.200   0.767  0.00  0.00     0.027 A 
ATOM      4  C4  DEN d   1      -2.834  -1.925  -0.581  0.00  0.00     0.027 A 
ATOM      5  C5  DEN d   1      -3.647  -2.988  -0.905  0.00  0.00    -0.003 A 
ATOM      6  C6  DEN d   1      -3.418  -4.253  -0.432  0.00  0.00     0.001 A 
ATOM      7  C7  DEN d   1      -2.376  -4.478   0.429  0.00  0.00     0.017 A 
ATOM      8  C8  DEN d   1      -1.547  -3.412   0.754  0.00  0.00    -0.094 A 
ATOM      9  C9  DEN d   1      -1.803  -2.138   0.275  0.00  0.00    -0.072 A 
ENDROOT
TORSDOF 0
ENDMDL
