MODEL 1
REMARK minimizedAffinity 1.47673213
REMARK minimizedRMSD -1
REMARK  0 active torsions:
REMARK  status: ('A' for Active; 'I' for Inactive)
ROOT
ATOM      1  C1  DEN d   1       3.482  -0.888   1.890  0.00  0.00     0.130 A 
ATOM      2  C2  DEN d   1       3.018  -0.046   0.792  0.00  0.00    -0.031 A 
ATOM      3  C3  DEN d   1       1.675  -0.512   0.394  0.00  0.00     0.027 A 
ATOM      4  C4  DEN d   1       0.273  -2.444   1.373  0.00  0.00     0.027 A 
ATOM      5  C5  DEN d   1       0.253  -3.453   2.310  0.00  0.00    -0.003 A 
ATOM      6  C6  DEN d   1       1.312  -3.698   3.143  0.00  0.00     0.001 A 
ATOM      7  C7  DEN d   1       2.420  -2.894   3.086  0.00  0.00     0.017 A 
ATOM      8  C8  DEN d   1       2.451  -1.879   2.139  0.00  0.00    -0.094 A 
ATOM      9  C9  DEN d   1       1.365  -1.640   1.314  0.00  0.00    -0.072 A 
ENDROOT
TORSDOF 0
ENDMDL
