MODEL 1
REMARK minimizedAffinity 5.40048075
REMARK minimizedRMSD -1
REMARK  0 active torsions:
REMARK  status: ('A' for Active; 'I' for Inactive)
ROOT
ATOM      1  C1  DEN d   1       1.546  -2.306  -1.566  0.00  0.00     0.130 A 
ATOM      2  C2  DEN d   1       0.128  -2.279  -1.914  0.00  0.00    -0.031 A 
ATOM      3  C3  DEN d   1      -0.642  -2.047  -0.676  0.00  0.00     0.027 A 
ATOM      4  C4  DEN d   1       0.219  -1.723   1.734  0.00  0.00     0.027 A 
ATOM      5  C5  DEN d   1       1.344  -1.677   2.527  0.00  0.00    -0.003 A 
ATOM      6  C6  DEN d   1       2.602  -1.869   2.022  0.00  0.00     0.001 A 
ATOM      7  C7  DEN d   1       2.770  -2.072   0.677  0.00  0.00     0.017 A 
ATOM      8  C8  DEN d   1       1.640  -2.128  -0.128  0.00  0.00    -0.094 A 
ATOM      9  C9  DEN d   1       0.377  -1.919   0.400  0.00  0.00    -0.072 A 
ENDROOT
TORSDOF 0
ENDMDL
