MODEL 1
REMARK minimizedAffinity 10.8765802
REMARK minimizedRMSD -1
REMARK  0 active torsions:
REMARK  status: ('A' for Active; 'I' for Inactive)
ROOT
ATOM      1  C1  DEN d   1       0.735   3.653   0.572  0.00  0.00     0.130 A 
ATOM      2  C2  DEN d   1       1.367   4.410  -0.506  0.00  0.00    -0.031 A 
ATOM      3  C3  DEN d   1       2.624   3.725  -0.868  0.00  0.00     0.027 A 
ATOM      4  C4  DEN d   1       3.646   1.575   0.126  0.00  0.00     0.027 A 
ATOM      5  C5  DEN d   1       3.480   0.585   1.069  0.00  0.00    -0.003 A 
ATOM      6  C6  DEN d   1       2.413   0.568   1.928  0.00  0.00     0.001 A 
ATOM      7  C7  DEN d   1       1.447   1.534   1.832  0.00  0.00     0.017 A 
ATOM      8  C8  DEN d   1       1.612   2.540   0.888  0.00  0.00    -0.094 A 
ATOM      9  C9  DEN d   1       2.691   2.533   0.020  0.00  0.00    -0.072 A 
ENDROOT
TORSDOF 0
ENDMDL
