MODEL 1
REMARK minimizedAffinity 4.15595865
REMARK minimizedRMSD -1
REMARK  0 active torsions:
REMARK  status: ('A' for Active; 'I' for Inactive)
ROOT
ATOM      1  C1  DEN d   1       1.372   0.625   1.803  0.00  0.00     0.130 A 
ATOM      2  C2  DEN d   1       2.824   0.547   1.928  0.00  0.00    -0.031 A 
ATOM      3  C3  DEN d   1       3.193  -0.874   2.085  0.00  0.00     0.027 A 
ATOM      4  C4  DEN d   1       1.664  -2.951   2.142  0.00  0.00     0.027 A 
ATOM      5  C5  DEN d   1       0.358  -3.385   2.085  0.00  0.00    -0.003 A 
ATOM      6  C6  DEN d   1      -0.695  -2.518   1.966  0.00  0.00     0.001 A 
ATOM      7  C7  DEN d   1      -0.458  -1.173   1.854  0.00  0.00     0.017 A 
ATOM      8  C8  DEN d   1       0.856  -0.727   1.917  0.00  0.00    -0.094 A 
ATOM      9  C9  DEN d   1       1.908  -1.621   2.026  0.00  0.00    -0.072 A 
ENDROOT
TORSDOF 0
ENDMDL
