MODEL 1
REMARK minimizedAffinity 2.47892118
REMARK minimizedRMSD -1
REMARK  0 active torsions:
REMARK  status: ('A' for Active; 'I' for Inactive)
ROOT
ATOM      1  C1  DEN d   1      -0.874   1.307   0.951  0.00  0.00     0.130 A 
ATOM      2  C2  DEN d   1      -1.927   0.296   0.983  0.00  0.00    -0.031 A 
ATOM      3  C3  DEN d   1      -1.284  -1.031   1.049  0.00  0.00     0.027 A 
ATOM      4  C4  DEN d   1       1.228  -1.616   1.111  0.00  0.00     0.027 A 
ATOM      5  C5  DEN d   1       2.502  -1.094   1.093  0.00  0.00    -0.003 A 
ATOM      6  C6  DEN d   1       2.739   0.251   0.993  0.00  0.00     0.001 A 
ATOM      7  C7  DEN d   1       1.685   1.125   0.952  0.00  0.00     0.017 A 
ATOM      8  C8  DEN d   1       0.397   0.606   0.963  0.00  0.00    -0.094 A 
ATOM      9  C9  DEN d   1       0.178  -0.756   1.077  0.00  0.00    -0.072 A 
ENDROOT
TORSDOF 0
ENDMDL
