MODEL 1
REMARK minimizedAffinity 0.54263109
REMARK minimizedRMSD -1
REMARK  0 active torsions:
REMARK  status: ('A' for Active; 'I' for Inactive)
ROOT
ATOM      1  C1  DEN d   1       1.380  -2.706  -3.085  0.00  0.00     0.130 A 
ATOM      2  C2  DEN d   1       2.682  -3.235  -2.689  0.00  0.00    -0.031 A 
ATOM      3  C3  DEN d   1       2.943  -2.812  -1.298  0.00  0.00     0.027 A 
ATOM      4  C4  DEN d   1       1.462  -1.401   0.273  0.00  0.00     0.027 A 
ATOM      5  C5  DEN d   1       0.272  -0.716   0.378  0.00  0.00    -0.003 A 
ATOM      6  C6  DEN d   1      -0.610  -0.618  -0.665  0.00  0.00     0.001 A 
ATOM      7  C7  DEN d   1      -0.335  -1.254  -1.847  0.00  0.00     0.017 A 
ATOM      8  C8  DEN d   1       0.866  -1.940  -1.964  0.00  0.00    -0.094 A 
ATOM      9  C9  DEN d   1       1.739  -2.038  -0.893  0.00  0.00    -0.072 A 
ENDROOT
TORSDOF 0
ENDMDL
