MODEL 1
REMARK minimizedAffinity -0.579849064
REMARK minimizedRMSD -1
REMARK  1 active torsions:
REMARK  status: ('A' for Active; 'I' for Inactive)
REMARK    1  A    between atoms: C1_2  and  C2_3 
ROOT
ATOM      1  C2  UNL d   1       0.328   3.529   1.547  0.00  0.00    -0.081 A 
ATOM      2  C3  UNL d   1      -0.047   2.182   1.474  0.00  0.00     0.006 A 
ATOM      3  C4  UNL d   1       0.121   1.463   0.288  0.00  0.00     0.002 A 
ATOM      4  C5  UNL d   1       0.674   2.076  -0.841  0.00  0.00    -0.080 A 
ATOM      5  C6  UNL d   1       0.888   1.307  -2.111  0.00  0.00     0.076 C 
ATOM      6  C7  UNL d   1       1.033   3.426  -0.774  0.00  0.00     0.002 A 
ATOM      7  C8  UNL d   1       0.865   4.146   0.411  0.00  0.00     0.006 A 
ENDROOT
BRANCH   1   8
ATOM      8  C1  UNL d   1       0.208   4.289   2.843  0.00  0.00     0.054 C 
ATOM      9  C   UNL d   1       1.296   3.882   3.826  0.00  0.00     0.018 C 
ENDBRANCH   1   8
TORSDOF 1
ENDMDL
