MODEL 1
REMARK minimizedAffinity 11.820014
REMARK minimizedRMSD -1
REMARK  1 active torsions:
REMARK  status: ('A' for Active; 'I' for Inactive)
REMARK    1  A    between atoms: C1_2  and  C2_3 
ROOT
ATOM      1  C2  UNL d   1       0.127   2.469   1.944  0.00  0.00    -0.081 A 
ATOM      2  C3  UNL d   1       0.607   1.819   3.087  0.00  0.00     0.006 A 
ATOM      3  C4  UNL d   1       0.931   2.548   4.233  0.00  0.00     0.002 A 
ATOM      4  C5  UNL d   1       0.772   3.938   4.259  0.00  0.00    -0.080 A 
ATOM      5  C6  UNL d   1       1.087   4.729   5.493  0.00  0.00     0.076 C 
ATOM      6  C7  UNL d   1       0.309   4.590   3.111  0.00  0.00     0.002 A 
ATOM      7  C8  UNL d   1      -0.014   3.861   1.964  0.00  0.00     0.006 A 
ENDROOT
BRANCH   1   8
ATOM      8  C1  UNL d   1      -0.284   1.679   0.728  0.00  0.00     0.054 C 
ATOM      9  C   UNL d   1      -1.627   2.150   0.190  0.00  0.00     0.018 C 
ENDBRANCH   1   8
TORSDOF 1
ENDMDL
