MODEL 1
REMARK minimizedAffinity 4.6579299
REMARK minimizedRMSD -1
REMARK  1 active torsions:
REMARK  status: ('A' for Active; 'I' for Inactive)
REMARK    1  A    between atoms: C1_2  and  C2_3 
ROOT
ATOM      1  C2  UNL d   1       0.229   4.712   2.436  0.00  0.00    -0.081 A 
ATOM      2  C3  UNL d   1       0.758   4.752   3.732  0.00  0.00     0.006 A 
ATOM      3  C4  UNL d   1       1.056   3.568   4.412  0.00  0.00     0.002 A 
ATOM      4  C5  UNL d   1       0.837   2.327   3.805  0.00  0.00    -0.080 A 
ATOM      5  C6  UNL d   1       1.181   1.050   4.512  0.00  0.00     0.076 C 
ATOM      6  C7  UNL d   1       0.291   2.287   2.517  0.00  0.00     0.002 A 
ATOM      7  C8  UNL d   1      -0.007   3.470   1.838  0.00  0.00     0.006 A 
ENDROOT
BRANCH   1   8
ATOM      8  C1  UNL d   1      -0.033   5.987   1.676  0.00  0.00     0.054 C 
ATOM      9  C   UNL d   1       0.705   5.999   0.345  0.00  0.00     0.018 C 
ENDBRANCH   1   8
TORSDOF 1
ENDMDL
