MODEL 1
REMARK minimizedAffinity -2.79033279
REMARK minimizedRMSD -1
REMARK  1 active torsions:
REMARK  status: ('A' for Active; 'I' for Inactive)
REMARK    1  A    between atoms: C1_2  and  C2_3 
ROOT
ATOM      1  C2  UNL d   1      -5.234   3.543  -4.303  0.00  0.00    -0.081 A 
ATOM      2  C3  UNL d   1      -4.661   2.278  -4.121  0.00  0.00     0.006 A 
ATOM      3  C4  UNL d   1      -4.503   1.751  -2.837  0.00  0.00     0.002 A 
ATOM      4  C5  UNL d   1      -4.922   2.475  -1.716  0.00  0.00    -0.080 A 
ATOM      5  C6  UNL d   1      -4.785   1.908  -0.334  0.00  0.00     0.076 C 
ATOM      6  C7  UNL d   1      -5.477   3.746  -1.897  0.00  0.00     0.002 A 
ATOM      7  C8  UNL d   1      -5.635   4.274  -3.180  0.00  0.00     0.006 A 
ENDROOT
BRANCH   1   8
ATOM      8  C1  UNL d   1      -5.465   4.087  -5.690  0.00  0.00     0.054 C 
ATOM      9  C   UNL d   1      -4.521   5.241  -5.996  0.00  0.00     0.018 C 
ENDBRANCH   1   8
TORSDOF 1
ENDMDL
