MODEL 1
REMARK minimizedAffinity 1.84780705
REMARK minimizedRMSD -1
REMARK  1 active torsions:
REMARK  status: ('A' for Active; 'I' for Inactive)
REMARK    1  A    between atoms: C1_2  and  C2_3 
ROOT
ATOM      1  C2  UNL d   1      -4.820   2.553  -3.912  0.00  0.00    -0.081 A 
ATOM      2  C3  UNL d   1      -5.793   2.578  -2.905  0.00  0.00     0.006 A 
ATOM      3  C4  UNL d   1      -5.451   2.287  -1.582  0.00  0.00     0.002 A 
ATOM      4  C5  UNL d   1      -4.131   1.975  -1.243  0.00  0.00    -0.080 A 
ATOM      5  C6  UNL d   1      -3.745   1.691   0.179  0.00  0.00     0.076 C 
ATOM      6  C7  UNL d   1      -3.161   1.934  -2.251  0.00  0.00     0.002 A 
ATOM      7  C8  UNL d   1      -3.503   2.224  -3.574  0.00  0.00     0.006 A 
ENDROOT
BRANCH   1   8
ATOM      8  C1  UNL d   1      -5.172   2.929  -5.328  0.00  0.00     0.054 C 
ATOM      9  C   UNL d   1      -5.999   1.842  -6.000  0.00  0.00     0.018 C 
ENDBRANCH   1   8
TORSDOF 1
ENDMDL
