MODEL 1
REMARK minimizedAffinity 7.09790802
REMARK minimizedRMSD -1
REMARK  1 active torsions:
REMARK  status: ('A' for Active; 'I' for Inactive)
REMARK    1  A    between atoms: C1_2  and  C2_3 
ROOT
ATOM      1  C2  UNL d   1      -4.875   1.778  -4.504  0.00  0.00    -0.081 A 
ATOM      2  C3  UNL d   1      -5.863   2.167  -5.417  0.00  0.00     0.006 A 
ATOM      3  C4  UNL d   1      -6.000   3.508  -5.783  0.00  0.00     0.002 A 
ATOM      4  C5  UNL d   1      -5.148   4.481  -5.249  0.00  0.00    -0.080 A 
ATOM      5  C6  UNL d   1      -5.265   5.919  -5.657  0.00  0.00     0.076 C 
ATOM      6  C7  UNL d   1      -4.173   4.095  -4.323  0.00  0.00     0.002 A 
ATOM      7  C8  UNL d   1      -4.035   2.754  -3.956  0.00  0.00     0.006 A 
ENDROOT
BRANCH   1   8
ATOM      8  C1  UNL d   1      -4.683   0.324  -4.156  0.00  0.00     0.054 C 
ATOM      9  C   UNL d   1      -6.000  -0.330  -3.764  0.00  0.00     0.018 C 
ENDBRANCH   1   8
TORSDOF 1
ENDMDL
