MODEL 1
REMARK minimizedAffinity 4.12952852
REMARK minimizedRMSD -1
REMARK  1 active torsions:
REMARK  status: ('A' for Active; 'I' for Inactive)
REMARK    1  A    between atoms: C1_2  and  C2_3 
ROOT
ATOM      1  C2  UNL d   1       0.096   2.389   0.444  0.00  0.00    -0.081 A 
ATOM      2  C3  UNL d   1       0.713   3.513  -0.119  0.00  0.00     0.006 A 
ATOM      3  C4  UNL d   1       1.119   4.577   0.690  0.00  0.00     0.002 A 
ATOM      4  C5  UNL d   1       0.922   4.532   2.075  0.00  0.00    -0.080 A 
ATOM      5  C6  UNL d   1       1.380   5.654   2.958  0.00  0.00     0.076 C 
ATOM      6  C7  UNL d   1       0.290   3.416   2.634  0.00  0.00     0.002 A 
ATOM      7  C8  UNL d   1      -0.117   2.352   1.826  0.00  0.00     0.006 A 
ENDROOT
BRANCH   1   8
ATOM      8  C1  UNL d   1      -0.283   1.212  -0.418  0.00  0.00     0.054 C 
ATOM      9  C   UNL d   1       0.882   0.765  -1.289  0.00  0.00     0.018 C 
ENDBRANCH   1   8
TORSDOF 1
ENDMDL
