MODEL 1
REMARK minimizedAffinity 4.2380414
REMARK minimizedRMSD -1
REMARK  1 active torsions:
REMARK  status: ('A' for Active; 'I' for Inactive)
REMARK    1  A    between atoms: C1_2  and  C2_3 
ROOT
ATOM      1  C2  UNL d   1      -4.966   2.887  -4.198  0.00  0.00    -0.081 A 
ATOM      2  C3  UNL d   1      -3.640   2.810  -3.756  0.00  0.00     0.006 A 
ATOM      3  C4  UNL d   1      -3.354   2.650  -2.398  0.00  0.00     0.002 A 
ATOM      4  C5  UNL d   1      -4.388   2.557  -1.461  0.00  0.00    -0.080 A 
ATOM      5  C6  UNL d   1      -4.096   2.355  -0.004  0.00  0.00     0.076 C 
ATOM      6  C7  UNL d   1      -5.713   2.652  -1.900  0.00  0.00     0.002 A 
ATOM      7  C8  UNL d   1      -6.000   2.812  -3.258  0.00  0.00     0.006 A 
ENDROOT
BRANCH   1   8
ATOM      8  C1  UNL d   1      -5.279   2.995  -5.669  0.00  0.00     0.054 C 
ATOM      9  C   UNL d   1      -6.000   4.297  -5.987  0.00  0.00     0.018 C 
ENDBRANCH   1   8
TORSDOF 1
ENDMDL
