MODEL 1
REMARK minimizedAffinity 8.51794052
REMARK minimizedRMSD -1
REMARK  1 active torsions:
REMARK  status: ('A' for Active; 'I' for Inactive)
REMARK    1  A    between atoms: C1_2  and  C2_3 
ROOT
ATOM      1  C2  UNL d   1      -5.278   2.633  -3.724  0.00  0.00    -0.081 A 
ATOM      2  C3  UNL d   1      -3.988   2.088  -3.694  0.00  0.00     0.006 A 
ATOM      3  C4  UNL d   1      -3.436   1.642  -2.491  0.00  0.00     0.002 A 
ATOM      4  C5  UNL d   1      -4.166   1.727  -1.300  0.00  0.00    -0.080 A 
ATOM      5  C6  UNL d   1      -3.597   1.224  -0.007  0.00  0.00     0.076 C 
ATOM      6  C7  UNL d   1      -5.448   2.287  -1.328  0.00  0.00     0.002 A 
ATOM      7  C8  UNL d   1      -6.000   2.734  -2.530  0.00  0.00     0.006 A 
ENDROOT
BRANCH   1   8
ATOM      8  C1  UNL d   1      -5.901   3.054  -5.031  0.00  0.00     0.054 C 
ATOM      9  C   UNL d   1      -6.000   1.885  -6.000  0.00  0.00     0.018 C 
ENDBRANCH   1   8
TORSDOF 1
ENDMDL
