MODEL 1
REMARK minimizedAffinity 2.54959583
REMARK minimizedRMSD -1
REMARK  1 active torsions:
REMARK  status: ('A' for Active; 'I' for Inactive)
REMARK    1  A    between atoms: C1_2  and  C2_3 
ROOT
ATOM      1  C2  UNL d   1       1.434  -3.551  -3.592  0.00  0.00    -0.081 A 
ATOM      2  C3  UNL d   1       1.219  -3.847  -2.241  0.00  0.00     0.006 A 
ATOM      3  C4  UNL d   1       2.295  -4.138  -1.399  0.00  0.00     0.002 A 
ATOM      4  C5  UNL d   1       3.604  -4.129  -1.892  0.00  0.00    -0.080 A 
ATOM      5  C6  UNL d   1       4.771  -4.410  -0.992  0.00  0.00     0.076 C 
ATOM      6  C7  UNL d   1       3.818  -3.850  -3.246  0.00  0.00     0.002 A 
ATOM      7  C8  UNL d   1       2.743  -3.560  -4.088  0.00  0.00     0.006 A 
ENDROOT
BRANCH   1   8
ATOM      8  C1  UNL d   1       0.282  -3.173  -4.488  0.00  0.00     0.054 C 
ATOM      9  C   UNL d   1       0.158  -1.662  -4.623  0.00  0.00     0.018 C 
ENDBRANCH   1   8
TORSDOF 1
ENDMDL
