MODEL 1
REMARK minimizedAffinity 6.18376732
REMARK minimizedRMSD -1
REMARK  1 active torsions:
REMARK  status: ('A' for Active; 'I' for Inactive)
REMARK    1  A    between atoms: C1_2  and  C2_3 
ROOT
ATOM      1  C2  UNL d   1       0.251   0.749  -0.485  0.00  0.00    -0.081 A 
ATOM      2  C3  UNL d   1      -1.081   1.014  -0.141  0.00  0.00     0.006 A 
ATOM      3  C4  UNL d   1      -1.521   0.841   1.173  0.00  0.00     0.002 A 
ATOM      4  C5  UNL d   1      -0.637   0.408   2.167  0.00  0.00    -0.080 A 
ATOM      5  C6  UNL d   1      -1.089   0.248   3.588  0.00  0.00     0.076 C 
ATOM      6  C7  UNL d   1       0.689   0.127   1.820  0.00  0.00     0.002 A 
ATOM      7  C8  UNL d   1       1.130   0.299   0.506  0.00  0.00     0.006 A 
ENDROOT
BRANCH   1   8
ATOM      8  C1  UNL d   1       0.745   0.997  -1.887  0.00  0.00     0.054 C 
ATOM      9  C   UNL d   1       1.414   2.359  -2.006  0.00  0.00     0.018 C 
ENDBRANCH   1   8
TORSDOF 1
ENDMDL
