MODEL 1
REMARK minimizedAffinity -3.51038384
REMARK minimizedRMSD -1
REMARK  0 active torsions:
REMARK  status: ('A' for Active; 'I' for Inactive)
ROOT
ATOM      1  C   UNL d   1       0.726  -0.814  -0.744  0.00  0.00     0.023 A 
ATOM      2  C1  UNL d   1       1.383  -1.019  -1.957  0.00  0.00     0.003 A 
ATOM      3  C2  UNL d   1       0.673  -0.949  -3.158  0.00  0.00     0.048 A 
ATOM      4  C3  UNL d   1      -0.694  -0.673  -3.137  0.00  0.00     0.023 A 
ATOM      5  C4  UNL d   1      -1.355  -0.467  -1.926  0.00  0.00     0.048 A 
ATOM      6  C5  UNL d   1      -0.641  -0.539  -0.728  0.00  0.00     0.003 A 
ATOM      7  I   UNL d   1      -1.753  -0.569  -4.923  0.00  0.00    -0.146 I 
ENDROOT
TORSDOF 0
ENDMDL
