MODEL 1
REMARK minimizedAffinity -4.1377244
REMARK minimizedRMSD -1
REMARK  0 active torsions:
REMARK  status: ('A' for Active; 'I' for Inactive)
ROOT
ATOM      1  C   UNL d   1      -1.134   1.099   3.110  0.00  0.00     0.023 A 
ATOM      2  C1  UNL d   1      -2.001   0.292   2.374  0.00  0.00     0.003 A 
ATOM      3  C2  UNL d   1      -1.589  -0.243   1.151  0.00  0.00     0.048 A 
ATOM      4  C3  UNL d   1      -0.309   0.032   0.672  0.00  0.00     0.023 A 
ATOM      5  C4  UNL d   1       0.562   0.838   1.406  0.00  0.00     0.048 A 
ATOM      6  C5  UNL d   1       0.146   1.371   2.627  0.00  0.00     0.003 A 
ATOM      7  I   UNL d   1       0.305  -0.764  -1.147  0.00  0.00    -0.146 I 
ENDROOT
TORSDOF 0
ENDMDL
