MODEL 1
REMARK minimizedAffinity -2.43198252
REMARK minimizedRMSD -1
REMARK  0 active torsions:
REMARK  status: ('A' for Active; 'I' for Inactive)
ROOT
ATOM      1  C   UNL d   1      -1.350   1.608   2.835  0.00  0.00     0.023 A 
ATOM      2  C1  UNL d   1      -2.009   0.600   2.132  0.00  0.00     0.003 A 
ATOM      3  C2  UNL d   1      -1.330  -0.131   1.155  0.00  0.00     0.048 A 
ATOM      4  C3  UNL d   1       0.009   0.152   0.887  0.00  0.00     0.023 A 
ATOM      5  C4  UNL d   1       0.673   1.159   1.588  0.00  0.00     0.048 A 
ATOM      6  C5  UNL d   1      -0.011   1.888   2.563  0.00  0.00     0.003 A 
ATOM      7  I   UNL d   1       1.023  -0.935  -0.567  0.00  0.00    -0.146 I 
ENDROOT
TORSDOF 0
ENDMDL
