MODEL 1
REMARK minimizedAffinity -3.34237576
REMARK minimizedRMSD -1
REMARK  0 active torsions:
REMARK  status: ('A' for Active; 'I' for Inactive)
ROOT
ATOM      1  C   UNL d   1      -0.774   1.344   3.158  0.00  0.00     0.023 A 
ATOM      2  C1  UNL d   1      -1.743   0.434   2.733  0.00  0.00     0.003 A 
ATOM      3  C2  UNL d   1      -1.613  -0.198   1.495  0.00  0.00     0.048 A 
ATOM      4  C3  UNL d   1      -0.511   0.082   0.687  0.00  0.00     0.023 A 
ATOM      5  C4  UNL d   1       0.462   0.991   1.109  0.00  0.00     0.048 A 
ATOM      6  C5  UNL d   1       0.327   1.621   2.348  0.00  0.00     0.003 A 
ATOM      7  I   UNL d   1      -0.314  -0.858  -1.156  0.00  0.00    -0.146 I 
ENDROOT
TORSDOF 0
ENDMDL
