MODEL 1
REMARK minimizedAffinity -3.73420429
REMARK minimizedRMSD -1
REMARK  0 active torsions:
REMARK  status: ('A' for Active; 'I' for Inactive)
ROOT
ATOM      1  C   UNL d   1      -1.007   1.426   3.255  0.00  0.00     0.023 A 
ATOM      2  C1  UNL d   1       0.334   1.413   2.871  0.00  0.00     0.003 A 
ATOM      3  C2  UNL d   1       0.704   0.866   1.640  0.00  0.00     0.048 A 
ATOM      4  C3  UNL d   1      -0.273   0.335   0.798  0.00  0.00     0.023 A 
ATOM      5  C4  UNL d   1      -1.616   0.346   1.179  0.00  0.00     0.048 A 
ATOM      6  C5  UNL d   1      -1.981   0.893   2.410  0.00  0.00     0.003 A 
ATOM      7  I   UNL d   1       0.275  -0.479  -1.034  0.00  0.00    -0.146 I 
ENDROOT
TORSDOF 0
ENDMDL
