MODEL 1
REMARK minimizedAffinity -3.26525021
REMARK minimizedRMSD -1
REMARK  0 active torsions:
REMARK  status: ('A' for Active; 'I' for Inactive)
ROOT
ATOM      1  C   UNL d   1      -0.340   0.689   3.585  0.00  0.00     0.023 A 
ATOM      2  C1  UNL d   1       0.973   0.378   3.233  0.00  0.00     0.003 A 
ATOM      3  C2  UNL d   1       1.282   0.036   1.915  0.00  0.00     0.048 A 
ATOM      4  C3  UNL d   1       0.273   0.009   0.953  0.00  0.00     0.023 A 
ATOM      5  C4  UNL d   1      -1.042   0.321   1.300  0.00  0.00     0.048 A 
ATOM      6  C5  UNL d   1      -1.347   0.661   2.619  0.00  0.00     0.003 A 
ATOM      7  I   UNL d   1       0.731  -0.499  -1.010  0.00  0.00    -0.146 I 
ENDROOT
TORSDOF 0
ENDMDL
