MODEL 1
REMARK minimizedAffinity -2.73406482
REMARK minimizedRMSD -1
REMARK  0 active torsions:
REMARK  status: ('A' for Active; 'I' for Inactive)
ROOT
ATOM      1  C   UNL d   1      -0.584   1.160   2.924  0.00  0.00     0.023 A 
ATOM      2  C1  UNL d   1      -1.556   0.779   1.999  0.00  0.00     0.003 A 
ATOM      3  C2  UNL d   1      -1.181   0.382   0.714  0.00  0.00     0.048 A 
ATOM      4  C3  UNL d   1       0.168   0.367   0.361  0.00  0.00     0.023 A 
ATOM      5  C4  UNL d   1       1.144   0.747   1.284  0.00  0.00     0.048 A 
ATOM      6  C5  UNL d   1       0.764   1.145   2.567  0.00  0.00     0.003 A 
ATOM      7  I   UNL d   1       0.729  -0.224  -1.551  0.00  0.00    -0.146 I 
ENDROOT
TORSDOF 0
ENDMDL
