MODEL 1
REMARK minimizedAffinity 6.35840702
REMARK minimizedRMSD -1
REMARK  3 active torsions:
REMARK  status: ('A' for Active; 'I' for Inactive)
REMARK    1  A    between atoms: C3'_2  and  C2'_3 
REMARK    2  A    between atoms: C2'_3  and  C1'_4 
REMARK    3  A    between atoms: C1'_4  and  C1_5 
ROOT
ATOM      1  C1  N4B d   1      -5.058  -3.691  -3.780  0.00  0.00    -0.075 A 
ATOM      2  C2  N4B d   1      -5.588  -3.058  -4.926  0.00  0.00     0.002 A 
ATOM      3  C3  N4B d   1      -5.998  -3.811  -5.998  0.00  0.00     0.002 A 
ATOM      4  C4  N4B d   1      -5.870  -5.192  -5.956  0.00  0.00    -0.004 A 
ATOM      5  C5  N4B d   1      -5.381  -5.797  -4.835  0.00  0.00     0.002 A 
ATOM      6  C6  N4B d   1      -4.969  -5.052  -3.748  0.00  0.00     0.002 A 
ENDROOT
BRANCH   1   7
ATOM      7  C1' N4B d   1      -4.517  -2.904  -2.617  0.00  0.00     0.057 C 
BRANCH   7   8
ATOM      8  C2' N4B d   1      -5.163  -3.407  -1.329  0.00  0.00     0.009 C 
BRANCH   8   9
ATOM      9  C3' N4B d   1      -4.137  -3.644  -0.234  0.00  0.00     0.004 C 
ATOM     10  C4' N4B d   1      -3.557  -5.026  -0.272  0.00  0.00     0.003 C 
ENDBRANCH   8   9
ENDBRANCH   7   8
ENDBRANCH   1   7
TORSDOF 3
ENDMDL
