MODEL 1
REMARK minimizedAffinity -3.03963709
REMARK minimizedRMSD -1
REMARK  3 active torsions:
REMARK  status: ('A' for Active; 'I' for Inactive)
REMARK    1  A    between atoms: C3'_2  and  C2'_3 
REMARK    2  A    between atoms: C2'_3  and  C1'_4 
REMARK    3  A    between atoms: C1'_4  and  C1_5 
ROOT
ATOM      1  C1  N4B d   1       1.173  -3.264   3.030  0.00  0.00    -0.075 A 
ATOM      2  C2  N4B d   1      -0.036  -2.559   2.844  0.00  0.00     0.002 A 
ATOM      3  C3  N4B d   1      -0.107  -1.551   1.913  0.00  0.00     0.002 A 
ATOM      4  C4  N4B d   1       1.019  -1.220   1.175  0.00  0.00    -0.004 A 
ATOM      5  C5  N4B d   1       2.176  -1.923   1.343  0.00  0.00     0.002 A 
ATOM      6  C6  N4B d   1       2.260  -2.941   2.271  0.00  0.00     0.002 A 
ENDROOT
BRANCH   1   7
ATOM      7  C1' N4B d   1       1.322  -4.316   4.095  0.00  0.00     0.057 C 
BRANCH   7   8
ATOM      8  C2' N4B d   1       0.927  -5.672   3.518  0.00  0.00     0.009 C 
BRANCH   8   9
ATOM      9  C3' N4B d   1       1.700  -5.999   2.252  0.00  0.00     0.004 C 
ATOM     10  C4' N4B d   1       0.835  -5.998   1.027  0.00  0.00     0.003 C 
ENDBRANCH   8   9
ENDBRANCH   7   8
ENDBRANCH   1   7
TORSDOF 3
ENDMDL
