MODEL 1
REMARK minimizedAffinity 11.8837729
REMARK minimizedRMSD -1
REMARK  3 active torsions:
REMARK  status: ('A' for Active; 'I' for Inactive)
REMARK    1  A    between atoms: C3'_2  and  C2'_3 
REMARK    2  A    between atoms: C2'_3  and  C1'_4 
REMARK    3  A    between atoms: C1'_4  and  C1_5 
ROOT
ATOM      1  C1  N4B d   1       2.588   1.585   0.769  0.00  0.00    -0.075 A 
ATOM      2  C2  N4B d   1       2.168   1.818   2.097  0.00  0.00     0.002 A 
ATOM      3  C3  N4B d   1       1.627   0.795   2.835  0.00  0.00     0.002 A 
ATOM      4  C4  N4B d   1       1.480  -0.460   2.264  0.00  0.00    -0.004 A 
ATOM      5  C5  N4B d   1       1.912  -0.684   0.989  0.00  0.00     0.002 A 
ATOM      6  C6  N4B d   1       2.461   0.335   0.236  0.00  0.00     0.002 A 
ENDROOT
BRANCH   1   7
ATOM      7  C1' N4B d   1       3.106   2.694  -0.106  0.00  0.00     0.057 C 
BRANCH   7   8
ATOM      8  C2' N4B d   1       1.928   3.400  -0.770  0.00  0.00     0.009 C 
BRANCH   8   9
ATOM      9  C3' N4B d   1       2.383   4.484  -1.732  0.00  0.00     0.004 C 
ATOM     10  C4' N4B d   1       1.418   5.628  -1.818  0.00  0.00     0.003 C 
ENDBRANCH   8   9
ENDBRANCH   7   8
ENDBRANCH   1   7
TORSDOF 3
ENDMDL
