MODEL 1
REMARK minimizedAffinity 7.41147184
REMARK minimizedRMSD -1
REMARK  3 active torsions:
REMARK  status: ('A' for Active; 'I' for Inactive)
REMARK    1  A    between atoms: C3'_2  and  C2'_3 
REMARK    2  A    between atoms: C2'_3  and  C1'_4 
REMARK    3  A    between atoms: C1'_4  and  C1_5 
ROOT
ATOM      1  C1  N4B d   1       2.569  -3.131   2.692  0.00  0.00    -0.075 A 
ATOM      2  C2  N4B d   1       2.360  -2.311   1.562  0.00  0.00     0.002 A 
ATOM      3  C3  N4B d   1       1.265  -1.485   1.506  0.00  0.00     0.002 A 
ATOM      4  C4  N4B d   1       0.358  -1.476   2.555  0.00  0.00    -0.004 A 
ATOM      5  C5  N4B d   1       0.580  -2.253   3.654  0.00  0.00     0.002 A 
ATOM      6  C6  N4B d   1       1.679  -3.085   3.726  0.00  0.00     0.002 A 
ENDROOT
BRANCH   1   7
ATOM      7  C1' N4B d   1       3.706  -4.114   2.762  0.00  0.00     0.057 C 
BRANCH   7   8
ATOM      8  C2' N4B d   1       5.000  -3.362   3.056  0.00  0.00     0.009 C 
BRANCH   8   9
ATOM      9  C3' N4B d   1       6.000  -3.485   1.919  0.00  0.00     0.004 C 
ATOM     10  C4' N4B d   1       6.000  -4.846   1.290  0.00  0.00     0.003 C 
ENDBRANCH   8   9
ENDBRANCH   7   8
ENDBRANCH   1   7
TORSDOF 3
ENDMDL
