MODEL 1
REMARK minimizedAffinity 12.2891016
REMARK minimizedRMSD -1
REMARK  3 active torsions:
REMARK  status: ('A' for Active; 'I' for Inactive)
REMARK    1  A    between atoms: C3'_2  and  C2'_3 
REMARK    2  A    between atoms: C2'_3  and  C1'_4 
REMARK    3  A    between atoms: C1'_4  and  C1_5 
ROOT
ATOM      1  C1  N4B d   1      -4.043  -2.540  -4.713  0.00  0.00    -0.075 A 
ATOM      2  C2  N4B d   1      -5.251  -2.256  -5.386  0.00  0.00     0.002 A 
ATOM      3  C3  N4B d   1      -5.950  -3.269  -5.997  0.00  0.00     0.002 A 
ATOM      4  C4  N4B d   1      -5.454  -4.563  -5.963  0.00  0.00    -0.004 A 
ATOM      5  C5  N4B d   1      -4.299  -4.833  -5.288  0.00  0.00     0.002 A 
ATOM      6  C6  N4B d   1      -3.588  -3.826  -4.667  0.00  0.00     0.002 A 
ENDROOT
BRANCH   1   7
ATOM      7  C1' N4B d   1      -3.199  -1.453  -4.104  0.00  0.00     0.057 C 
BRANCH   7   8
ATOM      8  C2' N4B d   1      -4.032  -0.686  -3.081  0.00  0.00     0.009 C 
BRANCH   8   9
ATOM      9  C3' N4B d   1      -3.550   0.745  -2.914  0.00  0.00     0.004 C 
ATOM     10  C4' N4B d   1      -4.478   1.746  -3.536  0.00  0.00     0.003 C 
ENDBRANCH   8   9
ENDBRANCH   7   8
ENDBRANCH   1   7
TORSDOF 3
ENDMDL
