MODEL 1
REMARK minimizedAffinity 7.82577896
REMARK minimizedRMSD -1
REMARK  3 active torsions:
REMARK  status: ('A' for Active; 'I' for Inactive)
REMARK    1  A    between atoms: C3'_2  and  C2'_3 
REMARK    2  A    between atoms: C2'_3  and  C1'_4 
REMARK    3  A    between atoms: C1'_4  and  C1_5 
ROOT
ATOM      1  C1  N4B d   1      -4.429  -3.532  -4.752  0.00  0.00    -0.075 A 
ATOM      2  C2  N4B d   1      -5.595  -3.644  -5.541  0.00  0.00     0.002 A 
ATOM      3  C3  N4B d   1      -5.999  -4.874  -5.998  0.00  0.00     0.002 A 
ATOM      4  C4  N4B d   1      -5.246  -5.999  -5.696  0.00  0.00    -0.004 A 
ATOM      5  C5  N4B d   1      -4.135  -5.886  -4.912  0.00  0.00     0.002 A 
ATOM      6  C6  N4B d   1      -3.720  -4.657  -4.443  0.00  0.00     0.002 A 
ENDROOT
BRANCH   1   7
ATOM      7  C1' N4B d   1      -3.900  -2.198  -4.301  0.00  0.00     0.057 C 
BRANCH   7   8
ATOM      8  C2' N4B d   1      -5.047  -1.373  -3.726  0.00  0.00     0.009 C 
BRANCH   8   9
ATOM      9  C3' N4B d   1      -4.545  -0.198  -2.904  0.00  0.00     0.004 C 
ATOM     10  C4' N4B d   1      -4.801   1.124  -3.566  0.00  0.00     0.003 C 
ENDBRANCH   8   9
ENDBRANCH   7   8
ENDBRANCH   1   7
TORSDOF 3
ENDMDL
