MODEL 1
REMARK minimizedAffinity 8.402915
REMARK minimizedRMSD -1
REMARK  3 active torsions:
REMARK  status: ('A' for Active; 'I' for Inactive)
REMARK    1  A    between atoms: C3'_2  and  C2'_3 
REMARK    2  A    between atoms: C2'_3  and  C1'_4 
REMARK    3  A    between atoms: C1'_4  and  C1_5 
ROOT
ATOM      1  C1  N4B d   1       3.433  -3.434   2.922  0.00  0.00    -0.075 A 
ATOM      2  C2  N4B d   1       4.570  -2.598   2.943  0.00  0.00     0.002 A 
ATOM      3  C3  N4B d   1       5.721  -2.987   2.302  0.00  0.00     0.002 A 
ATOM      4  C4  N4B d   1       5.763  -4.212   1.652  0.00  0.00    -0.004 A 
ATOM      5  C5  N4B d   1       4.652  -5.002   1.615  0.00  0.00     0.002 A 
ATOM      6  C6  N4B d   1       3.487  -4.622   2.251  0.00  0.00     0.002 A 
ENDROOT
BRANCH   1   7
ATOM      7  C1' N4B d   1       2.180  -3.090   3.681  0.00  0.00     0.057 C 
BRANCH   7   8
ATOM      8  C2' N4B d   1       1.706  -1.702   3.262  0.00  0.00     0.009 C 
BRANCH   8   9
ATOM      9  C3' N4B d   1       1.403  -1.628   1.776  0.00  0.00     0.004 C 
ATOM     10  C4' N4B d   1       2.050  -0.452   1.108  0.00  0.00     0.003 C 
ENDBRANCH   8   9
ENDBRANCH   7   8
ENDBRANCH   1   7
TORSDOF 3
ENDMDL
