MODEL 1
REMARK minimizedAffinity -1.70625162
REMARK minimizedRMSD -1
REMARK  0 active torsions:
REMARK  status: ('A' for Active; 'I' for Inactive)
ROOT
ATOM      1  C   UNL d   1       0.315  -0.836  -0.805  0.00  0.00     0.172 C 
ATOM      2  N   UNL d   1       0.189   0.207   0.185  0.00  0.00    -0.070 N 
ATOM      3  C1  UNL d   1      -0.917   0.448   0.955  0.00  0.00    -0.004 A 
ATOM      4  C2  UNL d   1      -0.638   1.523   1.771  0.00  0.00    -0.047 A 
ATOM      5  C3  UNL d   1       0.682   1.943   1.481  0.00  0.00    -0.047 A 
ATOM      6  C4  UNL d   1       1.171   1.111   0.496  0.00  0.00    -0.004 A 
ENDROOT
TORSDOF 0
ENDMDL
