MODEL 1
REMARK minimizedAffinity -3.13885164
REMARK minimizedRMSD -1
REMARK  0 active torsions:
REMARK  status: ('A' for Active; 'I' for Inactive)
ROOT
ATOM      1  C   UNL d   1      -0.927  -0.208   1.311  0.00  0.00     0.172 C 
ATOM      2  N   UNL d   1       0.054   0.827   1.081  0.00  0.00    -0.070 N 
ATOM      3  C1  UNL d   1       0.290   1.898   1.900  0.00  0.00    -0.004 A 
ATOM      4  C2  UNL d   1       1.298   2.648   1.333  0.00  0.00    -0.047 A 
ATOM      5  C3  UNL d   1       1.679   2.006   0.132  0.00  0.00    -0.047 A 
ATOM      6  C4  UNL d   1       0.893   0.880   0.000  0.00  0.00    -0.004 A 
ENDROOT
TORSDOF 0
ENDMDL
