MODEL 1
REMARK minimizedAffinity -3.55019736
REMARK minimizedRMSD -1
REMARK  0 active torsions:
REMARK  status: ('A' for Active; 'I' for Inactive)
ROOT
ATOM      1  C   UNL d   1      -0.128  -0.546  -0.476  0.00  0.00     0.172 C 
ATOM      2  N   UNL d   1       0.194   0.696   0.187  0.00  0.00    -0.070 N 
ATOM      3  C1  UNL d   1       0.072   0.939   1.529  0.00  0.00    -0.004 A 
ATOM      4  C2  UNL d   1       0.480   2.235   1.762  0.00  0.00    -0.047 A 
ATOM      5  C3  UNL d   1       0.860   2.790   0.517  0.00  0.00    -0.047 A 
ATOM      6  C4  UNL d   1       0.673   1.815  -0.441  0.00  0.00    -0.004 A 
ENDROOT
TORSDOF 0
ENDMDL
