MODEL 1
REMARK minimizedAffinity -2.15744734
REMARK minimizedRMSD -1
REMARK  0 active torsions:
REMARK  status: ('A' for Active; 'I' for Inactive)
ROOT
ATOM      1  C   UNL d   1      -0.012  -1.122  -0.753  0.00  0.00     0.172 C 
ATOM      2  N   UNL d   1       0.331   0.093  -0.053  0.00  0.00    -0.070 N 
ATOM      3  C1  UNL d   1      -0.409   0.680   0.938  0.00  0.00    -0.004 A 
ATOM      4  C2  UNL d   1       0.257   1.817   1.345  0.00  0.00    -0.047 A 
ATOM      5  C3  UNL d   1       1.437   1.917   0.571  0.00  0.00    -0.047 A 
ATOM      6  C4  UNL d   1       1.458   0.837  -0.287  0.00  0.00    -0.004 A 
ENDROOT
TORSDOF 0
ENDMDL
