MODEL 1
REMARK minimizedAffinity -2.8548975
REMARK minimizedRMSD -1
REMARK  0 active torsions:
REMARK  status: ('A' for Active; 'I' for Inactive)
ROOT
ATOM      1  C   UNL d   1       1.490   2.611   1.000  0.00  0.00     0.172 C 
ATOM      2  N   UNL d   1       0.620   1.464   0.897  0.00  0.00    -0.070 N 
ATOM      3  C1  UNL d   1      -0.170   0.968   1.900  0.00  0.00    -0.004 A 
ATOM      4  C2  UNL d   1      -0.845  -0.126   1.404  0.00  0.00    -0.047 A 
ATOM      5  C3  UNL d   1      -0.446  -0.295   0.056  0.00  0.00    -0.047 A 
ATOM      6  C4  UNL d   1       0.461   0.703  -0.231  0.00  0.00    -0.004 A 
ENDROOT
TORSDOF 0
ENDMDL
