MODEL 1
REMARK minimizedAffinity -2.49285555
REMARK minimizedRMSD -1
REMARK  0 active torsions:
REMARK  status: ('A' for Active; 'I' for Inactive)
ROOT
ATOM      1  C   UNL d   1      -0.104  -0.398  -1.009  0.00  0.00     0.172 C 
ATOM      2  N   UNL d   1       0.092   0.510   0.096  0.00  0.00    -0.070 N 
ATOM      3  C1  UNL d   1      -0.853   0.853   1.026  0.00  0.00    -0.004 A 
ATOM      4  C2  UNL d   1      -0.275   1.739   1.909  0.00  0.00    -0.047 A 
ATOM      5  C3  UNL d   1       1.064   1.936   1.495  0.00  0.00    -0.047 A 
ATOM      6  C4  UNL d   1       1.265   1.164   0.371  0.00  0.00    -0.004 A 
ENDROOT
TORSDOF 0
ENDMDL
