MODEL 1
REMARK minimizedAffinity -2.08177638
REMARK minimizedRMSD -1
REMARK  0 active torsions:
REMARK  status: ('A' for Active; 'I' for Inactive)
ROOT
ATOM      1  C   UNL d   1      -1.179   0.155   0.694  0.00  0.00     0.172 C 
ATOM      2  N   UNL d   1       0.148  -0.045   0.161  0.00  0.00    -0.070 N 
ATOM      3  C1  UNL d   1       1.128   0.909   0.081  0.00  0.00    -0.004 A 
ATOM      4  C2  UNL d   1       2.241   0.325  -0.484  0.00  0.00    -0.047 A 
ATOM      5  C3  UNL d   1       1.919  -1.027  -0.753  0.00  0.00    -0.047 A 
ATOM      6  C4  UNL d   1       0.617  -1.228  -0.344  0.00  0.00    -0.004 A 
ENDROOT
TORSDOF 0
ENDMDL
