MODEL 1
REMARK minimizedAffinity -3.80262423
REMARK minimizedRMSD -1
REMARK  0 active torsions:
REMARK  status: ('A' for Active; 'I' for Inactive)
ROOT
ATOM      1  C   UNL d   1      -0.021  -1.066  -0.527  0.00  0.00     0.172 C 
ATOM      2  N   UNL d   1       0.044   0.131   0.278  0.00  0.00    -0.070 N 
ATOM      3  C1  UNL d   1       1.056   1.054   0.256  0.00  0.00    -0.004 A 
ATOM      4  C2  UNL d   1       0.745   2.043   1.164  0.00  0.00    -0.047 A 
ATOM      5  C3  UNL d   1      -0.496   1.702   1.753  0.00  0.00    -0.047 A 
ATOM      6  C4  UNL d   1      -0.907   0.515   1.186  0.00  0.00    -0.004 A 
ENDROOT
TORSDOF 0
ENDMDL
