MODEL 1
REMARK minimizedAffinity -2.78924465
REMARK minimizedRMSD -1
REMARK  0 active torsions:
REMARK  status: ('A' for Active; 'I' for Inactive)
ROOT
ATOM      1  C   UNL d   1       0.964   2.981   1.035  0.00  0.00     0.172 C 
ATOM      2  N   UNL d   1       0.405   1.686   0.728  0.00  0.00    -0.070 N 
ATOM      3  C1  UNL d   1       0.862   0.827  -0.235  0.00  0.00    -0.004 A 
ATOM      4  C2  UNL d   1       0.064  -0.297  -0.213  0.00  0.00    -0.047 A 
ATOM      5  C3  UNL d   1      -0.907  -0.106   0.799  0.00  0.00    -0.047 A 
ATOM      6  C4  UNL d   1      -0.673   1.129   1.365  0.00  0.00    -0.004 A 
ENDROOT
TORSDOF 0
ENDMDL
