MODEL 1
REMARK minimizedAffinity -4.10501051
REMARK minimizedRMSD -1
REMARK  0 active torsions:
REMARK  status: ('A' for Active; 'I' for Inactive)
ROOT
ATOM      1  C   UNL d   1      -0.235  -0.685  -0.611  0.00  0.00     0.172 C 
ATOM      2  N   UNL d   1      -0.014   0.482   0.210  0.00  0.00    -0.070 N 
ATOM      3  C1  UNL d   1      -0.525   0.685   1.464  0.00  0.00    -0.004 A 
ATOM      4  C2  UNL d   1      -0.084   1.913   1.906  0.00  0.00    -0.047 A 
ATOM      5  C3  UNL d   1       0.719   2.469   0.882  0.00  0.00    -0.047 A 
ATOM      6  C4  UNL d   1       0.745   1.562  -0.156  0.00  0.00    -0.004 A 
ENDROOT
TORSDOF 0
ENDMDL
