MODEL 1
REMARK minimizedAffinity -3.81359458
REMARK minimizedRMSD -1
REMARK  0 active torsions:
REMARK  status: ('A' for Active; 'I' for Inactive)
ROOT
ATOM      1  C   UNL d   1      -0.040  -1.094  -0.419  0.00  0.00     0.172 C 
ATOM      2  N   UNL d   1       0.252   0.127   0.294  0.00  0.00    -0.070 N 
ATOM      3  C1  UNL d   1       1.387   0.881   0.155  0.00  0.00    -0.004 A 
ATOM      4  C2  UNL d   1       1.283   1.961   1.006  0.00  0.00    -0.047 A 
ATOM      5  C3  UNL d   1       0.044   1.852   1.679  0.00  0.00    -0.047 A 
ATOM      6  C4  UNL d   1      -0.574   0.707   1.220  0.00  0.00    -0.004 A 
ENDROOT
TORSDOF 0
ENDMDL
