MODEL 1
REMARK minimizedAffinity -3.90419984
REMARK minimizedRMSD -1
REMARK  0 active torsions:
REMARK  status: ('A' for Active; 'I' for Inactive)
ROOT
ATOM      1  C   UNL d   1      -0.144  -0.963  -0.371  0.00  0.00     0.172 C 
ATOM      2  N   UNL d   1       0.038   0.329   0.247  0.00  0.00    -0.070 N 
ATOM      3  C1  UNL d   1      -0.755   0.863   1.228  0.00  0.00    -0.004 A 
ATOM      4  C2  UNL d   1      -0.251   2.106   1.548  0.00  0.00    -0.047 A 
ATOM      5  C3  UNL d   1       0.883   2.326   0.731  0.00  0.00    -0.047 A 
ATOM      6  C4  UNL d   1       1.039   1.210  -0.065  0.00  0.00    -0.004 A 
ENDROOT
TORSDOF 0
ENDMDL
