MODEL 1
REMARK minimizedAffinity -3.60340166
REMARK minimizedRMSD -1
REMARK  0 active torsions:
REMARK  status: ('A' for Active; 'I' for Inactive)
ROOT
ATOM      1  C   UNL d   1      -0.504  -0.634  -0.059  0.00  0.00     0.172 C 
ATOM      2  N   UNL d   1       0.144   0.591   0.345  0.00  0.00    -0.070 N 
ATOM      3  C1  UNL d   1      -0.491   1.758   0.679  0.00  0.00    -0.004 A 
ATOM      4  C2  UNL d   1       0.475   2.685   1.005  0.00  0.00    -0.047 A 
ATOM      5  C3  UNL d   1       1.733   2.055   0.862  0.00  0.00    -0.047 A 
ATOM      6  C4  UNL d   1       1.499   0.759   0.452  0.00  0.00    -0.004 A 
ENDROOT
TORSDOF 0
ENDMDL
