MODEL 1
REMARK minimizedAffinity -4.23183107
REMARK minimizedRMSD -1
REMARK  0 active torsions:
REMARK  status: ('A' for Active; 'I' for Inactive)
ROOT
ATOM      1  C   UNL d   1      -0.532   1.512   1.403  0.00  0.00     0.172 C 
ATOM      2  N   UNL d   1       0.844   1.612   0.977  0.00  0.00    -0.070 N 
ATOM      3  C1  UNL d   1       1.440   0.839   0.016  0.00  0.00    -0.004 A 
ATOM      4  C2  UNL d   1       2.753   1.244  -0.096  0.00  0.00    -0.047 A 
ATOM      5  C3  UNL d   1       2.953   2.295   0.830  0.00  0.00    -0.047 A 
ATOM      6  C4  UNL d   1       1.755   2.502   1.481  0.00  0.00    -0.004 A 
ENDROOT
TORSDOF 0
ENDMDL
