MODEL 1
REMARK minimizedAffinity -3.5132556
REMARK minimizedRMSD -1
REMARK  0 active torsions:
REMARK  status: ('A' for Active; 'I' for Inactive)
ROOT
ATOM      1  C   UNL d   1      -0.512  -0.590  -0.671  0.00  0.00     0.172 C 
ATOM      2  N   UNL d   1      -0.054   0.463   0.204  0.00  0.00    -0.070 N 
ATOM      3  C1  UNL d   1       1.072   1.221   0.020  0.00  0.00    -0.004 A 
ATOM      4  C2  UNL d   1       1.157   2.112   1.068  0.00  0.00    -0.047 A 
ATOM      5  C3  UNL d   1       0.045   1.881   1.912  0.00  0.00    -0.047 A 
ATOM      6  C4  UNL d   1      -0.688   0.855   1.354  0.00  0.00    -0.004 A 
ENDROOT
TORSDOF 0
ENDMDL
