MODEL 1
REMARK minimizedAffinity -4.02647972
REMARK minimizedRMSD -1
REMARK  0 active torsions:
REMARK  status: ('A' for Active; 'I' for Inactive)
ROOT
ATOM      1  C   UNL d   1       0.204  -0.577  -0.719  0.00  0.00     0.172 C 
ATOM      2  N   UNL d   1       0.481   0.557   0.130  0.00  0.00    -0.070 N 
ATOM      3  C1  UNL d   1      -0.359   1.063   1.086  0.00  0.00    -0.004 A 
ATOM      4  C2  UNL d   1       0.271   2.140   1.674  0.00  0.00    -0.047 A 
ATOM      5  C3  UNL d   1       1.532   2.286   1.049  0.00  0.00    -0.047 A 
ATOM      6  C4  UNL d   1       1.637   1.293   0.098  0.00  0.00    -0.004 A 
ENDROOT
TORSDOF 0
ENDMDL
