MODEL 1
REMARK minimizedAffinity 5.91889191
REMARK minimizedRMSD -1
REMARK  2 active torsions:
REMARK  status: ('A' for Active; 'I' for Inactive)
REMARK    1  A    between atoms: C2'_3  and  C1'_4 
REMARK    2  A    between atoms: C1'_4  and  C1_5 
ROOT
ATOM      1  C1  I4B d   1       1.510  -1.856   4.442  0.00  0.00    -0.075 A 
ATOM      2  C2  I4B d   1       2.228  -2.627   3.562  0.00  0.00     0.003 A 
ATOM      3  C3  I4B d   1       2.266  -2.291   2.187  0.00  0.00     0.002 A 
ATOM      4  C4  I4B d   1       1.536  -1.213   1.730  0.00  0.00    -0.004 A 
ATOM      5  C5  I4B d   1       0.827  -0.419   2.627  0.00  0.00     0.002 A 
ATOM      6  C6  I4B d   1       0.824  -0.735   3.994  0.00  0.00     0.003 A 
ENDROOT
BRANCH   1   7
ATOM      7  C1' I4B d   1       1.465  -2.258   5.882  0.00  0.00     0.060 C 
BRANCH   7   8
ATOM      8  C2' I4B d   1       0.566  -3.472   6.000  0.00  0.00    -0.013 C 
ATOM      9  C4' I4B d   1      -0.887  -3.078   5.989  0.00  0.00     0.013 C 
ATOM     10  C3' I4B d   1       0.885  -4.396   4.862  0.00  0.00     0.013 C 
ENDBRANCH   7   8
ENDBRANCH   1   7
TORSDOF 2
ENDMDL
