MODEL 1
REMARK minimizedAffinity 5.06311131
REMARK minimizedRMSD -1
REMARK  2 active torsions:
REMARK  status: ('A' for Active; 'I' for Inactive)
REMARK    1  A    between atoms: C2'_3  and  C1'_4 
REMARK    2  A    between atoms: C1'_4  and  C1_5 
ROOT
ATOM      1  C1  I4B d   1       1.503  -1.814   3.221  0.00  0.00    -0.075 A 
ATOM      2  C2  I4B d   1       2.121  -3.038   3.299  0.00  0.00     0.003 A 
ATOM      3  C3  I4B d   1       2.213  -3.712   4.541  0.00  0.00     0.002 A 
ATOM      4  C4  I4B d   1       1.722  -3.107   5.681  0.00  0.00    -0.004 A 
ATOM      5  C5  I4B d   1       1.077  -1.877   5.596  0.00  0.00     0.002 A 
ATOM      6  C6  I4B d   1       0.955  -1.232   4.357  0.00  0.00     0.003 A 
ENDROOT
BRANCH   1   7
ATOM      7  C1' I4B d   1       1.453  -1.115   1.900  0.00  0.00     0.060 C 
BRANCH   7   8
ATOM      8  C2' I4B d   1       0.001  -0.819   1.583  0.00  0.00    -0.013 C 
ATOM      9  C4' I4B d   1      -0.138   0.468   0.814  0.00  0.00     0.013 C 
ATOM     10  C3' I4B d   1      -0.548  -1.977   0.805  0.00  0.00     0.013 C 
ENDBRANCH   7   8
ENDBRANCH   1   7
TORSDOF 2
ENDMDL
