MODEL 1
REMARK minimizedAffinity 18.9949627
REMARK minimizedRMSD -1
REMARK  2 active torsions:
REMARK  status: ('A' for Active; 'I' for Inactive)
REMARK    1  A    between atoms: C2'_3  and  C1'_4 
REMARK    2  A    between atoms: C1'_4  and  C1_5 
ROOT
ATOM      1  C1  I4B d   1      -0.043   0.683   1.270  0.00  0.00    -0.075 A 
ATOM      2  C2  I4B d   1      -0.965  -0.297   0.997  0.00  0.00     0.003 A 
ATOM      3  C3  I4B d   1      -2.054  -0.029   0.133  0.00  0.00     0.002 A 
ATOM      4  C4  I4B d   1      -2.210   1.238  -0.392  0.00  0.00    -0.004 A 
ATOM      5  C5  I4B d   1      -1.261   2.223  -0.132  0.00  0.00     0.002 A 
ATOM      6  C6  I4B d   1      -0.164   1.941   0.694  0.00  0.00     0.003 A 
ENDROOT
BRANCH   1   7
ATOM      7  C1' I4B d   1       1.077   0.375   2.213  0.00  0.00     0.060 C 
BRANCH   7   8
ATOM      8  C2' I4B d   1       0.937  -1.069   2.649  0.00  0.00    -0.013 C 
ATOM      9  C4' I4B d   1       2.022  -1.926   2.052  0.00  0.00     0.013 C 
ATOM     10  C3' I4B d   1       0.979  -1.107   4.148  0.00  0.00     0.013 C 
ENDBRANCH   7   8
ENDBRANCH   1   7
TORSDOF 2
ENDMDL
