MODEL 1
REMARK minimizedAffinity 5.59388494
REMARK minimizedRMSD -1
REMARK  2 active torsions:
REMARK  status: ('A' for Active; 'I' for Inactive)
REMARK    1  A    between atoms: C2'_3  and  C1'_4 
REMARK    2  A    between atoms: C1'_4  and  C1_5 
ROOT
ATOM      1  C1  I4B d   1       1.683  -2.407   2.445  0.00  0.00    -0.075 A 
ATOM      2  C2  I4B d   1       1.468  -1.368   1.575  0.00  0.00     0.003 A 
ATOM      3  C3  I4B d   1       0.975  -0.129   2.052  0.00  0.00     0.002 A 
ATOM      4  C4  I4B d   1       0.666   0.009   3.390  0.00  0.00    -0.004 A 
ATOM      5  C5  I4B d   1       0.906  -1.038   4.274  0.00  0.00     0.002 A 
ATOM      6  C6  I4B d   1       1.430  -2.250   3.801  0.00  0.00     0.003 A 
ENDROOT
BRANCH   1   7
ATOM      7  C1' I4B d   1       2.173  -3.712   1.901  0.00  0.00     0.060 C 
BRANCH   7   8
ATOM      8  C2' I4B d   1       2.406  -4.647   3.071  0.00  0.00    -0.013 C 
ATOM      9  C4' I4B d   1       1.607  -5.915   2.922  0.00  0.00     0.013 C 
ATOM     10  C3' I4B d   1       3.875  -4.938   3.147  0.00  0.00     0.013 C 
ENDBRANCH   7   8
ENDBRANCH   1   7
TORSDOF 2
ENDMDL
