MODEL 1
REMARK minimizedAffinity -0.839640677
REMARK minimizedRMSD -1
REMARK  2 active torsions:
REMARK  status: ('A' for Active; 'I' for Inactive)
REMARK    1  A    between atoms: C2'_3  and  C1'_4 
REMARK    2  A    between atoms: C1'_4  and  C1_5 
ROOT
ATOM      1  C1  I4B d   1      -0.187  -1.670   1.382  0.00  0.00    -0.075 A 
ATOM      2  C2  I4B d   1      -0.829  -0.604   0.805  0.00  0.00     0.003 A 
ATOM      3  C3  I4B d   1      -1.906  -0.819  -0.089  0.00  0.00     0.002 A 
ATOM      4  C4  I4B d   1      -2.273  -2.109  -0.413  0.00  0.00    -0.004 A 
ATOM      5  C5  I4B d   1      -1.636  -3.189   0.191  0.00  0.00     0.002 A 
ATOM      6  C6  I4B d   1      -0.594  -2.969   1.104  0.00  0.00     0.003 A 
ENDROOT
BRANCH   1   7
ATOM      7  C1' I4B d   1       0.968  -1.408   2.296  0.00  0.00     0.060 C 
BRANCH   7   8
ATOM      8  C2' I4B d   1       0.972  -2.482   3.364  0.00  0.00    -0.013 C 
ATOM      9  C4' I4B d   1       2.178  -3.375   3.234  0.00  0.00     0.013 C 
ATOM     10  C3' I4B d   1       0.941  -1.806   4.702  0.00  0.00     0.013 C 
ENDBRANCH   7   8
ENDBRANCH   1   7
TORSDOF 2
ENDMDL
