MODEL 1
REMARK minimizedAffinity 6.39629889
REMARK minimizedRMSD -1
REMARK  2 active torsions:
REMARK  status: ('A' for Active; 'I' for Inactive)
REMARK    1  A    between atoms: C2'_3  and  C1'_4 
REMARK    2  A    between atoms: C1'_4  and  C1_5 
ROOT
ATOM      1  C1  I4B d   1       1.676  -1.242   3.626  0.00  0.00    -0.075 A 
ATOM      2  C2  I4B d   1       1.112  -0.788   4.792  0.00  0.00     0.003 A 
ATOM      3  C3  I4B d   1       1.289  -1.509   5.998  0.00  0.00     0.002 A 
ATOM      4  C4  I4B d   1       1.991  -2.697   5.983  0.00  0.00    -0.004 A 
ATOM      5  C5  I4B d   1       2.583  -3.143   4.804  0.00  0.00     0.002 A 
ATOM      6  C6  I4B d   1       2.435  -2.405   3.621  0.00  0.00     0.003 A 
ENDROOT
BRANCH   1   7
ATOM      7  C1' I4B d   1       1.441  -0.473   2.365  0.00  0.00     0.060 C 
BRANCH   7   8
ATOM      8  C2' I4B d   1       0.880  -1.430   1.333  0.00  0.00    -0.013 C 
ATOM      9  C4' I4B d   1       1.767  -2.636   1.168  0.00  0.00     0.013 C 
ATOM     10  C3' I4B d   1      -0.498  -1.827   1.771  0.00  0.00     0.013 C 
ENDBRANCH   7   8
ENDBRANCH   1   7
TORSDOF 2
ENDMDL
