MODEL 1
REMARK minimizedAffinity -0.376429677
REMARK minimizedRMSD -1
REMARK  1 active torsions:
REMARK  status: ('A' for Active; 'I' for Inactive)
REMARK    1  A    between atoms: C1_2  and  C2_3 
ROOT
ATOM      1  C2  UNL d   1      -0.458   2.895   2.327  0.00  0.00    -0.076 A 
ATOM      2  C3  UNL d   1      -1.622   3.547   2.768  0.00  0.00     0.004 A 
ATOM      3  C4  UNL d   1      -1.668   4.168   4.015  0.00  0.00    -0.003 A 
ATOM      4  C5  UNL d   1      -0.550   4.148   4.841  0.00  0.00     0.000 A 
ATOM      5  C6  UNL d   1       0.619   3.520   4.413  0.00  0.00     0.000 A 
ATOM      6  C7  UNL d   1       0.688   2.904   3.152  0.00  0.00    -0.073 A 
ATOM      7  C8  UNL d   1       1.972   2.237   2.743  0.00  0.00     0.078 C 
ENDROOT
BRANCH   1   8
ATOM      8  C1  UNL d   1      -0.475   2.215   0.977  0.00  0.00     0.053 C 
ATOM      9  C   UNL d   1      -1.684   1.309   0.796  0.00  0.00     0.018 C 
ENDBRANCH   1   8
TORSDOF 1
ENDMDL
