MODEL 1
REMARK minimizedAffinity -0.725898623
REMARK minimizedRMSD -1
REMARK  1 active torsions:
REMARK  status: ('A' for Active; 'I' for Inactive)
REMARK    1  A    between atoms: C1_2  and  C2_3 
ROOT
ATOM      1  C2  UNL d   1      -0.171   2.728   2.665  0.00  0.00    -0.076 A 
ATOM      2  C3  UNL d   1       0.400   3.361   3.782  0.00  0.00     0.004 A 
ATOM      3  C4  UNL d   1      -0.370   3.673   4.901  0.00  0.00    -0.003 A 
ATOM      4  C5  UNL d   1      -1.724   3.357   4.921  0.00  0.00     0.000 A 
ATOM      5  C6  UNL d   1      -2.303   2.713   3.828  0.00  0.00     0.000 A 
ATOM      6  C7  UNL d   1      -1.537   2.377   2.699  0.00  0.00    -0.073 A 
ATOM      7  C8  UNL d   1      -2.215   1.688   1.546  0.00  0.00     0.078 C 
ENDROOT
BRANCH   1   8
ATOM      8  C1  UNL d   1       0.708   2.438   1.469  0.00  0.00     0.053 C 
ATOM      9  C   UNL d   1       1.606   1.230   1.685  0.00  0.00     0.018 C 
ENDBRANCH   1   8
TORSDOF 1
ENDMDL
