MODEL 1
REMARK minimizedAffinity 4.76313925
REMARK minimizedRMSD -1
REMARK  1 active torsions:
REMARK  status: ('A' for Active; 'I' for Inactive)
REMARK    1  A    between atoms: C1_2  and  C2_3 
ROOT
ATOM      1  C2  UNL d   1      -0.692   2.334   2.503  0.00  0.00    -0.076 A 
ATOM      2  C3  UNL d   1      -1.791   2.829   3.225  0.00  0.00     0.004 A 
ATOM      3  C4  UNL d   1      -1.632   3.843   4.169  0.00  0.00    -0.003 A 
ATOM      4  C5  UNL d   1      -0.370   4.378   4.405  0.00  0.00     0.000 A 
ATOM      5  C6  UNL d   1       0.729   3.910   3.686  0.00  0.00     0.000 A 
ATOM      6  C7  UNL d   1       0.583   2.900   2.719  0.00  0.00    -0.073 A 
ATOM      7  C8  UNL d   1       1.803   2.430   1.977  0.00  0.00     0.078 C 
ENDROOT
BRANCH   1   8
ATOM      8  C1  UNL d   1      -0.921   1.215   1.512  0.00  0.00     0.053 C 
ATOM      9  C   UNL d   1      -2.225   1.373   0.747  0.00  0.00     0.018 C 
ENDBRANCH   1   8
TORSDOF 1
ENDMDL
