MODEL 1
REMARK minimizedAffinity 0.75359267
REMARK minimizedRMSD -1
REMARK  1 active torsions:
REMARK  status: ('A' for Active; 'I' for Inactive)
REMARK    1  A    between atoms: C1_2  and  C2_3 
ROOT
ATOM      1  C2  UNL d   1      -3.960  -1.320   2.574  0.00  0.00    -0.076 A 
ATOM      2  C3  UNL d   1      -4.280  -0.102   1.950  0.00  0.00     0.004 A 
ATOM      3  C4  UNL d   1      -3.305   0.644   1.290  0.00  0.00    -0.003 A 
ATOM      4  C5  UNL d   1      -1.994   0.184   1.243  0.00  0.00     0.000 A 
ATOM      5  C6  UNL d   1      -1.663  -1.032   1.841  0.00  0.00     0.000 A 
ATOM      6  C7  UNL d   1      -2.637  -1.804   2.496  0.00  0.00    -0.073 A 
ATOM      7  C8  UNL d   1      -2.222  -3.104   3.129  0.00  0.00     0.078 C 
ENDROOT
BRANCH   1   8
ATOM      8  C1  UNL d   1      -5.054  -2.072   3.298  0.00  0.00     0.053 C 
ATOM      9  C   UNL d   1      -5.932  -1.158   4.139  0.00  0.00     0.018 C 
ENDBRANCH   1   8
TORSDOF 1
ENDMDL
