MODEL 1
REMARK minimizedAffinity 1.28649306
REMARK minimizedRMSD -1
REMARK  1 active torsions:
REMARK  status: ('A' for Active; 'I' for Inactive)
REMARK    1  A    between atoms: C1_2  and  C2_3 
ROOT
ATOM      1  C2  UNL d   1      -0.404   3.025   2.681  0.00  0.00    -0.076 A 
ATOM      2  C3  UNL d   1       0.854   3.635   2.823  0.00  0.00     0.004 A 
ATOM      3  C4  UNL d   1       1.937   3.235   2.042  0.00  0.00    -0.003 A 
ATOM      4  C5  UNL d   1       1.779   2.220   1.105  0.00  0.00     0.000 A 
ATOM      5  C6  UNL d   1       0.533   1.617   0.938  0.00  0.00     0.000 A 
ATOM      6  C7  UNL d   1      -0.573   2.018   1.706  0.00  0.00    -0.073 A 
ATOM      7  C8  UNL d   1      -1.892   1.329   1.489  0.00  0.00     0.078 C 
ENDROOT
BRANCH   1   8
ATOM      8  C1  UNL d   1      -1.535   3.481   3.575  0.00  0.00     0.053 C 
ATOM      9  C   UNL d   1      -1.067   3.809   4.985  0.00  0.00     0.018 C 
ENDBRANCH   1   8
TORSDOF 1
ENDMDL
