MODEL 1
REMARK minimizedAffinity 0.117325798
REMARK minimizedRMSD -1
REMARK  1 active torsions:
REMARK  status: ('A' for Active; 'I' for Inactive)
REMARK    1  A    between atoms: C1_2  and  C2_3 
ROOT
ATOM      1  C2  UNL d   1      -0.597   2.051   1.858  0.00  0.00    -0.076 A 
ATOM      2  C3  UNL d   1      -1.560   1.790   0.868  0.00  0.00     0.004 A 
ATOM      3  C4  UNL d   1      -1.213   1.762  -0.481  0.00  0.00    -0.003 A 
ATOM      4  C5  UNL d   1       0.104   1.993  -0.863  0.00  0.00     0.000 A 
ATOM      5  C6  UNL d   1       1.076   2.236   0.107  0.00  0.00     0.000 A 
ATOM      6  C7  UNL d   1       0.746   2.251   1.473  0.00  0.00    -0.073 A 
ATOM      7  C8  UNL d   1       1.834   2.524   2.476  0.00  0.00     0.078 C 
ENDROOT
BRANCH   1   8
ATOM      8  C1  UNL d   1      -1.037   2.095   3.304  0.00  0.00     0.053 C 
ATOM      9  C   UNL d   1      -1.552   3.466   3.714  0.00  0.00     0.018 C 
ENDBRANCH   1   8
TORSDOF 1
ENDMDL
