MODEL 1
REMARK minimizedAffinity 10.1452351
REMARK minimizedRMSD -1
REMARK  1 active torsions:
REMARK  status: ('A' for Active; 'I' for Inactive)
REMARK    1  A    between atoms: C1_2  and  C2_3 
ROOT
ATOM      1  C2  UNL d   1       0.314   2.275   1.848  0.00  0.00    -0.076 A 
ATOM      2  C3  UNL d   1      -0.192   2.811   3.045  0.00  0.00     0.004 A 
ATOM      3  C4  UNL d   1       0.624   3.548   3.902  0.00  0.00    -0.003 A 
ATOM      4  C5  UNL d   1       1.958   3.762   3.576  0.00  0.00     0.000 A 
ATOM      5  C6  UNL d   1       2.473   3.252   2.384  0.00  0.00     0.000 A 
ATOM      6  C7  UNL d   1       1.660   2.521   1.501  0.00  0.00    -0.073 A 
ATOM      7  C8  UNL d   1       2.269   1.990   0.232  0.00  0.00     0.078 C 
ENDROOT
BRANCH   1   8
ATOM      8  C1  UNL d   1      -0.610   1.461   0.971  0.00  0.00     0.053 C 
ATOM      9  C   UNL d   1      -0.308  -0.028   1.030  0.00  0.00     0.018 C 
ENDBRANCH   1   8
TORSDOF 1
ENDMDL
