MODEL 1
REMARK minimizedAffinity 5.14636564
REMARK minimizedRMSD -1
REMARK  1 active torsions:
REMARK  status: ('A' for Active; 'I' for Inactive)
REMARK    1  A    between atoms: C1_2  and  C2_3 
ROOT
ATOM      1  C2  UNL d   1      -0.026   1.559   2.078  0.00  0.00    -0.076 A 
ATOM      2  C3  UNL d   1      -0.770   1.816   3.242  0.00  0.00     0.004 A 
ATOM      3  C4  UNL d   1      -0.286   2.674   4.228  0.00  0.00    -0.003 A 
ATOM      4  C5  UNL d   1       0.950   3.290   4.066  0.00  0.00     0.000 A 
ATOM      5  C6  UNL d   1       1.694   3.060   2.909  0.00  0.00     0.000 A 
ATOM      6  C7  UNL d   1       1.213   2.211   1.897  0.00  0.00    -0.073 A 
ATOM      7  C8  UNL d   1       2.060   1.994   0.673  0.00  0.00     0.078 C 
ENDROOT
BRANCH   1   8
ATOM      8  C1  UNL d   1      -0.589   0.598   1.055  0.00  0.00     0.053 C 
ATOM      9  C   UNL d   1      -0.050  -0.814   1.224  0.00  0.00     0.018 C 
ENDBRANCH   1   8
TORSDOF 1
ENDMDL
