MODEL 1
REMARK minimizedAffinity -3.2468555
REMARK minimizedRMSD -1
REMARK  1 active torsions:
REMARK  status: ('A' for Active; 'I' for Inactive)
REMARK    1  A    between atoms: C1_2  and  C2_3 
ROOT
ATOM      1  C2  UNL d   1       0.821   3.159   1.965  0.00  0.00    -0.076 A 
ATOM      2  C3  UNL d   1       1.042   2.439   0.777  0.00  0.00     0.004 A 
ATOM      3  C4  UNL d   1       0.124   1.489   0.333  0.00  0.00    -0.003 A 
ATOM      4  C5  UNL d   1      -1.030   1.242   1.069  0.00  0.00     0.000 A 
ATOM      5  C6  UNL d   1      -1.274   1.959   2.240  0.00  0.00     0.000 A 
ATOM      6  C7  UNL d   1      -0.367   2.933   2.693  0.00  0.00    -0.073 A 
ATOM      7  C8  UNL d   1      -0.678   3.672   3.965  0.00  0.00     0.078 C 
ENDROOT
BRANCH   1   8
ATOM      8  C1  UNL d   1       1.864   4.158   2.411  0.00  0.00     0.053 C 
ATOM      9  C   UNL d   1       3.283   3.647   2.213  0.00  0.00     0.018 C 
ENDBRANCH   1   8
TORSDOF 1
ENDMDL
