MODEL 1
REMARK minimizedAffinity 11.0680504
REMARK minimizedRMSD -1
REMARK  1 active torsions:
REMARK  status: ('A' for Active; 'I' for Inactive)
REMARK    1  A    between atoms: C1_2  and  C2_3 
ROOT
ATOM      1  C2  UNL d   1      -0.311   2.683   3.397  0.00  0.00    -0.076 A 
ATOM      2  C3  UNL d   1      -1.148   1.566   3.235  0.00  0.00     0.004 A 
ATOM      3  C4  UNL d   1      -1.140   0.829   2.052  0.00  0.00    -0.003 A 
ATOM      4  C5  UNL d   1      -0.294   1.197   1.012  0.00  0.00     0.000 A 
ATOM      5  C6  UNL d   1       0.556   2.293   1.162  0.00  0.00     0.000 A 
ATOM      6  C7  UNL d   1       0.572   3.036   2.355  0.00  0.00    -0.073 A 
ATOM      7  C8  UNL d   1       1.505   4.212   2.460  0.00  0.00     0.078 C 
ENDROOT
BRANCH   1   8
ATOM      8  C1  UNL d   1      -0.383   3.460   4.692  0.00  0.00     0.053 C 
ATOM      9  C   UNL d   1      -1.702   3.256   5.422  0.00  0.00     0.018 C 
ENDBRANCH   1   8
TORSDOF 1
ENDMDL
