MODEL 1
REMARK minimizedAffinity 13.2227345
REMARK minimizedRMSD -1
REMARK  1 active torsions:
REMARK  status: ('A' for Active; 'I' for Inactive)
REMARK    1  A    between atoms: C1_2  and  C2_3 
ROOT
ATOM      1  C2  UNL d   1      -0.643   2.744   3.147  0.00  0.00    -0.076 A 
ATOM      2  C3  UNL d   1      -1.538   1.669   3.010  0.00  0.00     0.004 A 
ATOM      3  C4  UNL d   1      -1.663   0.989   1.800  0.00  0.00    -0.003 A 
ATOM      4  C5  UNL d   1      -0.895   1.373   0.706  0.00  0.00     0.000 A 
ATOM      5  C6  UNL d   1       0.010   2.427   0.829  0.00  0.00     0.000 A 
ATOM      6  C7  UNL d   1       0.161   3.112   2.046  0.00  0.00    -0.073 A 
ATOM      7  C8  UNL d   1       1.148   4.244   2.120  0.00  0.00     0.078 C 
ENDROOT
BRANCH   1   8
ATOM      8  C1  UNL d   1      -0.569   3.461   4.476  0.00  0.00     0.053 C 
ATOM      9  C   UNL d   1      -1.792   3.206   5.344  0.00  0.00     0.018 C 
ENDBRANCH   1   8
TORSDOF 1
ENDMDL
