MODEL 1
REMARK minimizedAffinity 6.53717327
REMARK minimizedRMSD -1
REMARK  1 active torsions:
REMARK  status: ('A' for Active; 'I' for Inactive)
REMARK    1  A    between atoms: C1_2  and  C2_3 
ROOT
ATOM      1  C2  UNL d   1       3.077   4.438   3.620  0.00  0.00    -0.076 A 
ATOM      2  C3  UNL d   1       3.203   3.624   4.760  0.00  0.00     0.004 A 
ATOM      3  C4  UNL d   1       4.439   3.443   5.378  0.00  0.00    -0.003 A 
ATOM      4  C5  UNL d   1       5.569   4.073   4.868  0.00  0.00     0.000 A 
ATOM      5  C6  UNL d   1       5.459   4.897   3.749  0.00  0.00     0.000 A 
ATOM      6  C7  UNL d   1       4.218   5.104   3.123  0.00  0.00    -0.073 A 
ATOM      7  C8  UNL d   1       4.158   5.998   1.915  0.00  0.00     0.078 C 
ENDROOT
BRANCH   1   8
ATOM      8  C1  UNL d   1       1.716   4.575   2.975  0.00  0.00     0.053 C 
ATOM      9  C   UNL d   1       0.637   3.807   3.723  0.00  0.00     0.018 C 
ENDBRANCH   1   8
TORSDOF 1
ENDMDL
