MODEL 1
REMARK minimizedAffinity 10.2079639
REMARK minimizedRMSD -1
REMARK  1 active torsions:
REMARK  status: ('A' for Active; 'I' for Inactive)
REMARK    1  A    between atoms: C1_2  and  C2_3 
ROOT
ATOM      1  C2  UNL d   1       0.367  -3.477  -0.778  0.00  0.00    -0.076 A 
ATOM      2  C3  UNL d   1       0.550  -2.609   0.311  0.00  0.00     0.004 A 
ATOM      3  C4  UNL d   1       1.686  -1.806   0.406  0.00  0.00    -0.003 A 
ATOM      4  C5  UNL d   1       2.657  -1.859  -0.589  0.00  0.00     0.000 A 
ATOM      5  C6  UNL d   1       2.482  -2.702  -1.686  0.00  0.00     0.000 A 
ATOM      6  C7  UNL d   1       1.335  -3.506  -1.804  0.00  0.00    -0.073 A 
ATOM      7  C8  UNL d   1       1.202  -4.401  -3.006  0.00  0.00     0.078 C 
ENDROOT
BRANCH   1   8
ATOM      8  C1  UNL d   1      -0.872  -4.344  -0.813  0.00  0.00     0.053 C 
ATOM      9  C   UNL d   1      -2.134  -3.571  -0.462  0.00  0.00     0.018 C 
ENDBRANCH   1   8
TORSDOF 1
ENDMDL
