MODEL 1
REMARK minimizedAffinity 7.8885231
REMARK minimizedRMSD -1
REMARK  1 active torsions:
REMARK  status: ('A' for Active; 'I' for Inactive)
REMARK    1  A    between atoms: C1_2  and  C2_3 
ROOT
ATOM      1  C2  UNL d   1      -0.919   2.200   3.082  0.00  0.00    -0.076 A 
ATOM      2  C3  UNL d   1      -2.208   1.877   3.541  0.00  0.00     0.004 A 
ATOM      3  C4  UNL d   1      -2.734   2.479   4.683  0.00  0.00    -0.003 A 
ATOM      4  C5  UNL d   1      -1.980   3.413   5.384  0.00  0.00     0.000 A 
ATOM      5  C6  UNL d   1      -0.706   3.758   4.933  0.00  0.00     0.000 A 
ATOM      6  C7  UNL d   1      -0.167   3.173   3.774  0.00  0.00    -0.073 A 
ATOM      7  C8  UNL d   1       1.214   3.578   3.336  0.00  0.00     0.078 C 
ENDROOT
BRANCH   1   8
ATOM      8  C1  UNL d   1      -0.391   1.495   1.853  0.00  0.00     0.053 C 
ATOM      9  C   UNL d   1      -1.271   0.330   1.426  0.00  0.00     0.018 C 
ENDBRANCH   1   8
TORSDOF 1
ENDMDL
