MODEL 1
REMARK minimizedAffinity -3.28451419
REMARK minimizedRMSD -1
REMARK  0 active torsions:
REMARK  status: ('A' for Active; 'I' for Inactive)
ROOT
ATOM      1  C4' PXY d   1       1.613   1.154  -0.987  0.00  0.00     0.077 C 
ATOM      2  C1' PXY d   1      -3.722   0.857   1.216  0.00  0.00     0.077 C 
ATOM      3  C1  PXY d   1      -2.318   0.932   0.650  0.00  0.00    -0.082 A 
ATOM      4  C2  PXY d   1      -2.087   1.660  -0.430  0.00  0.00     0.003 A 
ATOM      5  C3  PXY d   1      -0.829   1.713  -0.974  0.00  0.00     0.003 A 
ATOM      6  C4  PXY d   1       0.213   1.057  -0.375  0.00  0.00    -0.082 A 
ATOM      7  C5  PXY d   1      -0.013   0.321   0.733  0.00  0.00     0.003 A 
ATOM      8  C6  PXY d   1      -1.305   0.247   1.246  0.00  0.00     0.003 A 
ENDROOT
TORSDOF 0
ENDMDL
