MODEL 1
REMARK minimizedAffinity -2.30140829
REMARK minimizedRMSD -1
REMARK  0 active torsions:
REMARK  status: ('A' for Active; 'I' for Inactive)
ROOT
ATOM      1  C4' PXY d   1       2.581  -0.386  -1.915  0.00  0.00     0.077 C 
ATOM      2  C1' PXY d   1      -1.920   0.485   1.606  0.00  0.00     0.077 C 
ATOM      3  C1  PXY d   1      -0.741   0.268   0.678  0.00  0.00    -0.082 A 
ATOM      4  C2  PXY d   1      -0.401  -0.962   0.328  0.00  0.00     0.003 A 
ATOM      5  C3  PXY d   1       0.682  -1.177  -0.485  0.00  0.00     0.003 A 
ATOM      6  C4  PXY d   1       1.392  -0.120  -0.988  0.00  0.00    -0.082 A 
ATOM      7  C5  PXY d   1       1.045   1.139  -0.644  0.00  0.00     0.003 A 
ATOM      8  C6  PXY d   1      -0.032   1.334   0.215  0.00  0.00     0.003 A 
ENDROOT
TORSDOF 0
ENDMDL
