MODEL 1
REMARK minimizedAffinity -2.37278414
REMARK minimizedRMSD -1
REMARK  0 active torsions:
REMARK  status: ('A' for Active; 'I' for Inactive)
ROOT
ATOM      1  C4' PXY d   1       1.842  -2.604  -1.153  0.00  0.00     0.077 C 
ATOM      2  C1' PXY d   1       0.539   2.964  -0.313  0.00  0.00     0.077 C 
ATOM      3  C1  PXY d   1       0.876   1.501  -0.522  0.00  0.00    -0.082 A 
ATOM      4  C2  PXY d   1       1.851   1.166  -1.351  0.00  0.00     0.003 A 
ATOM      5  C3  PXY d   1       2.147  -0.154  -1.576  0.00  0.00     0.003 A 
ATOM      6  C4  PXY d   1       1.474  -1.139  -0.905  0.00  0.00    -0.082 A 
ATOM      7  C5  PXY d   1       0.485  -0.805  -0.049  0.00  0.00     0.003 A 
ATOM      8  C6  PXY d   1       0.172   0.539   0.134  0.00  0.00     0.003 A 
ENDROOT
TORSDOF 0
ENDMDL
