MODEL 1
REMARK minimizedAffinity -3.25409293
REMARK minimizedRMSD -1
REMARK  0 active torsions:
REMARK  status: ('A' for Active; 'I' for Inactive)
ROOT
ATOM      1  C4' PXY d   1       0.794   2.931  -0.407  0.00  0.00     0.077 C 
ATOM      2  C1' PXY d   1       1.704  -2.756  -0.898  0.00  0.00     0.077 C 
ATOM      3  C1  PXY d   1       1.454  -1.267  -0.765  0.00  0.00    -0.082 A 
ATOM      4  C2  PXY d   1       2.162  -0.417  -1.490  0.00  0.00     0.003 A 
ATOM      5  C3  PXY d   1       1.971   0.934  -1.359  0.00  0.00     0.003 A 
ATOM      6  C4  PXY d   1       1.007   1.418  -0.516  0.00  0.00    -0.082 A 
ATOM      7  C5  PXY d   1       0.272   0.557   0.220  0.00  0.00     0.003 A 
ATOM      8  C6  PXY d   1       0.511  -0.809   0.103  0.00  0.00     0.003 A 
ENDROOT
TORSDOF 0
ENDMDL
