MODEL 1
REMARK minimizedAffinity -5.15614653
REMARK minimizedRMSD -1
REMARK  0 active torsions:
REMARK  status: ('A' for Active; 'I' for Inactive)
ROOT
ATOM      1  C4' PXY d   1      -1.157   0.180   1.717  0.00  0.00     0.077 C 
ATOM      2  C1' PXY d   1       2.077  -0.980  -2.932  0.00  0.00     0.077 C 
ATOM      3  C1  PXY d   1       1.237  -0.665  -1.710  0.00  0.00    -0.082 A 
ATOM      4  C2  PXY d   1       0.538  -1.628  -1.131  0.00  0.00     0.003 A 
ATOM      5  C3  PXY d   1      -0.253  -1.355  -0.045  0.00  0.00     0.003 A 
ATOM      6  C4  PXY d   1      -0.287  -0.094   0.487  0.00  0.00    -0.082 A 
ATOM      7  C5  PXY d   1       0.432   0.892  -0.091  0.00  0.00     0.003 A 
ATOM      8  C6  PXY d   1       1.196   0.603  -1.218  0.00  0.00     0.003 A 
ENDROOT
TORSDOF 0
ENDMDL
