MODEL 1
REMARK minimizedAffinity -3.5324986
REMARK minimizedRMSD -1
REMARK  0 active torsions:
REMARK  status: ('A' for Active; 'I' for Inactive)
ROOT
ATOM      1  C4' PXY d   1      -2.342   0.328   2.029  0.00  0.00     0.077 C 
ATOM      2  C1' PXY d   1       2.325   0.425  -1.381  0.00  0.00     0.077 C 
ATOM      3  C1  PXY d   1       1.099   0.387  -0.490  0.00  0.00    -0.082 A 
ATOM      4  C2  PXY d   1       0.461   1.511  -0.208  0.00  0.00     0.003 A 
ATOM      5  C3  PXY d   1      -0.631   1.499   0.622  0.00  0.00     0.003 A 
ATOM      6  C4  PXY d   1      -1.105   0.317   1.126  0.00  0.00    -0.082 A 
ATOM      7  C5  PXY d   1      -0.465  -0.835   0.834  0.00  0.00     0.003 A 
ATOM      8  C6  PXY d   1       0.665  -0.796   0.023  0.00  0.00     0.003 A 
ENDROOT
TORSDOF 0
ENDMDL
