MODEL 1
REMARK minimizedAffinity 3.41243339
REMARK minimizedRMSD -1
REMARK  0 active torsions:
REMARK  status: ('A' for Active; 'I' for Inactive)
ROOT
ATOM      1  C4' PXY d   1      -2.222   4.564   5.720  0.00  0.00     0.077 C 
ATOM      2  C1' PXY d   1      -3.828   0.976   1.482  0.00  0.00     0.077 C 
ATOM      3  C1  PXY d   1      -3.412   1.927   2.587  0.00  0.00    -0.082 A 
ATOM      4  C2  PXY d   1      -2.388   1.617   3.366  0.00  0.00     0.003 A 
ATOM      5  C3  PXY d   1      -2.019   2.451   4.390  0.00  0.00     0.003 A 
ATOM      6  C4  PXY d   1      -2.671   3.639   4.586  0.00  0.00    -0.082 A 
ATOM      7  C5  PXY d   1      -3.710   3.967   3.789  0.00  0.00     0.003 A 
ATOM      8  C6  PXY d   1      -4.095   3.088   2.781  0.00  0.00     0.003 A 
ENDROOT
TORSDOF 0
ENDMDL
