MODEL 1
REMARK minimizedAffinity -3.29676867
REMARK minimizedRMSD -1
REMARK  0 active torsions:
REMARK  status: ('A' for Active; 'I' for Inactive)
ROOT
ATOM      1  C4' PXY d   1      -2.207   0.561   2.377  0.00  0.00     0.077 C 
ATOM      2  C1' PXY d   1       2.024   0.889  -1.548  0.00  0.00     0.077 C 
ATOM      3  C1  PXY d   1       0.911   0.791  -0.524  0.00  0.00    -0.082 A 
ATOM      4  C2  PXY d   1       0.419   1.895   0.015  0.00  0.00     0.003 A 
ATOM      5  C3  PXY d   1      -0.565   1.823   0.967  0.00  0.00     0.003 A 
ATOM      6  C4  PXY d   1      -1.089   0.612   1.332  0.00  0.00    -0.082 A 
ATOM      7  C5  PXY d   1      -0.600  -0.518   0.779  0.00  0.00     0.003 A 
ATOM      8  C6  PXY d   1       0.428  -0.426  -0.155  0.00  0.00     0.003 A 
ENDROOT
TORSDOF 0
ENDMDL
