MODEL 1
REMARK minimizedAffinity -2.20315099
REMARK minimizedRMSD -1
REMARK  0 active torsions:
REMARK  status: ('A' for Active; 'I' for Inactive)
ROOT
ATOM      1  C4' PXY d   1      -2.979   0.688   1.378  0.00  0.00     0.077 C 
ATOM      2  C1' PXY d   1       2.189   0.313  -1.183  0.00  0.00     0.077 C 
ATOM      3  C1  PXY d   1       0.836   0.400  -0.505  0.00  0.00    -0.082 A 
ATOM      4  C2  PXY d   1      -0.114   1.154  -1.035  0.00  0.00     0.003 A 
ATOM      5  C3  PXY d   1      -1.333   1.269  -0.419  0.00  0.00     0.003 A 
ATOM      6  C4  PXY d   1      -1.601   0.563   0.724  0.00  0.00    -0.082 A 
ATOM      7  C5  PXY d   1      -0.641  -0.217   1.265  0.00  0.00     0.003 A 
ATOM      8  C6  PXY d   1       0.604  -0.288   0.646  0.00  0.00     0.003 A 
ENDROOT
TORSDOF 0
ENDMDL
