MODEL 1
REMARK minimizedAffinity -3.82493925
REMARK minimizedRMSD -1
REMARK  0 active torsions:
REMARK  status: ('A' for Active; 'I' for Inactive)
ROOT
ATOM      1  C4' PXY d   1      -2.305  -0.017   2.721  0.00  0.00     0.077 C 
ATOM      2  C1' PXY d   1       1.327   0.459  -1.750  0.00  0.00     0.077 C 
ATOM      3  C1  PXY d   1       0.377   0.321  -0.577  0.00  0.00    -0.082 A 
ATOM      4  C2  PXY d   1      -0.556   1.239  -0.380  0.00  0.00     0.003 A 
ATOM      5  C3  PXY d   1      -1.403   1.147   0.694  0.00  0.00     0.003 A 
ATOM      6  C4  PXY d   1      -1.330   0.076   1.545  0.00  0.00    -0.082 A 
ATOM      7  C5  PXY d   1      -0.388  -0.870   1.344  0.00  0.00     0.003 A 
ATOM      8  C6  PXY d   1       0.489  -0.736   0.271  0.00  0.00     0.003 A 
ENDROOT
TORSDOF 0
ENDMDL
