MODEL 1
REMARK minimizedAffinity -1.4845109
REMARK minimizedRMSD -1
REMARK  0 active torsions:
REMARK  status: ('A' for Active; 'I' for Inactive)
ROOT
ATOM      1  C4' PXY d   1      -2.177   2.987   4.244  0.00  0.00     0.077 C 
ATOM      2  C1' PXY d   1      -3.761  -0.828   0.200  0.00  0.00     0.077 C 
ATOM      3  C1  PXY d   1      -3.333   0.168   1.259  0.00  0.00    -0.082 A 
ATOM      4  C2  PXY d   1      -4.217   0.603   2.143  0.00  0.00     0.003 A 
ATOM      5  C3  PXY d   1      -3.855   1.529   3.088  0.00  0.00     0.003 A 
ATOM      6  C4  PXY d   1      -2.562   1.973   3.163  0.00  0.00    -0.082 A 
ATOM      7  C5  PXY d   1      -1.652   1.526   2.271  0.00  0.00     0.003 A 
ATOM      8  C6  PXY d   1      -2.050   0.618   1.294  0.00  0.00     0.003 A 
ENDROOT
TORSDOF 0
ENDMDL
