MODEL 1
REMARK minimizedAffinity -4.01526308
REMARK minimizedRMSD -1
REMARK  0 active torsions:
REMARK  status: ('A' for Active; 'I' for Inactive)
ROOT
ATOM      1  C4' PXY d   1      -2.079   0.289   2.201  0.00  0.00     0.077 C 
ATOM      2  C1' PXY d   1       2.167   0.238  -1.722  0.00  0.00     0.077 C 
ATOM      3  C1  PXY d   1       1.051   0.238  -0.695  0.00  0.00    -0.082 A 
ATOM      4  C2  PXY d   1       0.418   1.367  -0.418  0.00  0.00     0.003 A 
ATOM      5  C3  PXY d   1      -0.572   1.392   0.531  0.00  0.00     0.003 A 
ATOM      6  C4  PXY d   1      -0.953   0.240   1.165  0.00  0.00    -0.082 A 
ATOM      7  C5  PXY d   1      -0.318  -0.918   0.880  0.00  0.00     0.003 A 
ATOM      8  C6  PXY d   1       0.711  -0.914  -0.056  0.00  0.00     0.003 A 
ENDROOT
TORSDOF 0
ENDMDL
