MODEL 1
REMARK minimizedAffinity -2.17747259
REMARK minimizedRMSD -1
REMARK  0 active torsions:
REMARK  status: ('A' for Active; 'I' for Inactive)
ROOT
ATOM      1  C4' PXY d   1      -1.753   0.430   1.905  0.00  0.00     0.077 C 
ATOM      2  C1' PXY d   1       2.144  -0.381  -2.288  0.00  0.00     0.077 C 
ATOM      3  C1  PXY d   1       1.117  -0.180  -1.190  0.00  0.00    -0.082 A 
ATOM      4  C2  PXY d   1       0.744   1.046  -0.860  0.00  0.00     0.003 A 
ATOM      5  C3  PXY d   1      -0.159   1.246   0.152  0.00  0.00     0.003 A 
ATOM      6  C4  PXY d   1      -0.726   0.180   0.797  0.00  0.00    -0.082 A 
ATOM      7  C5  PXY d   1      -0.359  -1.074   0.458  0.00  0.00     0.003 A 
ATOM      8  C6  PXY d   1       0.591  -1.255  -0.544  0.00  0.00     0.003 A 
ENDROOT
TORSDOF 0
ENDMDL
