MODEL 1
REMARK minimizedAffinity -3.60412717
REMARK minimizedRMSD -1
REMARK  0 active torsions:
REMARK  status: ('A' for Active; 'I' for Inactive)
ROOT
ATOM      1  C4' PXY d   1       2.729  -1.631  -2.328  0.00  0.00     0.077 C 
ATOM      2  C1' PXY d   1      -1.037   0.396   1.561  0.00  0.00     0.077 C 
ATOM      3  C1  PXY d   1      -0.050  -0.125   0.534  0.00  0.00    -0.082 A 
ATOM      4  C2  PXY d   1       0.136  -1.429   0.408  0.00  0.00     0.003 A 
ATOM      5  C3  PXY d   1       1.047  -1.915  -0.493  0.00  0.00     0.003 A 
ATOM      6  C4  PXY d   1       1.736  -1.061  -1.311  0.00  0.00    -0.082 A 
ATOM      7  C5  PXY d   1       1.544   0.270  -1.196  0.00  0.00     0.003 A 
ATOM      8  C6  PXY d   1       0.645   0.746  -0.246  0.00  0.00     0.003 A 
ENDROOT
TORSDOF 0
ENDMDL
