MODEL 1
REMARK minimizedAffinity -3.01325226
REMARK minimizedRMSD -1
REMARK  0 active torsions:
REMARK  status: ('A' for Active; 'I' for Inactive)
ROOT
ATOM      1  C4' PXY d   1      -1.447  -0.355   1.529  0.00  0.00     0.077 C 
ATOM      2  C1' PXY d   1       2.636  -0.314  -2.563  0.00  0.00     0.077 C 
ATOM      3  C1  PXY d   1       1.561  -0.336  -1.494  0.00  0.00    -0.082 A 
ATOM      4  C2  PXY d   1       1.114   0.803  -0.992  0.00  0.00     0.003 A 
ATOM      5  C3  PXY d   1       0.166   0.800  -0.002  0.00  0.00     0.003 A 
ATOM      6  C4  PXY d   1      -0.370  -0.380   0.441  0.00  0.00    -0.082 A 
ATOM      7  C5  PXY d   1       0.073  -1.546  -0.074  0.00  0.00     0.003 A 
ATOM      8  C6  PXY d   1       1.066  -1.523  -1.049  0.00  0.00     0.003 A 
ENDROOT
TORSDOF 0
ENDMDL
