MODEL 1
REMARK minimizedAffinity -0.132638633
REMARK minimizedRMSD -1
REMARK  0 active torsions:
REMARK  status: ('A' for Active; 'I' for Inactive)
ROOT
ATOM      1  C4' PXY d   1      -1.227   0.520   1.825  0.00  0.00     0.077 C 
ATOM      2  C1' PXY d   1       2.111  -2.355  -1.918  0.00  0.00     0.077 C 
ATOM      3  C1  PXY d   1       1.245  -1.591  -0.936  0.00  0.00    -0.082 A 
ATOM      4  C2  PXY d   1       0.368  -2.245  -0.192  0.00  0.00     0.003 A 
ATOM      5  C3  PXY d   1      -0.446  -1.567   0.678  0.00  0.00     0.003 A 
ATOM      6  C4  PXY d   1      -0.325  -0.211   0.827  0.00  0.00    -0.082 A 
ATOM      7  C5  PXY d   1       0.575   0.462   0.079  0.00  0.00     0.003 A 
ATOM      8  C6  PXY d   1       1.363  -0.240  -0.829  0.00  0.00     0.003 A 
ENDROOT
TORSDOF 0
ENDMDL
