MODEL 1
REMARK minimizedAffinity -1.14986789
REMARK minimizedRMSD -1
REMARK  0 active torsions:
REMARK  status: ('A' for Active; 'I' for Inactive)
ROOT
ATOM      1  C4' PXY d   1      -1.950   0.365   1.509  0.00  0.00     0.077 C 
ATOM      2  C1' PXY d   1       2.936   0.322  -1.580  0.00  0.00     0.077 C 
ATOM      3  C1  PXY d   1       1.651   0.322  -0.776  0.00  0.00    -0.082 A 
ATOM      4  C2  PXY d   1       1.157   1.467  -0.332  0.00  0.00     0.003 A 
ATOM      5  C3  PXY d   1       0.014   1.482   0.424  0.00  0.00     0.003 A 
ATOM      6  C4  PXY d   1      -0.660   0.318   0.684  0.00  0.00    -0.082 A 
ATOM      7  C5  PXY d   1      -0.168  -0.852   0.226  0.00  0.00     0.003 A 
ATOM      8  C6  PXY d   1       1.016  -0.850  -0.505  0.00  0.00     0.003 A 
ENDROOT
TORSDOF 0
ENDMDL
