MODEL 1
REMARK minimizedAffinity -0.0746969953
REMARK minimizedRMSD -1
REMARK  0 active torsions:
REMARK  status: ('A' for Active; 'I' for Inactive)
ROOT
ATOM      1  C4' PXY d   1       1.282   3.738   0.052  0.00  0.00     0.077 C 
ATOM      2  C1' PXY d   1       2.248  -1.370  -2.475  0.00  0.00     0.077 C 
ATOM      3  C1  PXY d   1       1.999  -0.025  -1.823  0.00  0.00    -0.082 A 
ATOM      4  C2  PXY d   1       1.971   0.068  -0.503  0.00  0.00     0.003 A 
ATOM      5  C3  PXY d   1       1.715   1.271   0.102  0.00  0.00     0.003 A 
ATOM      6  C4  PXY d   1       1.539   2.402  -0.650  0.00  0.00    -0.082 A 
ATOM      7  C5  PXY d   1       1.577   2.318  -1.996  0.00  0.00     0.003 A 
ATOM      8  C6  PXY d   1       1.797   1.079  -2.593  0.00  0.00     0.003 A 
ENDROOT
TORSDOF 0
ENDMDL
