MODEL 1
REMARK minimizedAffinity -3.08384752
REMARK minimizedRMSD -1
REMARK  0 active torsions:
REMARK  status: ('A' for Active; 'I' for Inactive)
ROOT
ATOM      1  C4' PXY d   1      -1.425  -0.354   1.691  0.00  0.00     0.077 C 
ATOM      2  C1' PXY d   1       2.679  -0.209  -2.378  0.00  0.00     0.077 C 
ATOM      3  C1  PXY d   1       1.599  -0.259  -1.315  0.00  0.00    -0.082 A 
ATOM      4  C2  PXY d   1       1.102   0.869  -0.835  0.00  0.00     0.003 A 
ATOM      5  C3  PXY d   1       0.148   0.842   0.150  0.00  0.00     0.003 A 
ATOM      6  C4  PXY d   1      -0.340  -0.351   0.610  0.00  0.00    -0.082 A 
ATOM      7  C5  PXY d   1       0.155  -1.507   0.117  0.00  0.00     0.003 A 
ATOM      8  C6  PXY d   1       1.152  -1.458  -0.853  0.00  0.00     0.003 A 
ENDROOT
TORSDOF 0
ENDMDL
