MODEL 1
REMARK minimizedAffinity 13.6930885
REMARK minimizedRMSD -1
REMARK  1 active torsions:
REMARK  status: ('A' for Active; 'I' for Inactive)
REMARK    1  A    between atoms: C1_2  and  C2_3 
ROOT
ATOM      1  C2  UNL d   1      -4.545   0.718  -3.956  0.00  0.00    -0.081 A 
ATOM      2  C3  UNL d   1      -4.111   0.405  -5.250  0.00  0.00     0.006 A 
ATOM      3  C4  UNL d   1      -2.968  -0.374  -5.444  0.00  0.00     0.002 A 
ATOM      4  C5  UNL d   1      -2.245  -0.860  -4.349  0.00  0.00    -0.080 A 
ATOM      5  C6  UNL d   1      -1.034  -1.723  -4.544  0.00  0.00     0.076 C 
ATOM      6  C7  UNL d   1      -2.669  -0.533  -3.057  0.00  0.00     0.002 A 
ATOM      7  C8  UNL d   1      -3.811   0.246  -2.862  0.00  0.00     0.006 A 
ENDROOT
BRANCH   1   8
ATOM      8  C1  UNL d   1      -5.814   1.503  -3.742  0.00  0.00     0.054 C 
ATOM      9  C   UNL d   1      -5.999   1.867  -2.276  0.00  0.00     0.018 C 
ENDBRANCH   1   8
TORSDOF 1
ENDMDL
