MODEL 1
REMARK minimizedAffinity 9.24749756
REMARK minimizedRMSD -1
REMARK  1 active torsions:
REMARK  status: ('A' for Active; 'I' for Inactive)
REMARK    1  A    between atoms: C1_2  and  C2_3 
ROOT
ATOM      1  C2  UNL d   1       1.441   0.065  -0.231  0.00  0.00    -0.081 A 
ATOM      2  C3  UNL d   1       0.505   0.539  -1.158  0.00  0.00     0.006 A 
ATOM      3  C4  UNL d   1      -0.585   1.303  -0.736  0.00  0.00     0.002 A 
ATOM      4  C5  UNL d   1      -0.754   1.611   0.618  0.00  0.00    -0.080 A 
ATOM      5  C6  UNL d   1      -1.904   2.456   1.081  0.00  0.00     0.076 C 
ATOM      6  C7  UNL d   1       0.171   1.123   1.547  0.00  0.00     0.002 A 
ATOM      7  C8  UNL d   1       1.262   0.359   1.125  0.00  0.00     0.006 A 
ENDROOT
BRANCH   1   8
ATOM      8  C1  UNL d   1       2.654  -0.704  -0.690  0.00  0.00     0.054 C 
ATOM      9  C   UNL d   1       3.864   0.207  -0.836  0.00  0.00     0.018 C 
ENDBRANCH   1   8
TORSDOF 1
ENDMDL
