MODEL 1
REMARK minimizedAffinity 12.1018686
REMARK minimizedRMSD -1
REMARK  1 active torsions:
REMARK  status: ('A' for Active; 'I' for Inactive)
REMARK    1  A    between atoms: C1_2  and  C2_3 
ROOT
ATOM      1  C2  UNL d   1       1.734   0.624  -0.471  0.00  0.00    -0.081 A 
ATOM      2  C3  UNL d   1       2.245  -0.679  -0.414  0.00  0.00     0.006 A 
ATOM      3  C4  UNL d   1       3.623  -0.901  -0.460  0.00  0.00     0.002 A 
ATOM      4  C5  UNL d   1       4.513   0.174  -0.555  0.00  0.00    -0.080 A 
ATOM      5  C6  UNL d   1       5.996  -0.050  -0.575  0.00  0.00     0.076 C 
ATOM      6  C7  UNL d   1       4.003   1.474  -0.629  0.00  0.00     0.002 A 
ATOM      7  C8  UNL d   1       2.625   1.697  -0.584  0.00  0.00     0.006 A 
ENDROOT
BRANCH   1   8
ATOM      8  C1  UNL d   1       0.252   0.871  -0.356  0.00  0.00     0.054 C 
ATOM      9  C   UNL d   1      -0.148   1.181   1.079  0.00  0.00     0.018 C 
ENDBRANCH   1   8
TORSDOF 1
ENDMDL
