MODEL 1
REMARK minimizedAffinity 8.81336594
REMARK minimizedRMSD -1
REMARK  1 active torsions:
REMARK  status: ('A' for Active; 'I' for Inactive)
REMARK    1  A    between atoms: C1_2  and  C2_3 
ROOT
ATOM      1  C2  UNL d   1       3.901  -1.143  -0.357  0.00  0.00    -0.081 A 
ATOM      2  C3  UNL d   1       5.268  -1.085  -0.060  0.00  0.00     0.006 A 
ATOM      3  C4  UNL d   1       5.953   0.131  -0.109  0.00  0.00     0.002 A 
ATOM      4  C5  UNL d   1       5.281   1.311  -0.450  0.00  0.00    -0.080 A 
ATOM      5  C6  UNL d   1       5.998   2.628  -0.477  0.00  0.00     0.076 C 
ATOM      6  C7  UNL d   1       3.919   1.250  -0.764  0.00  0.00     0.002 A 
ATOM      7  C8  UNL d   1       3.234   0.034  -0.715  0.00  0.00     0.006 A 
ENDROOT
BRANCH   1   8
ATOM      8  C1  UNL d   1       3.145  -2.442  -0.241  0.00  0.00     0.054 C 
ATOM      9  C   UNL d   1       2.384  -2.755  -1.521  0.00  0.00     0.018 C 
ENDBRANCH   1   8
TORSDOF 1
ENDMDL
