MODEL 1
REMARK minimizedAffinity 13.5294237
REMARK minimizedRMSD -1
REMARK  1 active torsions:
REMARK  status: ('A' for Active; 'I' for Inactive)
REMARK    1  A    between atoms: C1_2  and  C2_3 
ROOT
ATOM      1  C2  UNL d   1       0.580  -4.024  -0.869  0.00  0.00    -0.081 A 
ATOM      2  C3  UNL d   1       1.542  -3.893   0.139  0.00  0.00     0.006 A 
ATOM      3  C4  UNL d   1       2.373  -2.771   0.184  0.00  0.00     0.002 A 
ATOM      4  C5  UNL d   1       2.251  -1.759  -0.773  0.00  0.00    -0.080 A 
ATOM      5  C6  UNL d   1       3.116  -0.535  -0.718  0.00  0.00     0.076 C 
ATOM      6  C7  UNL d   1       1.301  -1.897  -1.791  0.00  0.00     0.002 A 
ATOM      7  C8  UNL d   1       0.471  -3.019  -1.837  0.00  0.00     0.006 A 
ENDROOT
BRANCH   1   8
ATOM      8  C1  UNL d   1      -0.361  -5.202  -0.883  0.00  0.00     0.054 C 
ATOM      9  C   UNL d   1      -1.701  -4.832  -1.503  0.00  0.00     0.018 C 
ENDBRANCH   1   8
TORSDOF 1
ENDMDL
