MODEL 1
REMARK minimizedAffinity 8.08247185
REMARK minimizedRMSD -1
REMARK  1 active torsions:
REMARK  status: ('A' for Active; 'I' for Inactive)
REMARK    1  A    between atoms: C1_2  and  C2_3 
ROOT
ATOM      1  C2  UNL d   1       0.220  -4.577   5.144  0.00  0.00    -0.081 A 
ATOM      2  C3  UNL d   1      -0.691  -4.042   4.225  0.00  0.00     0.006 A 
ATOM      3  C4  UNL d   1      -0.317  -2.985   3.391  0.00  0.00     0.002 A 
ATOM      4  C5  UNL d   1       0.975  -2.452   3.457  0.00  0.00    -0.080 A 
ATOM      5  C6  UNL d   1       1.398  -1.337   2.547  0.00  0.00     0.076 C 
ATOM      6  C7  UNL d   1       1.879  -2.974   4.388  0.00  0.00     0.002 A 
ATOM      7  C8  UNL d   1       1.505  -4.030   5.222  0.00  0.00     0.006 A 
ENDROOT
BRANCH   1   8
ATOM      8  C1  UNL d   1      -0.160  -5.759   6.000  0.00  0.00     0.054 C 
ATOM      9  C   UNL d   1      -1.665  -5.981   6.000  0.00  0.00     0.018 C 
ENDBRANCH   1   8
TORSDOF 1
ENDMDL
