MODEL 1
REMARK minimizedAffinity 10.1380024
REMARK minimizedRMSD -1
REMARK  1 active torsions:
REMARK  status: ('A' for Active; 'I' for Inactive)
REMARK    1  A    between atoms: C1_2  and  C2_3 
ROOT
ATOM      1  C2  UNL d   1      -4.772   1.658  -3.856  0.00  0.00    -0.081 A 
ATOM      2  C3  UNL d   1      -4.586   0.957  -2.659  0.00  0.00     0.006 A 
ATOM      3  C4  UNL d   1      -3.419   0.219  -2.444  0.00  0.00     0.002 A 
ATOM      4  C5  UNL d   1      -2.417   0.176  -3.419  0.00  0.00    -0.080 A 
ATOM      5  C6  UNL d   1      -1.147  -0.587  -3.189  0.00  0.00     0.076 C 
ATOM      6  C7  UNL d   1      -2.610   0.863  -4.623  0.00  0.00     0.002 A 
ATOM      7  C8  UNL d   1      -3.776   1.601  -4.838  0.00  0.00     0.006 A 
ENDROOT
BRANCH   1   8
ATOM      8  C1  UNL d   1      -6.000   2.508  -4.064  0.00  0.00     0.054 C 
ATOM      9  C   UNL d   1      -5.665   3.991  -3.997  0.00  0.00     0.018 C 
ENDBRANCH   1   8
TORSDOF 1
ENDMDL
