MODEL 1
REMARK minimizedAffinity 12.0400181
REMARK minimizedRMSD -1
REMARK  0 active torsions:
REMARK  status: ('A' for Active; 'I' for Inactive)
ROOT
ATOM      1  C   UNL d   1       4.792  -0.351  -1.151  0.00  0.00     0.023 A 
ATOM      2  C1  UNL d   1       4.937   0.467  -0.030  0.00  0.00     0.003 A 
ATOM      3  C2  UNL d   1       3.838   0.732   0.790  0.00  0.00     0.048 A 
ATOM      4  C3  UNL d   1       2.597   0.176   0.483  0.00  0.00     0.023 A 
ATOM      5  C4  UNL d   1       2.447  -0.643  -0.637  0.00  0.00     0.048 A 
ATOM      6  C5  UNL d   1       3.549  -0.905  -1.454  0.00  0.00     0.003 A 
ATOM      7  I   UNL d   1       0.960   0.570   1.701  0.00  0.00    -0.146 I 
ENDROOT
TORSDOF 0
ENDMDL
