MODEL 1
REMARK minimizedAffinity 8.67030525
REMARK minimizedRMSD -1
REMARK  0 active torsions:
REMARK  status: ('A' for Active; 'I' for Inactive)
ROOT
ATOM      1  C   UNL d   1      -4.426   0.028  -5.573  0.00  0.00     0.023 A 
ATOM      2  C1  UNL d   1      -3.579   1.134  -5.648  0.00  0.00     0.003 A 
ATOM      3  C2  UNL d   1      -3.940   2.334  -5.031  0.00  0.00     0.048 A 
ATOM      4  C3  UNL d   1      -5.148   2.421  -4.341  0.00  0.00     0.023 A 
ATOM      5  C4  UNL d   1      -5.998   1.317  -4.263  0.00  0.00     0.048 A 
ATOM      6  C5  UNL d   1      -5.634   0.119  -4.881  0.00  0.00     0.003 A 
ATOM      7  I   UNL d   1      -5.686   4.206  -3.422  0.00  0.00    -0.146 I 
ENDROOT
TORSDOF 0
ENDMDL
