MODEL 1
REMARK minimizedAffinity 8.04383469
REMARK minimizedRMSD -1
REMARK  0 active torsions:
REMARK  status: ('A' for Active; 'I' for Inactive)
ROOT
ATOM      1  C   UNL d   1       2.234  -2.926   4.399  0.00  0.00     0.023 A 
ATOM      2  C1  UNL d   1       1.010  -2.760   3.751  0.00  0.00     0.003 A 
ATOM      3  C2  UNL d   1      -0.121  -3.438   4.209  0.00  0.00     0.048 A 
ATOM      4  C3  UNL d   1      -0.022  -4.280   5.316  0.00  0.00     0.023 A 
ATOM      5  C4  UNL d   1       1.201  -4.449   5.968  0.00  0.00     0.048 A 
ATOM      6  C5  UNL d   1       2.329  -3.769   5.506  0.00  0.00     0.003 A 
ATOM      7  I   UNL d   1      -1.704  -5.291   6.000  0.00  0.00    -0.146 I 
ENDROOT
TORSDOF 0
ENDMDL
