MODEL 1
REMARK minimizedAffinity 9.38190365
REMARK minimizedRMSD -1
REMARK  0 active torsions:
REMARK  status: ('A' for Active; 'I' for Inactive)
ROOT
ATOM      1  C   UNL d   1       0.996  -5.349   5.999  0.00  0.00     0.023 A 
ATOM      2  C1  UNL d   1       2.115  -4.517   5.997  0.00  0.00     0.003 A 
ATOM      3  C2  UNL d   1       2.126  -3.360   5.216  0.00  0.00     0.048 A 
ATOM      4  C3  UNL d   1       1.012  -3.040   4.440  0.00  0.00     0.023 A 
ATOM      5  C4  UNL d   1      -0.111  -3.868   4.440  0.00  0.00     0.048 A 
ATOM      6  C5  UNL d   1      -0.116  -5.025   5.221  0.00  0.00     0.003 A 
ATOM      7  I   UNL d   1       1.025  -1.317   3.277  0.00  0.00    -0.146 I 
ENDROOT
TORSDOF 0
ENDMDL
