MODEL 1
REMARK minimizedAffinity 9.72989368
REMARK minimizedRMSD -1
REMARK  0 active torsions:
REMARK  status: ('A' for Active; 'I' for Inactive)
ROOT
ATOM      1  C   UNL d   1      -5.999   3.552   5.999  0.00  0.00     0.023 A 
ATOM      2  C1  UNL d   1      -5.995   2.855   4.790  0.00  0.00     0.003 A 
ATOM      3  C2  UNL d   1      -5.975   3.552   3.581  0.00  0.00     0.048 A 
ATOM      4  C3  UNL d   1      -5.959   4.946   3.586  0.00  0.00     0.023 A 
ATOM      5  C4  UNL d   1      -5.962   5.648   4.793  0.00  0.00     0.048 A 
ATOM      6  C5  UNL d   1      -5.983   4.947   6.000  0.00  0.00     0.003 A 
ATOM      7  I   UNL d   1      -5.930   5.986   1.787  0.00  0.00    -0.146 I 
ENDROOT
TORSDOF 0
ENDMDL
