MODEL 1
REMARK minimizedAffinity 13.048131
REMARK minimizedRMSD -1
REMARK  0 active torsions:
REMARK  status: ('A' for Active; 'I' for Inactive)
ROOT
ATOM      1  C   UNL d   1      -0.919   0.726   1.999  0.00  0.00     0.023 A 
ATOM      2  C1  UNL d   1       0.107   0.056   2.666  0.00  0.00     0.003 A 
ATOM      3  C2  UNL d   1       1.345  -0.124   2.044  0.00  0.00     0.048 A 
ATOM      4  C3  UNL d   1       1.550   0.370   0.757  0.00  0.00     0.023 A 
ATOM      5  C4  UNL d   1       0.527   1.042   0.086  0.00  0.00     0.048 A 
ATOM      6  C5  UNL d   1      -0.709   1.218   0.711  0.00  0.00     0.003 A 
ATOM      7  I   UNL d   1       3.391   0.104  -0.170  0.00  0.00    -0.146 I 
ENDROOT
TORSDOF 0
ENDMDL
