MODEL 1
REMARK minimizedAffinity 13.6935711
REMARK minimizedRMSD -1
REMARK  0 active torsions:
REMARK  status: ('A' for Active; 'I' for Inactive)
ROOT
ATOM      1  C   UNL d   1       5.999   1.991  -1.003  0.00  0.00     0.023 A 
ATOM      2  C1  UNL d   1       5.321   1.442  -2.092  0.00  0.00     0.003 A 
ATOM      3  C2  UNL d   1       4.139   0.726  -1.892  0.00  0.00     0.048 A 
ATOM      4  C3  UNL d   1       3.640   0.563  -0.600  0.00  0.00     0.023 A 
ATOM      5  C4  UNL d   1       4.314   1.110   0.492  0.00  0.00     0.048 A 
ATOM      6  C5  UNL d   1       5.496   1.825   0.287  0.00  0.00     0.003 A 
ATOM      7  I   UNL d   1       1.881  -0.503  -0.300  0.00  0.00    -0.146 I 
ENDROOT
TORSDOF 0
ENDMDL
