MODEL 1
REMARK minimizedAffinity -1.28332257
REMARK minimizedRMSD -1
REMARK  0 active torsions:
REMARK  status: ('A' for Active; 'I' for Inactive)
ROOT
ATOM      1  C   UNL d   1      -0.443   1.527   2.485  0.00  0.00     0.023 A 
ATOM      2  C1  UNL d   1       0.759   1.363   1.796  0.00  0.00     0.003 A 
ATOM      3  C2  UNL d   1       0.781   0.672   0.583  0.00  0.00     0.048 A 
ATOM      4  C3  UNL d   1      -0.403   0.150   0.063  0.00  0.00     0.023 A 
ATOM      5  C4  UNL d   1      -1.608   0.313   0.749  0.00  0.00     0.048 A 
ATOM      6  C5  UNL d   1      -1.625   1.003   1.962  0.00  0.00     0.003 A 
ATOM      7  I   UNL d   1      -0.374  -0.878  -1.743  0.00  0.00    -0.146 I 
ENDROOT
TORSDOF 0
ENDMDL
