MODEL 1
REMARK minimizedAffinity -4.67135191
REMARK minimizedRMSD -1
REMARK  0 active torsions:
REMARK  status: ('A' for Active; 'I' for Inactive)
ROOT
ATOM      1  C   UNL d   1       0.538   0.594  -3.654  0.00  0.00     0.023 A 
ATOM      2  C1  UNL d   1       0.414  -0.739  -3.264  0.00  0.00     0.003 A 
ATOM      3  C2  UNL d   1      -0.471  -1.585  -3.936  0.00  0.00     0.048 A 
ATOM      4  C3  UNL d   1      -1.229  -1.091  -4.997  0.00  0.00     0.023 A 
ATOM      5  C4  UNL d   1      -1.108   0.243  -5.391  0.00  0.00     0.048 A 
ATOM      6  C5  UNL d   1      -0.222   1.085  -4.717  0.00  0.00     0.003 A 
ATOM      7  I   UNL d   1      -2.547  -2.348  -5.998  0.00  0.00    -0.146 I 
ENDROOT
TORSDOF 0
ENDMDL
