MODEL 1
REMARK minimizedAffinity -4.25639057
REMARK minimizedRMSD -1
REMARK  0 active torsions:
REMARK  status: ('A' for Active; 'I' for Inactive)
ROOT
ATOM      1  C   UNL d   1       0.745  -0.133  -3.815  0.00  0.00     0.023 A 
ATOM      2  C1  UNL d   1       1.482   0.484  -2.804  0.00  0.00     0.003 A 
ATOM      3  C2  UNL d   1       0.980   0.532  -1.502  0.00  0.00     0.048 A 
ATOM      4  C3  UNL d   1      -0.259  -0.041  -1.217  0.00  0.00     0.023 A 
ATOM      5  C4  UNL d   1      -0.999  -0.660  -2.225  0.00  0.00     0.048 A 
ATOM      6  C5  UNL d   1      -0.494  -0.705  -3.526  0.00  0.00     0.003 A 
ATOM      7  I   UNL d   1      -1.008   0.028   0.720  0.00  0.00    -0.146 I 
ENDROOT
TORSDOF 0
ENDMDL
