MODEL 1
REMARK minimizedAffinity -5.16730833
REMARK minimizedRMSD -1
REMARK  0 active torsions:
REMARK  status: ('A' for Active; 'I' for Inactive)
ROOT
ATOM      1  C   UNL d   1       0.039   1.167   3.734  0.00  0.00     0.023 A 
ATOM      2  C1  UNL d   1      -1.002   1.421   2.841  0.00  0.00     0.003 A 
ATOM      3  C2  UNL d   1      -0.928   0.952   1.528  0.00  0.00     0.048 A 
ATOM      4  C3  UNL d   1       0.190   0.228   1.115  0.00  0.00     0.023 A 
ATOM      5  C4  UNL d   1       1.233  -0.030   2.005  0.00  0.00     0.048 A 
ATOM      6  C5  UNL d   1       1.155   0.442   3.317  0.00  0.00     0.003 A 
ATOM      7  I   UNL d   1       0.302  -0.472  -0.839  0.00  0.00    -0.146 I 
ENDROOT
TORSDOF 0
ENDMDL
