MODEL 1
REMARK minimizedAffinity -4.37739849
REMARK minimizedRMSD -1
REMARK  0 active torsions:
REMARK  status: ('A' for Active; 'I' for Inactive)
ROOT
ATOM      1  C   UNL d   1       0.349   1.004  -5.355  0.00  0.00     0.023 A 
ATOM      2  C1  UNL d   1      -0.827   0.474  -4.825  0.00  0.00     0.003 A 
ATOM      3  C2  UNL d   1      -0.844  -0.026  -3.522  0.00  0.00     0.048 A 
ATOM      4  C3  UNL d   1       0.320   0.007  -2.753  0.00  0.00     0.023 A 
ATOM      5  C4  UNL d   1       1.499   0.538  -3.279  0.00  0.00     0.048 A 
ATOM      6  C5  UNL d   1       1.511   1.036  -4.583  0.00  0.00     0.003 A 
ATOM      7  I   UNL d   1       0.297  -0.737  -0.813  0.00  0.00    -0.146 I 
ENDROOT
TORSDOF 0
ENDMDL
