MODEL 1
REMARK minimizedAffinity -6.10887337
REMARK minimizedRMSD -1
REMARK  0 active torsions:
REMARK  status: ('A' for Active; 'I' for Inactive)
ROOT
ATOM      1  C   UNL d   1      -3.167   0.936   1.928  0.00  0.00     0.077 C 
ATOM      2  C1  UNL d   1      -2.331  -0.256   1.567  0.00  0.00    -0.074 A 
ATOM      3  C2  UNL d   1      -2.769  -1.553   1.851  0.00  0.00    -0.005 A 
ATOM      4  C3  UNL d   1      -1.984  -2.652   1.501  0.00  0.00     0.006 A 
ATOM      5  C4  UNL d   1      -0.756  -2.465   0.865  0.00  0.00    -0.005 A 
ATOM      6  C5  UNL d   1      -0.302  -1.175   0.573  0.00  0.00    -0.074 A 
ATOM      7  C6  UNL d   1       1.010  -0.957  -0.119  0.00  0.00     0.077 C 
ATOM      8  C7  UNL d   1      -1.099  -0.076   0.921  0.00  0.00    -0.001 A 
ENDROOT
TORSDOF 0
ENDMDL
