MODEL 1
REMARK minimizedAffinity -5.41440821
REMARK minimizedRMSD -1
REMARK  0 active torsions:
REMARK  status: ('A' for Active; 'I' for Inactive)
ROOT
ATOM      1  C   UNL d   1      -3.552  -0.160   2.014  0.00  0.00     0.077 C 
ATOM      2  C1  UNL d   1      -2.293  -0.740   1.441  0.00  0.00    -0.074 A 
ATOM      3  C2  UNL d   1      -2.025  -2.110   1.533  0.00  0.00    -0.005 A 
ATOM      4  C3  UNL d   1      -0.855  -2.636   0.987  0.00  0.00     0.006 A 
ATOM      5  C4  UNL d   1       0.059  -1.799   0.345  0.00  0.00    -0.005 A 
ATOM      6  C5  UNL d   1      -0.192  -0.427   0.242  0.00  0.00    -0.074 A 
ATOM      7  C6  UNL d   1       0.775   0.485  -0.453  0.00  0.00     0.077 C 
ATOM      8  C7  UNL d   1      -1.374   0.093   0.787  0.00  0.00    -0.001 A 
ENDROOT
TORSDOF 0
ENDMDL
