MODEL 1
REMARK minimizedAffinity -2.12544632
REMARK minimizedRMSD -1
REMARK  0 active torsions:
REMARK  status: ('A' for Active; 'I' for Inactive)
ROOT
ATOM      1  C   UNL d   1       0.111  -2.418   0.014  0.00  0.00     0.077 C 
ATOM      2  C1  UNL d   1       0.206  -0.970  -0.365  0.00  0.00    -0.074 A 
ATOM      3  C2  UNL d   1       0.083   0.035   0.600  0.00  0.00    -0.005 A 
ATOM      4  C3  UNL d   1       0.183   1.377   0.234  0.00  0.00     0.006 A 
ATOM      5  C4  UNL d   1       0.406   1.727  -1.098  0.00  0.00    -0.005 A 
ATOM      6  C5  UNL d   1       0.533   0.736  -2.076  0.00  0.00    -0.074 A 
ATOM      7  C6  UNL d   1       0.783   1.095  -3.511  0.00  0.00     0.077 C 
ATOM      8  C7  UNL d   1       0.438  -0.611  -1.700  0.00  0.00    -0.001 A 
ENDROOT
TORSDOF 0
ENDMDL
