MODEL 1
REMARK minimizedAffinity -4.88059235
REMARK minimizedRMSD -1
REMARK  0 active torsions:
REMARK  status: ('A' for Active; 'I' for Inactive)
ROOT
ATOM      1  C   UNL d   1      -3.380  -0.393   1.115  0.00  0.00     0.077 C 
ATOM      2  C1  UNL d   1      -1.944  -0.790   0.937  0.00  0.00    -0.074 A 
ATOM      3  C2  UNL d   1      -1.439  -1.950   1.533  0.00  0.00    -0.005 A 
ATOM      4  C3  UNL d   1      -0.105  -2.311   1.350  0.00  0.00     0.006 A 
ATOM      5  C4  UNL d   1       0.737  -1.517   0.570  0.00  0.00    -0.005 A 
ATOM      6  C5  UNL d   1       0.250  -0.354  -0.035  0.00  0.00    -0.074 A 
ATOM      7  C6  UNL d   1       1.139   0.505  -0.884  0.00  0.00     0.077 C 
ATOM      8  C7  UNL d   1      -1.094  -0.002   0.148  0.00  0.00    -0.001 A 
ENDROOT
TORSDOF 0
ENDMDL
