MODEL 1
REMARK minimizedAffinity -4.70776939
REMARK minimizedRMSD -1
REMARK  0 active torsions:
REMARK  status: ('A' for Active; 'I' for Inactive)
ROOT
ATOM      1  C   UNL d   1      -3.557  -0.016   1.865  0.00  0.00     0.077 C 
ATOM      2  C1  UNL d   1      -2.269  -0.601   1.366  0.00  0.00    -0.074 A 
ATOM      3  C2  UNL d   1      -1.989  -1.962   1.522  0.00  0.00    -0.005 A 
ATOM      4  C3  UNL d   1      -0.791  -2.493   1.044  0.00  0.00     0.006 A 
ATOM      5  C4  UNL d   1       0.138  -1.670   0.407  0.00  0.00    -0.005 A 
ATOM      6  C5  UNL d   1      -0.125  -0.307   0.241  0.00  0.00    -0.074 A 
ATOM      7  C6  UNL d   1       0.859   0.590  -0.450  0.00  0.00     0.077 C 
ATOM      8  C7  UNL d   1      -1.334   0.218   0.717  0.00  0.00    -0.001 A 
ENDROOT
TORSDOF 0
ENDMDL
