MODEL 1
REMARK minimizedAffinity -5.70395041
REMARK minimizedRMSD -1
REMARK  0 active torsions:
REMARK  status: ('A' for Active; 'I' for Inactive)
ROOT
ATOM      1  C   UNL d   1      -1.131   2.078   0.622  0.00  0.00     0.077 C 
ATOM      2  C1  UNL d   1      -0.750   0.629   0.685  0.00  0.00    -0.074 A 
ATOM      3  C2  UNL d   1       0.548   0.212   0.369  0.00  0.00    -0.005 A 
ATOM      4  C3  UNL d   1       0.890  -1.138   0.441  0.00  0.00     0.006 A 
ATOM      5  C4  UNL d   1      -0.059  -2.084   0.829  0.00  0.00    -0.005 A 
ATOM      6  C5  UNL d   1      -1.361  -1.686   1.150  0.00  0.00    -0.074 A 
ATOM      7  C6  UNL d   1      -2.391  -2.689   1.578  0.00  0.00     0.077 C 
ATOM      8  C7  UNL d   1      -1.696  -0.327   1.081  0.00  0.00    -0.001 A 
ENDROOT
TORSDOF 0
ENDMDL
