MODEL 1
REMARK minimizedAffinity -6.03986454
REMARK minimizedRMSD -1
REMARK  0 active torsions:
REMARK  status: ('A' for Active; 'I' for Inactive)
ROOT
ATOM      1  C   UNL d   1      -2.954   0.648   1.653  0.00  0.00     0.077 C 
ATOM      2  C1  UNL d   1      -2.218  -0.622   1.341  0.00  0.00    -0.074 A 
ATOM      3  C2  UNL d   1      -2.737  -1.864   1.720  0.00  0.00    -0.005 A 
ATOM      4  C3  UNL d   1      -2.046  -3.037   1.415  0.00  0.00     0.006 A 
ATOM      5  C4  UNL d   1      -0.833  -2.980   0.728  0.00  0.00    -0.005 A 
ATOM      6  C5  UNL d   1      -0.299  -1.746   0.340  0.00  0.00    -0.074 A 
ATOM      7  C6  UNL d   1       0.999  -1.667  -0.407  0.00  0.00     0.077 C 
ATOM      8  C7  UNL d   1      -1.003  -0.573   0.645  0.00  0.00    -0.001 A 
ENDROOT
TORSDOF 0
ENDMDL
