MODEL 1
REMARK minimizedAffinity -6.38376808
REMARK minimizedRMSD -1
REMARK  0 active torsions:
REMARK  status: ('A' for Active; 'I' for Inactive)
ROOT
ATOM      1  C   UNL d   1       0.848   0.965  -0.771  0.00  0.00     0.077 C 
ATOM      2  C1  UNL d   1       0.083  -0.045   0.032  0.00  0.00    -0.074 A 
ATOM      3  C2  UNL d   1       0.506  -1.377   0.102  0.00  0.00    -0.005 A 
ATOM      4  C3  UNL d   1      -0.210  -2.303   0.861  0.00  0.00     0.006 A 
ATOM      5  C4  UNL d   1      -1.354  -1.908   1.555  0.00  0.00    -0.005 A 
ATOM      6  C5  UNL d   1      -1.791  -0.581   1.498  0.00  0.00    -0.074 A 
ATOM      7  C6  UNL d   1      -3.013  -0.137   2.246  0.00  0.00     0.077 C 
ATOM      8  C7  UNL d   1      -1.062   0.346   0.739  0.00  0.00    -0.001 A 
ENDROOT
TORSDOF 0
ENDMDL
