MODEL 1
REMARK minimizedAffinity -5.27063751
REMARK minimizedRMSD -1
REMARK  0 active torsions:
REMARK  status: ('A' for Active; 'I' for Inactive)
ROOT
ATOM      1  C   UNL d   1       0.708   1.017  -0.746  0.00  0.00     0.077 C 
ATOM      2  C1  UNL d   1      -0.007  -0.057   0.019  0.00  0.00    -0.074 A 
ATOM      3  C2  UNL d   1       0.609  -1.285   0.281  0.00  0.00    -0.005 A 
ATOM      4  C3  UNL d   1      -0.065  -2.270   1.002  0.00  0.00     0.006 A 
ATOM      5  C4  UNL d   1      -1.360  -2.039   1.467  0.00  0.00    -0.005 A 
ATOM      6  C5  UNL d   1      -1.992  -0.817   1.215  0.00  0.00    -0.074 A 
ATOM      7  C6  UNL d   1      -3.380  -0.548   1.716  0.00  0.00     0.077 C 
ATOM      8  C7  UNL d   1      -1.305   0.171   0.496  0.00  0.00    -0.001 A 
ENDROOT
TORSDOF 0
ENDMDL
