MODEL 1
REMARK minimizedAffinity 0.148223266
REMARK minimizedRMSD -1
REMARK  0 active torsions:
REMARK  status: ('A' for Active; 'I' for Inactive)
ROOT
ATOM      1  C   UNL d   1      -2.719  -0.427   2.807  0.00  0.00     0.077 C 
ATOM      2  C1  UNL d   1      -1.533  -0.693   1.929  0.00  0.00    -0.074 A 
ATOM      3  C2  UNL d   1      -0.869  -1.923   1.972  0.00  0.00    -0.005 A 
ATOM      4  C3  UNL d   1       0.227  -2.160   1.142  0.00  0.00     0.006 A 
ATOM      5  C4  UNL d   1       0.670  -1.171   0.263  0.00  0.00    -0.005 A 
ATOM      6  C5  UNL d   1       0.019   0.065   0.207  0.00  0.00    -0.074 A 
ATOM      7  C6  UNL d   1       0.476   1.136  -0.739  0.00  0.00     0.077 C 
ATOM      8  C7  UNL d   1      -1.086   0.293   1.038  0.00  0.00    -0.001 A 
ENDROOT
TORSDOF 0
ENDMDL
