MODEL 1
REMARK minimizedAffinity -5.26209068
REMARK minimizedRMSD -1
REMARK  0 active torsions:
REMARK  status: ('A' for Active; 'I' for Inactive)
ROOT
ATOM      1  C   UNL d   1      -1.422  -3.231   1.393  0.00  0.00     0.077 C 
ATOM      2  C1  UNL d   1      -1.532  -1.752   1.170  0.00  0.00    -0.074 A 
ATOM      3  C2  UNL d   1      -2.503  -0.995   1.832  0.00  0.00    -0.005 A 
ATOM      4  C3  UNL d   1      -2.587   0.382   1.621  0.00  0.00     0.006 A 
ATOM      5  C4  UNL d   1      -1.702   1.014   0.747  0.00  0.00    -0.005 A 
ATOM      6  C5  UNL d   1      -0.723   0.273   0.077  0.00  0.00    -0.074 A 
ATOM      7  C6  UNL d   1       0.242   0.939  -0.859  0.00  0.00     0.077 C 
ATOM      8  C7  UNL d   1      -0.641  -1.108   0.299  0.00  0.00    -0.001 A 
ENDROOT
TORSDOF 0
ENDMDL
