MODEL 1
REMARK minimizedAffinity -5.79122829
REMARK minimizedRMSD -1
REMARK  0 active torsions:
REMARK  status: ('A' for Active; 'I' for Inactive)
ROOT
ATOM      1  C   UNL d   1      -3.745   0.003   1.833  0.00  0.00     0.077 C 
ATOM      2  C1  UNL d   1      -2.525  -0.810   1.518  0.00  0.00    -0.074 A 
ATOM      3  C2  UNL d   1      -2.503  -2.190   1.744  0.00  0.00    -0.005 A 
ATOM      4  C3  UNL d   1      -1.364  -2.935   1.437  0.00  0.00     0.006 A 
ATOM      5  C4  UNL d   1      -0.238  -2.309   0.901  0.00  0.00    -0.005 A 
ATOM      6  C5  UNL d   1      -0.242  -0.930   0.667  0.00  0.00    -0.074 A 
ATOM      7  C6  UNL d   1       0.956  -0.243   0.083  0.00  0.00     0.077 C 
ATOM      8  C7  UNL d   1      -1.393  -0.190   0.972  0.00  0.00    -0.001 A 
ENDROOT
TORSDOF 0
ENDMDL
