MODEL 1
REMARK minimizedAffinity -4.29542065
REMARK minimizedRMSD -1
REMARK  0 active torsions:
REMARK  status: ('A' for Active; 'I' for Inactive)
ROOT
ATOM      1  C   UNL d   1      -3.605   0.336   1.925  0.00  0.00     0.077 C 
ATOM      2  C1  UNL d   1      -2.331  -0.311   1.470  0.00  0.00    -0.074 A 
ATOM      3  C2  UNL d   1      -2.066  -1.655   1.753  0.00  0.00    -0.005 A 
ATOM      4  C3  UNL d   1      -0.881  -2.246   1.315  0.00  0.00     0.006 A 
ATOM      5  C4  UNL d   1       0.049  -1.500   0.590  0.00  0.00    -0.005 A 
ATOM      6  C5  UNL d   1      -0.199  -0.156   0.296  0.00  0.00    -0.074 A 
ATOM      7  C6  UNL d   1       0.786   0.657  -0.491  0.00  0.00     0.077 C 
ATOM      8  C7  UNL d   1      -1.395   0.429   0.734  0.00  0.00    -0.001 A 
ENDROOT
TORSDOF 0
ENDMDL
