MODEL 1
REMARK minimizedAffinity -1.69751072
REMARK minimizedRMSD -1
REMARK  0 active torsions:
REMARK  status: ('A' for Active; 'I' for Inactive)
ROOT
ATOM      1  C   UNL d   1       0.303   2.017  -0.351  0.00  0.00     0.077 C 
ATOM      2  C1  UNL d   1       0.894   2.025  -1.730  0.00  0.00    -0.074 A 
ATOM      3  C2  UNL d   1       0.100   2.286  -2.851  0.00  0.00    -0.005 A 
ATOM      4  C3  UNL d   1       0.666   2.299  -4.126  0.00  0.00     0.006 A 
ATOM      5  C4  UNL d   1       2.029   2.052  -4.292  0.00  0.00    -0.005 A 
ATOM      6  C5  UNL d   1       2.839   1.790  -3.183  0.00  0.00    -0.074 A 
ATOM      7  C6  UNL d   1       4.308   1.532  -3.343  0.00  0.00     0.077 C 
ATOM      8  C7  UNL d   1       2.265   1.785  -1.904  0.00  0.00    -0.001 A 
ENDROOT
TORSDOF 0
ENDMDL
