MODEL 1
REMARK minimizedAffinity -4.73804331
REMARK minimizedRMSD -1
REMARK  0 active torsions:
REMARK  status: ('A' for Active; 'I' for Inactive)
ROOT
ATOM      1  C   UNL d   1       0.674  -0.833  -0.376  0.00  0.00     0.077 C 
ATOM      2  C1  UNL d   1      -0.436  -1.059   0.607  0.00  0.00    -0.074 A 
ATOM      3  C2  UNL d   1      -0.591  -2.294   1.245  0.00  0.00    -0.005 A 
ATOM      4  C3  UNL d   1      -1.623  -2.486   2.164  0.00  0.00     0.006 A 
ATOM      5  C4  UNL d   1      -2.508  -1.447   2.454  0.00  0.00    -0.005 A 
ATOM      6  C5  UNL d   1      -2.367  -0.205   1.827  0.00  0.00    -0.074 A 
ATOM      7  C6  UNL d   1      -3.304   0.925   2.135  0.00  0.00     0.077 C 
ATOM      8  C7  UNL d   1      -1.324  -0.018   0.910  0.00  0.00    -0.001 A 
ENDROOT
TORSDOF 0
ENDMDL
