MODEL 1
REMARK minimizedAffinity -4.61822844
REMARK minimizedRMSD -1
REMARK  0 active torsions:
REMARK  status: ('A' for Active; 'I' for Inactive)
ROOT
ATOM      1  C   UNL d   1      -3.906   0.436   1.779  0.00  0.00     0.077 C 
ATOM      2  C1  UNL d   1      -2.647  -0.302   1.431  0.00  0.00    -0.074 A 
ATOM      3  C2  UNL d   1      -2.479  -1.643   1.788  0.00  0.00    -0.005 A 
ATOM      4  C3  UNL d   1      -1.306  -2.319   1.449  0.00  0.00     0.006 A 
ATOM      5  C4  UNL d   1      -0.292  -1.661   0.752  0.00  0.00    -0.005 A 
ATOM      6  C5  UNL d   1      -0.444  -0.319   0.386  0.00  0.00    -0.074 A 
ATOM      7  C6  UNL d   1       0.632   0.400  -0.372  0.00  0.00     0.077 C 
ATOM      8  C7  UNL d   1      -1.628   0.350   0.724  0.00  0.00    -0.001 A 
ENDROOT
TORSDOF 0
ENDMDL
