MODEL 1
REMARK minimizedAffinity 17.4279556
REMARK minimizedRMSD -1
REMARK  0 active torsions:
REMARK  status: ('A' for Active; 'I' for Inactive)
ROOT
ATOM      1  N1  IND d   1       4.486  -1.960  -0.097  0.00  0.00    -0.196 N 
ATOM      2  C2  IND d   1       3.169  -1.651   0.101  0.00  0.00     0.054 A 
ATOM      3  C3  IND d   1       2.612  -2.510   0.983  0.00  0.00    -0.031 A 
ATOM      4  C4  IND d   1       3.699  -4.436   2.301  0.00  0.00     0.051 A 
ATOM      5  C5  IND d   1       4.872  -5.125   2.430  0.00  0.00    -0.031 A 
ATOM      6  C6  IND d   1       6.000  -4.787   1.710  0.00  0.00     0.015 A 
ATOM      7  C7  IND d   1       6.000  -3.734   0.840  0.00  0.00    -0.016 A 
ATOM      8  C8  IND d   1       4.809  -3.036   0.702  0.00  0.00    -0.047 A 
ATOM      9  C9  IND d   1       3.649  -3.401   1.397  0.00  0.00    -0.096 A 
ATOM     10  HN1 IND d   1       5.023  -1.551  -0.630  0.00  0.00     0.298 HD
ENDROOT
TORSDOF 0
ENDMDL
