MODEL 1
REMARK minimizedAffinity 11.0426378
REMARK minimizedRMSD -1
REMARK  0 active torsions:
REMARK  status: ('A' for Active; 'I' for Inactive)
ROOT
ATOM      1  N1  IND d   1       0.739  -5.841  -2.019  0.00  0.00    -0.196 N 
ATOM      2  C2  IND d   1       1.759  -4.940  -2.144  0.00  0.00     0.054 A 
ATOM      3  C3  IND d   1       1.526  -3.854  -1.374  0.00  0.00    -0.031 A 
ATOM      4  C4  IND d   1      -0.417  -3.387   0.250  0.00  0.00     0.051 A 
ATOM      5  C5  IND d   1      -1.610  -3.899   0.677  0.00  0.00    -0.031 A 
ATOM      6  C6  IND d   1      -2.089  -5.110   0.221  0.00  0.00     0.015 A 
ATOM      7  C7  IND d   1      -1.385  -5.863  -0.675  0.00  0.00    -0.016 A 
ATOM      8  C8  IND d   1      -0.177  -5.343  -1.117  0.00  0.00    -0.047 A 
ATOM      9  C9  IND d   1       0.295  -4.095  -0.690  0.00  0.00    -0.096 A 
ATOM     10  HN1 IND d   1       0.678  -6.591  -2.433  0.00  0.00     0.298 HD
ENDROOT
TORSDOF 0
ENDMDL
