MODEL 1
REMARK minimizedAffinity 16.40485
REMARK minimizedRMSD -1
REMARK  0 active torsions:
REMARK  status: ('A' for Active; 'I' for Inactive)
ROOT
ATOM      1  N1  IND d   1       0.788  -0.779   3.551  0.00  0.00    -0.196 N 
ATOM      2  C2  IND d   1       1.169  -0.882   2.242  0.00  0.00     0.054 A 
ATOM      3  C3  IND d   1       1.968  -1.958   2.068  0.00  0.00    -0.031 A 
ATOM      4  C4  IND d   1       2.699  -3.745   3.771  0.00  0.00     0.051 A 
ATOM      5  C5  IND d   1       2.633  -4.057   5.100  0.00  0.00    -0.031 A 
ATOM      6  C6  IND d   1       1.933  -3.278   5.998  0.00  0.00     0.015 A 
ATOM      7  C7  IND d   1       1.260  -2.159   5.597  0.00  0.00    -0.016 A 
ATOM      8  C8  IND d   1       1.330  -1.835   4.249  0.00  0.00    -0.047 A 
ATOM      9  C9  IND d   1       2.074  -2.599   3.341  0.00  0.00    -0.096 A 
ATOM     10  HN1 IND d   1       0.294  -0.158   3.882  0.00  0.00     0.298 HD
ENDROOT
TORSDOF 0
ENDMDL
