MODEL 1
REMARK minimizedAffinity 13.1489582
REMARK minimizedRMSD -1
REMARK  0 active torsions:
REMARK  status: ('A' for Active; 'I' for Inactive)
ROOT
ATOM      1  N1  IND d   1       0.616  -2.846   1.769  0.00  0.00    -0.196 N 
ATOM      2  C2  IND d   1       1.398  -1.841   2.267  0.00  0.00     0.054 A 
ATOM      3  C3  IND d   1       2.353  -1.500   1.372  0.00  0.00    -0.031 A 
ATOM      4  C4  IND d   1       2.755  -2.390  -1.010  0.00  0.00     0.051 A 
ATOM      5  C5  IND d   1       2.321  -3.339  -1.893  0.00  0.00    -0.031 A 
ATOM      6  C6  IND d   1       1.273  -4.187  -1.595  0.00  0.00     0.015 A 
ATOM      7  C7  IND d   1       0.611  -4.110  -0.403  0.00  0.00    -0.016 A 
ATOM      8  C8  IND d   1       1.053  -3.153   0.499  0.00  0.00    -0.047 A 
ATOM      9  C9  IND d   1       2.143  -2.318   0.220  0.00  0.00    -0.096 A 
ATOM     10  HN1 IND d   1      -0.038  -3.223   2.179  0.00  0.00     0.298 HD
ENDROOT
TORSDOF 0
ENDMDL
