MODEL 1
REMARK minimizedAffinity 19.599535
REMARK minimizedRMSD -1
REMARK  0 active torsions:
REMARK  status: ('A' for Active; 'I' for Inactive)
ROOT
ATOM      1  N1  IND d   1      -3.605  -0.446  -3.457  0.00  0.00    -0.196 N 
ATOM      2  C2  IND d   1      -2.990  -0.174  -2.267  0.00  0.00     0.054 A 
ATOM      3  C3  IND d   1      -2.569   1.110  -2.237  0.00  0.00    -0.031 A 
ATOM      4  C4  IND d   1      -2.873   2.972  -3.990  0.00  0.00     0.051 A 
ATOM      5  C5  IND d   1      -3.339   3.194  -5.255  0.00  0.00    -0.031 A 
ATOM      6  C6  IND d   1      -3.932   2.195  -6.000  0.00  0.00     0.015 A 
ATOM      7  C7  IND d   1      -4.092   0.934  -5.500  0.00  0.00    -0.016 A 
ATOM      8  C8  IND d   1      -3.614   0.702  -4.218  0.00  0.00    -0.047 A 
ATOM      9  C9  IND d   1      -2.973   1.701  -3.474  0.00  0.00    -0.096 A 
ATOM     10  HN1 IND d   1      -3.932  -1.206  -3.691  0.00  0.00     0.298 HD
ENDROOT
TORSDOF 0
ENDMDL
