MODEL 1
REMARK minimizedAffinity 13.7478867
REMARK minimizedRMSD -1
REMARK  0 active torsions:
REMARK  status: ('A' for Active; 'I' for Inactive)
ROOT
ATOM      1  N1  IND d   1       2.316  -3.845   0.042  0.00  0.00    -0.196 N 
ATOM      2  C2  IND d   1       1.525  -4.376  -0.938  0.00  0.00     0.054 A 
ATOM      3  C3  IND d   1       2.286  -4.939  -1.903  0.00  0.00    -0.031 A 
ATOM      4  C4  IND d   1       4.844  -5.195  -2.028  0.00  0.00     0.051 A 
ATOM      5  C5  IND d   1       5.995  -4.838  -1.384  0.00  0.00    -0.031 A 
ATOM      6  C6  IND d   1       5.978  -4.119  -0.206  0.00  0.00     0.015 A 
ATOM      7  C7  IND d   1       4.804  -3.739   0.380  0.00  0.00    -0.016 A 
ATOM      8  C8  IND d   1       3.633  -4.094  -0.275  0.00  0.00    -0.047 A 
ATOM      9  C9  IND d   1       3.645  -4.787  -1.493  0.00  0.00    -0.096 A 
ATOM     10  HN1 IND d   1       2.038  -3.426   0.739  0.00  0.00     0.298 HD
ENDROOT
TORSDOF 0
ENDMDL
