MODEL 1
REMARK minimizedAffinity 14.6890955
REMARK minimizedRMSD -1
REMARK  0 active torsions:
REMARK  status: ('A' for Active; 'I' for Inactive)
ROOT
ATOM      1  N1  IND d   1       0.785  -5.364  -2.344  0.00  0.00    -0.196 N 
ATOM      2  C2  IND d   1       1.998  -4.905  -1.912  0.00  0.00     0.054 A 
ATOM      3  C3  IND d   1       1.864  -4.267  -0.727  0.00  0.00    -0.031 A 
ATOM      4  C4  IND d   1      -0.234  -3.949   0.731  0.00  0.00     0.051 A 
ATOM      5  C5  IND d   1      -1.584  -4.163   0.738  0.00  0.00    -0.031 A 
ATOM      6  C6  IND d   1      -2.226  -4.804  -0.302  0.00  0.00     0.015 A 
ATOM      7  C7  IND d   1      -1.537  -5.266  -1.387  0.00  0.00    -0.016 A 
ATOM      8  C8  IND d   1      -0.167  -5.045  -1.401  0.00  0.00    -0.047 A 
ATOM      9  C9  IND d   1       0.484  -4.358  -0.368  0.00  0.00    -0.096 A 
ATOM     10  HN1 IND d   1       0.641  -5.783  -3.081  0.00  0.00     0.298 HD
ENDROOT
TORSDOF 0
ENDMDL
