MODEL 1
REMARK minimizedAffinity 12.4500675
REMARK minimizedRMSD -1
REMARK  0 active torsions:
REMARK  status: ('A' for Active; 'I' for Inactive)
ROOT
ATOM      1  N1  IND d   1       0.747  -1.142   3.050  0.00  0.00    -0.196 N 
ATOM      2  C2  IND d   1       1.222  -1.478   1.813  0.00  0.00     0.054 A 
ATOM      3  C3  IND d   1       2.049  -2.544   1.900  0.00  0.00    -0.031 A 
ATOM      4  C4  IND d   1       2.685  -3.957   3.956  0.00  0.00     0.051 A 
ATOM      5  C5  IND d   1       2.530  -4.015   5.313  0.00  0.00    -0.031 A 
ATOM      6  C6  IND d   1       1.755  -3.102   5.998  0.00  0.00     0.015 A 
ATOM      7  C7  IND d   1       1.094  -2.098   5.347  0.00  0.00    -0.016 A 
ATOM      8  C8  IND d   1       1.255  -2.032   3.971  0.00  0.00    -0.047 A 
ATOM      9  C9  IND d   1       2.074  -2.930   3.275  0.00  0.00    -0.096 A 
ATOM     10  HN1 IND d   1       0.221  -0.485   3.223  0.00  0.00     0.298 HD
ENDROOT
TORSDOF 0
ENDMDL
