MODEL 1
REMARK minimizedAffinity 17.8760586
REMARK minimizedRMSD -1
REMARK  0 active torsions:
REMARK  status: ('A' for Active; 'I' for Inactive)
ROOT
ATOM      1  N1  IND d   1       0.953  -0.981   4.621  0.00  0.00    -0.196 N 
ATOM      2  C2  IND d   1       1.241  -2.076   5.388  0.00  0.00     0.054 A 
ATOM      3  C3  IND d   1       1.804  -3.045   4.632  0.00  0.00    -0.031 A 
ATOM      4  C4  IND d   1       2.440  -3.010   2.137  0.00  0.00     0.051 A 
ATOM      5  C5  IND d   1       2.340  -2.243   1.011  0.00  0.00    -0.031 A 
ATOM      6  C6  IND d   1       1.764  -0.989   1.031  0.00  0.00     0.015 A 
ATOM      7  C7  IND d   1       1.274  -0.449   2.186  0.00  0.00    -0.016 A 
ATOM      8  C8  IND d   1       1.367  -1.229   3.331  0.00  0.00    -0.047 A 
ATOM      9  C9  IND d   1       1.912  -2.519   3.308  0.00  0.00    -0.096 A 
ATOM     10  HN1 IND d   1       0.577  -0.259   4.899  0.00  0.00     0.298 HD
ENDROOT
TORSDOF 0
ENDMDL
