MODEL 1
REMARK minimizedAffinity 10.6889334
REMARK minimizedRMSD -1
REMARK  0 active torsions:
REMARK  status: ('A' for Active; 'I' for Inactive)
ROOT
ATOM      1  N1  IND d   1       0.867  -1.548   2.077  0.00  0.00    -0.196 N 
ATOM      2  C2  IND d   1       1.294  -0.351   1.574  0.00  0.00     0.054 A 
ATOM      3  C3  IND d   1       2.414  -0.524   0.837  0.00  0.00    -0.031 A 
ATOM      4  C4  IND d   1       3.660  -2.696   0.239  0.00  0.00     0.051 A 
ATOM      5  C5  IND d   1       3.669  -4.038   0.496  0.00  0.00    -0.031 A 
ATOM      6  C6  IND d   1       2.723  -4.631   1.307  0.00  0.00     0.015 A 
ATOM      7  C7  IND d   1       1.723  -3.903   1.885  0.00  0.00    -0.016 A 
ATOM      8  C8  IND d   1       1.715  -2.539   1.632  0.00  0.00    -0.047 A 
ATOM      9  C9  IND d   1       2.696  -1.924   0.844  0.00  0.00    -0.096 A 
ATOM     10  HN1 IND d   1       0.183  -1.663   2.586  0.00  0.00     0.298 HD
ENDROOT
TORSDOF 0
ENDMDL
