MODEL 1
REMARK minimizedAffinity -0.607352853
REMARK minimizedRMSD -1
REMARK  0 active torsions:
REMARK  status: ('A' for Active; 'I' for Inactive)
ROOT
ATOM      1  O1  BZF d   1       3.751  -2.553  -0.151  0.00  0.00    -0.204 OA
ATOM      2  C2  BZF d   1       4.314  -1.306   0.038  0.00  0.00     0.174 A 
ATOM      3  C3  BZF d   1       3.368  -0.395   0.340  0.00  0.00    -0.012 A 
ATOM      4  C3A BZF d   1       2.147  -1.136   0.431  0.00  0.00    -0.107 A 
ATOM      5  C4  BZF d   1       0.858  -0.790   0.719  0.00  0.00     0.055 A 
ATOM      6  C5  BZF d   1      -0.111  -1.740   0.653  0.00  0.00    -0.016 A 
ATOM      7  C6  BZF d   1       0.172  -3.043   0.299  0.00  0.00     0.022 A 
ATOM      8  C7  BZF d   1       1.437  -3.435   0.010  0.00  0.00     0.029 A 
ATOM      9  C7A BZF d   1       2.423  -2.484   0.108  0.00  0.00     0.058 A 
ENDROOT
TORSDOF 0
ENDMDL
