MODEL 1
REMARK minimizedAffinity -0.349930406
REMARK minimizedRMSD -1
REMARK  0 active torsions:
REMARK  status: ('A' for Active; 'I' for Inactive)
ROOT
ATOM      1  O1  BZF d   1       0.159  -3.770  -0.409  0.00  0.00    -0.204 OA
ATOM      2  C2  BZF d   1      -0.624  -2.691  -0.049  0.00  0.00     0.174 A 
ATOM      3  C3  BZF d   1       0.133  -1.703   0.470  0.00  0.00    -0.012 A 
ATOM      4  C3A BZF d   1       1.484  -2.160   0.347  0.00  0.00    -0.107 A 
ATOM      5  C4  BZF d   1       2.693  -1.614   0.672  0.00  0.00     0.055 A 
ATOM      6  C5  BZF d   1       3.820  -2.350   0.489  0.00  0.00    -0.016 A 
ATOM      7  C6  BZF d   1       3.775  -3.635  -0.010  0.00  0.00     0.022 A 
ATOM      8  C7  BZF d   1       2.600  -4.217  -0.352  0.00  0.00     0.029 A 
ATOM      9  C7A BZF d   1       1.462  -3.464  -0.199  0.00  0.00     0.058 A 
ENDROOT
TORSDOF 0
ENDMDL
