MODEL 1
REMARK minimizedAffinity -3.09816432
REMARK minimizedRMSD -1
REMARK  0 active torsions:
REMARK  status: ('A' for Active; 'I' for Inactive)
ROOT
ATOM      1  O1  BZF d   1       3.592  -2.038  -0.407  0.00  0.00    -0.204 OA
ATOM      2  C2  BZF d   1       3.646  -3.384  -0.712  0.00  0.00     0.174 A 
ATOM      3  C3  BZF d   1       2.470  -3.984  -0.438  0.00  0.00    -0.012 A 
ATOM      4  C3A BZF d   1       1.599  -2.930  -0.016  0.00  0.00    -0.107 A 
ATOM      5  C4  BZF d   1       0.291  -2.893   0.375  0.00  0.00     0.055 A 
ATOM      6  C5  BZF d   1      -0.239  -1.714   0.795  0.00  0.00    -0.016 A 
ATOM      7  C6  BZF d   1       0.509  -0.556   0.840  0.00  0.00     0.022 A 
ATOM      8  C7  BZF d   1       1.809  -0.543   0.457  0.00  0.00     0.029 A 
ATOM      9  C7A BZF d   1       2.339  -1.725   0.001  0.00  0.00     0.058 A 
ENDROOT
TORSDOF 0
ENDMDL
