MODEL 1
REMARK minimizedAffinity -4.7305932
REMARK minimizedRMSD -1
REMARK  0 active torsions:
REMARK  status: ('A' for Active; 'I' for Inactive)
ROOT
ATOM      1  O1  BZF d   1       2.875  -2.138  -0.216  0.00  0.00    -0.204 OA
ATOM      2  C2  BZF d   1       2.923  -3.517  -0.285  0.00  0.00     0.174 A 
ATOM      3  C3  BZF d   1       1.754  -4.058   0.116  0.00  0.00    -0.012 A 
ATOM      4  C3A BZF d   1       0.892  -2.944   0.369  0.00  0.00    -0.107 A 
ATOM      5  C4  BZF d   1      -0.406  -2.836   0.778  0.00  0.00     0.055 A 
ATOM      6  C5  BZF d   1      -0.928  -1.601   0.999  0.00  0.00    -0.016 A 
ATOM      7  C6  BZF d   1      -0.181  -0.455   0.826  0.00  0.00     0.022 A 
ATOM      8  C7  BZF d   1       1.110  -0.511   0.416  0.00  0.00     0.029 A 
ATOM      9  C7A BZF d   1       1.631  -1.756   0.160  0.00  0.00     0.058 A 
ENDROOT
TORSDOF 0
ENDMDL
