MODEL 1
REMARK minimizedAffinity -1.92286396
REMARK minimizedRMSD -1
REMARK  0 active torsions:
REMARK  status: ('A' for Active; 'I' for Inactive)
ROOT
ATOM      1  O1  BZF d   1       3.735  -5.811   0.998  0.00  0.00    -0.204 OA
ATOM      2  C2  BZF d   1       5.003  -6.000   0.483  0.00  0.00     0.174 A 
ATOM      3  C3  BZF d   1       5.421  -4.899  -0.175  0.00  0.00    -0.012 A 
ATOM      4  C3A BZF d   1       4.384  -3.931   0.014  0.00  0.00    -0.107 A 
ATOM      5  C4  BZF d   1       4.225  -2.636  -0.386  0.00  0.00     0.055 A 
ATOM      6  C5  BZF d   1       3.063  -1.993  -0.098  0.00  0.00    -0.016 A 
ATOM      7  C6  BZF d   1       2.039  -2.616   0.585  0.00  0.00     0.022 A 
ATOM      8  C7  BZF d   1       2.152  -3.899   1.007  0.00  0.00     0.029 A 
ATOM      9  C7A BZF d   1       3.338  -4.541   0.745  0.00  0.00     0.058 A 
ENDROOT
TORSDOF 0
ENDMDL
