MODEL 1
REMARK minimizedAffinity -3.32921529
REMARK minimizedRMSD -1
REMARK  0 active torsions:
REMARK  status: ('A' for Active; 'I' for Inactive)
ROOT
ATOM      1  O1  BZF d   1       3.063  -1.580   0.049  0.00  0.00    -0.204 OA
ATOM      2  C2  BZF d   1       3.301  -0.247   0.322  0.00  0.00     0.174 A 
ATOM      3  C3  BZF d   1       2.159   0.382   0.667  0.00  0.00    -0.012 A 
ATOM      4  C3A BZF d   1       1.159  -0.641   0.695  0.00  0.00    -0.107 A 
ATOM      5  C4  BZF d   1      -0.175  -0.641   0.986  0.00  0.00     0.055 A 
ATOM      6  C5  BZF d   1      -0.880  -1.795   0.848  0.00  0.00    -0.016 A 
ATOM      7  C6  BZF d   1      -0.285  -2.963   0.418  0.00  0.00     0.022 A 
ATOM      8  C7  BZF d   1       1.037  -3.012   0.123  0.00  0.00     0.029 A 
ATOM      9  C7A BZF d   1       1.759  -1.856   0.292  0.00  0.00     0.058 A 
ENDROOT
TORSDOF 0
ENDMDL
