MODEL 1
REMARK minimizedAffinity -3.79246187
REMARK minimizedRMSD -1
REMARK  0 active torsions:
REMARK  status: ('A' for Active; 'I' for Inactive)
ROOT
ATOM      1  O1  BZF d   1      -0.210  -1.457   1.190  0.00  0.00    -0.204 OA
ATOM      2  C2  BZF d   1       0.077  -0.106   1.177  0.00  0.00     0.174 A 
ATOM      3  C3  BZF d   1       1.290   0.120   0.633  0.00  0.00    -0.012 A 
ATOM      4  C3A BZF d   1       1.753  -1.163   0.200  0.00  0.00    -0.107 A 
ATOM      5  C4  BZF d   1       2.887  -1.588  -0.430  0.00  0.00     0.055 A 
ATOM      6  C5  BZF d   1       3.065  -2.919  -0.645  0.00  0.00    -0.016 A 
ATOM      7  C6  BZF d   1       2.132  -3.850  -0.239  0.00  0.00     0.022 A 
ATOM      8  C7  BZF d   1       0.989  -3.476   0.386  0.00  0.00     0.029 A 
ATOM      9  C7A BZF d   1       0.791  -2.130   0.575  0.00  0.00     0.058 A 
ENDROOT
TORSDOF 0
ENDMDL
