MODEL 1
REMARK minimizedAffinity 5.92930269
REMARK minimizedRMSD -1
REMARK  0 active torsions:
REMARK  status: ('A' for Active; 'I' for Inactive)
ROOT
ATOM      1  O1  BZF d   1       1.236  -2.744  -0.575  0.00  0.00    -0.204 OA
ATOM      2  C2  BZF d   1      -0.016  -3.319  -0.481  0.00  0.00     0.174 A 
ATOM      3  C3  BZF d   1      -0.627  -2.951   0.664  0.00  0.00    -0.012 A 
ATOM      4  C3A BZF d   1       0.264  -2.019   1.283  0.00  0.00    -0.107 A 
ATOM      5  C4  BZF d   1       0.208  -1.292   2.438  0.00  0.00     0.055 A 
ATOM      6  C5  BZF d   1       1.277  -0.530   2.791  0.00  0.00    -0.016 A 
ATOM      7  C6  BZF d   1       2.417  -0.476   2.017  0.00  0.00     0.022 A 
ATOM      8  C7  BZF d   1       2.517  -1.175   0.860  0.00  0.00     0.029 A 
ATOM      9  C7A BZF d   1       1.427  -1.920   0.484  0.00  0.00     0.058 A 
ENDROOT
TORSDOF 0
ENDMDL
