MODEL 1
REMARK minimizedAffinity 5.20389605
REMARK minimizedRMSD -1
REMARK  0 active torsions:
REMARK  status: ('A' for Active; 'I' for Inactive)
ROOT
ATOM      1  O1  BZF d   1       2.056  -0.008   2.421  0.00  0.00    -0.204 OA
ATOM      2  C2  BZF d   1       3.189  -0.126   1.639  0.00  0.00     0.174 A 
ATOM      3  C3  BZF d   1       2.951  -0.908   0.566  0.00  0.00    -0.012 A 
ATOM      4  C3A BZF d   1       1.559  -1.229   0.636  0.00  0.00    -0.107 A 
ATOM      5  C4  BZF d   1       0.723  -1.963  -0.157  0.00  0.00     0.055 A 
ATOM      6  C5  BZF d   1      -0.567  -2.142   0.231  0.00  0.00    -0.016 A 
ATOM      7  C6  BZF d   1      -1.053  -1.607   1.405  0.00  0.00     0.022 A 
ATOM      8  C7  BZF d   1      -0.264  -0.867   2.222  0.00  0.00     0.029 A 
ATOM      9  C7A BZF d   1       1.031  -0.657   1.817  0.00  0.00     0.058 A 
ENDROOT
TORSDOF 0
ENDMDL
