MODEL 1
REMARK minimizedAffinity 1.00682473
REMARK minimizedRMSD -1
REMARK  0 active torsions:
REMARK  status: ('A' for Active; 'I' for Inactive)
ROOT
ATOM      1  O1  BZF d   1       2.238  -2.214  -0.705  0.00  0.00    -0.204 OA
ATOM      2  C2  BZF d   1       1.494  -3.135  -1.418  0.00  0.00     0.174 A 
ATOM      3  C3  BZF d   1       0.208  -3.126  -1.014  0.00  0.00    -0.012 A 
ATOM      4  C3A BZF d   1       0.123  -2.073  -0.049  0.00  0.00    -0.107 A 
ATOM      5  C4  BZF d   1      -0.900  -1.564   0.698  0.00  0.00     0.055 A 
ATOM      6  C5  BZF d   1      -0.635  -0.584   1.601  0.00  0.00    -0.016 A 
ATOM      7  C6  BZF d   1       0.641  -0.092   1.785  0.00  0.00     0.022 A 
ATOM      8  C7  BZF d   1       1.687  -0.562   1.063  0.00  0.00     0.029 A 
ATOM      9  C7A BZF d   1       1.417  -1.530   0.127  0.00  0.00     0.058 A 
ENDROOT
TORSDOF 0
ENDMDL
