MODEL 1
REMARK minimizedAffinity 2.81774879
REMARK minimizedRMSD -1
REMARK  0 active torsions:
REMARK  status: ('A' for Active; 'I' for Inactive)
ROOT
ATOM      1  O1  BZF d   1       5.744  -4.238   0.020  0.00  0.00    -0.204 OA
ATOM      2  C2  BZF d   1       5.615  -5.613   0.029  0.00  0.00     0.174 A 
ATOM      3  C3  BZF d   1       4.320  -5.971   0.140  0.00  0.00    -0.012 A 
ATOM      4  C3A BZF d   1       3.586  -4.743   0.111  0.00  0.00    -0.107 A 
ATOM      5  C4  BZF d   1       2.255  -4.444   0.167  0.00  0.00     0.055 A 
ATOM      6  C5  BZF d   1       1.872  -3.140   0.190  0.00  0.00    -0.016 A 
ATOM      7  C6  BZF d   1       2.792  -2.112   0.163  0.00  0.00     0.022 A 
ATOM      8  C7  BZF d   1       4.123  -2.360   0.102  0.00  0.00     0.029 A 
ATOM      9  C7A BZF d   1       4.512  -3.676   0.046  0.00  0.00     0.058 A 
ENDROOT
TORSDOF 0
ENDMDL
