MODEL 1
REMARK minimizedAffinity -0.147742942
REMARK minimizedRMSD -1
REMARK  0 active torsions:
REMARK  status: ('A' for Active; 'I' for Inactive)
ROOT
ATOM      1  O1  BZF d   1       3.268  -1.579   0.162  0.00  0.00    -0.204 OA
ATOM      2  C2  BZF d   1       3.576  -2.879  -0.192  0.00  0.00     0.174 A 
ATOM      3  C3  BZF d   1       2.477  -3.658  -0.152  0.00  0.00    -0.012 A 
ATOM      4  C3A BZF d   1       1.398  -2.773   0.162  0.00  0.00    -0.107 A 
ATOM      5  C4  BZF d   1       0.054  -2.950   0.325  0.00  0.00     0.055 A 
ATOM      6  C5  BZF d   1      -0.712  -1.893   0.701  0.00  0.00    -0.016 A 
ATOM      7  C6  BZF d   1      -0.166  -0.646   0.928  0.00  0.00     0.022 A 
ATOM      8  C7  BZF d   1       1.161  -0.420   0.775  0.00  0.00     0.029 A 
ATOM      9  C7A BZF d   1       1.932  -1.479   0.362  0.00  0.00     0.058 A 
ENDROOT
TORSDOF 0
ENDMDL
