MODEL 1
REMARK minimizedAffinity 0.404800057
REMARK minimizedRMSD -1
REMARK  0 active torsions:
REMARK  status: ('A' for Active; 'I' for Inactive)
ROOT
ATOM      1  O1  BZF d   1       0.063  -3.692   0.086  0.00  0.00    -0.204 OA
ATOM      2  C2  BZF d   1       1.417  -3.879  -0.114  0.00  0.00     0.174 A 
ATOM      3  C3  BZF d   1       2.112  -2.789   0.270  0.00  0.00    -0.012 A 
ATOM      4  C3A BZF d   1       1.140  -1.899   0.825  0.00  0.00    -0.107 A 
ATOM      5  C4  BZF d   1       1.218  -0.658   1.391  0.00  0.00     0.055 A 
ATOM      6  C5  BZF d   1       0.072  -0.031   1.767  0.00  0.00    -0.016 A 
ATOM      7  C6  BZF d   1      -1.166  -0.611   1.587  0.00  0.00     0.022 A 
ATOM      8  C7  BZF d   1      -1.293  -1.843   1.035  0.00  0.00     0.029 A 
ATOM      9  C7A BZF d   1      -0.136  -2.493   0.685  0.00  0.00     0.058 A 
ENDROOT
TORSDOF 0
ENDMDL
