MODEL 1
REMARK minimizedAffinity -3.30990148
REMARK minimizedRMSD -1
REMARK  0 active torsions:
REMARK  status: ('A' for Active; 'I' for Inactive)
ROOT
ATOM      1  O1  BZF d   1       4.038  -2.447   0.031  0.00  0.00    -0.204 OA
ATOM      2  C2  BZF d   1       4.212  -3.813  -0.085  0.00  0.00     0.174 A 
ATOM      3  C3  BZF d   1       3.029  -4.455   0.004  0.00  0.00    -0.012 A 
ATOM      4  C3A BZF d   1       2.045  -3.420   0.094  0.00  0.00    -0.107 A 
ATOM      5  C4  BZF d   1       0.683  -3.426   0.189  0.00  0.00     0.055 A 
ATOM      6  C5  BZF d   1       0.026  -2.245   0.334  0.00  0.00    -0.016 A 
ATOM      7  C6  BZF d   1       0.699  -1.042   0.393  0.00  0.00     0.022 A 
ATOM      8  C7  BZF d   1       2.050  -0.986   0.298  0.00  0.00     0.029 A 
ATOM      9  C7A BZF d   1       2.714  -2.175   0.118  0.00  0.00     0.058 A 
ENDROOT
TORSDOF 0
ENDMDL
