MODEL 1
REMARK minimizedAffinity 4.43854237
REMARK minimizedRMSD -1
REMARK  0 active torsions:
REMARK  status: ('A' for Active; 'I' for Inactive)
ROOT
ATOM      1  O1  BZF d   1       3.161  -6.000   0.418  0.00  0.00    -0.204 OA
ATOM      2  C2  BZF d   1       4.539  -5.915   0.471  0.00  0.00     0.174 A 
ATOM      3  C3  BZF d   1       4.943  -4.632   0.372  0.00  0.00    -0.012 A 
ATOM      4  C3A BZF d   1       3.740  -3.859   0.343  0.00  0.00    -0.107 A 
ATOM      5  C4  BZF d   1       3.486  -2.519   0.269  0.00  0.00     0.055 A 
ATOM      6  C5  BZF d   1       2.198  -2.095   0.187  0.00  0.00    -0.016 A 
ATOM      7  C6  BZF d   1       1.141  -2.981   0.170  0.00  0.00     0.022 A 
ATOM      8  C7  BZF d   1       1.342  -4.319   0.247  0.00  0.00     0.029 A 
ATOM      9  C7A BZF d   1       2.641  -4.750   0.364  0.00  0.00     0.058 A 
ENDROOT
TORSDOF 0
ENDMDL
