MODEL 1
REMARK minimizedAffinity 14.8327971
REMARK minimizedRMSD -1
REMARK  1 active torsions:
REMARK  status: ('A' for Active; 'I' for Inactive)
REMARK    1  A    between atoms: C1_2  and  C2_3 
ROOT
ATOM      1  C2  UNL d   1       5.985   2.212  -2.665  0.00  0.00    -0.073 A 
ATOM      2  C3  UNL d   1       5.972   1.801  -1.327  0.00  0.00    -0.002 A 
ATOM      3  C4  UNL d   1       5.965   2.746  -0.300  0.00  0.00     0.004 A 
ATOM      4  C5  UNL d   1       5.962   4.108  -0.599  0.00  0.00    -0.004 A 
ATOM      5  C6  UNL d   1       5.963   4.538  -1.930  0.00  0.00    -0.075 A 
ATOM      6  C7  UNL d   1       5.962   6.000  -2.269  0.00  0.00     0.076 C 
ATOM      7  C8  UNL d   1       5.973   3.583  -2.956  0.00  0.00     0.001 A 
ENDROOT
BRANCH   1   8
ATOM      8  C1  UNL d   1       5.986   1.195  -3.778  0.00  0.00     0.053 C 
ATOM      9  C   UNL d   1       4.652   0.476  -3.894  0.00  0.00     0.018 C 
ENDBRANCH   1   8
TORSDOF 1
ENDMDL
