MODEL 1
REMARK minimizedAffinity 3.39054203
REMARK minimizedRMSD -1
REMARK  1 active torsions:
REMARK  status: ('A' for Active; 'I' for Inactive)
REMARK    1  A    between atoms: C1_2  and  C2_3 
ROOT
ATOM      1  C2  UNL d   1       1.792   2.682   1.964  0.00  0.00    -0.073 A 
ATOM      2  C3  UNL d   1       3.011   2.133   1.552  0.00  0.00    -0.002 A 
ATOM      3  C4  UNL d   1       3.106   1.462   0.332  0.00  0.00     0.004 A 
ATOM      4  C5  UNL d   1       1.986   1.339  -0.490  0.00  0.00    -0.004 A 
ATOM      5  C6  UNL d   1       0.761   1.891  -0.101  0.00  0.00    -0.075 A 
ATOM      6  C7  UNL d   1      -0.453   1.766  -0.974  0.00  0.00     0.076 C 
ATOM      7  C8  UNL d   1       0.674   2.562   1.126  0.00  0.00     0.001 A 
ENDROOT
BRANCH   1   8
ATOM      8  C1  UNL d   1       1.686   3.414   3.277  0.00  0.00     0.053 C 
ATOM      9  C   UNL d   1       1.275   2.490   4.412  0.00  0.00     0.018 C 
ENDBRANCH   1   8
TORSDOF 1
ENDMDL
