MODEL 1
REMARK minimizedAffinity 5.44217777
REMARK minimizedRMSD -1
REMARK  1 active torsions:
REMARK  status: ('A' for Active; 'I' for Inactive)
REMARK    1  A    between atoms: C1_2  and  C2_3 
ROOT
ATOM      1  C2  UNL d   1       4.872   2.361  -1.135  0.00  0.00    -0.073 A 
ATOM      2  C3  UNL d   1       3.845   1.706  -1.824  0.00  0.00    -0.002 A 
ATOM      3  C4  UNL d   1       2.799   1.103  -1.124  0.00  0.00     0.004 A 
ATOM      4  C5  UNL d   1       2.764   1.157   0.269  0.00  0.00    -0.004 A 
ATOM      5  C6  UNL d   1       3.775   1.817   0.975  0.00  0.00    -0.075 A 
ATOM      6  C7  UNL d   1       3.754   1.882   2.474  0.00  0.00     0.076 C 
ATOM      7  C8  UNL d   1       4.823   2.417   0.265  0.00  0.00     0.001 A 
ENDROOT
BRANCH   1   8
ATOM      8  C1  UNL d   1       6.000   3.018  -1.887  0.00  0.00     0.053 C 
ATOM      9  C   UNL d   1       5.996   2.645  -3.361  0.00  0.00     0.018 C 
ENDBRANCH   1   8
TORSDOF 1
ENDMDL
