MODEL 1
REMARK minimizedAffinity 7.70849514
REMARK minimizedRMSD -1
REMARK  1 active torsions:
REMARK  status: ('A' for Active; 'I' for Inactive)
REMARK    1  A    between atoms: C1_2  and  C2_3 
ROOT
ATOM      1  C2  UNL d   1       3.044   0.479   0.016  0.00  0.00    -0.073 A 
ATOM      2  C3  UNL d   1       3.163   0.705  -1.360  0.00  0.00    -0.002 A 
ATOM      3  C4  UNL d   1       4.020   1.697  -1.839  0.00  0.00     0.004 A 
ATOM      4  C5  UNL d   1       4.771   2.466  -0.950  0.00  0.00    -0.004 A 
ATOM      5  C6  UNL d   1       4.674   2.246   0.428  0.00  0.00    -0.075 A 
ATOM      6  C7  UNL d   1       5.473   3.066   1.398  0.00  0.00     0.076 C 
ATOM      7  C8  UNL d   1       3.809   1.251   0.902  0.00  0.00     0.001 A 
ENDROOT
BRANCH   1   8
ATOM      8  C1  UNL d   1       2.124  -0.595   0.538  0.00  0.00     0.053 C 
ATOM      9  C   UNL d   1       2.627  -1.191   1.844  0.00  0.00     0.018 C 
ENDBRANCH   1   8
TORSDOF 1
ENDMDL
