MODEL 1
REMARK minimizedAffinity 7.46965742
REMARK minimizedRMSD -1
REMARK  1 active torsions:
REMARK  status: ('A' for Active; 'I' for Inactive)
REMARK    1  A    between atoms: C1_2  and  C2_3 
ROOT
ATOM      1  C2  UNL d   1       1.980   2.878   2.230  0.00  0.00    -0.073 A 
ATOM      2  C3  UNL d   1       3.202   2.378   1.766  0.00  0.00    -0.002 A 
ATOM      3  C4  UNL d   1       3.286   1.779   0.508  0.00  0.00     0.004 A 
ATOM      4  C5  UNL d   1       2.154   1.681  -0.300  0.00  0.00    -0.004 A 
ATOM      5  C6  UNL d   1       0.926   2.185   0.141  0.00  0.00    -0.075 A 
ATOM      6  C7  UNL d   1      -0.302   2.086  -0.715  0.00  0.00     0.076 C 
ATOM      7  C8  UNL d   1       0.849   2.783   1.406  0.00  0.00     0.001 A 
ENDROOT
BRANCH   1   8
ATOM      8  C1  UNL d   1       1.886   3.531   3.584  0.00  0.00     0.053 C 
ATOM      9  C   UNL d   1       1.219   2.626   4.608  0.00  0.00     0.018 C 
ENDBRANCH   1   8
TORSDOF 1
ENDMDL
