MODEL 1
REMARK minimizedAffinity 14.3497229
REMARK minimizedRMSD -1
REMARK  1 active torsions:
REMARK  status: ('A' for Active; 'I' for Inactive)
REMARK    1  A    between atoms: C1_2  and  C2_3 
ROOT
ATOM      1  C2  UNL d   1       5.413   2.625   0.583  0.00  0.00    -0.073 A 
ATOM      2  C3  UNL d   1       5.998   2.895  -0.659  0.00  0.00    -0.002 A 
ATOM      3  C4  UNL d   1       5.449   2.364  -1.827  0.00  0.00     0.004 A 
ATOM      4  C5  UNL d   1       4.307   1.565  -1.765  0.00  0.00    -0.004 A 
ATOM      5  C6  UNL d   1       3.701   1.294  -0.534  0.00  0.00    -0.075 A 
ATOM      6  C7  UNL d   1       2.474   0.435  -0.451  0.00  0.00     0.076 C 
ATOM      7  C8  UNL d   1       4.261   1.829   0.634  0.00  0.00     0.001 A 
ENDROOT
BRANCH   1   8
ATOM      8  C1  UNL d   1       5.999   3.202   1.846  0.00  0.00     0.053 C 
ATOM      9  C   UNL d   1       5.209   4.401   2.345  0.00  0.00     0.018 C 
ENDBRANCH   1   8
TORSDOF 1
ENDMDL
