MODEL 1
REMARK minimizedAffinity -0.701845169
REMARK minimizedRMSD -1
REMARK  1 active torsions:
REMARK  status: ('A' for Active; 'I' for Inactive)
REMARK    1  A    between atoms: C3_4  and  O_7 
ROOT
ATOM      1  C   UNL d   1       1.404  -1.472  -0.373  0.00  0.00    -0.033 A 
ATOM      2  C1  UNL d   1       2.728  -1.145  -0.072  0.00  0.00     0.039 A 
ATOM      3  C2  UNL d   1       3.007  -0.119   0.833  0.00  0.00    -0.080 A 
ATOM      4  C3  UNL d   1       1.955   0.571   1.429  0.00  0.00     0.150 A 
ATOM      5  C4  UNL d   1       0.634   0.248   1.137  0.00  0.00    -0.007 A 
ATOM      6  C5  UNL d   1       0.357  -0.777   0.233  0.00  0.00     0.039 A 
ENDROOT
BRANCH   4   7
ATOM      7  O   UNL d   1       2.178   1.583   2.315  0.00  0.00    -0.526 OA
ATOM      8  H5  UNL d   1       3.137   1.713   2.398  0.00  0.00     0.418 HD
ENDBRANCH   4   7
TORSDOF 1
ENDMDL
