MODEL 1
REMARK minimizedAffinity 4.8694768
REMARK minimizedRMSD -1
REMARK  1 active torsions:
REMARK  status: ('A' for Active; 'I' for Inactive)
REMARK    1  A    between atoms: C3_4  and  O_7 
ROOT
ATOM      1  C   UNL d   1       0.909   0.936   1.084  0.00  0.00    -0.033 A 
ATOM      2  C1  UNL d   1       0.660  -0.374   0.671  0.00  0.00     0.039 A 
ATOM      3  C2  UNL d   1       1.691  -1.146   0.132  0.00  0.00    -0.080 A 
ATOM      4  C3  UNL d   1       2.964  -0.596   0.011  0.00  0.00     0.150 A 
ATOM      5  C4  UNL d   1       3.220   0.707   0.424  0.00  0.00    -0.007 A 
ATOM      6  C5  UNL d   1       2.189   1.477   0.961  0.00  0.00     0.039 A 
ENDROOT
BRANCH   4   7
ATOM      7  O   UNL d   1       4.001  -1.309  -0.514  0.00  0.00    -0.526 OA
ATOM      8  H5  UNL d   1       3.670  -2.183  -0.781  0.00  0.00     0.418 HD
ENDBRANCH   4   7
TORSDOF 1
ENDMDL
