MODEL 1
REMARK minimizedAffinity -0.831477523
REMARK minimizedRMSD -1
REMARK  1 active torsions:
REMARK  status: ('A' for Active; 'I' for Inactive)
REMARK    1  A    between atoms: C3_4  and  O_7 
ROOT
ATOM      1  C   UNL d   1       1.662  -0.519  -0.025  0.00  0.00    -0.033 A 
ATOM      2  C1  UNL d   1       2.433   0.487   0.560  0.00  0.00     0.039 A 
ATOM      3  C2  UNL d   1       2.071   1.015   1.800  0.00  0.00    -0.080 A 
ATOM      4  C3  UNL d   1       0.937   0.529   2.445  0.00  0.00     0.150 A 
ATOM      5  C4  UNL d   1       0.166  -0.476   1.870  0.00  0.00    -0.007 A 
ATOM      6  C5  UNL d   1       0.529  -1.002   0.631  0.00  0.00     0.039 A 
ENDROOT
BRANCH   4   7
ATOM      7  O   UNL d   1       0.541   1.016   3.655  0.00  0.00    -0.526 OA
ATOM      8  H5  UNL d   1       1.152   1.725   3.916  0.00  0.00     0.418 HD
ENDBRANCH   4   7
TORSDOF 1
ENDMDL
