MODEL 1
REMARK minimizedAffinity -0.325422794
REMARK minimizedRMSD -1
REMARK  1 active torsions:
REMARK  status: ('A' for Active; 'I' for Inactive)
REMARK    1  A    between atoms: C3_4  and  O_7 
ROOT
ATOM      1  C   UNL d   1       2.075   1.718   2.569  0.00  0.00    -0.033 A 
ATOM      2  C1  UNL d   1       1.094   0.816   2.982  0.00  0.00     0.039 A 
ATOM      3  C2  UNL d   1       0.714  -0.236   2.147  0.00  0.00    -0.080 A 
ATOM      4  C3  UNL d   1       1.322  -0.375   0.902  0.00  0.00     0.150 A 
ATOM      5  C4  UNL d   1       2.304   0.519   0.486  0.00  0.00    -0.007 A 
ATOM      6  C5  UNL d   1       2.681   1.569   1.321  0.00  0.00     0.039 A 
ENDROOT
BRANCH   4   7
ATOM      7  O   UNL d   1       0.981  -1.383   0.050  0.00  0.00    -0.526 OA
ATOM      8  H5  UNL d   1       0.271  -1.904   0.460  0.00  0.00     0.418 HD
ENDBRANCH   4   7
TORSDOF 1
ENDMDL
