MODEL 1
REMARK minimizedAffinity 2.63746119
REMARK minimizedRMSD -1
REMARK  1 active torsions:
REMARK  status: ('A' for Active; 'I' for Inactive)
REMARK    1  A    between atoms: C3_4  and  O_7 
ROOT
ATOM      1  C   UNL d   1       0.488  -4.588  -5.357  0.00  0.00    -0.033 A 
ATOM      2  C1  UNL d   1      -0.785  -4.100  -5.054  0.00  0.00     0.039 A 
ATOM      3  C2  UNL d   1      -1.462  -4.563  -3.924  0.00  0.00    -0.080 A 
ATOM      4  C3  UNL d   1      -0.855  -5.512  -3.106  0.00  0.00     0.150 A 
ATOM      5  C4  UNL d   1       0.414  -6.000  -3.399  0.00  0.00    -0.007 A 
ATOM      6  C5  UNL d   1       1.088  -5.537  -4.529  0.00  0.00     0.039 A 
ENDROOT
BRANCH   4   7
ATOM      7  O   UNL d   1      -1.479  -5.998  -1.995  0.00  0.00    -0.526 OA
ATOM      8  H5  UNL d   1      -2.360  -5.592  -1.934  0.00  0.00     0.418 HD
ENDBRANCH   4   7
TORSDOF 1
ENDMDL
