MODEL 1
REMARK minimizedAffinity 4.60989761
REMARK minimizedRMSD -1
REMARK  1 active torsions:
REMARK  status: ('A' for Active; 'I' for Inactive)
REMARK    1  A    between atoms: C3_4  and  O_7 
ROOT
ATOM      1  C   UNL d   1      -2.129  -3.869  -5.668  0.00  0.00    -0.033 A 
ATOM      2  C1  UNL d   1      -2.178  -5.172  -5.168  0.00  0.00     0.039 A 
ATOM      3  C2  UNL d   1      -1.000  -5.903  -5.003  0.00  0.00    -0.080 A 
ATOM      4  C3  UNL d   1       0.218  -5.320  -5.340  0.00  0.00     0.150 A 
ATOM      5  C4  UNL d   1       0.275  -4.022  -5.835  0.00  0.00    -0.007 A 
ATOM      6  C5  UNL d   1      -0.902  -3.293  -6.000  0.00  0.00     0.039 A 
ENDROOT
BRANCH   4   7
ATOM      7  O   UNL d   1       1.394  -5.996  -5.200  0.00  0.00    -0.526 OA
ATOM      8  H5  UNL d   1       1.198  -6.891  -4.875  0.00  0.00     0.418 HD
ENDBRANCH   4   7
TORSDOF 1
ENDMDL
