MODEL 1
REMARK minimizedAffinity 1.62883222
REMARK minimizedRMSD -1
REMARK  1 active torsions:
REMARK  status: ('A' for Active; 'I' for Inactive)
REMARK    1  A    between atoms: C3_4  and  O_7 
ROOT
ATOM      1  C   UNL d   1      -0.626  -0.657   0.437  0.00  0.00    -0.033 A 
ATOM      2  C1  UNL d   1       0.369  -0.087   1.233  0.00  0.00     0.039 A 
ATOM      3  C2  UNL d   1       1.712  -0.213   0.871  0.00  0.00    -0.080 A 
ATOM      4  C3  UNL d   1       2.045  -0.909  -0.287  0.00  0.00     0.150 A 
ATOM      5  C4  UNL d   1       1.059  -1.476  -1.087  0.00  0.00    -0.007 A 
ATOM      6  C5  UNL d   1      -0.282  -1.351  -0.724  0.00  0.00     0.039 A 
ENDROOT
BRANCH   4   7
ATOM      7  O   UNL d   1       3.342  -1.062  -0.679  0.00  0.00    -0.526 OA
ATOM      8  H5  UNL d   1       3.915  -0.643  -0.015  0.00  0.00     0.418 HD
ENDBRANCH   4   7
TORSDOF 1
ENDMDL
