MODEL 1
REMARK minimizedAffinity 2.77897334
REMARK minimizedRMSD -1
REMARK  1 active torsions:
REMARK  status: ('A' for Active; 'I' for Inactive)
REMARK    1  A    between atoms: C3_4  and  O_7 
ROOT
ATOM      1  C   UNL d   1       2.293   1.746   2.396  0.00  0.00    -0.033 A 
ATOM      2  C1  UNL d   1       1.427   0.795   2.941  0.00  0.00     0.039 A 
ATOM      3  C2  UNL d   1       0.956  -0.256   2.151  0.00  0.00    -0.080 A 
ATOM      4  C3  UNL d   1       1.359  -0.345   0.822  0.00  0.00     0.150 A 
ATOM      5  C4  UNL d   1       2.224   0.596   0.274  0.00  0.00    -0.007 A 
ATOM      6  C5  UNL d   1       2.692   1.646   1.063  0.00  0.00     0.039 A 
ENDROOT
BRANCH   4   7
ATOM      7  O   UNL d   1       0.922  -1.350   0.011  0.00  0.00    -0.526 OA
ATOM      8  H5  UNL d   1       0.308  -1.909   0.517  0.00  0.00     0.418 HD
ENDBRANCH   4   7
TORSDOF 1
ENDMDL
