MODEL 1
REMARK minimizedAffinity 1.38405371
REMARK minimizedRMSD -1
REMARK  1 active torsions:
REMARK  status: ('A' for Active; 'I' for Inactive)
REMARK    1  A    between atoms: C3_4  and  O_7 
ROOT
ATOM      1  C   UNL d   1      -2.713  -0.149   2.273  0.00  0.00    -0.033 A 
ATOM      2  C1  UNL d   1      -3.184   1.051   1.738  0.00  0.00     0.039 A 
ATOM      3  C2  UNL d   1      -3.660   1.094   0.426  0.00  0.00    -0.080 A 
ATOM      4  C3  UNL d   1      -3.659  -0.069  -0.339  0.00  0.00     0.150 A 
ATOM      5  C4  UNL d   1      -3.195  -1.269   0.189  0.00  0.00    -0.007 A 
ATOM      6  C5  UNL d   1      -2.720  -1.310   1.499  0.00  0.00     0.039 A 
ENDROOT
BRANCH   4   7
ATOM      7  O   UNL d   1      -4.109  -0.075  -1.626  0.00  0.00    -0.526 OA
ATOM      8  H5  UNL d   1      -4.372   0.829  -1.865  0.00  0.00     0.418 HD
ENDBRANCH   4   7
TORSDOF 1
ENDMDL
