MODEL 1
REMARK minimizedAffinity 4.75089121
REMARK minimizedRMSD -1
REMARK  1 active torsions:
REMARK  status: ('A' for Active; 'I' for Inactive)
REMARK    1  A    between atoms: N_2  and  C1_3 
ROOT
ATOM      1  C1  UNL d   1      -0.322   1.460   1.620  0.00  0.00     0.143 A 
ATOM      2  C2  UNL d   1      -1.181   1.415   2.723  0.00  0.00    -0.057 A 
ATOM      3  C3  UNL d   1      -1.024   0.451   3.727  0.00  0.00     0.033 A 
ATOM      4  C4  UNL d   1      -0.019  -0.505   3.630  0.00  0.00    -0.042 A 
ATOM      5  C5  UNL d   1       0.831  -0.495   2.530  0.00  0.00     0.033 A 
ATOM      6  C6  UNL d   1       0.673   0.473   1.534  0.00  0.00    -0.057 A 
ENDROOT
BRANCH   1   7
ATOM      7  N   UNL d   1      -0.487   2.331   0.541  0.00  0.00    -0.732 N 
ATOM      8  C   UNL d   1      -0.629   1.819  -0.805  0.00  0.00     0.284 C 
ATOM      9  H3  UNL d   1      -1.109   3.106   0.758  0.00  0.00     0.395 HD
ENDBRANCH   1   7
TORSDOF 1
ENDMDL
