MODEL 1
REMARK minimizedAffinity 2.85808563
REMARK minimizedRMSD -1
REMARK  1 active torsions:
REMARK  status: ('A' for Active; 'I' for Inactive)
REMARK    1  A    between atoms: N_2  and  C1_3 
ROOT
ATOM      1  C1  UNL d   1      -2.248  -0.071  -1.961  0.00  0.00     0.143 A 
ATOM      2  C2  UNL d   1      -1.874  -0.217  -3.301  0.00  0.00    -0.057 A 
ATOM      3  C3  UNL d   1      -0.835   0.542  -3.852  0.00  0.00     0.033 A 
ATOM      4  C4  UNL d   1      -0.168   1.485  -3.077  0.00  0.00    -0.042 A 
ATOM      5  C5  UNL d   1      -0.539   1.665  -1.749  0.00  0.00     0.033 A 
ATOM      6  C6  UNL d   1      -1.574   0.899  -1.203  0.00  0.00    -0.057 A 
ENDROOT
BRANCH   1   7
ATOM      7  N   UNL d   1      -3.337  -0.726  -1.382  0.00  0.00    -0.732 N 
ATOM      8  C   UNL d   1      -4.072  -0.115  -0.295  0.00  0.00     0.284 C 
ATOM      9  H3  UNL d   1      -3.925  -1.189  -2.072  0.00  0.00     0.395 HD
ENDBRANCH   1   7
TORSDOF 1
ENDMDL
