MODEL 1
REMARK minimizedAffinity -1.42617559
REMARK minimizedRMSD -1
REMARK  1 active torsions:
REMARK  status: ('A' for Active; 'I' for Inactive)
REMARK    1  A    between atoms: N_2  and  C1_3 
ROOT
ATOM      1  C1  UNL d   1      -0.876   2.492  -0.577  0.00  0.00     0.143 A 
ATOM      2  C2  UNL d   1      -0.614   1.754   0.582  0.00  0.00    -0.057 A 
ATOM      3  C3  UNL d   1      -1.181   2.108   1.813  0.00  0.00     0.033 A 
ATOM      4  C4  UNL d   1      -2.000   3.228   1.911  0.00  0.00    -0.042 A 
ATOM      5  C5  UNL d   1      -2.254   3.992   0.777  0.00  0.00     0.033 A 
ATOM      6  C6  UNL d   1      -1.690   3.629  -0.450  0.00  0.00    -0.057 A 
ENDROOT
BRANCH   1   7
ATOM      7  N   UNL d   1      -0.264   2.249  -1.809  0.00  0.00    -0.732 N 
ATOM      8  C   UNL d   1      -0.277   3.254  -2.850  0.00  0.00     0.284 C 
ATOM      9  H3  UNL d   1       0.624   1.762  -1.712  0.00  0.00     0.395 HD
ENDBRANCH   1   7
TORSDOF 1
ENDMDL
