MODEL 1
REMARK minimizedAffinity 10.3843031
REMARK minimizedRMSD -1
REMARK  1 active torsions:
REMARK  status: ('A' for Active; 'I' for Inactive)
REMARK    1  A    between atoms: N_2  and  C1_3 
ROOT
ATOM      1  C1  UNL d   1       0.886   3.712  -0.342  0.00  0.00     0.143 A 
ATOM      2  C2  UNL d   1       0.055   3.975   0.753  0.00  0.00    -0.057 A 
ATOM      3  C3  UNL d   1      -1.049   3.163   1.038  0.00  0.00     0.033 A 
ATOM      4  C4  UNL d   1      -1.360   2.087   0.214  0.00  0.00    -0.042 A 
ATOM      5  C5  UNL d   1      -0.563   1.821  -0.893  0.00  0.00     0.033 A 
ATOM      6  C6  UNL d   1       0.542   2.631  -1.170  0.00  0.00    -0.057 A 
ENDROOT
BRANCH   1   7
ATOM      7  N   UNL d   1       1.940   4.540  -0.735  0.00  0.00    -0.732 N 
ATOM      8  C   UNL d   1       1.698   5.919  -1.099  0.00  0.00     0.284 C 
ATOM      9  H3  UNL d   1       2.775   4.399  -0.172  0.00  0.00     0.395 HD
ENDBRANCH   1   7
TORSDOF 1
ENDMDL
