MODEL 1
REMARK minimizedAffinity 5.96806192
REMARK minimizedRMSD -1
REMARK  1 active torsions:
REMARK  status: ('A' for Active; 'I' for Inactive)
REMARK    1  A    between atoms: N_2  and  C1_3 
ROOT
ATOM      1  C1  UNL d   1      -1.752   1.826  -0.716  0.00  0.00     0.143 A 
ATOM      2  C2  UNL d   1      -2.331   0.556  -0.621  0.00  0.00    -0.057 A 
ATOM      3  C3  UNL d   1      -2.004  -0.461  -1.527  0.00  0.00     0.033 A 
ATOM      4  C4  UNL d   1      -1.111  -0.215  -2.565  0.00  0.00    -0.042 A 
ATOM      5  C5  UNL d   1      -0.542   1.047  -2.694  0.00  0.00     0.033 A 
ATOM      6  C6  UNL d   1      -0.867   2.056  -1.782  0.00  0.00    -0.057 A 
ENDROOT
BRANCH   1   7
ATOM      7  N   UNL d   1      -2.109   2.906   0.094  0.00  0.00    -0.732 N 
ATOM      8  C   UNL d   1      -1.887   2.861   1.523  0.00  0.00     0.284 C 
ATOM      9  H3  UNL d   1      -1.888   3.802  -0.334  0.00  0.00     0.395 HD
ENDBRANCH   1   7
TORSDOF 1
ENDMDL
