MODEL 1
REMARK minimizedAffinity 8.51221561
REMARK minimizedRMSD -1
REMARK  1 active torsions:
REMARK  status: ('A' for Active; 'I' for Inactive)
REMARK    1  A    between atoms: N_2  and  C1_3 
ROOT
ATOM      1  C1  UNL d   1      -0.296   1.622  -1.353  0.00  0.00     0.143 A 
ATOM      2  C2  UNL d   1      -1.132   0.579  -0.941  0.00  0.00    -0.057 A 
ATOM      3  C3  UNL d   1      -1.763  -0.256  -1.872  0.00  0.00     0.033 A 
ATOM      4  C4  UNL d   1      -1.592  -0.043  -3.235  0.00  0.00    -0.042 A 
ATOM      5  C5  UNL d   1      -0.785   1.004  -3.668  0.00  0.00     0.033 A 
ATOM      6  C6  UNL d   1      -0.152   1.830  -2.734  0.00  0.00    -0.057 A 
ENDROOT
BRANCH   1   7
ATOM      7  N   UNL d   1       0.282   2.547  -0.479  0.00  0.00    -0.732 N 
ATOM      8  C   UNL d   1       0.278   2.313   0.949  0.00  0.00     0.284 C 
ATOM      9  H3  UNL d   1       1.156   2.925  -0.837  0.00  0.00     0.395 HD
ENDBRANCH   1   7
TORSDOF 1
ENDMDL
