MODEL 1
REMARK minimizedAffinity -1.90121245
REMARK minimizedRMSD -1
REMARK  1 active torsions:
REMARK  status: ('A' for Active; 'I' for Inactive)
REMARK    1  A    between atoms: N_2  and  C1_3 
ROOT
ATOM      1  C1  UNL d   1      -0.305   0.764   2.623  0.00  0.00     0.143 A 
ATOM      2  C2  UNL d   1      -1.034   1.885   2.213  0.00  0.00    -0.057 A 
ATOM      3  C3  UNL d   1      -0.823   2.469   0.958  0.00  0.00     0.033 A 
ATOM      4  C4  UNL d   1       0.144   1.957   0.099  0.00  0.00    -0.042 A 
ATOM      5  C5  UNL d   1       0.898   0.858   0.496  0.00  0.00     0.033 A 
ATOM      6  C6  UNL d   1       0.679   0.276   1.748  0.00  0.00    -0.057 A 
ENDROOT
BRANCH   1   7
ATOM      7  N   UNL d   1      -0.399   0.199   3.897  0.00  0.00    -0.732 N 
ATOM      8  C   UNL d   1       0.301  -1.028   4.213  0.00  0.00     0.284 C 
ATOM      9  H3  UNL d   1      -0.366   0.898   4.636  0.00  0.00     0.395 HD
ENDBRANCH   1   7
TORSDOF 1
ENDMDL
