MODEL 1
REMARK minimizedAffinity 0.690229952
REMARK minimizedRMSD -1
REMARK  1 active torsions:
REMARK  status: ('A' for Active; 'I' for Inactive)
REMARK    1  A    between atoms: N_2  and  C1_3 
ROOT
ATOM      1  C1  UNL d   1       0.362   1.901   0.708  0.00  0.00     0.143 A 
ATOM      2  C2  UNL d   1       1.485   2.635   1.105  0.00  0.00    -0.057 A 
ATOM      3  C3  UNL d   1       1.363   3.945   1.584  0.00  0.00     0.033 A 
ATOM      4  C4  UNL d   1       0.115   4.557   1.646  0.00  0.00    -0.042 A 
ATOM      5  C5  UNL d   1      -1.012   3.855   1.233  0.00  0.00     0.033 A 
ATOM      6  C6  UNL d   1      -0.885   2.544   0.763  0.00  0.00    -0.057 A 
ENDROOT
BRANCH   1   7
ATOM      7  N   UNL d   1       0.428   0.630   0.131  0.00  0.00    -0.732 N 
ATOM      8  C   UNL d   1       0.057   0.429  -1.254  0.00  0.00     0.284 C 
ATOM      9  H3  UNL d   1       1.257   0.116   0.418  0.00  0.00     0.395 HD
ENDBRANCH   1   7
TORSDOF 1
ENDMDL
