MODEL 1
REMARK minimizedAffinity 5.41485214
REMARK minimizedRMSD -1
REMARK  1 active torsions:
REMARK  status: ('A' for Active; 'I' for Inactive)
REMARK    1  A    between atoms: N_2  and  C1_3 
ROOT
ATOM      1  C1  UNL d   1      -0.949  -0.035  -2.447  0.00  0.00     0.143 A 
ATOM      2  C2  UNL d   1      -0.023   0.978  -2.176  0.00  0.00    -0.057 A 
ATOM      3  C3  UNL d   1      -0.097   1.734  -1.000  0.00  0.00     0.033 A 
ATOM      4  C4  UNL d   1      -1.121   1.509  -0.085  0.00  0.00    -0.042 A 
ATOM      5  C5  UNL d   1      -2.067   0.525  -0.346  0.00  0.00     0.033 A 
ATOM      6  C6  UNL d   1      -1.983  -0.232  -1.519  0.00  0.00    -0.057 A 
ENDROOT
BRANCH   1   7
ATOM      7  N   UNL d   1      -0.986  -0.755  -3.644  0.00  0.00    -0.732 N 
ATOM      8  C   UNL d   1      -1.314  -0.097  -4.890  0.00  0.00     0.284 C 
ATOM      9  H3  UNL d   1      -0.226  -1.427  -3.716  0.00  0.00     0.395 HD
ENDBRANCH   1   7
TORSDOF 1
ENDMDL
