MODEL 1
REMARK minimizedAffinity -2.31716776
REMARK minimizedRMSD -1
REMARK  1 active torsions:
REMARK  status: ('A' for Active; 'I' for Inactive)
REMARK    1  A    between atoms: C1_2  and  C2_3 
ROOT
ATOM      1  C2  UNL d   1      -0.111  -0.278  -0.459  0.00  0.00    -0.076 A 
ATOM      2  C3  UNL d   1      -1.233   0.162   0.265  0.00  0.00     0.004 A 
ATOM      3  C4  UNL d   1      -1.106   1.113   1.276  0.00  0.00    -0.003 A 
ATOM      4  C5  UNL d   1       0.145   1.639   1.581  0.00  0.00     0.000 A 
ATOM      5  C6  UNL d   1       1.266   1.226   0.861  0.00  0.00     0.000 A 
ATOM      6  C7  UNL d   1       1.153   0.281  -0.173  0.00  0.00    -0.073 A 
ATOM      7  C8  UNL d   1       2.396  -0.132  -0.912  0.00  0.00     0.078 C 
ENDROOT
BRANCH   1   8
ATOM      8  C1  UNL d   1      -0.305  -1.331  -1.526  0.00  0.00     0.053 C 
ATOM      9  C   UNL d   1      -1.773  -1.607  -1.813  0.00  0.00     0.018 C 
ENDBRANCH   1   8
TORSDOF 1
ENDMDL
