MODEL 1
REMARK minimizedAffinity -4.87860537
REMARK minimizedRMSD -1
REMARK  1 active torsions:
REMARK  status: ('A' for Active; 'I' for Inactive)
REMARK    1  A    between atoms: C1_2  and  C2_3 
ROOT
ATOM      1  C2  UNL d   1      -0.075   0.151  -0.093  0.00  0.00    -0.076 A 
ATOM      2  C3  UNL d   1       0.860   0.943  -0.782  0.00  0.00     0.004 A 
ATOM      3  C4  UNL d   1       1.242   2.191  -0.293  0.00  0.00    -0.003 A 
ATOM      4  C5  UNL d   1       0.694   2.668   0.893  0.00  0.00     0.000 A 
ATOM      5  C6  UNL d   1      -0.222   1.889   1.598  0.00  0.00     0.000 A 
ATOM      6  C7  UNL d   1      -0.605   0.621   1.128  0.00  0.00    -0.073 A 
ATOM      7  C8  UNL d   1      -1.601  -0.174   1.926  0.00  0.00     0.078 C 
ENDROOT
BRANCH   1   8
ATOM      8  C1  UNL d   1      -0.471  -1.183  -0.685  0.00  0.00     0.053 C 
ATOM      9  C   UNL d   1      -1.358  -1.036  -1.911  0.00  0.00     0.018 C 
ENDBRANCH   1   8
TORSDOF 1
ENDMDL
