MODEL 1
REMARK minimizedAffinity -3.3378706
REMARK minimizedRMSD -1
REMARK  1 active torsions:
REMARK  status: ('A' for Active; 'I' for Inactive)
REMARK    1  A    between atoms: C1_2  and  C2_3 
ROOT
ATOM      1  C2  UNL d   1      -0.101  -0.076  -0.572  0.00  0.00    -0.076 A 
ATOM      2  C3  UNL d   1      -1.244   0.485   0.024  0.00  0.00     0.004 A 
ATOM      3  C4  UNL d   1      -1.133   1.380   1.087  0.00  0.00    -0.003 A 
ATOM      4  C5  UNL d   1       0.123   1.730   1.571  0.00  0.00     0.000 A 
ATOM      5  C6  UNL d   1       1.268   1.197   0.980  0.00  0.00     0.000 A 
ATOM      6  C7  UNL d   1       1.174   0.306  -0.103  0.00  0.00    -0.073 A 
ATOM      7  C8  UNL d   1       2.442  -0.243  -0.698  0.00  0.00     0.078 C 
ENDROOT
BRANCH   1   8
ATOM      8  C1  UNL d   1      -0.284  -1.062  -1.703  0.00  0.00     0.053 C 
ATOM      9  C   UNL d   1      -1.727  -1.146  -2.175  0.00  0.00     0.018 C 
ENDBRANCH   1   8
TORSDOF 1
ENDMDL
