MODEL 1
REMARK minimizedAffinity -2.8431251
REMARK minimizedRMSD -1
REMARK  1 active torsions:
REMARK  status: ('A' for Active; 'I' for Inactive)
REMARK    1  A    between atoms: C1_2  and  C2_3 
ROOT
ATOM      1  C2  UNL d   1       1.015   0.900  -0.141  0.00  0.00    -0.076 A 
ATOM      2  C3  UNL d   1       0.393  -0.317  -0.470  0.00  0.00     0.004 A 
ATOM      3  C4  UNL d   1      -0.802  -0.699   0.138  0.00  0.00    -0.003 A 
ATOM      4  C5  UNL d   1      -1.395   0.131   1.083  0.00  0.00     0.000 A 
ATOM      5  C6  UNL d   1      -0.801   1.350   1.408  0.00  0.00     0.000 A 
ATOM      6  C7  UNL d   1       0.396   1.757   0.793  0.00  0.00    -0.073 A 
ATOM      7  C8  UNL d   1       0.996   3.079   1.186  0.00  0.00     0.078 C 
ENDROOT
BRANCH   1   8
ATOM      8  C1  UNL d   1       2.324   1.248  -0.813  0.00  0.00     0.053 C 
ATOM      9  C   UNL d   1       3.219   0.034  -1.010  0.00  0.00     0.018 C 
ENDBRANCH   1   8
TORSDOF 1
ENDMDL
