MODEL 1
REMARK minimizedAffinity -6.25312948
REMARK minimizedRMSD -1
REMARK  1 active torsions:
REMARK  status: ('A' for Active; 'I' for Inactive)
REMARK    1  A    between atoms: C1_2  and  C2_3 
ROOT
ATOM      1  C2  UNL d   1       0.231  -0.272   0.037  0.00  0.00    -0.076 A 
ATOM      2  C3  UNL d   1      -0.873   0.052   0.846  0.00  0.00     0.004 A 
ATOM      3  C4  UNL d   1      -0.860   1.185   1.657  0.00  0.00    -0.003 A 
ATOM      4  C5  UNL d   1       0.257   2.014   1.672  0.00  0.00     0.000 A 
ATOM      5  C6  UNL d   1       1.354   1.717   0.864  0.00  0.00     0.000 A 
ATOM      6  C7  UNL d   1       1.350   0.587   0.028  0.00  0.00    -0.073 A 
ATOM      7  C8  UNL d   1       2.562   0.312  -0.819  0.00  0.00     0.078 C 
ENDROOT
BRANCH   1   8
ATOM      8  C1  UNL d   1       0.170  -1.529  -0.801  0.00  0.00     0.053 C 
ATOM      9  C   UNL d   1      -1.248  -1.877  -1.228  0.00  0.00     0.018 C 
ENDBRANCH   1   8
TORSDOF 1
ENDMDL
