MODEL 1
REMARK minimizedAffinity -5.70499897
REMARK minimizedRMSD -1
REMARK  1 active torsions:
REMARK  status: ('A' for Active; 'I' for Inactive)
REMARK    1  A    between atoms: C1_2  and  C2_3 
ROOT
ATOM      1  C2  UNL d   1      -0.426   0.177   0.105  0.00  0.00    -0.076 A 
ATOM      2  C3  UNL d   1      -1.431   0.542   1.017  0.00  0.00     0.004 A 
ATOM      3  C4  UNL d   1      -1.233   1.583   1.923  0.00  0.00    -0.003 A 
ATOM      4  C5  UNL d   1      -0.027   2.276   1.931  0.00  0.00     0.000 A 
ATOM      5  C6  UNL d   1       0.974   1.938   1.020  0.00  0.00     0.000 A 
ATOM      6  C7  UNL d   1       0.784   0.902   0.090  0.00  0.00    -0.073 A 
ATOM      7  C8  UNL d   1       1.900   0.577  -0.865  0.00  0.00     0.078 C 
ENDROOT
BRANCH   1   8
ATOM      8  C1  UNL d   1      -0.687  -0.978  -0.836  0.00  0.00     0.053 C 
ATOM      9  C   UNL d   1      -1.428  -0.549  -2.093  0.00  0.00     0.018 C 
ENDBRANCH   1   8
TORSDOF 1
ENDMDL
