MODEL 1
REMARK minimizedAffinity -2.66098022
REMARK minimizedRMSD -1
REMARK  1 active torsions:
REMARK  status: ('A' for Active; 'I' for Inactive)
REMARK    1  A    between atoms: C1_2  and  C2_3 
ROOT
ATOM      1  C2  UNL d   1       0.890   0.864   0.210  0.00  0.00    -0.076 A 
ATOM      2  C3  UNL d   1      -0.005  -0.219   0.163  0.00  0.00     0.004 A 
ATOM      3  C4  UNL d   1      -1.056  -0.322   1.071  0.00  0.00    -0.003 A 
ATOM      4  C5  UNL d   1      -1.231   0.658   2.043  0.00  0.00     0.000 A 
ATOM      5  C6  UNL d   1      -0.364   1.749   2.093  0.00  0.00     0.000 A 
ATOM      6  C7  UNL d   1       0.691   1.876   1.174  0.00  0.00    -0.073 A 
ATOM      7  C8  UNL d   1       1.600   3.070   1.279  0.00  0.00     0.078 C 
ENDROOT
BRANCH   1   8
ATOM      8  C1  UNL d   1       2.028   0.908  -0.784  0.00  0.00     0.053 C 
ATOM      9  C   UNL d   1       2.865  -0.362  -0.768  0.00  0.00     0.018 C 
ENDBRANCH   1   8
TORSDOF 1
ENDMDL
