MODEL 1
REMARK minimizedAffinity -3.70319033
REMARK minimizedRMSD -1
REMARK  1 active torsions:
REMARK  status: ('A' for Active; 'I' for Inactive)
REMARK    1  A    between atoms: C1_2  and  C2_3 
ROOT
ATOM      1  C2  UNL d   1      -0.019  -0.063  -0.155  0.00  0.00    -0.076 A 
ATOM      2  C3  UNL d   1      -1.049  -0.182   0.793  0.00  0.00     0.004 A 
ATOM      3  C4  UNL d   1      -1.117   0.674   1.891  0.00  0.00    -0.003 A 
ATOM      4  C5  UNL d   1      -0.155   1.664   2.058  0.00  0.00     0.000 A 
ATOM      5  C6  UNL d   1       0.864   1.808   1.117  0.00  0.00     0.000 A 
ATOM      6  C7  UNL d   1       0.938   0.964  -0.004  0.00  0.00    -0.073 A 
ATOM      7  C8  UNL d   1       2.062   1.161  -0.983  0.00  0.00     0.078 C 
ENDROOT
BRANCH   1   8
ATOM      8  C1  UNL d   1       0.019  -1.037  -1.311  0.00  0.00     0.053 C 
ATOM      9  C   UNL d   1      -1.313  -1.128  -2.040  0.00  0.00     0.018 C 
ENDBRANCH   1   8
TORSDOF 1
ENDMDL
