MODEL 1
REMARK minimizedAffinity -2.69721103
REMARK minimizedRMSD -1
REMARK  1 active torsions:
REMARK  status: ('A' for Active; 'I' for Inactive)
REMARK    1  A    between atoms: C1_2  and  C2_3 
ROOT
ATOM      1  C2  UNL d   1      -0.232  -1.069  -0.698  0.00  0.00    -0.076 A 
ATOM      2  C3  UNL d   1       1.093  -1.466  -0.948  0.00  0.00     0.004 A 
ATOM      3  C4  UNL d   1       2.164  -0.632  -0.628  0.00  0.00    -0.003 A 
ATOM      4  C5  UNL d   1       1.927   0.611  -0.053  0.00  0.00     0.000 A 
ATOM      5  C6  UNL d   1       0.619   1.013   0.218  0.00  0.00     0.000 A 
ATOM      6  C7  UNL d   1      -0.471   0.179  -0.083  0.00  0.00    -0.073 A 
ATOM      7  C8  UNL d   1      -1.860   0.666   0.226  0.00  0.00     0.078 C 
ENDROOT
BRANCH   1   8
ATOM      8  C1  UNL d   1      -1.354  -2.003  -1.091  0.00  0.00     0.053 C 
ATOM      9  C   UNL d   1      -1.900  -1.707  -2.479  0.00  0.00     0.018 C 
ENDBRANCH   1   8
TORSDOF 1
ENDMDL
