MODEL 1
REMARK minimizedAffinity -5.30603838
REMARK minimizedRMSD -1
REMARK  1 active torsions:
REMARK  status: ('A' for Active; 'I' for Inactive)
REMARK    1  A    between atoms: C1_2  and  C2_3 
ROOT
ATOM      1  C2  UNL d   1      -0.279   0.150   0.187  0.00  0.00    -0.076 A 
ATOM      2  C3  UNL d   1       0.800   0.729  -0.505  0.00  0.00     0.004 A 
ATOM      3  C4  UNL d   1       1.334   1.953  -0.107  0.00  0.00    -0.003 A 
ATOM      4  C5  UNL d   1       0.799   2.618   0.991  0.00  0.00     0.000 A 
ATOM      5  C6  UNL d   1      -0.259   2.051   1.699  0.00  0.00     0.000 A 
ATOM      6  C7  UNL d   1      -0.799   0.810   1.321  0.00  0.00    -0.073 A 
ATOM      7  C8  UNL d   1      -1.944   0.247   2.118  0.00  0.00     0.078 C 
ENDROOT
BRANCH   1   8
ATOM      8  C1  UNL d   1      -0.834  -1.166  -0.308  0.00  0.00     0.053 C 
ATOM      9  C   UNL d   1      -1.282  -1.101  -1.760  0.00  0.00     0.018 C 
ENDBRANCH   1   8
TORSDOF 1
ENDMDL
