MODEL 1
REMARK minimizedAffinity -5.55917978
REMARK minimizedRMSD -1
REMARK  1 active torsions:
REMARK  status: ('A' for Active; 'I' for Inactive)
REMARK    1  A    between atoms: C1_2  and  C2_3 
ROOT
ATOM      1  C2  UNL d   1      -0.324  -0.201  -0.011  0.00  0.00    -0.076 A 
ATOM      2  C3  UNL d   1      -1.320   0.369   0.801  0.00  0.00     0.004 A 
ATOM      3  C4  UNL d   1      -1.041   1.467   1.613  0.00  0.00    -0.003 A 
ATOM      4  C5  UNL d   1       0.237   2.014   1.626  0.00  0.00     0.000 A 
ATOM      5  C6  UNL d   1       1.233   1.472   0.813  0.00  0.00     0.000 A 
ATOM      6  C7  UNL d   1       0.964   0.375  -0.024  0.00  0.00    -0.073 A 
ATOM      7  C8  UNL d   1       2.077  -0.172  -0.875  0.00  0.00     0.078 C 
ENDROOT
BRANCH   1   8
ATOM      8  C1  UNL d   1      -0.677  -1.408  -0.851  0.00  0.00     0.053 C 
ATOM      9  C   UNL d   1      -1.383  -1.031  -2.145  0.00  0.00     0.018 C 
ENDBRANCH   1   8
TORSDOF 1
ENDMDL
