MODEL 1
REMARK minimizedAffinity -4.80700397
REMARK minimizedRMSD -1
REMARK  1 active torsions:
REMARK  status: ('A' for Active; 'I' for Inactive)
REMARK    1  A    between atoms: C1_2  and  C2_3 
ROOT
ATOM      1  C2  UNL d   1       0.038   0.149   0.211  0.00  0.00    -0.076 A 
ATOM      2  C3  UNL d   1      -0.928   0.821   0.981  0.00  0.00     0.004 A 
ATOM      3  C4  UNL d   1      -0.677   2.091   1.497  0.00  0.00    -0.003 A 
ATOM      4  C5  UNL d   1       0.544   2.710   1.252  0.00  0.00     0.000 A 
ATOM      5  C6  UNL d   1       1.507   2.065   0.476  0.00  0.00     0.000 A 
ATOM      6  C7  UNL d   1       1.263   0.791  -0.065  0.00  0.00    -0.073 A 
ATOM      7  C8  UNL d   1       2.340   0.140  -0.890  0.00  0.00     0.078 C 
ENDROOT
BRANCH   1   8
ATOM      8  C1  UNL d   1      -0.280  -1.239  -0.299  0.00  0.00     0.053 C 
ATOM      9  C   UNL d   1      -1.087  -1.214  -1.589  0.00  0.00     0.018 C 
ENDBRANCH   1   8
TORSDOF 1
ENDMDL
