MODEL 1
REMARK minimizedAffinity -6.40020037
REMARK minimizedRMSD -1
REMARK  1 active torsions:
REMARK  status: ('A' for Active; 'I' for Inactive)
REMARK    1  A    between atoms: C1_2  and  C2_3 
ROOT
ATOM      1  C2  UNL d   1       1.194   0.778   0.253  0.00  0.00    -0.076 A 
ATOM      2  C3  UNL d   1       0.304   1.656   0.897  0.00  0.00     0.004 A 
ATOM      3  C4  UNL d   1       0.760   2.829   1.496  0.00  0.00    -0.003 A 
ATOM      4  C5  UNL d   1       2.114   3.144   1.461  0.00  0.00     0.000 A 
ATOM      5  C6  UNL d   1       3.009   2.294   0.812  0.00  0.00     0.000 A 
ATOM      6  C7  UNL d   1       2.563   1.115   0.188  0.00  0.00    -0.073 A 
ATOM      7  C8  UNL d   1       3.573   0.232  -0.492  0.00  0.00     0.078 C 
ENDROOT
BRANCH   1   8
ATOM      8  C1  UNL d   1       0.645  -0.492  -0.355  0.00  0.00     0.053 C 
ATOM      9  C   UNL d   1      -0.532  -1.052   0.427  0.00  0.00     0.018 C 
ENDBRANCH   1   8
TORSDOF 1
ENDMDL
