MODEL 1
REMARK minimizedAffinity -3.81100845
REMARK minimizedRMSD -1
REMARK  1 active torsions:
REMARK  status: ('A' for Active; 'I' for Inactive)
REMARK    1  A    between atoms: C1_2  and  C2_3 
ROOT
ATOM      1  C2  UNL d   1       0.217   0.235   0.127  0.00  0.00    -0.076 A 
ATOM      2  C3  UNL d   1       1.174   1.156  -0.334  0.00  0.00     0.004 A 
ATOM      3  C4  UNL d   1       1.461   2.314   0.387  0.00  0.00    -0.003 A 
ATOM      4  C5  UNL d   1       0.796   2.569   1.582  0.00  0.00     0.000 A 
ATOM      5  C6  UNL d   1      -0.143   1.658   2.063  0.00  0.00     0.000 A 
ATOM      6  C7  UNL d   1      -0.432   0.478   1.356  0.00  0.00    -0.073 A 
ATOM      7  C8  UNL d   1      -1.459  -0.467   1.918  0.00  0.00     0.078 C 
ENDROOT
BRANCH   1   8
ATOM      8  C1  UNL d   1      -0.072  -0.989  -0.712  0.00  0.00     0.053 C 
ATOM      9  C   UNL d   1      -1.089  -0.717  -1.809  0.00  0.00     0.018 C 
ENDBRANCH   1   8
TORSDOF 1
ENDMDL
