MODEL 1
REMARK minimizedAffinity -3.94280076
REMARK minimizedRMSD -1
REMARK  1 active torsions:
REMARK  status: ('A' for Active; 'I' for Inactive)
REMARK    1  A    between atoms: C1_2  and  C2_3 
ROOT
ATOM      1  C2  UNL d   1       0.092   0.252   0.320  0.00  0.00    -0.076 A 
ATOM      2  C3  UNL d   1      -0.599   1.361   0.839  0.00  0.00     0.004 A 
ATOM      3  C4  UNL d   1       0.073   2.540   1.156  0.00  0.00    -0.003 A 
ATOM      4  C5  UNL d   1       1.446   2.630   0.959  0.00  0.00     0.000 A 
ATOM      5  C6  UNL d   1       2.145   1.546   0.429  0.00  0.00     0.000 A 
ATOM      6  C7  UNL d   1       1.480   0.355   0.089  0.00  0.00    -0.073 A 
ATOM      7  C8  UNL d   1       2.284  -0.785  -0.473  0.00  0.00     0.078 C 
ENDROOT
BRANCH   1   8
ATOM      8  C1  UNL d   1      -0.685  -1.010   0.021  0.00  0.00     0.053 C 
ATOM      9  C   UNL d   1      -1.313  -0.992  -1.364  0.00  0.00     0.018 C 
ENDBRANCH   1   8
TORSDOF 1
ENDMDL
