MODEL 1
REMARK minimizedAffinity -4.38833094
REMARK minimizedRMSD -1
REMARK  3 active torsions:
REMARK  status: ('A' for Active; 'I' for Inactive)
REMARK    1  A    between atoms: C3'_2  and  C2'_3 
REMARK    2  A    between atoms: C2'_3  and  C1'_4 
REMARK    3  A    between atoms: C1'_4  and  C1_5 
ROOT
ATOM      1  C1  N4B d   1      -3.959  -5.754  -0.161  0.00  0.00    -0.075 A 
ATOM      2  C2  N4B d   1      -5.183  -5.890   0.530  0.00  0.00     0.002 A 
ATOM      3  C3  N4B d   1      -5.224  -5.735   1.894  0.00  0.00     0.002 A 
ATOM      4  C4  N4B d   1      -4.054  -5.463   2.588  0.00  0.00    -0.004 A 
ATOM      5  C5  N4B d   1      -2.880  -5.307   1.911  0.00  0.00     0.002 A 
ATOM      6  C6  N4B d   1      -2.826  -5.457   0.539  0.00  0.00     0.002 A 
ENDROOT
BRANCH   1   7
ATOM      7  C1' N4B d   1      -3.850  -5.999  -1.641  0.00  0.00     0.057 C 
BRANCH   7   8
ATOM      8  C2' N4B d   1      -5.248  -6.000  -2.252  0.00  0.00     0.009 C 
BRANCH   8   9
ATOM      9  C3' N4B d   1      -5.204  -5.932  -3.769  0.00  0.00     0.004 C 
ATOM     10  C4' N4B d   1      -3.819  -5.720  -4.302  0.00  0.00     0.003 C 
ENDBRANCH   8   9
ENDBRANCH   7   8
ENDBRANCH   1   7
TORSDOF 3
ENDMDL
