MODEL 1
REMARK minimizedAffinity 0.659636199
REMARK minimizedRMSD -1
REMARK  3 active torsions:
REMARK  status: ('A' for Active; 'I' for Inactive)
REMARK    1  A    between atoms: C3'_2  and  C2'_3 
REMARK    2  A    between atoms: C2'_3  and  C1'_4 
REMARK    3  A    between atoms: C1'_4  and  C1_5 
ROOT
ATOM      1  C1  N4B d   1      -2.042  -5.447  -3.467  0.00  0.00    -0.075 A 
ATOM      2  C2  N4B d   1      -2.839  -5.875  -4.551  0.00  0.00     0.002 A 
ATOM      3  C3  N4B d   1      -2.289  -5.991  -5.804  0.00  0.00     0.002 A 
ATOM      4  C4  N4B d   1      -0.955  -5.667  -6.000  0.00  0.00    -0.004 A 
ATOM      5  C5  N4B d   1      -0.185  -5.279  -4.942  0.00  0.00     0.002 A 
ATOM      6  C6  N4B d   1      -0.724  -5.162  -3.677  0.00  0.00     0.002 A 
ENDROOT
BRANCH   1   7
ATOM      7  C1' N4B d   1      -2.620  -5.223  -2.096  0.00  0.00     0.057 C 
BRANCH   7   8
ATOM      8  C2' N4B d   1      -1.593  -4.495  -1.233  0.00  0.00     0.009 C 
BRANCH   8   9
ATOM      9  C3' N4B d   1      -2.163  -4.105   0.120  0.00  0.00     0.004 C 
ATOM     10  C4' N4B d   1      -2.105  -2.627   0.370  0.00  0.00     0.003 C 
ENDBRANCH   8   9
ENDBRANCH   7   8
ENDBRANCH   1   7
TORSDOF 3
ENDMDL
