MODEL 1
REMARK minimizedAffinity 3.27430439
REMARK minimizedRMSD -1
REMARK  3 active torsions:
REMARK  status: ('A' for Active; 'I' for Inactive)
REMARK    1  A    between atoms: C3'_2  and  C2'_3 
REMARK    2  A    between atoms: C2'_3  and  C1'_4 
REMARK    3  A    between atoms: C1'_4  and  C1_5 
ROOT
ATOM      1  C1  N4B d   1      -2.483   2.554  -3.858  0.00  0.00    -0.075 A 
ATOM      2  C2  N4B d   1      -2.279   3.774  -4.539  0.00  0.00     0.002 A 
ATOM      3  C3  N4B d   1      -1.049   4.384  -4.501  0.00  0.00     0.002 A 
ATOM      4  C4  N4B d   1      -0.018   3.804  -3.777  0.00  0.00    -0.004 A 
ATOM      5  C5  N4B d   1      -0.216   2.613  -3.143  0.00  0.00     0.002 A 
ATOM      6  C6  N4B d   1      -1.446   1.987  -3.176  0.00  0.00     0.002 A 
ENDROOT
BRANCH   1   7
ATOM      7  C1' N4B d   1      -3.833   1.894  -3.800  0.00  0.00     0.057 C 
BRANCH   7   8
ATOM      8  C2' N4B d   1      -3.786   0.744  -2.798  0.00  0.00     0.009 C 
BRANCH   8   9
ATOM      9  C3' N4B d   1      -5.171   0.363  -2.304  0.00  0.00     0.004 C 
ATOM     10  C4' N4B d   1      -5.288   0.410  -0.810  0.00  0.00     0.003 C 
ENDBRANCH   8   9
ENDBRANCH   7   8
ENDBRANCH   1   7
TORSDOF 3
ENDMDL
