MODEL 1
REMARK minimizedAffinity 0.154548794
REMARK minimizedRMSD -1
REMARK  3 active torsions:
REMARK  status: ('A' for Active; 'I' for Inactive)
REMARK    1  A    between atoms: C3'_2  and  C2'_3 
REMARK    2  A    between atoms: C2'_3  and  C1'_4 
REMARK    3  A    between atoms: C1'_4  and  C1_5 
ROOT
ATOM      1  C1  N4B d   1       1.549  -0.729   0.876  0.00  0.00    -0.075 A 
ATOM      2  C2  N4B d   1       2.894  -0.902   0.479  0.00  0.00     0.002 A 
ATOM      3  C3  N4B d   1       3.860  -1.157   1.421  0.00  0.00     0.002 A 
ATOM      4  C4  N4B d   1       3.510  -1.225   2.761  0.00  0.00    -0.004 A 
ATOM      5  C5  N4B d   1       2.205  -1.082   3.133  0.00  0.00     0.002 A 
ATOM      6  C6  N4B d   1       1.223  -0.829   2.197  0.00  0.00     0.002 A 
ENDROOT
BRANCH   1   7
ATOM      7  C1' N4B d   1       0.472  -0.362  -0.108  0.00  0.00     0.057 C 
BRANCH   7   8
ATOM      8  C2' N4B d   1       0.022   1.072   0.152  0.00  0.00     0.009 C 
BRANCH   8   9
ATOM      9  C3' N4B d   1       1.030   2.086  -0.363  0.00  0.00     0.004 C 
ATOM     10  C4' N4B d   1       0.581   3.503  -0.163  0.00  0.00     0.003 C 
ENDBRANCH   8   9
ENDBRANCH   7   8
ENDBRANCH   1   7
TORSDOF 3
ENDMDL
