MODEL 1
REMARK minimizedAffinity -0.471137643
REMARK minimizedRMSD -1
REMARK  3 active torsions:
REMARK  status: ('A' for Active; 'I' for Inactive)
REMARK    1  A    between atoms: C3'_2  and  C2'_3 
REMARK    2  A    between atoms: C2'_3  and  C1'_4 
REMARK    3  A    between atoms: C1'_4  and  C1_5 
ROOT
ATOM      1  C1  N4B d   1      -0.746   2.125  -2.945  0.00  0.00    -0.075 A 
ATOM      2  C2  N4B d   1      -0.046   3.279  -3.363  0.00  0.00     0.002 A 
ATOM      3  C3  N4B d   1      -0.677   4.222  -4.137  0.00  0.00     0.002 A 
ATOM      4  C4  N4B d   1      -1.996   4.025  -4.518  0.00  0.00    -0.004 A 
ATOM      5  C5  N4B d   1      -2.673   2.921  -4.089  0.00  0.00     0.002 A 
ATOM      6  C6  N4B d   1      -2.052   1.967  -3.308  0.00  0.00     0.002 A 
ENDROOT
BRANCH   1   7
ATOM      7  C1' N4B d   1      -0.073   1.025  -2.171  0.00  0.00     0.057 C 
BRANCH   7   8
ATOM      8  C2' N4B d   1      -0.224   1.300  -0.677  0.00  0.00     0.009 C 
BRANCH   8   9
ATOM      9  C3' N4B d   1      -0.039   0.041   0.153  0.00  0.00     0.004 C 
ATOM     10  C4' N4B d   1       1.166  -0.752  -0.254  0.00  0.00     0.003 C 
ENDBRANCH   8   9
ENDBRANCH   7   8
ENDBRANCH   1   7
TORSDOF 3
ENDMDL
