MODEL 1
REMARK minimizedAffinity 3.3553133
REMARK minimizedRMSD -1
REMARK  3 active torsions:
REMARK  status: ('A' for Active; 'I' for Inactive)
REMARK    1  A    between atoms: C3'_2  and  C2'_3 
REMARK    2  A    between atoms: C2'_3  and  C1'_4 
REMARK    3  A    between atoms: C1'_4  and  C1_5 
ROOT
ATOM      1  C1  N4B d   1       2.844  -1.003   1.353  0.00  0.00    -0.075 A 
ATOM      2  C2  N4B d   1       4.181  -0.579   1.186  0.00  0.00     0.002 A 
ATOM      3  C3  N4B d   1       5.039  -0.576   2.258  0.00  0.00     0.002 A 
ATOM      4  C4  N4B d   1       4.580  -0.972   3.505  0.00  0.00    -0.004 A 
ATOM      5  C5  N4B d   1       3.295  -1.405   3.653  0.00  0.00     0.002 A 
ATOM      6  C6  N4B d   1       2.422  -1.417   2.583  0.00  0.00     0.002 A 
ENDROOT
BRANCH   1   7
ATOM      7  C1' N4B d   1       1.845  -0.943   0.229  0.00  0.00     0.057 C 
BRANCH   7   8
ATOM      8  C2' N4B d   1       0.470  -0.607   0.799  0.00  0.00     0.009 C 
BRANCH   8   9
ATOM      9  C3' N4B d   1      -0.525  -1.734   0.583  0.00  0.00     0.004 C 
ATOM     10  C4' N4B d   1       0.091  -2.935  -0.071  0.00  0.00     0.003 C 
ENDBRANCH   8   9
ENDBRANCH   7   8
ENDBRANCH   1   7
TORSDOF 3
ENDMDL
