MODEL 1
REMARK minimizedAffinity 0.611373246
REMARK minimizedRMSD -1
REMARK  0 active torsions:
REMARK  status: ('A' for Active; 'I' for Inactive)
ROOT
ATOM      1  C2' OXE d   1       2.663  -2.917   3.096  0.00  0.00     0.078 C 
ATOM      2  C1' OXE d   1       2.639  -1.097   5.234  0.00  0.00     0.078 C 
ATOM      3  C1  OXE d   1       3.836  -2.005   5.096  0.00  0.00    -0.078 A 
ATOM      4  C2  OXE d   1       3.818  -2.924   4.075  0.00  0.00    -0.078 A 
ATOM      5  C3  OXE d   1       4.921  -3.748   3.870  0.00  0.00     0.003 A 
ATOM      6  C4  OXE d   1       5.980  -3.755   4.785  0.00  0.00    -0.002 A 
ATOM      7  C5  OXE d   1       6.000  -2.855   5.855  0.00  0.00    -0.002 A 
ATOM      8  C6  OXE d   1       4.958  -1.945   6.000  0.00  0.00     0.003 A 
ENDROOT
TORSDOF 0
ENDMDL
