MODEL 1
REMARK minimizedAffinity -0.544890463
REMARK minimizedRMSD -1
REMARK  0 active torsions:
REMARK  status: ('A' for Active; 'I' for Inactive)
ROOT
ATOM      1  C2' OXE d   1       2.477   5.999  -3.175  0.00  0.00     0.078 C 
ATOM      2  C1' OXE d   1       4.696   5.216  -1.644  0.00  0.00     0.078 C 
ATOM      3  C1  OXE d   1       4.799   5.098  -3.144  0.00  0.00    -0.078 A 
ATOM      4  C2  OXE d   1       3.692   5.439  -3.883  0.00  0.00    -0.078 A 
ATOM      5  C3  OXE d   1       3.752   5.400  -5.273  0.00  0.00     0.003 A 
ATOM      6  C4  OXE d   1       4.876   4.871  -5.919  0.00  0.00    -0.002 A 
ATOM      7  C5  OXE d   1       6.000   4.480  -5.183  0.00  0.00    -0.002 A 
ATOM      8  C6  OXE d   1       5.994   4.627  -3.800  0.00  0.00     0.003 A 
ENDROOT
TORSDOF 0
ENDMDL
