MODEL 1
REMARK minimizedAffinity 4.57965803
REMARK minimizedRMSD -1
REMARK  0 active torsions:
REMARK  status: ('A' for Active; 'I' for Inactive)
ROOT
ATOM      1  C2' OXE d   1      -0.310  -4.112  -4.394  0.00  0.00     0.078 C 
ATOM      2  C1' OXE d   1      -0.065  -5.944  -2.281  0.00  0.00     0.078 C 
ATOM      3  C1  OXE d   1      -0.260  -4.489  -1.932  0.00  0.00    -0.078 A 
ATOM      4  C2  OXE d   1      -0.332  -3.594  -2.972  0.00  0.00    -0.078 A 
ATOM      5  C3  OXE d   1      -0.567  -2.248  -2.708  0.00  0.00     0.003 A 
ATOM      6  C4  OXE d   1      -0.576  -1.775  -1.389  0.00  0.00    -0.002 A 
ATOM      7  C5  OXE d   1      -0.464  -2.665  -0.316  0.00  0.00    -0.002 A 
ATOM      8  C6  OXE d   1      -0.349  -4.028  -0.569  0.00  0.00     0.003 A 
ENDROOT
TORSDOF 0
ENDMDL
