MODEL 1
REMARK minimizedAffinity 1.50346279
REMARK minimizedRMSD -1
REMARK  0 active torsions:
REMARK  status: ('A' for Active; 'I' for Inactive)
ROOT
ATOM      1  C2' OXE d   1       2.739   3.335  -3.739  0.00  0.00     0.078 C 
ATOM      2  C1' OXE d   1       4.785   3.765  -5.612  0.00  0.00     0.078 C 
ATOM      3  C1  OXE d   1       4.887   4.473  -4.284  0.00  0.00    -0.078 A 
ATOM      4  C2  OXE d   1       3.858   4.293  -3.391  0.00  0.00    -0.078 A 
ATOM      5  C3  OXE d   1       3.929   4.879  -2.130  0.00  0.00     0.003 A 
ATOM      6  C4  OXE d   1       4.962   5.772  -1.821  0.00  0.00    -0.002 A 
ATOM      7  C5  OXE d   1       6.000   6.000  -2.731  0.00  0.00    -0.002 A 
ATOM      8  C6  OXE d   1       6.000   5.327  -3.947  0.00  0.00     0.003 A 
ENDROOT
TORSDOF 0
ENDMDL
