MODEL 1
REMARK minimizedAffinity 6.95353174
REMARK minimizedRMSD -1
REMARK  0 active torsions:
REMARK  status: ('A' for Active; 'I' for Inactive)
ROOT
ATOM      1  C2' OXE d   1       2.248  -1.461   5.060  0.00  0.00     0.078 C 
ATOM      2  C1' OXE d   1       0.987  -2.965   3.053  0.00  0.00     0.078 C 
ATOM      3  C1  OXE d   1       0.111  -2.265   4.062  0.00  0.00    -0.078 A 
ATOM      4  C2  OXE d   1       0.738  -1.570   5.068  0.00  0.00    -0.078 A 
ATOM      5  C3  OXE d   1      -0.023  -0.861   5.993  0.00  0.00     0.003 A 
ATOM      6  C4  OXE d   1      -1.418  -0.975   6.000  0.00  0.00    -0.002 A 
ATOM      7  C5  OXE d   1      -2.075  -1.710   5.008  0.00  0.00    -0.002 A 
ATOM      8  C6  OXE d   1      -1.329  -2.325   4.009  0.00  0.00     0.003 A 
ENDROOT
TORSDOF 0
ENDMDL
