MODEL 1
REMARK minimizedAffinity 1.0472759
REMARK minimizedRMSD -1
REMARK  0 active torsions:
REMARK  status: ('A' for Active; 'I' for Inactive)
ROOT
ATOM      1  C2' OXE d   1       5.753   5.998  -1.525  0.00  0.00     0.078 C 
ATOM      2  C1' OXE d   1       3.071   5.173  -1.440  0.00  0.00     0.078 C 
ATOM      3  C1  OXE d   1       3.888   4.787  -2.648  0.00  0.00    -0.078 A 
ATOM      4  C2  OXE d   1       5.186   5.235  -2.703  0.00  0.00    -0.078 A 
ATOM      5  C3  OXE d   1       5.999   4.861  -3.768  0.00  0.00     0.003 A 
ATOM      6  C4  OXE d   1       5.464   4.163  -4.858  0.00  0.00    -0.002 A 
ATOM      7  C5  OXE d   1       4.134   3.732  -4.841  0.00  0.00    -0.002 A 
ATOM      8  C6  OXE d   1       3.346   3.998  -3.726  0.00  0.00     0.003 A 
ENDROOT
TORSDOF 0
ENDMDL
