MODEL 1
REMARK minimizedAffinity 3.77291965
REMARK minimizedRMSD -1
REMARK  0 active torsions:
REMARK  status: ('A' for Active; 'I' for Inactive)
ROOT
ATOM      1  C2' OXE d   1       2.267  -1.147   5.072  0.00  0.00     0.078 C 
ATOM      2  C1' OXE d   1       2.353  -3.359   3.345  0.00  0.00     0.078 C 
ATOM      3  C1  OXE d   1       3.522  -3.146   4.274  0.00  0.00    -0.078 A 
ATOM      4  C2  OXE d   1       3.493  -2.035   5.082  0.00  0.00    -0.078 A 
ATOM      5  C3  OXE d   1       4.520  -1.821   5.996  0.00  0.00     0.003 A 
ATOM      6  C4  OXE d   1       5.655  -2.641   5.993  0.00  0.00    -0.002 A 
ATOM      7  C5  OXE d   1       5.723  -3.755   5.150  0.00  0.00    -0.002 A 
ATOM      8  C6  OXE d   1       4.648  -4.045   4.316  0.00  0.00     0.003 A 
ENDROOT
TORSDOF 0
ENDMDL
