MODEL 1
REMARK minimizedAffinity 8.46331501
REMARK minimizedRMSD -1
REMARK  0 active torsions:
REMARK  status: ('A' for Active; 'I' for Inactive)
ROOT
ATOM      1  C2' OXE d   1      -2.157  -2.838  -0.596  0.00  0.00     0.078 C 
ATOM      2  C1' OXE d   1      -0.306  -0.730  -0.504  0.00  0.00     0.078 C 
ATOM      3  C1  OXE d   1      -0.173  -1.735  -1.621  0.00  0.00    -0.078 A 
ATOM      4  C2  OXE d   1      -1.055  -2.789  -1.631  0.00  0.00    -0.078 A 
ATOM      5  C3  OXE d   1      -1.011  -3.714  -2.670  0.00  0.00     0.003 A 
ATOM      6  C4  OXE d   1       0.018  -3.667  -3.618  0.00  0.00    -0.002 A 
ATOM      7  C5  OXE d   1       0.951  -2.624  -3.603  0.00  0.00    -0.002 A 
ATOM      8  C6  OXE d   1       0.843  -1.628  -2.639  0.00  0.00     0.003 A 
ENDROOT
TORSDOF 0
ENDMDL
