MODEL 1
REMARK minimizedAffinity 12.0911779
REMARK minimizedRMSD -1
REMARK  0 active torsions:
REMARK  status: ('A' for Active; 'I' for Inactive)
ROOT
ATOM      1  C2' OXE d   1       1.774   4.612   0.534  0.00  0.00     0.078 C 
ATOM      2  C1' OXE d   1       0.651   5.955   2.728  0.00  0.00     0.078 C 
ATOM      3  C1  OXE d   1      -0.057   4.725   2.219  0.00  0.00    -0.078 A 
ATOM      4  C2  OXE d   1       0.474   4.101   1.116  0.00  0.00    -0.078 A 
ATOM      5  C3  OXE d   1      -0.109   2.930   0.639  0.00  0.00     0.003 A 
ATOM      6  C4  OXE d   1      -1.316   2.469   1.177  0.00  0.00    -0.002 A 
ATOM      7  C5  OXE d   1      -1.895   3.113   2.276  0.00  0.00    -0.002 A 
ATOM      8  C6  OXE d   1      -1.257   4.215   2.835  0.00  0.00     0.003 A 
ENDROOT
TORSDOF 0
ENDMDL
