MODEL 1
REMARK minimizedAffinity 7.40706968
REMARK minimizedRMSD -1
REMARK  0 active torsions:
REMARK  status: ('A' for Active; 'I' for Inactive)
ROOT
ATOM      1  C2' OXE d   1      -1.129  -2.930   2.259  0.00  0.00     0.078 C 
ATOM      2  C1' OXE d   1       1.167  -1.765   1.139  0.00  0.00     0.078 C 
ATOM      3  C1  OXE d   1       0.036  -2.127   0.209  0.00  0.00    -0.078 A 
ATOM      4  C2  OXE d   1      -1.064  -2.739   0.759  0.00  0.00    -0.078 A 
ATOM      5  C3  OXE d   1      -2.158  -3.044  -0.046  0.00  0.00     0.003 A 
ATOM      6  C4  OXE d   1      -2.086  -2.873  -1.434  0.00  0.00    -0.002 A 
ATOM      7  C5  OXE d   1      -0.959  -2.287  -2.020  0.00  0.00    -0.002 A 
ATOM      8  C6  OXE d   1       0.091  -1.870  -1.209  0.00  0.00     0.003 A 
ENDROOT
TORSDOF 0
ENDMDL
