MODEL 1
REMARK minimizedAffinity 1.53234243
REMARK minimizedRMSD -1
REMARK  0 active torsions:
REMARK  status: ('A' for Active; 'I' for Inactive)
ROOT
ATOM      1  C2' OXE d   1      -1.525  -2.646   0.886  0.00  0.00     0.078 C 
ATOM      2  C1' OXE d   1      -0.136  -0.324   0.138  0.00  0.00     0.078 C 
ATOM      3  C1  OXE d   1      -0.191  -1.460  -0.852  0.00  0.00    -0.078 A 
ATOM      4  C2  OXE d   1      -0.833  -2.610  -0.460  0.00  0.00    -0.078 A 
ATOM      5  C3  OXE d   1      -0.961  -3.668  -1.355  0.00  0.00     0.003 A 
ATOM      6  C4  OXE d   1      -0.310  -3.631  -2.594  0.00  0.00    -0.002 A 
ATOM      7  C5  OXE d   1       0.383  -2.485  -2.997  0.00  0.00    -0.002 A 
ATOM      8  C6  OXE d   1       0.416  -1.377  -2.158  0.00  0.00     0.003 A 
ENDROOT
TORSDOF 0
ENDMDL
