MODEL 1
REMARK minimizedAffinity 8.4635582
REMARK minimizedRMSD -1
REMARK  0 active torsions:
REMARK  status: ('A' for Active; 'I' for Inactive)
ROOT
ATOM      1  C2' OXE d   1      -0.058  -2.027  -5.023  0.00  0.00     0.078 C 
ATOM      2  C1' OXE d   1       2.270  -1.938  -3.457  0.00  0.00     0.078 C 
ATOM      3  C1  OXE d   1       0.966  -2.242  -2.762  0.00  0.00    -0.078 A 
ATOM      4  C2  OXE d   1      -0.175  -2.237  -3.529  0.00  0.00    -0.078 A 
ATOM      5  C3  OXE d   1      -1.397  -2.565  -2.948  0.00  0.00     0.003 A 
ATOM      6  C4  OXE d   1      -1.497  -2.748  -1.564  0.00  0.00    -0.002 A 
ATOM      7  C5  OXE d   1      -0.354  -2.718  -0.759  0.00  0.00    -0.002 A 
ATOM      8  C6  OXE d   1       0.889  -2.509  -1.347  0.00  0.00     0.003 A 
ENDROOT
TORSDOF 0
ENDMDL
