MODEL 1
REMARK minimizedAffinity 1.48321235
REMARK minimizedRMSD -1
REMARK  0 active torsions:
REMARK  status: ('A' for Active; 'I' for Inactive)
ROOT
ATOM      1  C2' OXE d   1       2.270   5.999  -3.116  0.00  0.00     0.078 C 
ATOM      2  C1' OXE d   1       4.175   5.821  -1.061  0.00  0.00     0.078 C 
ATOM      3  C1  OXE d   1       4.511   5.189  -2.389  0.00  0.00    -0.078 A 
ATOM      4  C2  OXE d   1       3.554   5.240  -3.374  0.00  0.00    -0.078 A 
ATOM      5  C3  OXE d   1       3.834   4.722  -4.635  0.00  0.00     0.003 A 
ATOM      6  C4  OXE d   1       5.020   4.013  -4.863  0.00  0.00    -0.002 A 
ATOM      7  C5  OXE d   1       5.991   3.915  -3.861  0.00  0.00    -0.002 A 
ATOM      8  C6  OXE d   1       5.771   4.532  -2.635  0.00  0.00     0.003 A 
ENDROOT
TORSDOF 0
ENDMDL
