MODEL 1
REMARK minimizedAffinity 4.8140831
REMARK minimizedRMSD -1
REMARK  0 active torsions:
REMARK  status: ('A' for Active; 'I' for Inactive)
ROOT
ATOM      1  C2' OXE d   1      -0.835  -2.014  -4.283  0.00  0.00     0.078 C 
ATOM      2  C1' OXE d   1       1.573  -2.452  -2.908  0.00  0.00     0.078 C 
ATOM      3  C1  OXE d   1       0.318  -2.279  -2.090  0.00  0.00    -0.078 A 
ATOM      4  C2  OXE d   1      -0.848  -2.018  -2.769  0.00  0.00    -0.078 A 
ATOM      5  C3  OXE d   1      -2.044  -1.904  -2.067  0.00  0.00     0.003 A 
ATOM      6  C4  OXE d   1      -2.047  -1.899  -0.667  0.00  0.00    -0.002 A 
ATOM      7  C5  OXE d   1      -0.864  -2.124   0.046  0.00  0.00    -0.002 A 
ATOM      8  C6  OXE d   1       0.317  -2.357  -0.650  0.00  0.00     0.003 A 
ENDROOT
TORSDOF 0
ENDMDL
