MODEL 1
REMARK minimizedAffinity 3.49410725
REMARK minimizedRMSD -1
REMARK  0 active torsions:
REMARK  status: ('A' for Active; 'I' for Inactive)
ROOT
ATOM      1  C2' OXE d   1       5.702   2.260  -3.900  0.00  0.00     0.078 C 
ATOM      2  C1' OXE d   1       5.627   4.681  -5.320  0.00  0.00     0.078 C 
ATOM      3  C1  OXE d   1       5.775   4.749  -3.821  0.00  0.00    -0.078 A 
ATOM      4  C2  OXE d   1       5.764   3.562  -3.130  0.00  0.00    -0.078 A 
ATOM      5  C3  OXE d   1       5.952   3.565  -1.750  0.00  0.00     0.003 A 
ATOM      6  C4  OXE d   1       5.998   4.773  -1.044  0.00  0.00    -0.002 A 
ATOM      7  C5  OXE d   1       5.971   5.995  -1.725  0.00  0.00    -0.002 A 
ATOM      8  C6  OXE d   1       5.903   6.000  -3.114  0.00  0.00     0.003 A 
ENDROOT
TORSDOF 0
ENDMDL
