MODEL 1
REMARK minimizedAffinity 3.56898832
REMARK minimizedRMSD -1
REMARK  0 active torsions:
REMARK  status: ('A' for Active; 'I' for Inactive)
ROOT
ATOM      1  C2' OXE d   1      -1.751  -2.470  -0.134  0.00  0.00     0.078 C 
ATOM      2  C1' OXE d   1       0.814  -3.349   0.592  0.00  0.00     0.078 C 
ATOM      3  C1  OXE d   1       0.635  -2.762  -0.786  0.00  0.00    -0.078 A 
ATOM      4  C2  OXE d   1      -0.633  -2.378  -1.150  0.00  0.00    -0.078 A 
ATOM      5  C3  OXE d   1      -0.843  -1.780  -2.389  0.00  0.00     0.003 A 
ATOM      6  C4  OXE d   1       0.194  -1.708  -3.326  0.00  0.00    -0.002 A 
ATOM      7  C5  OXE d   1       1.485  -2.130  -2.990  0.00  0.00    -0.002 A 
ATOM      8  C6  OXE d   1       1.731  -2.619  -1.712  0.00  0.00     0.003 A 
ENDROOT
TORSDOF 0
ENDMDL
