MODEL 1
REMARK minimizedAffinity -1.93078864
REMARK minimizedRMSD -1
REMARK  0 active torsions:
REMARK  status: ('A' for Active; 'I' for Inactive)
ROOT
ATOM      1  C2' OXE d   1       4.803   5.761  -1.801  0.00  0.00     0.078 C 
ATOM      2  C1' OXE d   1       2.349   4.986  -2.920  0.00  0.00     0.078 C 
ATOM      3  C1  OXE d   1       3.609   4.593  -3.649  0.00  0.00    -0.078 A 
ATOM      4  C2  OXE d   1       4.804   5.017  -3.119  0.00  0.00    -0.078 A 
ATOM      5  C3  OXE d   1       6.000   4.636  -3.721  0.00  0.00     0.003 A 
ATOM      6  C4  OXE d   1       5.991   3.956  -4.945  0.00  0.00    -0.002 A 
ATOM      7  C5  OXE d   1       4.784   3.550  -5.523  0.00  0.00    -0.002 A 
ATOM      8  C6  OXE d   1       3.589   3.823  -4.868  0.00  0.00     0.003 A 
ENDROOT
TORSDOF 0
ENDMDL
