MODEL 1
REMARK minimizedAffinity 10.1564102
REMARK minimizedRMSD -1
REMARK  3 active torsions:
REMARK  status: ('A' for Active; 'I' for Inactive)
REMARK    1  A    between atoms: C3'_2  and  C2'_3 
REMARK    2  A    between atoms: C2'_3  and  C1'_4 
REMARK    3  A    between atoms: C1'_4  and  C1_5 
ROOT
ATOM      1  C1  N4B d   1      -3.143  -4.363  -4.201  0.00  0.00    -0.075 A 
ATOM      2  C2  N4B d   1      -3.784  -5.243  -5.101  0.00  0.00     0.002 A 
ATOM      3  C3  N4B d   1      -4.705  -4.758  -5.997  0.00  0.00     0.002 A 
ATOM      4  C4  N4B d   1      -5.015  -3.406  -5.998  0.00  0.00    -0.004 A 
ATOM      5  C5  N4B d   1      -4.373  -2.559  -5.143  0.00  0.00     0.002 A 
ATOM      6  C6  N4B d   1      -3.442  -3.032  -4.240  0.00  0.00     0.002 A 
ENDROOT
BRANCH   1   7
ATOM      7  C1' N4B d   1      -2.193  -4.860  -3.146  0.00  0.00     0.057 C 
BRANCH   7   8
ATOM      8  C2' N4B d   1      -2.959  -5.722  -2.148  0.00  0.00     0.009 C 
BRANCH   8   9
ATOM      9  C3' N4B d   1      -2.599  -5.384  -0.711  0.00  0.00     0.004 C 
ATOM     10  C4' N4B d   1      -3.721  -5.651   0.247  0.00  0.00     0.003 C 
ENDBRANCH   8   9
ENDBRANCH   7   8
ENDBRANCH   1   7
TORSDOF 3
ENDMDL
