MODEL 1
REMARK minimizedAffinity 10.9021082
REMARK minimizedRMSD -1
REMARK  3 active torsions:
REMARK  status: ('A' for Active; 'I' for Inactive)
REMARK    1  A    between atoms: C3'_2  and  C2'_3 
REMARK    2  A    between atoms: C2'_3  and  C1'_4 
REMARK    3  A    between atoms: C1'_4  and  C1_5 
ROOT
ATOM      1  C1  N4B d   1      -1.387  -1.919  -3.176  0.00  0.00    -0.075 A 
ATOM      2  C2  N4B d   1      -0.547  -2.957  -2.720  0.00  0.00     0.002 A 
ATOM      3  C3  N4B d   1      -1.009  -4.250  -2.687  0.00  0.00     0.002 A 
ATOM      4  C4  N4B d   1      -2.308  -4.525  -3.087  0.00  0.00    -0.004 A 
ATOM      5  C5  N4B d   1      -3.105  -3.520  -3.551  0.00  0.00     0.002 A 
ATOM      6  C6  N4B d   1      -2.653  -2.216  -3.593  0.00  0.00     0.002 A 
ENDROOT
BRANCH   1   7
ATOM      7  C1' N4B d   1      -0.956  -0.478  -3.149  0.00  0.00     0.057 C 
BRANCH   7   8
ATOM      8  C2' N4B d   1       0.562  -0.412  -3.004  0.00  0.00     0.009 C 
BRANCH   8   9
ATOM      9  C3' N4B d   1       1.199   0.445  -4.084  0.00  0.00     0.004 C 
ATOM     10  C4' N4B d   1       2.136  -0.330  -4.963  0.00  0.00     0.003 C 
ENDBRANCH   8   9
ENDBRANCH   7   8
ENDBRANCH   1   7
TORSDOF 3
ENDMDL
