MODEL 1
REMARK minimizedAffinity 12.8888798
REMARK minimizedRMSD -1
REMARK  3 active torsions:
REMARK  status: ('A' for Active; 'I' for Inactive)
REMARK    1  A    between atoms: C3'_2  and  C2'_3 
REMARK    2  A    between atoms: C2'_3  and  C1'_4 
REMARK    3  A    between atoms: C1'_4  and  C1_5 
ROOT
ATOM      1  C1  N4B d   1      -1.887   3.992  -5.830  0.00  0.00    -0.075 A 
ATOM      2  C2  N4B d   1      -3.088   3.252  -5.906  0.00  0.00     0.002 A 
ATOM      3  C3  N4B d   1      -4.292   3.905  -5.996  0.00  0.00     0.002 A 
ATOM      4  C4  N4B d   1      -4.323   5.291  -5.993  0.00  0.00    -0.004 A 
ATOM      5  C5  N4B d   1      -3.157   5.998  -5.945  0.00  0.00     0.002 A 
ATOM      6  C6  N4B d   1      -1.939   5.355  -5.858  0.00  0.00     0.002 A 
ENDROOT
BRANCH   1   7
ATOM      7  C1' N4B d   1      -0.552   3.323  -5.644  0.00  0.00     0.057 C 
BRANCH   7   8
ATOM      8  C2' N4B d   1      -0.485   2.720  -4.244  0.00  0.00     0.009 C 
BRANCH   8   9
ATOM      9  C3' N4B d   1       0.936   2.683  -3.709  0.00  0.00     0.004 C 
ATOM     10  C4' N4B d   1       1.436   1.287  -3.484  0.00  0.00     0.003 C 
ENDBRANCH   8   9
ENDBRANCH   7   8
ENDBRANCH   1   7
TORSDOF 3
ENDMDL
