MODEL 1
REMARK minimizedAffinity 7.65479517
REMARK minimizedRMSD -1
REMARK  3 active torsions:
REMARK  status: ('A' for Active; 'I' for Inactive)
REMARK    1  A    between atoms: C3'_2  and  C2'_3 
REMARK    2  A    between atoms: C2'_3  and  C1'_4 
REMARK    3  A    between atoms: C1'_4  and  C1_5 
ROOT
ATOM      1  C1  N4B d   1       2.711  -4.282  -1.643  0.00  0.00    -0.075 A 
ATOM      2  C2  N4B d   1       2.982  -3.399  -0.575  0.00  0.00     0.002 A 
ATOM      3  C3  N4B d   1       2.746  -2.054  -0.720  0.00  0.00     0.002 A 
ATOM      4  C4  N4B d   1       2.260  -1.569  -1.924  0.00  0.00    -0.004 A 
ATOM      5  C5  N4B d   1       1.977  -2.432  -2.943  0.00  0.00     0.002 A 
ATOM      6  C6  N4B d   1       2.206  -3.787  -2.810  0.00  0.00     0.002 A 
ENDROOT
BRANCH   1   7
ATOM      7  C1' N4B d   1       3.034  -5.749  -1.562  0.00  0.00     0.057 C 
BRANCH   7   8
ATOM      8  C2' N4B d   1       4.009  -5.985  -0.411  0.00  0.00     0.009 C 
BRANCH   8   9
ATOM      9  C3' N4B d   1       5.452  -5.996  -0.883  0.00  0.00     0.004 C 
ATOM     10  C4' N4B d   1       5.937  -4.641  -1.303  0.00  0.00     0.003 C 
ENDBRANCH   8   9
ENDBRANCH   7   8
ENDBRANCH   1   7
TORSDOF 3
ENDMDL
