MODEL 1
REMARK minimizedAffinity 15.1287127
REMARK minimizedRMSD -1
REMARK  3 active torsions:
REMARK  status: ('A' for Active; 'I' for Inactive)
REMARK    1  A    between atoms: C3'_2  and  C2'_3 
REMARK    2  A    between atoms: C2'_3  and  C1'_4 
REMARK    3  A    between atoms: C1'_4  and  C1_5 
ROOT
ATOM      1  C1  N4B d   1      -0.959  -2.762  -2.897  0.00  0.00    -0.075 A 
ATOM      2  C2  N4B d   1      -0.516  -3.903  -2.193  0.00  0.00     0.002 A 
ATOM      3  C3  N4B d   1      -1.394  -4.920  -1.911  0.00  0.00     0.002 A 
ATOM      4  C4  N4B d   1      -2.719  -4.811  -2.306  0.00  0.00    -0.004 A 
ATOM      5  C5  N4B d   1      -3.133  -3.717  -3.008  0.00  0.00     0.002 A 
ATOM      6  C6  N4B d   1      -2.261  -2.689  -3.301  0.00  0.00     0.002 A 
ENDROOT
BRANCH   1   7
ATOM      7  C1' N4B d   1      -0.056  -1.586  -3.153  0.00  0.00     0.057 C 
BRANCH   7   8
ATOM      8  C2' N4B d   1       0.703  -1.812  -4.457  0.00  0.00     0.009 C 
BRANCH   8   9
ATOM      9  C3' N4B d   1       1.558  -0.614  -4.832  0.00  0.00     0.004 C 
ATOM     10  C4' N4B d   1       2.799  -0.997  -5.581  0.00  0.00     0.003 C 
ENDBRANCH   8   9
ENDBRANCH   7   8
ENDBRANCH   1   7
TORSDOF 3
ENDMDL
