MODEL 1
REMARK minimizedAffinity 19.5790615
REMARK minimizedRMSD -1
REMARK  3 active torsions:
REMARK  status: ('A' for Active; 'I' for Inactive)
REMARK    1  A    between atoms: C3'_2  and  C2'_3 
REMARK    2  A    between atoms: C2'_3  and  C1'_4 
REMARK    3  A    between atoms: C1'_4  and  C1_5 
ROOT
ATOM      1  C1  N4B d   1      -3.988   0.894   4.438  0.00  0.00    -0.075 A 
ATOM      2  C2  N4B d   1      -4.825   1.559   3.515  0.00  0.00     0.002 A 
ATOM      3  C3  N4B d   1      -5.420   2.747   3.860  0.00  0.00     0.002 A 
ATOM      4  C4  N4B d   1      -5.209   3.279   5.123  0.00  0.00    -0.004 A 
ATOM      5  C5  N4B d   1      -4.379   2.644   6.000  0.00  0.00     0.002 A 
ATOM      6  C6  N4B d   1      -3.771   1.450   5.666  0.00  0.00     0.002 A 
ENDROOT
BRANCH   1   7
ATOM      7  C1' N4B d   1      -3.385  -0.451   4.138  0.00  0.00     0.057 C 
BRANCH   7   8
ATOM      8  C2' N4B d   1      -3.785  -1.435   5.233  0.00  0.00     0.009 C 
BRANCH   8   9
ATOM      9  C3' N4B d   1      -4.189  -2.784   4.664  0.00  0.00     0.004 C 
ATOM     10  C4' N4B d   1      -3.847  -3.925   5.576  0.00  0.00     0.003 C 
ENDBRANCH   8   9
ENDBRANCH   7   8
ENDBRANCH   1   7
TORSDOF 3
ENDMDL
