MODEL 1
REMARK minimizedAffinity 10.8379068
REMARK minimizedRMSD -1
REMARK  3 active torsions:
REMARK  status: ('A' for Active; 'I' for Inactive)
REMARK    1  A    between atoms: C3'_2  and  C2'_3 
REMARK    2  A    between atoms: C2'_3  and  C1'_4 
REMARK    3  A    between atoms: C1'_4  and  C1_5 
ROOT
ATOM      1  C1  N4B d   1      -3.060   1.630   5.345  0.00  0.00    -0.075 A 
ATOM      2  C2  N4B d   1      -3.931   2.531   5.995  0.00  0.00     0.002 A 
ATOM      3  C3  N4B d   1      -5.036   3.012   5.336  0.00  0.00     0.002 A 
ATOM      4  C4  N4B d   1      -5.278   2.623   4.028  0.00  0.00    -0.004 A 
ATOM      5  C5  N4B d   1      -4.445   1.732   3.416  0.00  0.00     0.002 A 
ATOM      6  C6  N4B d   1      -3.333   1.237   4.067  0.00  0.00     0.002 A 
ENDROOT
BRANCH   1   7
ATOM      7  C1' N4B d   1      -1.793   1.143   5.994  0.00  0.00     0.057 C 
BRANCH   7   8
ATOM      8  C2' N4B d   1      -0.766   2.271   5.996  0.00  0.00     0.009 C 
BRANCH   8   9
ATOM      9  C3' N4B d   1       0.659   1.743   6.000  0.00  0.00     0.004 C 
ATOM     10  C4' N4B d   1       0.724   0.249   5.891  0.00  0.00     0.003 C 
ENDBRANCH   8   9
ENDBRANCH   7   8
ENDBRANCH   1   7
TORSDOF 3
ENDMDL
