MODEL 1
REMARK minimizedAffinity 18.0427666
REMARK minimizedRMSD -1
REMARK  3 active torsions:
REMARK  status: ('A' for Active; 'I' for Inactive)
REMARK    1  A    between atoms: C3'_2  and  C2'_3 
REMARK    2  A    between atoms: C2'_3  and  C1'_4 
REMARK    3  A    between atoms: C1'_4  and  C1_5 
ROOT
ATOM      1  C1  N4B d   1       0.652  -0.157  -3.062  0.00  0.00    -0.075 A 
ATOM      2  C2  N4B d   1       1.046   1.139  -3.460  0.00  0.00     0.002 A 
ATOM      3  C3  N4B d   1       0.097   2.079  -3.776  0.00  0.00     0.002 A 
ATOM      4  C4  N4B d   1      -1.248   1.743  -3.719  0.00  0.00    -0.004 A 
ATOM      5  C5  N4B d   1      -1.621   0.496  -3.309  0.00  0.00     0.002 A 
ATOM      6  C6  N4B d   1      -0.677  -0.458  -2.985  0.00  0.00     0.002 A 
ENDROOT
BRANCH   1   7
ATOM      7  C1' N4B d   1       1.655  -1.244  -2.790  0.00  0.00     0.057 C 
BRANCH   7   8
ATOM      8  C2' N4B d   1       2.475  -1.496  -4.052  0.00  0.00     0.009 C 
BRANCH   8   9
ATOM      9  C3' N4B d   1       2.850  -2.961  -4.203  0.00  0.00     0.004 C 
ATOM     10  C4' N4B d   1       1.667  -3.837  -4.491  0.00  0.00     0.003 C 
ENDBRANCH   8   9
ENDBRANCH   7   8
ENDBRANCH   1   7
TORSDOF 3
ENDMDL
