MODEL 1
REMARK minimizedAffinity -5.81374359
REMARK minimizedRMSD -1
REMARK  0 active torsions:
REMARK  status: ('A' for Active; 'I' for Inactive)
ROOT
ATOM      1  C   UNL d   1      -0.885   0.064   1.193  0.00  0.00     0.078 C 
ATOM      2  C1  UNL d   1      -0.491  -1.052   0.273  0.00  0.00    -0.077 A 
ATOM      3  C2  UNL d   1       0.292  -0.809  -0.862  0.00  0.00    -0.001 A 
ATOM      4  C3  UNL d   1       0.644  -1.857  -1.715  0.00  0.00     0.003 A 
ATOM      5  C4  UNL d   1       0.215  -3.154  -1.442  0.00  0.00    -0.005 A 
ATOM      6  C5  UNL d   1      -0.567  -3.406  -0.317  0.00  0.00     0.003 A 
ATOM      7  C6  UNL d   1      -0.919  -2.359   0.537  0.00  0.00    -0.001 A 
ENDROOT
TORSDOF 0
ENDMDL
