MODEL 1
REMARK minimizedAffinity -4.34309864
REMARK minimizedRMSD -1
REMARK  0 active torsions:
REMARK  status: ('A' for Active; 'I' for Inactive)
ROOT
ATOM      1  C   UNL d   1       0.138  -2.720  -0.370  0.00  0.00     0.078 C 
ATOM      2  C1  UNL d   1       0.078  -1.232  -0.549  0.00  0.00    -0.077 A 
ATOM      3  C2  UNL d   1       0.019  -0.375   0.557  0.00  0.00    -0.001 A 
ATOM      4  C3  UNL d   1      -0.046   1.007   0.376  0.00  0.00     0.003 A 
ATOM      5  C4  UNL d   1      -0.054   1.545  -0.910  0.00  0.00    -0.005 A 
ATOM      6  C5  UNL d   1       0.002   0.700  -2.016  0.00  0.00     0.003 A 
ATOM      7  C6  UNL d   1       0.067  -0.683  -1.837  0.00  0.00    -0.001 A 
ENDROOT
TORSDOF 0
ENDMDL
