MODEL 1
REMARK minimizedAffinity -2.95825791
REMARK minimizedRMSD -1
REMARK  0 active torsions:
REMARK  status: ('A' for Active; 'I' for Inactive)
ROOT
ATOM      1  C   UNL d   1      -0.239  -3.701  -0.057  0.00  0.00     0.078 C 
ATOM      2  C1  UNL d   1      -0.415  -2.261   0.321  0.00  0.00    -0.077 A 
ATOM      3  C2  UNL d   1      -1.456  -1.859   1.167  0.00  0.00    -0.001 A 
ATOM      4  C3  UNL d   1      -1.613  -0.513   1.503  0.00  0.00     0.003 A 
ATOM      5  C4  UNL d   1      -0.734   0.442   0.996  0.00  0.00    -0.005 A 
ATOM      6  C5  UNL d   1       0.303   0.052   0.152  0.00  0.00     0.003 A 
ATOM      7  C6  UNL d   1       0.462  -1.293  -0.185  0.00  0.00    -0.001 A 
ENDROOT
TORSDOF 0
ENDMDL
