MODEL 1
REMARK minimizedAffinity -4.6768899
REMARK minimizedRMSD -1
REMARK  0 active torsions:
REMARK  status: ('A' for Active; 'I' for Inactive)
ROOT
ATOM      1  C   UNL d   1       0.677  -3.245  -0.191  0.00  0.00     0.078 C 
ATOM      2  C1  UNL d   1       0.389  -1.857  -0.681  0.00  0.00    -0.077 A 
ATOM      3  C2  UNL d   1       0.683  -1.481  -1.997  0.00  0.00    -0.001 A 
ATOM      4  C3  UNL d   1       0.419  -0.184  -2.437  0.00  0.00     0.003 A 
ATOM      5  C4  UNL d   1      -0.141   0.750  -1.566  0.00  0.00    -0.005 A 
ATOM      6  C5  UNL d   1      -0.436   0.386  -0.254  0.00  0.00     0.003 A 
ATOM      7  C6  UNL d   1      -0.172  -0.912   0.188  0.00  0.00    -0.001 A 
ENDROOT
TORSDOF 0
ENDMDL
