MODEL 1
REMARK minimizedAffinity -4.36411428
REMARK minimizedRMSD -1
REMARK  0 active torsions:
REMARK  status: ('A' for Active; 'I' for Inactive)
ROOT
ATOM      1  C   UNL d   1      -1.186   5.533   2.003  0.00  0.00     0.078 C 
ATOM      2  C1  UNL d   1       0.087   4.914   1.507  0.00  0.00    -0.077 A 
ATOM      3  C2  UNL d   1       0.077   3.688   0.831  0.00  0.00    -0.001 A 
ATOM      4  C3  UNL d   1       1.271   3.119   0.384  0.00  0.00     0.003 A 
ATOM      5  C4  UNL d   1       2.483   3.769   0.608  0.00  0.00    -0.005 A 
ATOM      6  C5  UNL d   1       2.503   4.989   1.282  0.00  0.00     0.003 A 
ATOM      7  C6  UNL d   1       1.310   5.559   1.730  0.00  0.00    -0.001 A 
ENDROOT
TORSDOF 0
ENDMDL
