MODEL 1
REMARK minimizedAffinity -5.35804605
REMARK minimizedRMSD -1
REMARK  0 active torsions:
REMARK  status: ('A' for Active; 'I' for Inactive)
ROOT
ATOM      1  C   UNL d   1      -0.023   1.412  -0.424  0.00  0.00     0.078 C 
ATOM      2  C1  UNL d   1      -0.047  -0.034  -0.030  0.00  0.00    -0.077 A 
ATOM      3  C2  UNL d   1      -0.951  -0.505   0.931  0.00  0.00    -0.001 A 
ATOM      4  C3  UNL d   1      -0.956  -1.852   1.295  0.00  0.00     0.003 A 
ATOM      5  C4  UNL d   1      -0.059  -2.740   0.705  0.00  0.00    -0.005 A 
ATOM      6  C5  UNL d   1       0.846  -2.280  -0.251  0.00  0.00     0.003 A 
ATOM      7  C6  UNL d   1       0.852  -0.933  -0.616  0.00  0.00    -0.001 A 
ENDROOT
TORSDOF 0
ENDMDL
