MODEL 1
REMARK minimizedAffinity -5.1416111
REMARK minimizedRMSD -1
REMARK  0 active torsions:
REMARK  status: ('A' for Active; 'I' for Inactive)
ROOT
ATOM      1  C   UNL d   1       0.332  -3.309   0.322  0.00  0.00     0.078 C 
ATOM      2  C1  UNL d   1       0.028  -1.843   0.256  0.00  0.00    -0.077 A 
ATOM      3  C2  UNL d   1      -0.787  -1.231   1.217  0.00  0.00    -0.001 A 
ATOM      4  C3  UNL d   1      -1.070   0.134   1.137  0.00  0.00     0.003 A 
ATOM      5  C4  UNL d   1      -0.543   0.898   0.097  0.00  0.00    -0.005 A 
ATOM      6  C5  UNL d   1       0.266   0.297  -0.865  0.00  0.00     0.003 A 
ATOM      7  C6  UNL d   1       0.550  -1.067  -0.787  0.00  0.00    -0.001 A 
ENDROOT
TORSDOF 0
ENDMDL
