MODEL 1
REMARK minimizedAffinity -5.11759472
REMARK minimizedRMSD -1
REMARK  0 active torsions:
REMARK  status: ('A' for Active; 'I' for Inactive)
ROOT
ATOM      1  C   UNL d   1      -0.103  -3.420   0.080  0.00  0.00     0.078 C 
ATOM      2  C1  UNL d   1      -0.127  -1.921   0.056  0.00  0.00    -0.077 A 
ATOM      3  C2  UNL d   1       0.491  -1.206  -0.977  0.00  0.00    -0.001 A 
ATOM      4  C3  UNL d   1       0.469   0.189  -0.982  0.00  0.00     0.003 A 
ATOM      5  C4  UNL d   1      -0.168   0.882   0.046  0.00  0.00    -0.005 A 
ATOM      6  C5  UNL d   1      -0.784   0.180   1.079  0.00  0.00     0.003 A 
ATOM      7  C6  UNL d   1      -0.763  -1.216   1.085  0.00  0.00    -0.001 A 
ENDROOT
TORSDOF 0
ENDMDL
