MODEL 1
REMARK minimizedAffinity -4.78730059
REMARK minimizedRMSD -1
REMARK  0 active torsions:
REMARK  status: ('A' for Active; 'I' for Inactive)
ROOT
ATOM      1  C   UNL d   1       0.435   1.500  -0.506  0.00  0.00     0.078 C 
ATOM      2  C1  UNL d   1       0.082   0.159   0.066  0.00  0.00    -0.077 A 
ATOM      3  C2  UNL d   1      -0.903   0.033   1.053  0.00  0.00    -0.001 A 
ATOM      4  C3  UNL d   1      -1.214  -1.220   1.584  0.00  0.00     0.003 A 
ATOM      5  C4  UNL d   1      -0.544  -2.356   1.135  0.00  0.00    -0.005 A 
ATOM      6  C5  UNL d   1       0.440  -2.240   0.155  0.00  0.00     0.003 A 
ATOM      7  C6  UNL d   1       0.752  -0.988  -0.377  0.00  0.00    -0.001 A 
ENDROOT
TORSDOF 0
ENDMDL
