MODEL 1
REMARK minimizedAffinity -5.2168932
REMARK minimizedRMSD -1
REMARK  0 active torsions:
REMARK  status: ('A' for Active; 'I' for Inactive)
ROOT
ATOM      1  C   UNL d   1       0.108  -3.476   0.487  0.00  0.00     0.078 C 
ATOM      2  C1  UNL d   1      -0.224  -2.014   0.503  0.00  0.00    -0.077 A 
ATOM      3  C2  UNL d   1       0.288  -1.148  -0.471  0.00  0.00    -0.001 A 
ATOM      4  C3  UNL d   1      -0.023   0.213  -0.438  0.00  0.00     0.003 A 
ATOM      5  C4  UNL d   1      -0.845   0.719   0.567  0.00  0.00    -0.005 A 
ATOM      6  C5  UNL d   1      -1.357  -0.136   1.541  0.00  0.00     0.003 A 
ATOM      7  C6  UNL d   1      -1.048  -1.496   1.510  0.00  0.00    -0.001 A 
ENDROOT
TORSDOF 0
ENDMDL
