MODEL 1
REMARK minimizedAffinity -2.64005518
REMARK minimizedRMSD -1
REMARK  0 active torsions:
REMARK  status: ('A' for Active; 'I' for Inactive)
ROOT
ATOM      1  C   UNL d   1      -0.142   0.359   0.207  0.00  0.00     0.078 C 
ATOM      2  C1  UNL d   1       0.647   1.626   0.355  0.00  0.00    -0.077 A 
ATOM      3  C2  UNL d   1       0.037   2.877   0.209  0.00  0.00    -0.001 A 
ATOM      4  C3  UNL d   1       0.786   4.048   0.340  0.00  0.00     0.003 A 
ATOM      5  C4  UNL d   1       2.150   3.978   0.616  0.00  0.00    -0.005 A 
ATOM      6  C5  UNL d   1       2.767   2.737   0.761  0.00  0.00     0.003 A 
ATOM      7  C6  UNL d   1       2.019   1.566   0.630  0.00  0.00    -0.001 A 
ENDROOT
TORSDOF 0
ENDMDL
