MODEL 1
REMARK minimizedAffinity -4.69172859
REMARK minimizedRMSD -1
REMARK  0 active torsions:
REMARK  status: ('A' for Active; 'I' for Inactive)
ROOT
ATOM      1  C   UNL d   1       0.500  -2.548  -2.948  0.00  0.00     0.078 C 
ATOM      2  C1  UNL d   1       0.192  -2.416  -1.486  0.00  0.00    -0.077 A 
ATOM      3  C2  UNL d   1      -0.048  -3.546  -0.694  0.00  0.00    -0.001 A 
ATOM      4  C3  UNL d   1      -0.343  -3.407   0.663  0.00  0.00     0.003 A 
ATOM      5  C4  UNL d   1      -0.402  -2.140   1.240  0.00  0.00    -0.005 A 
ATOM      6  C5  UNL d   1      -0.167  -1.010   0.460  0.00  0.00     0.003 A 
ATOM      7  C6  UNL d   1       0.129  -1.147  -0.897  0.00  0.00    -0.001 A 
ENDROOT
TORSDOF 0
ENDMDL
