MODEL 1
REMARK minimizedAffinity -3.62243533
REMARK minimizedRMSD -1
REMARK  0 active torsions:
REMARK  status: ('A' for Active; 'I' for Inactive)
ROOT
ATOM      1  C   UNL d   1      -0.109   1.515   0.058  0.00  0.00     0.078 C 
ATOM      2  C1  UNL d   1      -0.336   0.045   0.252  0.00  0.00    -0.077 A 
ATOM      3  C2  UNL d   1      -0.597  -0.483   1.523  0.00  0.00    -0.001 A 
ATOM      4  C3  UNL d   1      -0.797  -1.854   1.690  0.00  0.00     0.003 A 
ATOM      5  C4  UNL d   1      -0.737  -2.709   0.592  0.00  0.00    -0.005 A 
ATOM      6  C5  UNL d   1      -0.475  -2.193  -0.676  0.00  0.00     0.003 A 
ATOM      7  C6  UNL d   1      -0.276  -0.823  -0.845  0.00  0.00    -0.001 A 
ENDROOT
TORSDOF 0
ENDMDL
