MODEL 1
REMARK minimizedAffinity -4.87682438
REMARK minimizedRMSD -1
REMARK  0 active torsions:
REMARK  status: ('A' for Active; 'I' for Inactive)
ROOT
ATOM      1  C   UNL d   1      -0.525  -3.175   0.309  0.00  0.00     0.078 C 
ATOM      2  C1  UNL d   1      -0.401  -1.701   0.063  0.00  0.00    -0.077 A 
ATOM      3  C2  UNL d   1      -0.972  -0.773   0.942  0.00  0.00    -0.001 A 
ATOM      4  C3  UNL d   1      -0.857   0.596   0.696  0.00  0.00     0.003 A 
ATOM      5  C4  UNL d   1      -0.173   1.049  -0.430  0.00  0.00    -0.005 A 
ATOM      6  C5  UNL d   1       0.396   0.133  -1.312  0.00  0.00     0.003 A 
ATOM      7  C6  UNL d   1       0.282  -1.236  -1.068  0.00  0.00    -0.001 A 
ENDROOT
TORSDOF 0
ENDMDL
