MODEL 1
REMARK minimizedAffinity -4.64350462
REMARK minimizedRMSD -1
REMARK  0 active torsions:
REMARK  status: ('A' for Active; 'I' for Inactive)
ROOT
ATOM      1  C   UNL d   1       0.285   1.394  -0.002  0.00  0.00     0.078 C 
ATOM      2  C1  UNL d   1      -0.008  -0.069   0.150  0.00  0.00    -0.077 A 
ATOM      3  C2  UNL d   1       0.834  -1.035  -0.414  0.00  0.00    -0.001 A 
ATOM      4  C3  UNL d   1       0.544  -2.393  -0.273  0.00  0.00     0.003 A 
ATOM      5  C4  UNL d   1      -0.589  -2.797   0.431  0.00  0.00    -0.005 A 
ATOM      6  C5  UNL d   1      -1.433  -1.843   0.994  0.00  0.00     0.003 A 
ATOM      7  C6  UNL d   1      -1.145  -0.485   0.854  0.00  0.00    -0.001 A 
ENDROOT
TORSDOF 0
ENDMDL
