MODEL 1
REMARK minimizedAffinity 2.58483839
REMARK minimizedRMSD -1
REMARK  3 active torsions:
REMARK  status: ('A' for Active; 'I' for Inactive)
REMARK    1  A    between atoms: C3'_2  and  C2'_3 
REMARK    2  A    between atoms: C2'_3  and  C1'_4 
REMARK    3  A    between atoms: C1'_4  and  C1_5 
ROOT
ATOM      1  C1  N4B d   1      -1.093  -5.311  -4.600  0.00  0.00    -0.075 A 
ATOM      2  C2  N4B d   1      -0.530  -4.788  -3.415  0.00  0.00     0.002 A 
ATOM      3  C3  N4B d   1      -1.217  -4.880  -2.230  0.00  0.00     0.002 A 
ATOM      4  C4  N4B d   1      -2.471  -5.471  -2.209  0.00  0.00    -0.004 A 
ATOM      5  C5  N4B d   1      -2.997  -5.996  -3.353  0.00  0.00     0.002 A 
ATOM      6  C6  N4B d   1      -2.316  -5.914  -4.551  0.00  0.00     0.002 A 
ENDROOT
BRANCH   1   7
ATOM      7  C1' N4B d   1      -0.417  -5.157  -5.935  0.00  0.00     0.057 C 
BRANCH   7   8
ATOM      8  C2' N4B d   1       0.855  -6.000  -5.953  0.00  0.00     0.009 C 
BRANCH   8   9
ATOM      9  C3' N4B d   1       2.068  -5.208  -5.495  0.00  0.00     0.004 C 
ATOM     10  C4' N4B d   1       2.881  -5.935  -4.466  0.00  0.00     0.003 C 
ENDBRANCH   8   9
ENDBRANCH   7   8
ENDBRANCH   1   7
TORSDOF 3
ENDMDL
