MODEL 1
REMARK minimizedAffinity 7.09295225
REMARK minimizedRMSD -1
REMARK  3 active torsions:
REMARK  status: ('A' for Active; 'I' for Inactive)
REMARK    1  A    between atoms: C3'_2  and  C2'_3 
REMARK    2  A    between atoms: C2'_3  and  C1'_4 
REMARK    3  A    between atoms: C1'_4  and  C1_5 
ROOT
ATOM      1  C1  N4B d   1      -1.770  -5.901  -2.467  0.00  0.00    -0.075 A 
ATOM      2  C2  N4B d   1      -0.406  -5.900  -2.101  0.00  0.00     0.002 A 
ATOM      3  C3  N4B d   1       0.566  -5.899  -3.071  0.00  0.00     0.002 A 
ATOM      4  C4  N4B d   1       0.199  -5.918  -4.409  0.00  0.00    -0.004 A 
ATOM      5  C5  N4B d   1      -1.120  -5.893  -4.754  0.00  0.00     0.002 A 
ATOM      6  C6  N4B d   1      -2.107  -5.890  -3.789  0.00  0.00     0.002 A 
ENDROOT
BRANCH   1   7
ATOM      7  C1' N4B d   1      -2.867  -5.990  -1.442  0.00  0.00     0.057 C 
BRANCH   7   8
ATOM      8  C2' N4B d   1      -3.535  -4.625  -1.305  0.00  0.00     0.009 C 
BRANCH   8   9
ATOM      9  C3' N4B d   1      -3.633  -3.904  -2.638  0.00  0.00     0.004 C 
ATOM     10  C4' N4B d   1      -4.259  -2.546  -2.520  0.00  0.00     0.003 C 
ENDBRANCH   8   9
ENDBRANCH   7   8
ENDBRANCH   1   7
TORSDOF 3
ENDMDL
