MODEL 1
REMARK minimizedAffinity 6.86141825
REMARK minimizedRMSD -1
REMARK  3 active torsions:
REMARK  status: ('A' for Active; 'I' for Inactive)
REMARK    1  A    between atoms: C3'_2  and  C2'_3 
REMARK    2  A    between atoms: C2'_3  and  C1'_4 
REMARK    3  A    between atoms: C1'_4  and  C1_5 
ROOT
ATOM      1  C1  N4B d   1      -3.159   0.737  -0.932  0.00  0.00    -0.075 A 
ATOM      2  C2  N4B d   1      -3.272   1.191  -2.265  0.00  0.00     0.002 A 
ATOM      3  C3  N4B d   1      -4.231   0.660  -3.092  0.00  0.00     0.002 A 
ATOM      4  C4  N4B d   1      -5.072  -0.335  -2.616  0.00  0.00    -0.004 A 
ATOM      5  C5  N4B d   1      -4.972  -0.750  -1.320  0.00  0.00     0.002 A 
ATOM      6  C6  N4B d   1      -4.016  -0.222  -0.477  0.00  0.00     0.002 A 
ENDROOT
BRANCH   1   7
ATOM      7  C1' N4B d   1      -2.070   1.227  -0.017  0.00  0.00     0.057 C 
BRANCH   7   8
ATOM      8  C2' N4B d   1      -0.797   0.427  -0.279  0.00  0.00     0.009 C 
BRANCH   8   9
ATOM      9  C3' N4B d   1       0.289   0.740   0.735  0.00  0.00     0.004 C 
ATOM     10  C4' N4B d   1       1.331  -0.336   0.820  0.00  0.00     0.003 C 
ENDBRANCH   8   9
ENDBRANCH   7   8
ENDBRANCH   1   7
TORSDOF 3
ENDMDL
