MODEL 1
REMARK minimizedAffinity 1.10232186
REMARK minimizedRMSD -1
REMARK  3 active torsions:
REMARK  status: ('A' for Active; 'I' for Inactive)
REMARK    1  A    between atoms: C3'_2  and  C2'_3 
REMARK    2  A    between atoms: C2'_3  and  C1'_4 
REMARK    3  A    between atoms: C1'_4  and  C1_5 
ROOT
ATOM      1  C1  N4B d   1      -0.629  -5.952  -2.781  0.00  0.00    -0.075 A 
ATOM      2  C2  N4B d   1      -1.660  -5.994  -1.816  0.00  0.00     0.002 A 
ATOM      3  C3  N4B d   1      -2.974  -5.999  -2.215  0.00  0.00     0.002 A 
ATOM      4  C4  N4B d   1      -3.280  -5.945  -3.567  0.00  0.00    -0.004 A 
ATOM      5  C5  N4B d   1      -2.278  -5.931  -4.493  0.00  0.00     0.002 A 
ATOM      6  C6  N4B d   1      -0.953  -5.929  -4.106  0.00  0.00     0.002 A 
ENDROOT
BRANCH   1   7
ATOM      7  C1' N4B d   1       0.821  -5.858  -2.390  0.00  0.00     0.057 C 
BRANCH   7   8
ATOM      8  C2' N4B d   1       1.686  -5.999  -3.639  0.00  0.00     0.009 C 
BRANCH   8   9
ATOM      9  C3' N4B d   1       1.163  -5.158  -4.791  0.00  0.00     0.004 C 
ATOM     10  C4' N4B d   1       0.524  -5.982  -5.868  0.00  0.00     0.003 C 
ENDBRANCH   8   9
ENDBRANCH   7   8
ENDBRANCH   1   7
TORSDOF 3
ENDMDL
