MODEL 1
REMARK minimizedAffinity 3.83269572
REMARK minimizedRMSD -1
REMARK  3 active torsions:
REMARK  status: ('A' for Active; 'I' for Inactive)
REMARK    1  A    between atoms: C3'_2  and  C2'_3 
REMARK    2  A    between atoms: C2'_3  and  C1'_4 
REMARK    3  A    between atoms: C1'_4  and  C1_5 
ROOT
ATOM      1  C1  N4B d   1       0.351  -0.006  -0.554  0.00  0.00    -0.075 A 
ATOM      2  C2  N4B d   1       1.603   0.648  -0.547  0.00  0.00     0.002 A 
ATOM      3  C3  N4B d   1       2.578   0.255   0.336  0.00  0.00     0.002 A 
ATOM      4  C4  N4B d   1       2.319  -0.772   1.232  0.00  0.00    -0.004 A 
ATOM      5  C5  N4B d   1       1.116  -1.415   1.202  0.00  0.00     0.002 A 
ATOM      6  C6  N4B d   1       0.129  -1.034   0.316  0.00  0.00     0.002 A 
ENDROOT
BRANCH   1   7
ATOM      7  C1' N4B d   1      -0.776   0.444  -1.443  0.00  0.00     0.057 C 
BRANCH   7   8
ATOM      8  C2' N4B d   1      -2.102  -0.009  -0.840  0.00  0.00     0.009 C 
BRANCH   8   9
ATOM      9  C3' N4B d   1      -3.289   0.438  -1.675  0.00  0.00     0.004 C 
ATOM     10  C4' N4B d   1      -4.276  -0.664  -1.919  0.00  0.00     0.003 C 
ENDBRANCH   8   9
ENDBRANCH   7   8
ENDBRANCH   1   7
TORSDOF 3
ENDMDL
