MODEL 1
REMARK minimizedAffinity 7.11914587
REMARK minimizedRMSD -1
REMARK  3 active torsions:
REMARK  status: ('A' for Active; 'I' for Inactive)
REMARK    1  A    between atoms: C3'_2  and  C2'_3 
REMARK    2  A    between atoms: C2'_3  and  C1'_4 
REMARK    3  A    between atoms: C1'_4  and  C1_5 
ROOT
ATOM      1  C1  N4B d   1       3.774   3.370  -0.360  0.00  0.00    -0.075 A 
ATOM      2  C2  N4B d   1       3.775   2.032  -0.810  0.00  0.00     0.002 A 
ATOM      3  C3  N4B d   1       4.887   1.516  -1.428  0.00  0.00     0.002 A 
ATOM      4  C4  N4B d   1       5.999   2.321  -1.623  0.00  0.00    -0.004 A 
ATOM      5  C5  N4B d   1       6.000   3.605  -1.163  0.00  0.00     0.002 A 
ATOM      6  C6  N4B d   1       4.890   4.136  -0.537  0.00  0.00     0.002 A 
ENDROOT
BRANCH   1   7
ATOM      7  C1' N4B d   1       2.551   4.005   0.243  0.00  0.00     0.057 C 
BRANCH   7   8
ATOM      8  C2' N4B d   1       1.311   3.253  -0.231  0.00  0.00     0.009 C 
BRANCH   8   9
ATOM      9  C3' N4B d   1       0.220   4.198  -0.705  0.00  0.00     0.004 C 
ATOM     10  C4' N4B d   1      -0.358   3.801  -2.030  0.00  0.00     0.003 C 
ENDBRANCH   8   9
ENDBRANCH   7   8
ENDBRANCH   1   7
TORSDOF 3
ENDMDL
