MODEL 1
REMARK minimizedAffinity 2.00558114
REMARK minimizedRMSD -1
REMARK  3 active torsions:
REMARK  status: ('A' for Active; 'I' for Inactive)
REMARK    1  A    between atoms: C3'_2  and  C2'_3 
REMARK    2  A    between atoms: C2'_3  and  C1'_4 
REMARK    3  A    between atoms: C1'_4  and  C1_5 
ROOT
ATOM      1  C1  N4B d   1      -1.451  -5.901  -3.639  0.00  0.00    -0.075 A 
ATOM      2  C2  N4B d   1      -0.046  -5.916  -3.495  0.00  0.00     0.002 A 
ATOM      3  C3  N4B d   1       0.758  -5.904  -4.607  0.00  0.00     0.002 A 
ATOM      4  C4  N4B d   1       0.183  -5.897  -5.869  0.00  0.00    -0.004 A 
ATOM      5  C5  N4B d   1      -1.174  -5.858  -6.000  0.00  0.00     0.002 A 
ATOM      6  C6  N4B d   1      -1.995  -5.865  -4.890  0.00  0.00     0.002 A 
ENDROOT
BRANCH   1   7
ATOM      7  C1' N4B d   1      -2.372  -6.000  -2.454  0.00  0.00     0.057 C 
BRANCH   7   8
ATOM      8  C2' N4B d   1      -1.667  -5.438  -1.223  0.00  0.00     0.009 C 
BRANCH   8   9
ATOM      9  C3' N4B d   1      -2.233  -4.090  -0.809  0.00  0.00     0.004 C 
ATOM     10  C4' N4B d   1      -1.373  -3.384   0.196  0.00  0.00     0.003 C 
ENDBRANCH   8   9
ENDBRANCH   7   8
ENDBRANCH   1   7
TORSDOF 3
ENDMDL
