MODEL 1
REMARK minimizedAffinity 1.21579278
REMARK minimizedRMSD -1
REMARK  3 active torsions:
REMARK  status: ('A' for Active; 'I' for Inactive)
REMARK    1  A    between atoms: C3'_2  and  C2'_3 
REMARK    2  A    between atoms: C2'_3  and  C1'_4 
REMARK    3  A    between atoms: C1'_4  and  C1_5 
ROOT
ATOM      1  C1  N4B d   1      -0.588  -5.793  -3.616  0.00  0.00    -0.075 A 
ATOM      2  C2  N4B d   1       0.810  -5.989  -3.616  0.00  0.00     0.002 A 
ATOM      3  C3  N4B d   1       1.502  -6.000  -4.803  0.00  0.00     0.002 A 
ATOM      4  C4  N4B d   1       0.817  -5.835  -5.997  0.00  0.00    -0.004 A 
ATOM      5  C5  N4B d   1      -0.531  -5.621  -5.986  0.00  0.00     0.002 A 
ATOM      6  C6  N4B d   1      -1.238  -5.604  -4.801  0.00  0.00     0.002 A 
ENDROOT
BRANCH   1   7
ATOM      7  C1' N4B d   1      -1.399  -5.860  -2.350  0.00  0.00     0.057 C 
BRANCH   7   8
ATOM      8  C2' N4B d   1      -0.561  -5.330  -1.190  0.00  0.00     0.009 C 
BRANCH   8   9
ATOM      9  C3' N4B d   1      -1.171  -4.083  -0.573  0.00  0.00     0.004 C 
ATOM     10  C4' N4B d   1      -0.497  -3.679   0.705  0.00  0.00     0.003 C 
ENDBRANCH   8   9
ENDBRANCH   7   8
ENDBRANCH   1   7
TORSDOF 3
ENDMDL
