MODEL 1
REMARK minimizedAffinity 4.49412298
REMARK minimizedRMSD -1
REMARK  3 active torsions:
REMARK  status: ('A' for Active; 'I' for Inactive)
REMARK    1  A    between atoms: C3'_2  and  C2'_3 
REMARK    2  A    between atoms: C2'_3  and  C1'_4 
REMARK    3  A    between atoms: C1'_4  and  C1_5 
ROOT
ATOM      1  C1  N4B d   1       0.700   0.365   0.022  0.00  0.00    -0.075 A 
ATOM      2  C2  N4B d   1      -0.140  -0.770  -0.004  0.00  0.00     0.002 A 
ATOM      3  C3  N4B d   1       0.106  -1.825   0.839  0.00  0.00     0.002 A 
ATOM      4  C4  N4B d   1       1.193  -1.777   1.699  0.00  0.00    -0.004 A 
ATOM      5  C5  N4B d   1       1.985  -0.667   1.736  0.00  0.00     0.002 A 
ATOM      6  C6  N4B d   1       1.747   0.403   0.897  0.00  0.00     0.002 A 
ENDROOT
BRANCH   1   7
ATOM      7  C1' N4B d   1       0.522   1.507  -0.941  0.00  0.00     0.057 C 
BRANCH   7   8
ATOM      8  C2' N4B d   1       0.326   0.950  -2.348  0.00  0.00     0.009 C 
BRANCH   8   9
ATOM      9  C3' N4B d   1      -0.705   1.741  -3.134  0.00  0.00     0.004 C 
ATOM     10  C4' N4B d   1      -0.141   2.992  -3.739  0.00  0.00     0.003 C 
ENDBRANCH   8   9
ENDBRANCH   7   8
ENDBRANCH   1   7
TORSDOF 3
ENDMDL
