MODEL 1
REMARK minimizedAffinity 2.16260529
REMARK minimizedRMSD -1
REMARK  3 active torsions:
REMARK  status: ('A' for Active; 'I' for Inactive)
REMARK    1  A    between atoms: C3'_2  and  C2'_3 
REMARK    2  A    between atoms: C2'_3  and  C1'_4 
REMARK    3  A    between atoms: C1'_4  and  C1_5 
ROOT
ATOM      1  C1  N4B d   1      -1.226  -6.000  -3.244  0.00  0.00    -0.075 A 
ATOM      2  C2  N4B d   1      -2.489  -5.990  -3.876  0.00  0.00     0.002 A 
ATOM      3  C3  N4B d   1      -2.571  -5.931  -5.246  0.00  0.00     0.002 A 
ATOM      4  C4  N4B d   1      -1.409  -5.862  -6.000  0.00  0.00    -0.004 A 
ATOM      5  C5  N4B d   1      -0.193  -5.898  -5.383  0.00  0.00     0.002 A 
ATOM      6  C6  N4B d   1      -0.095  -5.961  -4.007  0.00  0.00     0.002 A 
ENDROOT
BRANCH   1   7
ATOM      7  C1' N4B d   1      -1.088  -5.977  -1.746  0.00  0.00     0.057 C 
BRANCH   7   8
ATOM      8  C2' N4B d   1      -1.441  -4.585  -1.232  0.00  0.00     0.009 C 
BRANCH   8   9
ATOM      9  C3' N4B d   1      -0.212  -3.703  -1.089  0.00  0.00     0.004 C 
ATOM     10  C4' N4B d   1      -0.397  -2.607  -0.083  0.00  0.00     0.003 C 
ENDBRANCH   8   9
ENDBRANCH   7   8
ENDBRANCH   1   7
TORSDOF 3
ENDMDL
