MODEL 1
REMARK minimizedAffinity 0.277854234
REMARK minimizedRMSD -1
REMARK  3 active torsions:
REMARK  status: ('A' for Active; 'I' for Inactive)
REMARK    1  A    between atoms: C3'_2  and  C2'_3 
REMARK    2  A    between atoms: C2'_3  and  C1'_4 
REMARK    3  A    between atoms: C1'_4  and  C1_5 
ROOT
ATOM      1  C1  N4B d   1      -3.821  -5.167   1.240  0.00  0.00    -0.075 A 
ATOM      2  C2  N4B d   1      -5.136  -5.556   1.577  0.00  0.00     0.002 A 
ATOM      3  C3  N4B d   1      -6.000  -5.977   0.595  0.00  0.00     0.002 A 
ATOM      4  C4  N4B d   1      -5.578  -6.000  -0.726  0.00  0.00    -0.004 A 
ATOM      5  C5  N4B d   1      -4.298  -5.646  -1.039  0.00  0.00     0.002 A 
ATOM      6  C6  N4B d   1      -3.418  -5.225  -0.063  0.00  0.00     0.002 A 
ENDROOT
BRANCH   1   7
ATOM      7  C1' N4B d   1      -2.868  -4.617   2.267  0.00  0.00     0.057 C 
BRANCH   7   8
ATOM      8  C2' N4B d   1      -2.241  -3.333   1.732  0.00  0.00     0.009 C 
BRANCH   8   9
ATOM      9  C3' N4B d   1      -0.757  -3.252   2.045  0.00  0.00     0.004 C 
ATOM     10  C4' N4B d   1      -0.005  -2.391   1.075  0.00  0.00     0.003 C 
ENDBRANCH   8   9
ENDBRANCH   7   8
ENDBRANCH   1   7
TORSDOF 3
ENDMDL
