MODEL 1
REMARK minimizedAffinity 1.27200043
REMARK minimizedRMSD -1
REMARK  3 active torsions:
REMARK  status: ('A' for Active; 'I' for Inactive)
REMARK    1  A    between atoms: C3'_2  and  C2'_3 
REMARK    2  A    between atoms: C2'_3  and  C1'_4 
REMARK    3  A    between atoms: C1'_4  and  C1_5 
ROOT
ATOM      1  C1  N4B d   1      -1.237  -5.774  -3.545  0.00  0.00    -0.075 A 
ATOM      2  C2  N4B d   1       0.164  -5.925  -3.457  0.00  0.00     0.002 A 
ATOM      3  C3  N4B d   1       0.921  -5.987  -4.601  0.00  0.00     0.002 A 
ATOM      4  C4  N4B d   1       0.299  -5.918  -5.839  0.00  0.00    -0.004 A 
ATOM      5  C5  N4B d   1      -1.052  -5.745  -5.915  0.00  0.00     0.002 A 
ATOM      6  C6  N4B d   1      -1.824  -5.678  -4.773  0.00  0.00     0.002 A 
ENDROOT
BRANCH   1   7
ATOM      7  C1' N4B d   1      -2.115  -5.788  -2.324  0.00  0.00     0.057 C 
BRANCH   7   8
ATOM      8  C2' N4B d   1      -3.568  -5.966  -2.754  0.00  0.00     0.009 C 
BRANCH   8   9
ATOM      9  C3' N4B d   1      -4.513  -5.999  -1.565  0.00  0.00     0.004 C 
ATOM     10  C4' N4B d   1      -3.792  -5.996  -0.250  0.00  0.00     0.003 C 
ENDBRANCH   8   9
ENDBRANCH   7   8
ENDBRANCH   1   7
TORSDOF 3
ENDMDL
