MODEL 1
REMARK minimizedAffinity -2.96894979
REMARK minimizedRMSD -1
REMARK  0 active torsions:
REMARK  status: ('A' for Active; 'I' for Inactive)
ROOT
ATOM      1  O1  BZF d   1       0.928  -1.946  -1.639  0.00  0.00    -0.204 OA
ATOM      2  C2  BZF d   1       0.023  -2.946  -1.939  0.00  0.00     0.174 A 
ATOM      3  C3  BZF d   1      -0.679  -2.639  -3.048  0.00  0.00    -0.012 A 
ATOM      4  C3A BZF d   1      -0.118  -1.411  -3.521  0.00  0.00    -0.107 A 
ATOM      5  C4  BZF d   1      -0.381  -0.611  -4.596  0.00  0.00     0.055 A 
ATOM      6  C5  BZF d   1       0.298   0.558  -4.731  0.00  0.00    -0.016 A 
ATOM      7  C6  BZF d   1       1.243   0.960  -3.810  0.00  0.00     0.022 A 
ATOM      8  C7  BZF d   1       1.542   0.197  -2.730  0.00  0.00     0.029 A 
ATOM      9  C7A BZF d   1       0.880  -1.000  -2.608  0.00  0.00     0.058 A 
ENDROOT
TORSDOF 0
ENDMDL
