MODEL 1
REMARK minimizedAffinity -6.04718781
REMARK minimizedRMSD -1
REMARK  0 active torsions:
REMARK  status: ('A' for Active; 'I' for Inactive)
ROOT
ATOM      1  O1  BZF d   1       1.667  -0.909   1.257  0.00  0.00    -0.204 OA
ATOM      2  C2  BZF d   1       1.398  -1.373  -0.016  0.00  0.00     0.174 A 
ATOM      3  C3  BZF d   1       0.146  -1.041  -0.391  0.00  0.00    -0.012 A 
ATOM      4  C3A BZF d   1      -0.371  -0.246   0.680  0.00  0.00    -0.107 A 
ATOM      5  C4  BZF d   1      -1.561   0.390   0.889  0.00  0.00     0.055 A 
ATOM      6  C5  BZF d   1      -1.775   1.020   2.074  0.00  0.00    -0.016 A 
ATOM      7  C6  BZF d   1      -0.823   1.030   3.073  0.00  0.00     0.022 A 
ATOM      8  C7  BZF d   1       0.375   0.417   2.910  0.00  0.00     0.029 A 
ATOM      9  C7A BZF d   1       0.606  -0.193   1.702  0.00  0.00     0.058 A 
ENDROOT
TORSDOF 0
ENDMDL
