MODEL 1
REMARK minimizedAffinity -2.44064116
REMARK minimizedRMSD -1
REMARK  0 active torsions:
REMARK  status: ('A' for Active; 'I' for Inactive)
ROOT
ATOM      1  O1  BZF d   1      -1.329  -0.982  -0.132  0.00  0.00    -0.204 OA
ATOM      2  C2  BZF d   1      -0.215  -1.246  -0.906  0.00  0.00     0.174 A 
ATOM      3  C3  BZF d   1       0.819  -0.462  -0.538  0.00  0.00    -0.012 A 
ATOM      4  C3A BZF d   1       0.348   0.277   0.593  0.00  0.00    -0.107 A 
ATOM      5  C4  BZF d   1       0.920   1.209   1.410  0.00  0.00     0.055 A 
ATOM      6  C5  BZF d   1       0.166   1.791   2.379  0.00  0.00    -0.016 A 
ATOM      7  C6  BZF d   1      -1.164   1.470   2.554  0.00  0.00     0.022 A 
ATOM      8  C7  BZF d   1      -1.775   0.547   1.771  0.00  0.00     0.029 A 
ATOM      9  C7A BZF d   1      -1.006  -0.067   0.813  0.00  0.00     0.058 A 
ENDROOT
TORSDOF 0
ENDMDL
