MODEL 1
REMARK minimizedAffinity -1.93931735
REMARK minimizedRMSD -1
REMARK  0 active torsions:
REMARK  status: ('A' for Active; 'I' for Inactive)
ROOT
ATOM      1  O1  BZF d   1      -0.384   0.729  -6.000  0.00  0.00    -0.204 OA
ATOM      2  C2  BZF d   1      -1.182  -0.324  -5.595  0.00  0.00     0.174 A 
ATOM      3  C3  BZF d   1      -0.704  -0.879  -4.463  0.00  0.00    -0.012 A 
ATOM      4  C3A BZF d   1       0.414  -0.068  -4.089  0.00  0.00    -0.107 A 
ATOM      5  C4  BZF d   1       1.292  -0.105  -3.044  0.00  0.00     0.055 A 
ATOM      6  C5  BZF d   1       2.316   0.788  -3.010  0.00  0.00    -0.016 A 
ATOM      7  C6  BZF d   1       2.495   1.726  -4.006  0.00  0.00     0.022 A 
ATOM      8  C7  BZF d   1       1.647   1.804  -5.061  0.00  0.00     0.029 A 
ATOM      9  C7A BZF d   1       0.592   0.924  -5.080  0.00  0.00     0.058 A 
ENDROOT
TORSDOF 0
ENDMDL
