MODEL 1
REMARK minimizedAffinity -1.14512396
REMARK minimizedRMSD -1
REMARK  0 active torsions:
REMARK  status: ('A' for Active; 'I' for Inactive)
ROOT
ATOM      1  O1  BZF d   1      -1.733   0.495   2.252  0.00  0.00    -0.204 OA
ATOM      2  C2  BZF d   1      -2.800  -0.119   1.626  0.00  0.00     0.174 A 
ATOM      3  C3  BZF d   1      -2.462  -0.516   0.382  0.00  0.00    -0.012 A 
ATOM      4  C3A BZF d   1      -1.071  -0.207   0.254  0.00  0.00    -0.107 A 
ATOM      5  C4  BZF d   1      -0.159  -0.378  -0.748  0.00  0.00     0.055 A 
ATOM      6  C5  BZF d   1       1.102   0.100  -0.583  0.00  0.00    -0.016 A 
ATOM      7  C6  BZF d   1       1.484   0.757   0.569  0.00  0.00     0.022 A 
ATOM      8  C7  BZF d   1       0.617   0.946   1.593  0.00  0.00     0.029 A 
ATOM      9  C7A BZF d   1      -0.649   0.436   1.441  0.00  0.00     0.058 A 
ENDROOT
TORSDOF 0
ENDMDL
