MODEL 1
REMARK minimizedAffinity -2.46106768
REMARK minimizedRMSD -1
REMARK  0 active torsions:
REMARK  status: ('A' for Active; 'I' for Inactive)
ROOT
ATOM      1  O1  BZF d   1      -2.717  -2.107  -0.412  0.00  0.00    -0.204 OA
ATOM      2  C2  BZF d   1      -2.531  -3.072  -1.383  0.00  0.00     0.174 A 
ATOM      3  C3  BZF d   1      -1.361  -2.884  -2.027  0.00  0.00    -0.012 A 
ATOM      4  C3A BZF d   1      -0.737  -1.784  -1.358  0.00  0.00    -0.107 A 
ATOM      5  C4  BZF d   1       0.453  -1.136  -1.527  0.00  0.00     0.055 A 
ATOM      6  C5  BZF d   1       0.731  -0.052  -0.755  0.00  0.00    -0.016 A 
ATOM      7  C6  BZF d   1      -0.159   0.412   0.191  0.00  0.00     0.022 A 
ATOM      8  C7  BZF d   1      -1.350  -0.201   0.398  0.00  0.00     0.029 A 
ATOM      9  C7A BZF d   1      -1.619  -1.315  -0.358  0.00  0.00     0.058 A 
ENDROOT
TORSDOF 0
ENDMDL
