MODEL 1
REMARK minimizedAffinity -1.96267617
REMARK minimizedRMSD -1
REMARK  0 active torsions:
REMARK  status: ('A' for Active; 'I' for Inactive)
ROOT
ATOM      1  O1  BZF d   1       0.164  -1.330  -0.727  0.00  0.00    -0.204 OA
ATOM      2  C2  BZF d   1       0.148  -0.199   0.067  0.00  0.00     0.174 A 
ATOM      3  C3  BZF d   1      -1.107   0.087   0.467  0.00  0.00    -0.012 A 
ATOM      4  C3A BZF d   1      -1.916  -0.981  -0.036  0.00  0.00    -0.107 A 
ATOM      5  C4  BZF d   1      -3.248  -1.270   0.047  0.00  0.00     0.055 A 
ATOM      6  C5  BZF d   1      -3.731  -2.352  -0.618  0.00  0.00    -0.016 A 
ATOM      7  C6  BZF d   1      -2.914  -3.163  -1.377  0.00  0.00     0.022 A 
ATOM      8  C7  BZF d   1      -1.585  -2.919  -1.485  0.00  0.00     0.029 A 
ATOM      9  C7A BZF d   1      -1.087  -1.846  -0.788  0.00  0.00     0.058 A 
ENDROOT
TORSDOF 0
ENDMDL
