MODEL 1
REMARK minimizedAffinity 0.015841255
REMARK minimizedRMSD -1
REMARK  0 active torsions:
REMARK  status: ('A' for Active; 'I' for Inactive)
ROOT
ATOM      1  O1  BZF d   1      -2.360  -0.995  -0.400  0.00  0.00    -0.204 OA
ATOM      2  C2  BZF d   1      -2.108  -2.004  -1.310  0.00  0.00     0.174 A 
ATOM      3  C3  BZF d   1      -0.785  -2.251  -1.396  0.00  0.00    -0.012 A 
ATOM      4  C3A BZF d   1      -0.179  -1.405  -0.415  0.00  0.00    -0.107 A 
ATOM      5  C4  BZF d   1       1.111  -1.208  -0.012  0.00  0.00     0.055 A 
ATOM      6  C5  BZF d   1       1.374  -0.255   0.920  0.00  0.00    -0.016 A 
ATOM      7  C6  BZF d   1       0.374   0.523   1.465  0.00  0.00     0.022 A 
ATOM      8  C7  BZF d   1      -0.922   0.362   1.101  0.00  0.00     0.029 A 
ATOM      9  C7A BZF d   1      -1.195  -0.624   0.183  0.00  0.00     0.058 A 
ENDROOT
TORSDOF 0
ENDMDL
