MODEL 1
REMARK minimizedAffinity -0.633757412
REMARK minimizedRMSD -1
REMARK  0 active torsions:
REMARK  status: ('A' for Active; 'I' for Inactive)
ROOT
ATOM      1  O1  BZF d   1      -0.614  -1.089   0.799  0.00  0.00    -0.204 OA
ATOM      2  C2  BZF d   1       0.453  -0.240   1.018  0.00  0.00     0.174 A 
ATOM      3  C3  BZF d   1       1.159  -0.056  -0.116  0.00  0.00    -0.012 A 
ATOM      4  C3A BZF d   1       0.437  -0.765  -1.128  0.00  0.00    -0.107 A 
ATOM      5  C4  BZF d   1       0.630  -0.944  -2.468  0.00  0.00     0.055 A 
ATOM      6  C5  BZF d   1      -0.218  -1.754  -3.155  0.00  0.00    -0.016 A 
ATOM      7  C6  BZF d   1      -1.265  -2.403  -2.534  0.00  0.00     0.022 A 
ATOM      8  C7  BZF d   1      -1.499  -2.252  -1.207  0.00  0.00     0.029 A 
ATOM      9  C7A BZF d   1      -0.663  -1.409  -0.517  0.00  0.00     0.058 A 
ENDROOT
TORSDOF 0
ENDMDL
