MODEL 1
REMARK minimizedAffinity 4.64970016
REMARK minimizedRMSD -1
REMARK  2 active torsions:
REMARK  status: ('A' for Active; 'I' for Inactive)
REMARK    1  A    between atoms: C1_2  and  C2_3 
REMARK    2  A    between atoms: C2_3  and  C3_4 
ROOT
ATOM      1  C3  UNL d   1       2.139   0.055  -1.761  0.00  0.00    -0.075 A 
ATOM      2  C4  UNL d   1       1.882  -1.298  -1.498  0.00  0.00     0.002 A 
ATOM      3  C5  UNL d   1       1.469  -1.707  -0.229  0.00  0.00     0.002 A 
ATOM      4  C6  UNL d   1       1.320  -0.772   0.793  0.00  0.00    -0.004 A 
ATOM      5  C7  UNL d   1       1.589   0.573   0.546  0.00  0.00     0.002 A 
ATOM      6  C8  UNL d   1       1.997   0.985  -0.723  0.00  0.00     0.002 A 
ENDROOT
BRANCH   1   7
ATOM      7  C2  UNL d   1       2.557   0.507  -3.140  0.00  0.00     0.056 C 
BRANCH   7   8
ATOM      8  C1  UNL d   1       1.395   0.647  -4.130  0.00  0.00     0.007 C 
ATOM      9  C   UNL d   1       0.813   2.053  -4.178  0.00  0.00     0.009 C 
ENDBRANCH   7   8
ENDBRANCH   1   7
TORSDOF 2
ENDMDL
