MODEL 1
REMARK minimizedAffinity 7.57860661
REMARK minimizedRMSD -1
REMARK  2 active torsions:
REMARK  status: ('A' for Active; 'I' for Inactive)
REMARK    1  A    between atoms: C1_2  and  C2_3 
REMARK    2  A    between atoms: C2_3  and  C3_4 
ROOT
ATOM      1  C3  UNL d   1       1.608   0.672   0.533  0.00  0.00    -0.075 A 
ATOM      2  C4  UNL d   1       2.783   1.137   1.142  0.00  0.00     0.002 A 
ATOM      3  C5  UNL d   1       2.720   1.982   2.250  0.00  0.00     0.002 A 
ATOM      4  C6  UNL d   1       1.484   2.381   2.756  0.00  0.00    -0.004 A 
ATOM      5  C7  UNL d   1       0.311   1.938   2.149  0.00  0.00     0.002 A 
ATOM      6  C8  UNL d   1       0.372   1.088   1.043  0.00  0.00     0.002 A 
ENDROOT
BRANCH   1   7
ATOM      7  C2  UNL d   1       1.670  -0.267  -0.648  0.00  0.00     0.056 C 
BRANCH   7   8
ATOM      8  C1  UNL d   1       2.423   0.300  -1.856  0.00  0.00     0.007 C 
ATOM      9  C   UNL d   1       1.539   0.481  -3.083  0.00  0.00     0.009 C 
ENDBRANCH   7   8
ENDBRANCH   1   7
TORSDOF 2
ENDMDL
