MODEL 1
REMARK minimizedAffinity 9.47691345
REMARK minimizedRMSD -1
REMARK  2 active torsions:
REMARK  status: ('A' for Active; 'I' for Inactive)
REMARK    1  A    between atoms: C1_2  and  C2_3 
REMARK    2  A    between atoms: C2_3  and  C3_4 
ROOT
ATOM      1  C3  UNL d   1       2.463   1.087   0.402  0.00  0.00    -0.075 A 
ATOM      2  C4  UNL d   1       1.835  -0.118   0.055  0.00  0.00     0.002 A 
ATOM      3  C5  UNL d   1       2.043  -0.688  -1.202  0.00  0.00     0.002 A 
ATOM      4  C6  UNL d   1       2.871  -0.058  -2.128  0.00  0.00    -0.004 A 
ATOM      5  C7  UNL d   1       3.487   1.148  -1.799  0.00  0.00     0.002 A 
ATOM      6  C8  UNL d   1       3.284   1.719  -0.541  0.00  0.00     0.002 A 
ENDROOT
BRANCH   1   7
ATOM      7  C2  UNL d   1       2.265   1.694   1.771  0.00  0.00     0.056 C 
BRANCH   7   8
ATOM      8  C1  UNL d   1       3.338   2.716   2.161  0.00  0.00     0.007 C 
ATOM      9  C   UNL d   1       3.819   2.564   3.597  0.00  0.00     0.009 C 
ENDBRANCH   7   8
ENDBRANCH   1   7
TORSDOF 2
ENDMDL
