MODEL 1
REMARK minimizedAffinity 8.82199955
REMARK minimizedRMSD -1
REMARK  2 active torsions:
REMARK  status: ('A' for Active; 'I' for Inactive)
REMARK    1  A    between atoms: C1_2  and  C2_3 
REMARK    2  A    between atoms: C2_3  and  C3_4 
ROOT
ATOM      1  C3  UNL d   1       1.902   1.771  -3.634  0.00  0.00    -0.075 A 
ATOM      2  C4  UNL d   1       3.034   1.075  -3.187  0.00  0.00     0.002 A 
ATOM      3  C5  UNL d   1       2.896  -0.088  -2.427  0.00  0.00     0.002 A 
ATOM      4  C6  UNL d   1       1.629  -0.562  -2.098  0.00  0.00    -0.004 A 
ATOM      5  C7  UNL d   1       0.497   0.131  -2.523  0.00  0.00     0.002 A 
ATOM      6  C8  UNL d   1       0.632   1.292  -3.287  0.00  0.00     0.002 A 
ENDROOT
BRANCH   1   7
ATOM      7  C2  UNL d   1       2.043   3.013  -4.481  0.00  0.00     0.056 C 
BRANCH   7   8
ATOM      8  C1  UNL d   1       2.855   2.804  -5.764  0.00  0.00     0.007 C 
ATOM      9  C   UNL d   1       3.897   3.890  -5.999  0.00  0.00     0.009 C 
ENDBRANCH   7   8
ENDBRANCH   1   7
TORSDOF 2
ENDMDL
