MODEL 1
REMARK minimizedAffinity 9.60800171
REMARK minimizedRMSD -1
REMARK  2 active torsions:
REMARK  status: ('A' for Active; 'I' for Inactive)
REMARK    1  A    between atoms: C1_2  and  C2_3 
REMARK    2  A    between atoms: C2_3  and  C3_4 
ROOT
ATOM      1  C3  UNL d   1       1.836   0.546  -0.205  0.00  0.00    -0.075 A 
ATOM      2  C4  UNL d   1       2.653   1.289   0.660  0.00  0.00     0.002 A 
ATOM      3  C5  UNL d   1       2.103   1.956   1.755  0.00  0.00     0.002 A 
ATOM      4  C6  UNL d   1       0.731   1.896   1.994  0.00  0.00    -0.004 A 
ATOM      5  C7  UNL d   1      -0.091   1.174   1.132  0.00  0.00     0.002 A 
ATOM      6  C8  UNL d   1       0.457   0.503   0.038  0.00  0.00     0.002 A 
ENDROOT
BRANCH   1   7
ATOM      7  C2  UNL d   1       2.429  -0.202  -1.375  0.00  0.00     0.056 C 
BRANCH   7   8
ATOM      8  C1  UNL d   1       2.786   0.690  -2.569  0.00  0.00     0.007 C 
ATOM      9  C   UNL d   1       1.721   0.690  -3.657  0.00  0.00     0.009 C 
ENDBRANCH   7   8
ENDBRANCH   1   7
TORSDOF 2
ENDMDL
