MODEL 1
REMARK minimizedAffinity -0.0797354579
REMARK minimizedRMSD -1
REMARK  2 active torsions:
REMARK  status: ('A' for Active; 'I' for Inactive)
REMARK    1  A    between atoms: C1_2  and  C2_3 
REMARK    2  A    between atoms: C2_3  and  C3_4 
ROOT
ATOM      1  C3  UNL d   1       2.691   2.616   2.348  0.00  0.00    -0.075 A 
ATOM      2  C4  UNL d   1       2.821   1.711   1.285  0.00  0.00     0.002 A 
ATOM      3  C5  UNL d   1       1.695   1.096   0.736  0.00  0.00     0.002 A 
ATOM      4  C6  UNL d   1       0.429   1.369   1.249  0.00  0.00    -0.004 A 
ATOM      5  C7  UNL d   1       0.290   2.254   2.317  0.00  0.00     0.002 A 
ATOM      6  C8  UNL d   1       1.415   2.874   2.865  0.00  0.00     0.002 A 
ENDROOT
BRANCH   1   7
ATOM      7  C2  UNL d   1       3.903   3.307   2.927  0.00  0.00     0.056 C 
BRANCH   7   8
ATOM      8  C1  UNL d   1       3.914   4.825   2.719  0.00  0.00     0.007 C 
ATOM      9  C   UNL d   1       4.120   5.606   4.010  0.00  0.00     0.009 C 
ENDBRANCH   7   8
ENDBRANCH   1   7
TORSDOF 2
ENDMDL
