MODEL 1
REMARK minimizedAffinity 9.58878517
REMARK minimizedRMSD -1
REMARK  2 active torsions:
REMARK  status: ('A' for Active; 'I' for Inactive)
REMARK    1  A    between atoms: C1_2  and  C2_3 
REMARK    2  A    between atoms: C2_3  and  C3_4 
ROOT
ATOM      1  C3  UNL d   1       1.753   0.481  -0.666  0.00  0.00    -0.075 A 
ATOM      2  C4  UNL d   1       2.912  -0.308  -0.687  0.00  0.00     0.002 A 
ATOM      3  C5  UNL d   1       3.472  -0.712  -1.899  0.00  0.00     0.002 A 
ATOM      4  C6  UNL d   1       2.877  -0.342  -3.103  0.00  0.00    -0.004 A 
ATOM      5  C7  UNL d   1       1.716   0.428  -3.094  0.00  0.00     0.002 A 
ATOM      6  C8  UNL d   1       1.156   0.837  -1.882  0.00  0.00     0.002 A 
ENDROOT
BRANCH   1   7
ATOM      7  C2  UNL d   1       1.159   0.946   0.642  0.00  0.00     0.056 C 
BRANCH   7   8
ATOM      8  C1  UNL d   1       0.084   2.028   0.489  0.00  0.00     0.007 C 
ATOM      9  C   UNL d   1      -1.208   1.699   1.224  0.00  0.00     0.009 C 
ENDBRANCH   7   8
ENDBRANCH   1   7
TORSDOF 2
ENDMDL
