MODEL 1
REMARK minimizedAffinity 4.99437618
REMARK minimizedRMSD -1
REMARK  2 active torsions:
REMARK  status: ('A' for Active; 'I' for Inactive)
REMARK    1  A    between atoms: C1_2  and  C2_3 
REMARK    2  A    between atoms: C2_3  and  C3_4 
ROOT
ATOM      1  C3  UNL d   1       1.425   0.820   0.396  0.00  0.00    -0.075 A 
ATOM      2  C4  UNL d   1       1.975   1.141  -0.853  0.00  0.00     0.002 A 
ATOM      3  C5  UNL d   1       2.339   0.134  -1.747  0.00  0.00     0.002 A 
ATOM      4  C6  UNL d   1       2.168  -1.205  -1.400  0.00  0.00    -0.004 A 
ATOM      5  C7  UNL d   1       1.639  -1.536  -0.154  0.00  0.00     0.002 A 
ATOM      6  C8  UNL d   1       1.270  -0.529   0.740  0.00  0.00     0.002 A 
ENDROOT
BRANCH   1   7
ATOM      7  C2  UNL d   1       1.002   1.906   1.356  0.00  0.00     0.056 C 
BRANCH   7   8
ATOM      8  C1  UNL d   1      -0.513   2.130   1.416  0.00  0.00     0.007 C 
ATOM      9  C   UNL d   1      -1.076   2.769   0.153  0.00  0.00     0.009 C 
ENDBRANCH   7   8
ENDBRANCH   1   7
TORSDOF 2
ENDMDL
