MODEL 1
REMARK minimizedAffinity 6.59523153
REMARK minimizedRMSD -1
REMARK  2 active torsions:
REMARK  status: ('A' for Active; 'I' for Inactive)
REMARK    1  A    between atoms: C1_2  and  C2_3 
REMARK    2  A    between atoms: C2_3  and  C3_4 
ROOT
ATOM      1  C3  UNL d   1       1.820   0.414   0.454  0.00  0.00    -0.075 A 
ATOM      2  C4  UNL d   1       2.185  -0.868   0.891  0.00  0.00     0.002 A 
ATOM      3  C5  UNL d   1       2.759  -1.781   0.006  0.00  0.00     0.002 A 
ATOM      4  C6  UNL d   1       2.965  -1.430  -1.326  0.00  0.00    -0.004 A 
ATOM      5  C7  UNL d   1       2.591  -0.165  -1.775  0.00  0.00     0.002 A 
ATOM      6  C8  UNL d   1       2.021   0.752  -0.891  0.00  0.00     0.002 A 
ENDROOT
BRANCH   1   7
ATOM      7  C2  UNL d   1       1.226   1.417   1.413  0.00  0.00     0.056 C 
BRANCH   7   8
ATOM      8  C1  UNL d   1      -0.028   2.120   0.883  0.00  0.00     0.007 C 
ATOM      9  C   UNL d   1      -1.175   2.138   1.885  0.00  0.00     0.009 C 
ENDBRANCH   7   8
ENDBRANCH   1   7
TORSDOF 2
ENDMDL
