MODEL 1
REMARK minimizedAffinity 6.69521093
REMARK minimizedRMSD -1
REMARK  2 active torsions:
REMARK  status: ('A' for Active; 'I' for Inactive)
REMARK    1  A    between atoms: C1_2  and  C2_3 
REMARK    2  A    between atoms: C2_3  and  C3_4 
ROOT
ATOM      1  C3  UNL d   1      -5.182   2.486   0.520  0.00  0.00    -0.075 A 
ATOM      2  C4  UNL d   1      -5.596   2.757  -0.792  0.00  0.00     0.002 A 
ATOM      3  C5  UNL d   1      -5.994   4.043  -1.159  0.00  0.00     0.002 A 
ATOM      4  C6  UNL d   1      -5.993   5.070  -0.218  0.00  0.00    -0.004 A 
ATOM      5  C7  UNL d   1      -5.599   4.809   1.093  0.00  0.00     0.002 A 
ATOM      6  C8  UNL d   1      -5.197   3.524   1.461  0.00  0.00     0.002 A 
ENDROOT
BRANCH   1   7
ATOM      7  C2  UNL d   1      -4.722   1.103   0.915  0.00  0.00     0.056 C 
BRANCH   7   8
ATOM      8  C1  UNL d   1      -3.258   1.036   1.360  0.00  0.00     0.007 C 
ATOM      9  C   UNL d   1      -2.909  -0.256   2.085  0.00  0.00     0.009 C 
ENDBRANCH   7   8
ENDBRANCH   1   7
TORSDOF 2
ENDMDL
