MODEL 1
REMARK minimizedAffinity 5.02215099
REMARK minimizedRMSD -1
REMARK  2 active torsions:
REMARK  status: ('A' for Active; 'I' for Inactive)
REMARK    1  A    between atoms: C1_2  and  C2_3 
REMARK    2  A    between atoms: C2_3  and  C3_4 
ROOT
ATOM      1  C3  UNL d   1       2.845   0.517  -1.115  0.00  0.00    -0.075 A 
ATOM      2  C4  UNL d   1       2.288  -0.611  -0.496  0.00  0.00     0.002 A 
ATOM      3  C5  UNL d   1       1.899  -0.564   0.844  0.00  0.00     0.002 A 
ATOM      4  C6  UNL d   1       2.072   0.605   1.581  0.00  0.00    -0.004 A 
ATOM      5  C7  UNL d   1       2.640   1.726   0.981  0.00  0.00     0.002 A 
ATOM      6  C8  UNL d   1       3.025   1.683  -0.360  0.00  0.00     0.002 A 
ENDROOT
BRANCH   1   7
ATOM      7  C2  UNL d   1       3.240   0.482  -2.572  0.00  0.00     0.056 C 
BRANCH   7   8
ATOM      8  C1  UNL d   1       2.063   0.287  -3.533  0.00  0.00     0.007 C 
ATOM      9  C   UNL d   1       1.226   1.546  -3.720  0.00  0.00     0.009 C 
ENDBRANCH   7   8
ENDBRANCH   1   7
TORSDOF 2
ENDMDL
