MODEL 1
REMARK minimizedAffinity 9.64568138
REMARK minimizedRMSD -1
REMARK  2 active torsions:
REMARK  status: ('A' for Active; 'I' for Inactive)
REMARK    1  A    between atoms: C1_2  and  C2_3 
REMARK    2  A    between atoms: C2_3  and  C3_4 
ROOT
ATOM      1  C3  UNL d   1       2.235   0.380  -0.132  0.00  0.00    -0.075 A 
ATOM      2  C4  UNL d   1       0.887   0.551   0.214  0.00  0.00     0.002 A 
ATOM      3  C5  UNL d   1       0.532   1.330   1.315  0.00  0.00     0.002 A 
ATOM      4  C6  UNL d   1       1.518   1.938   2.089  0.00  0.00    -0.004 A 
ATOM      5  C7  UNL d   1       2.861   1.761   1.765  0.00  0.00     0.002 A 
ATOM      6  C8  UNL d   1       3.219   0.985   0.660  0.00  0.00     0.002 A 
ENDROOT
BRANCH   1   7
ATOM      7  C2  UNL d   1       2.625  -0.438  -1.341  0.00  0.00     0.056 C 
BRANCH   7   8
ATOM      8  C1  UNL d   1       2.900   0.396  -2.596  0.00  0.00     0.007 C 
ATOM      9  C   UNL d   1       1.656   0.638  -3.441  0.00  0.00     0.009 C 
ENDBRANCH   7   8
ENDBRANCH   1   7
TORSDOF 2
ENDMDL
