MODEL 1
REMARK minimizedAffinity 5.6235714
REMARK minimizedRMSD -1
REMARK  2 active torsions:
REMARK  status: ('A' for Active; 'I' for Inactive)
REMARK    1  A    between atoms: C1_2  and  C2_3 
REMARK    2  A    between atoms: C2_3  and  C3_4 
ROOT
ATOM      1  C3  UNL d   1       1.857   0.790  -1.090  0.00  0.00    -0.075 A 
ATOM      2  C4  UNL d   1       1.076   1.826  -1.623  0.00  0.00     0.002 A 
ATOM      3  C5  UNL d   1       0.900   1.943  -3.002  0.00  0.00     0.002 A 
ATOM      4  C6  UNL d   1       1.509   1.034  -3.864  0.00  0.00    -0.004 A 
ATOM      5  C7  UNL d   1       2.300   0.011  -3.347  0.00  0.00     0.002 A 
ATOM      6  C8  UNL d   1       2.474  -0.111  -1.967  0.00  0.00     0.002 A 
ENDROOT
BRANCH   1   7
ATOM      7  C2  UNL d   1       2.027   0.640   0.403  0.00  0.00     0.056 C 
BRANCH   7   8
ATOM      8  C1  UNL d   1       1.623   1.882   1.205  0.00  0.00     0.007 C 
ATOM      9  C   UNL d   1       2.673   2.309   2.222  0.00  0.00     0.009 C 
ENDBRANCH   7   8
ENDBRANCH   1   7
TORSDOF 2
ENDMDL
