MODEL 1
REMARK minimizedAffinity 13.1744003
REMARK minimizedRMSD -1
REMARK  0 active torsions:
REMARK  status: ('A' for Active; 'I' for Inactive)
ROOT
ATOM      1  C1  DEN d   1       0.022   2.129   1.607  0.00  0.00     0.130 A 
ATOM      2  C2  DEN d   1       1.112   2.791   2.318  0.00  0.00    -0.031 A 
ATOM      3  C3  DEN d   1       2.184   1.800   2.536  0.00  0.00     0.027 A 
ATOM      4  C4  DEN d   1       2.263  -0.683   1.842  0.00  0.00     0.027 A 
ATOM      5  C5  DEN d   1       1.566  -1.700   1.227  0.00  0.00    -0.003 A 
ATOM      6  C6  DEN d   1       0.302  -1.522   0.730  0.00  0.00     0.001 A 
ATOM      7  C7  DEN d   1      -0.287  -0.287   0.799  0.00  0.00     0.017 A 
ATOM      8  C8  DEN d   1       0.407   0.741   1.424  0.00  0.00    -0.094 A 
ATOM      9  C9  DEN d   1       1.689   0.544   1.910  0.00  0.00    -0.072 A 
ENDROOT
TORSDOF 0
ENDMDL
