MODEL 1
REMARK minimizedAffinity 7.55921602
REMARK minimizedRMSD -1
REMARK  0 active torsions:
REMARK  status: ('A' for Active; 'I' for Inactive)
ROOT
ATOM      1  C1  DEN d   1       2.085  -1.284   3.254  0.00  0.00     0.130 A 
ATOM      2  C2  DEN d   1       1.490  -2.175   2.261  0.00  0.00    -0.031 A 
ATOM      3  C3  DEN d   1       1.458  -1.461   0.969  0.00  0.00     0.027 A 
ATOM      4  C4  DEN d   1       2.272   0.922   0.411  0.00  0.00     0.027 A 
ATOM      5  C5  DEN d   1       2.840   2.065   0.931  0.00  0.00    -0.003 A 
ATOM      6  C6  DEN d   1       3.162   2.183   2.257  0.00  0.00     0.001 A 
ATOM      7  C7  DEN d   1       2.959   1.123   3.101  0.00  0.00     0.017 A 
ATOM      8  C8  DEN d   1       2.381  -0.030   2.586  0.00  0.00    -0.094 A 
ATOM      9  C9  DEN d   1       2.074  -0.134   1.240  0.00  0.00    -0.072 A 
ENDROOT
TORSDOF 0
ENDMDL
