MODEL 1
REMARK minimizedAffinity 12.4396067
REMARK minimizedRMSD -1
REMARK  0 active torsions:
REMARK  status: ('A' for Active; 'I' for Inactive)
ROOT
ATOM      1  C1  DEN d   1       0.155  -5.747  -1.930  0.00  0.00     0.130 A 
ATOM      2  C2  DEN d   1       0.364  -5.798  -0.485  0.00  0.00    -0.031 A 
ATOM      3  C3  DEN d   1       1.816  -5.905  -0.237  0.00  0.00     0.027 A 
ATOM      4  C4  DEN d   1       3.750  -5.993  -1.941  0.00  0.00     0.027 A 
ATOM      5  C5  DEN d   1       4.067  -5.992  -3.281  0.00  0.00    -0.003 A 
ATOM      6  C6  DEN d   1       3.107  -5.944  -4.258  0.00  0.00     0.001 A 
ATOM      7  C7  DEN d   1       1.786  -5.850  -3.907  0.00  0.00     0.017 A 
ATOM      8  C8  DEN d   1       1.459  -5.857  -2.558  0.00  0.00    -0.094 A 
ATOM      9  C9  DEN d   1       2.444  -5.894  -1.586  0.00  0.00    -0.072 A 
ENDROOT
TORSDOF 0
ENDMDL
