MODEL 1
REMARK minimizedAffinity 19.6791782
REMARK minimizedRMSD -1
REMARK  0 active torsions:
REMARK  status: ('A' for Active; 'I' for Inactive)
ROOT
ATOM      1  C1  DEN d   1      -4.700  -2.202  -3.472  0.00  0.00     0.130 A 
ATOM      2  C2  DEN d   1      -5.369  -1.206  -4.304  0.00  0.00    -0.031 A 
ATOM      3  C3  DEN d   1      -5.990  -1.908  -5.446  0.00  0.00     0.027 A 
ATOM      4  C4  DEN d   1      -5.985  -4.427  -5.999  0.00  0.00     0.027 A 
ATOM      5  C5  DEN d   1      -5.538  -5.665  -5.593  0.00  0.00    -0.003 A 
ATOM      6  C6  DEN d   1      -4.758  -5.830  -4.479  0.00  0.00     0.001 A 
ATOM      7  C7  DEN d   1      -4.439  -4.744  -3.707  0.00  0.00     0.017 A 
ATOM      8  C8  DEN d   1      -4.880  -3.492  -4.114  0.00  0.00    -0.094 A 
ATOM      9  C9  DEN d   1      -5.678  -3.347  -5.237  0.00  0.00    -0.072 A 
ENDROOT
TORSDOF 0
ENDMDL
