MODEL 1
REMARK minimizedAffinity 8.31883621
REMARK minimizedRMSD -1
REMARK  0 active torsions:
REMARK  status: ('A' for Active; 'I' for Inactive)
ROOT
ATOM      1  C1  DEN d   1      -3.391   3.478  -1.476  0.00  0.00     0.130 A 
ATOM      2  C2  DEN d   1      -2.797   2.610  -0.463  0.00  0.00    -0.031 A 
ATOM      3  C3  DEN d   1      -2.664   1.258  -1.041  0.00  0.00     0.027 A 
ATOM      4  C4  DEN d   1      -3.312   0.430  -3.397  0.00  0.00     0.027 A 
ATOM      5  C5  DEN d   1      -3.862   0.799  -4.604  0.00  0.00    -0.003 A 
ATOM      6  C6  DEN d   1      -4.321   2.067  -4.840  0.00  0.00     0.001 A 
ATOM      7  C7  DEN d   1      -4.197   3.026  -3.869  0.00  0.00     0.017 A 
ATOM      8  C8  DEN d   1      -3.650   2.659  -2.646  0.00  0.00    -0.094 A 
ATOM      9  C9  DEN d   1      -3.181   1.375  -2.432  0.00  0.00    -0.072 A 
ENDROOT
TORSDOF 0
ENDMDL
