MODEL 1
REMARK minimizedAffinity 1.46075618
REMARK minimizedRMSD -1
REMARK  0 active torsions:
REMARK  status: ('A' for Active; 'I' for Inactive)
ROOT
ATOM      1  C1  DEN d   1       6.000   5.998  -4.784  0.00  0.00     0.130 A 
ATOM      2  C2  DEN d   1       5.147   5.994  -5.969  0.00  0.00    -0.031 A 
ATOM      3  C3  DEN d   1       3.768   5.687  -5.538  0.00  0.00     0.027 A 
ATOM      4  C4  DEN d   1       2.875   5.225  -3.163  0.00  0.00     0.027 A 
ATOM      5  C5  DEN d   1       3.224   5.108  -1.835  0.00  0.00    -0.003 A 
ATOM      6  C6  DEN d   1       4.518   5.245  -1.406  0.00  0.00     0.001 A 
ATOM      7  C7  DEN d   1       5.503   5.552  -2.306  0.00  0.00     0.017 A 
ATOM      8  C8  DEN d   1       5.160   5.664  -3.647  0.00  0.00    -0.094 A 
ATOM      9  C9  DEN d   1       3.845   5.534  -4.060  0.00  0.00    -0.072 A 
ENDROOT
TORSDOF 0
ENDMDL
