MODEL 1
REMARK minimizedAffinity 11.5476379
REMARK minimizedRMSD -1
REMARK  0 active torsions:
REMARK  status: ('A' for Active; 'I' for Inactive)
ROOT
ATOM      1  C1  DEN d   1      -5.189   1.496  -3.530  0.00  0.00     0.130 A 
ATOM      2  C2  DEN d   1      -3.903   0.828  -3.715  0.00  0.00    -0.031 A 
ATOM      3  C3  DEN d   1      -2.990   1.293  -2.651  0.00  0.00     0.027 A 
ATOM      4  C4  DEN d   1      -3.443   2.968  -0.742  0.00  0.00     0.027 A 
ATOM      5  C5  DEN d   1      -4.383   3.804  -0.182  0.00  0.00    -0.003 A 
ATOM      6  C6  DEN d   1      -5.636   3.954  -0.714  0.00  0.00     0.001 A 
ATOM      7  C7  DEN d   1      -5.998   3.223  -1.814  0.00  0.00     0.017 A 
ATOM      8  C8  DEN d   1      -5.054   2.383  -2.389  0.00  0.00    -0.094 A 
ATOM      9  C9  DEN d   1      -3.796   2.236  -1.829  0.00  0.00    -0.072 A 
ENDROOT
TORSDOF 0
ENDMDL
