MODEL 1
REMARK minimizedAffinity 12.7490129
REMARK minimizedRMSD -1
REMARK  0 active torsions:
REMARK  status: ('A' for Active; 'I' for Inactive)
ROOT
ATOM      1  C1  DEN d   1       1.143  -1.134   5.203  0.00  0.00     0.130 A 
ATOM      2  C2  DEN d   1       0.568  -2.460   5.412  0.00  0.00    -0.031 A 
ATOM      3  C3  DEN d   1       0.629  -3.191   4.130  0.00  0.00     0.027 A 
ATOM      4  C4  DEN d   1       1.558  -2.403   1.856  0.00  0.00     0.027 A 
ATOM      5  C5  DEN d   1       2.140  -1.351   1.185  0.00  0.00    -0.003 A 
ATOM      6  C6  DEN d   1       2.397  -0.150   1.792  0.00  0.00     0.001 A 
ATOM      7  C7  DEN d   1       2.112   0.012   3.122  0.00  0.00     0.017 A 
ATOM      8  C8  DEN d   1       1.519  -1.042   3.804  0.00  0.00    -0.094 A 
ATOM      9  C9  DEN d   1       1.279  -2.252   3.175  0.00  0.00    -0.072 A 
ENDROOT
TORSDOF 0
ENDMDL
