MODEL 1
REMARK minimizedAffinity 7.58193684
REMARK minimizedRMSD -1
REMARK  0 active torsions:
REMARK  status: ('A' for Active; 'I' for Inactive)
ROOT
ATOM      1  O1  BZF d   1      -3.473  -0.116  -0.999  0.00  0.00    -0.204 OA
ATOM      2  C2  BZF d   1      -4.310   0.174   0.061  0.00  0.00     0.174 A 
ATOM      3  C3  BZF d   1      -3.597   0.497   1.159  0.00  0.00    -0.012 A 
ATOM      4  C3A BZF d   1      -2.230   0.494   0.735  0.00  0.00    -0.107 A 
ATOM      5  C4  BZF d   1      -1.049   0.753   1.370  0.00  0.00     0.055 A 
ATOM      6  C5  BZF d   1       0.116   0.589   0.690  0.00  0.00    -0.016 A 
ATOM      7  C6  BZF d   1       0.138   0.164  -0.622  0.00  0.00     0.022 A 
ATOM      8  C7  BZF d   1      -1.008  -0.101  -1.295  0.00  0.00     0.029 A 
ATOM      9  C7A BZF d   1      -2.189   0.095  -0.621  0.00  0.00     0.058 A 
ENDROOT
TORSDOF 0
ENDMDL
