MODEL 1
REMARK minimizedAffinity 6.29479074
REMARK minimizedRMSD -1
REMARK  0 active torsions:
REMARK  status: ('A' for Active; 'I' for Inactive)
ROOT
ATOM      1  O1  BZF d   1      -0.141  -5.982   5.931  0.00  0.00    -0.204 OA
ATOM      2  C2  BZF d   1       1.239  -5.940   5.902  0.00  0.00     0.174 A 
ATOM      3  C3  BZF d   1       1.678  -4.665   5.856  0.00  0.00    -0.012 A 
ATOM      4  C3A BZF d   1       0.501  -3.858   5.950  0.00  0.00    -0.107 A 
ATOM      5  C4  BZF d   1       0.286  -2.510   5.974  0.00  0.00     0.055 A 
ATOM      6  C5  BZF d   1      -0.990  -2.044   5.998  0.00  0.00    -0.016 A 
ATOM      7  C6  BZF d   1      -2.074  -2.897   5.995  0.00  0.00     0.022 A 
ATOM      8  C7  BZF d   1      -1.912  -4.243   5.977  0.00  0.00     0.029 A 
ATOM      9  C7A BZF d   1      -0.623  -4.716   5.985  0.00  0.00     0.058 A 
ENDROOT
TORSDOF 0
ENDMDL
