MODEL 1
REMARK minimizedAffinity 9.08087254
REMARK minimizedRMSD -1
REMARK  0 active torsions:
REMARK  status: ('A' for Active; 'I' for Inactive)
ROOT
ATOM      1  O1  BZF d   1       1.581   0.041  -0.226  0.00  0.00    -0.204 OA
ATOM      2  C2  BZF d   1       1.987  -0.314   1.046  0.00  0.00     0.174 A 
ATOM      3  C3  BZF d   1       1.001  -0.961   1.699  0.00  0.00    -0.012 A 
ATOM      4  C3A BZF d   1      -0.058  -1.095   0.746  0.00  0.00    -0.107 A 
ATOM      5  C4  BZF d   1      -1.298  -1.664   0.794  0.00  0.00     0.055 A 
ATOM      6  C5  BZF d   1      -2.115  -1.560  -0.287  0.00  0.00    -0.016 A 
ATOM      7  C6  BZF d   1      -1.727  -0.891  -1.428  0.00  0.00     0.022 A 
ATOM      8  C7  BZF d   1      -0.504  -0.315  -1.525  0.00  0.00     0.029 A 
ATOM      9  C7A BZF d   1       0.337  -0.447  -0.447  0.00  0.00     0.058 A 
ENDROOT
TORSDOF 0
ENDMDL
