MODEL 1
REMARK minimizedAffinity 2.72096229
REMARK minimizedRMSD -1
REMARK  0 active torsions:
REMARK  status: ('A' for Active; 'I' for Inactive)
ROOT
ATOM      1  O1  BZF d   1       1.927  -2.449  -0.877  0.00  0.00    -0.204 OA
ATOM      2  C2  BZF d   1       3.110  -1.944  -0.371  0.00  0.00     0.174 A 
ATOM      3  C3  BZF d   1       2.957  -0.659   0.009  0.00  0.00    -0.012 A 
ATOM      4  C3A BZF d   1       1.570  -0.369  -0.191  0.00  0.00    -0.107 A 
ATOM      5  C4  BZF d   1       0.803   0.741   0.018  0.00  0.00     0.055 A 
ATOM      6  C5  BZF d   1      -0.505   0.719  -0.351  0.00  0.00    -0.016 A 
ATOM      7  C6  BZF d   1      -1.076  -0.392  -0.936  0.00  0.00     0.022 A 
ATOM      8  C7  BZF d   1      -0.356  -1.518  -1.159  0.00  0.00     0.029 A 
ATOM      9  C7A BZF d   1       0.957  -1.511  -0.757  0.00  0.00     0.058 A 
ENDROOT
TORSDOF 0
ENDMDL
