MODEL 1
REMARK minimizedAffinity -4.36932373
REMARK minimizedRMSD -1
REMARK  0 active torsions:
REMARK  status: ('A' for Active; 'I' for Inactive)
ROOT
ATOM      1  O1  BZF d   1      -0.923   0.413  -0.602  0.00  0.00    -0.204 OA
ATOM      2  C2  BZF d   1      -0.392   1.561  -0.047  0.00  0.00     0.174 A 
ATOM      3  C3  BZF d   1       0.840   1.327   0.449  0.00  0.00    -0.012 A 
ATOM      4  C3A BZF d   1       1.132  -0.031   0.106  0.00  0.00    -0.107 A 
ATOM      5  C4  BZF d   1       2.214  -0.839   0.311  0.00  0.00     0.055 A 
ATOM      6  C5  BZF d   1       2.152  -2.138  -0.086  0.00  0.00    -0.016 A 
ATOM      7  C6  BZF d   1       1.025  -2.662  -0.685  0.00  0.00     0.022 A 
ATOM      8  C7  BZF d   1      -0.070  -1.897  -0.914  0.00  0.00     0.029 A 
ATOM      9  C7A BZF d   1       0.001  -0.576  -0.544  0.00  0.00     0.058 A 
ENDROOT
TORSDOF 0
ENDMDL
