MODEL 1
REMARK minimizedAffinity 0.840758801
REMARK minimizedRMSD -1
REMARK  0 active torsions:
REMARK  status: ('A' for Active; 'I' for Inactive)
ROOT
ATOM      1  O1  BZF d   1       3.360   1.522  -0.021  0.00  0.00    -0.204 OA
ATOM      2  C2  BZF d   1       4.436   1.262  -0.847  0.00  0.00     0.174 A 
ATOM      3  C3  BZF d   1       4.453  -0.034  -1.217  0.00  0.00    -0.012 A 
ATOM      4  C3A BZF d   1       3.265  -0.601  -0.658  0.00  0.00    -0.107 A 
ATOM      5  C4  BZF d   1       2.715  -1.851  -0.691  0.00  0.00     0.055 A 
ATOM      6  C5  BZF d   1       1.583  -2.093   0.021  0.00  0.00    -0.016 A 
ATOM      7  C6  BZF d   1       0.978  -1.112   0.779  0.00  0.00     0.022 A 
ATOM      8  C7  BZF d   1       1.483   0.144   0.839  0.00  0.00     0.029 A 
ATOM      9  C7A BZF d   1       2.609   0.400   0.095  0.00  0.00     0.058 A 
ENDROOT
TORSDOF 0
ENDMDL
