MODEL 1
REMARK minimizedAffinity 12.4240236
REMARK minimizedRMSD -1
REMARK  0 active torsions:
REMARK  status: ('A' for Active; 'I' for Inactive)
ROOT
ATOM      1  O1  BZF d   1      -1.033  -0.042   0.488  0.00  0.00    -0.204 OA
ATOM      2  C2  BZF d   1      -0.626  -0.535  -0.737  0.00  0.00     0.174 A 
ATOM      3  C3  BZF d   1      -1.689  -0.794  -1.525  0.00  0.00    -0.012 A 
ATOM      4  C3A BZF d   1      -2.827  -0.354  -0.779  0.00  0.00    -0.107 A 
ATOM      5  C4  BZF d   1      -4.168  -0.333  -1.037  0.00  0.00     0.055 A 
ATOM      6  C5  BZF d   1      -5.021   0.093  -0.069  0.00  0.00    -0.016 A 
ATOM      7  C6  BZF d   1      -4.568   0.499   1.169  0.00  0.00     0.022 A 
ATOM      8  C7  BZF d   1      -3.247   0.501   1.471  0.00  0.00     0.029 A 
ATOM      9  C7A BZF d   1      -2.380   0.102   0.483  0.00  0.00     0.058 A 
ENDROOT
TORSDOF 0
ENDMDL
