MODEL 1
REMARK minimizedAffinity 7.34047556
REMARK minimizedRMSD -1
REMARK  0 active torsions:
REMARK  status: ('A' for Active; 'I' for Inactive)
ROOT
ATOM      1  O1  BZF d   1       2.507  -2.731  -0.752  0.00  0.00    -0.204 OA
ATOM      2  C2  BZF d   1       3.289  -1.595  -0.664  0.00  0.00     0.174 A 
ATOM      3  C3  BZF d   1       2.524  -0.485  -0.683  0.00  0.00    -0.012 A 
ATOM      4  C3A BZF d   1       1.174  -0.959  -0.698  0.00  0.00    -0.107 A 
ATOM      5  C4  BZF d   1      -0.040  -0.334  -0.705  0.00  0.00     0.055 A 
ATOM      6  C5  BZF d   1      -1.169  -1.085  -0.794  0.00  0.00    -0.016 A 
ATOM      7  C6  BZF d   1      -1.121  -2.461  -0.883  0.00  0.00     0.022 A 
ATOM      8  C7  BZF d   1       0.060  -3.126  -0.875  0.00  0.00     0.029 A 
ATOM      9  C7A BZF d   1       1.201  -2.371  -0.751  0.00  0.00     0.058 A 
ENDROOT
TORSDOF 0
ENDMDL
