MODEL 1
REMARK minimizedAffinity 11.6699963
REMARK minimizedRMSD -1
REMARK  0 active torsions:
REMARK  status: ('A' for Active; 'I' for Inactive)
ROOT
ATOM      1  O1  BZF d   1       3.666   0.769  -0.650  0.00  0.00    -0.204 OA
ATOM      2  C2  BZF d   1       2.837   1.233   0.352  0.00  0.00     0.174 A 
ATOM      3  C3  BZF d   1       1.866   0.337   0.623  0.00  0.00    -0.012 A 
ATOM      4  C3A BZF d   1       2.158  -0.795  -0.202  0.00  0.00    -0.107 A 
ATOM      5  C4  BZF d   1       1.563  -2.013  -0.371  0.00  0.00     0.055 A 
ATOM      6  C5  BZF d   1       2.055  -2.864  -1.309  0.00  0.00    -0.016 A 
ATOM      7  C6  BZF d   1       3.135  -2.529  -2.098  0.00  0.00     0.022 A 
ATOM      8  C7  BZF d   1       3.762  -1.334  -1.964  0.00  0.00     0.029 A 
ATOM      9  C7A BZF d   1       3.288  -0.485  -0.994  0.00  0.00     0.058 A 
ENDROOT
TORSDOF 0
ENDMDL
