MODEL 1
REMARK minimizedAffinity 12.038496
REMARK minimizedRMSD -1
REMARK  0 active torsions:
REMARK  status: ('A' for Active; 'I' for Inactive)
ROOT
ATOM      1  O1  BZF d   1       1.624  -2.136   5.204  0.00  0.00    -0.204 OA
ATOM      2  C2  BZF d   1       0.966  -3.004   4.355  0.00  0.00     0.174 A 
ATOM      3  C3  BZF d   1       0.179  -2.327   3.494  0.00  0.00    -0.012 A 
ATOM      4  C3A BZF d   1       0.428  -0.944   3.765  0.00  0.00    -0.107 A 
ATOM      5  C4  BZF d   1      -0.044   0.218   3.225  0.00  0.00     0.055 A 
ATOM      6  C5  BZF d   1       0.344   1.403   3.765  0.00  0.00    -0.016 A 
ATOM      7  C6  BZF d   1       1.198   1.462   4.848  0.00  0.00     0.022 A 
ATOM      8  C7  BZF d   1       1.696   0.336   5.414  0.00  0.00     0.029 A 
ATOM      9  C7A BZF d   1       1.332  -0.861   4.849  0.00  0.00     0.058 A 
ENDROOT
TORSDOF 0
ENDMDL
