MODEL 1
REMARK minimizedAffinity 11.5402784
REMARK minimizedRMSD -1
REMARK  0 active torsions:
REMARK  status: ('A' for Active; 'I' for Inactive)
ROOT
ATOM      1  O1  BZF d   1       1.117  -3.515   0.330  0.00  0.00    -0.204 OA
ATOM      2  C2  BZF d   1       1.703  -2.364  -0.160  0.00  0.00     0.174 A 
ATOM      3  C3  BZF d   1       1.199  -2.047  -1.369  0.00  0.00    -0.012 A 
ATOM      4  C3A BZF d   1       0.171  -3.012  -1.613  0.00  0.00    -0.107 A 
ATOM      5  C4  BZF d   1      -0.704  -3.212  -2.642  0.00  0.00     0.055 A 
ATOM      6  C5  BZF d   1      -1.532  -4.289  -2.605  0.00  0.00    -0.016 A 
ATOM      7  C6  BZF d   1      -1.508  -5.188  -1.559  0.00  0.00     0.022 A 
ATOM      8  C7  BZF d   1      -0.661  -5.029  -0.513  0.00  0.00     0.029 A 
ATOM      9  C7A BZF d   1       0.154  -3.923  -0.531  0.00  0.00     0.058 A 
ENDROOT
TORSDOF 0
ENDMDL
