MODEL 1
REMARK minimizedAffinity -2.06964374
REMARK minimizedRMSD -1
REMARK  1 active torsions:
REMARK  status: ('A' for Active; 'I' for Inactive)
REMARK    1  A    between atoms: C3_4  and  O_7 
ROOT
ATOM      1  C   UNL d   1      -0.283  -0.028   1.791  0.00  0.00    -0.033 A 
ATOM      2  C1  UNL d   1       0.416  -1.125   2.298  0.00  0.00     0.039 A 
ATOM      3  C2  UNL d   1       1.363  -1.778   1.508  0.00  0.00    -0.080 A 
ATOM      4  C3  UNL d   1       1.603  -1.324   0.214  0.00  0.00     0.150 A 
ATOM      5  C4  UNL d   1       0.913  -0.230  -0.297  0.00  0.00    -0.007 A 
ATOM      6  C5  UNL d   1      -0.034   0.420   0.493  0.00  0.00     0.039 A 
ENDROOT
BRANCH   4   7
ATOM      7  O   UNL d   1       2.515  -1.932  -0.597  0.00  0.00    -0.526 OA
ATOM      8  H5  UNL d   1       2.893  -2.691  -0.121  0.00  0.00     0.418 HD
ENDBRANCH   4   7
TORSDOF 1
ENDMDL
