MODEL 1
REMARK minimizedAffinity -0.802817881
REMARK minimizedRMSD -1
REMARK  1 active torsions:
REMARK  status: ('A' for Active; 'I' for Inactive)
REMARK    1  A    between atoms: C3_4  and  O_7 
ROOT
ATOM      1  C   UNL d   1      -1.448   0.854   0.038  0.00  0.00    -0.033 A 
ATOM      2  C1  UNL d   1      -1.068  -0.088   0.996  0.00  0.00     0.039 A 
ATOM      3  C2  UNL d   1       0.085  -0.852   0.808  0.00  0.00    -0.080 A 
ATOM      4  C3  UNL d   1       0.850  -0.664  -0.340  0.00  0.00     0.150 A 
ATOM      5  C4  UNL d   1       0.479   0.276  -1.297  0.00  0.00    -0.007 A 
ATOM      6  C5  UNL d   1      -0.673   1.037  -1.108  0.00  0.00     0.039 A 
ENDROOT
BRANCH   4   7
ATOM      7  O   UNL d   1       1.981  -1.389  -0.570  0.00  0.00    -0.526 OA
ATOM      8  H5  UNL d   1       2.096  -2.019   0.161  0.00  0.00     0.418 HD
ENDBRANCH   4   7
TORSDOF 1
ENDMDL
