MODEL 1
REMARK minimizedAffinity -5.07388401
REMARK minimizedRMSD -1
REMARK  1 active torsions:
REMARK  status: ('A' for Active; 'I' for Inactive)
REMARK    1  A    between atoms: C3_4  and  O_7 
ROOT
ATOM      1  C   UNL d   1       0.989  -0.486  -0.473  0.00  0.00    -0.033 A 
ATOM      2  C1  UNL d   1       0.003  -0.037   0.408  0.00  0.00     0.039 A 
ATOM      3  C2  UNL d   1       0.184  -0.170   1.786  0.00  0.00    -0.080 A 
ATOM      4  C3  UNL d   1       1.352  -0.752   2.269  0.00  0.00     0.150 A 
ATOM      5  C4  UNL d   1       2.340  -1.198   1.397  0.00  0.00    -0.007 A 
ATOM      6  C5  UNL d   1       2.157  -1.066   0.021  0.00  0.00     0.039 A 
ENDROOT
BRANCH   4   7
ATOM      7  O   UNL d   1       1.571  -0.907   3.606  0.00  0.00    -0.526 OA
ATOM      8  H5  UNL d   1       0.792  -0.580   4.086  0.00  0.00     0.418 HD
ENDBRANCH   4   7
TORSDOF 1
ENDMDL
