MODEL 1
REMARK minimizedAffinity 1.25350213
REMARK minimizedRMSD -1
REMARK  1 active torsions:
REMARK  status: ('A' for Active; 'I' for Inactive)
REMARK    1  A    between atoms: C3_4  and  O_7 
ROOT
ATOM      1  C   UNL d   1      -1.670   1.195  -0.094  0.00  0.00    -0.033 A 
ATOM      2  C1  UNL d   1      -1.422   1.603   1.218  0.00  0.00     0.039 A 
ATOM      3  C2  UNL d   1      -1.005   0.673   2.172  0.00  0.00    -0.080 A 
ATOM      4  C3  UNL d   1      -0.839  -0.659   1.802  0.00  0.00     0.150 A 
ATOM      5  C4  UNL d   1      -1.081  -1.071   0.496  0.00  0.00    -0.007 A 
ATOM      6  C5  UNL d   1      -1.499  -0.141  -0.456  0.00  0.00     0.039 A 
ENDROOT
BRANCH   4   7
ATOM      7  O   UNL d   1      -0.438  -1.603   2.700  0.00  0.00    -0.526 OA
ATOM      8  H5  UNL d   1      -0.337  -1.179   3.568  0.00  0.00     0.418 HD
ENDBRANCH   4   7
TORSDOF 1
ENDMDL
