MODEL 1
REMARK minimizedAffinity -4.94908857
REMARK minimizedRMSD -1
REMARK  1 active torsions:
REMARK  status: ('A' for Active; 'I' for Inactive)
REMARK    1  A    between atoms: C3_4  and  O_7 
ROOT
ATOM      1  C   UNL d   1      -0.395  -0.231   0.159  0.00  0.00    -0.033 A 
ATOM      2  C1  UNL d   1       0.997  -0.279   0.057  0.00  0.00     0.039 A 
ATOM      3  C2  UNL d   1       1.784  -0.256   1.210  0.00  0.00    -0.080 A 
ATOM      4  C3  UNL d   1       1.168  -0.184   2.456  0.00  0.00     0.150 A 
ATOM      5  C4  UNL d   1      -0.218  -0.140   2.565  0.00  0.00    -0.007 A 
ATOM      6  C5  UNL d   1      -1.002  -0.162   1.413  0.00  0.00     0.039 A 
ENDROOT
BRANCH   4   7
ATOM      7  O   UNL d   1       1.894  -0.154   3.610  0.00  0.00    -0.526 OA
ATOM      8  H5  UNL d   1       2.838  -0.162   3.379  0.00  0.00     0.418 HD
ENDBRANCH   4   7
TORSDOF 1
ENDMDL
