MODEL 1
REMARK minimizedAffinity -5.08524418
REMARK minimizedRMSD -1
REMARK  1 active torsions:
REMARK  status: ('A' for Active; 'I' for Inactive)
REMARK    1  A    between atoms: C3_4  and  O_7 
ROOT
ATOM      1  C   UNL d   1       1.981  -1.678   2.205  0.00  0.00    -0.033 A 
ATOM      2  C1  UNL d   1       2.425  -1.818   0.888  0.00  0.00     0.039 A 
ATOM      3  C2  UNL d   1       1.674  -1.290  -0.164  0.00  0.00    -0.080 A 
ATOM      4  C3  UNL d   1       0.483  -0.625   0.114  0.00  0.00     0.150 A 
ATOM      5  C4  UNL d   1       0.036  -0.478   1.423  0.00  0.00    -0.007 A 
ATOM      6  C5  UNL d   1       0.787  -1.007   2.472  0.00  0.00     0.039 A 
ENDROOT
BRANCH   4   7
ATOM      7  O   UNL d   1      -0.287  -0.096  -0.880  0.00  0.00    -0.526 OA
ATOM      8  H5  UNL d   1       0.131  -0.299  -1.733  0.00  0.00     0.418 HD
ENDBRANCH   4   7
TORSDOF 1
ENDMDL
