MODEL 1
REMARK minimizedAffinity 1.28245032
REMARK minimizedRMSD -1
REMARK  2 active torsions:
REMARK  status: ('A' for Active; 'I' for Inactive)
REMARK    1  A    between atoms: C2'_3  and  C1'_4 
REMARK    2  A    between atoms: C1'_4  and  C1_5 
ROOT
ATOM      1  C1  I4B d   1       1.475   4.889  -4.829  0.00  0.00    -0.075 A 
ATOM      2  C2  I4B d   1       1.933   5.778  -5.769  0.00  0.00     0.003 A 
ATOM      3  C3  I4B d   1       3.325   5.964  -5.955  0.00  0.00     0.002 A 
ATOM      4  C4  I4B d   1       4.215   5.283  -5.150  0.00  0.00    -0.004 A 
ATOM      5  C5  I4B d   1       3.749   4.365  -4.214  0.00  0.00     0.002 A 
ATOM      6  C6  I4B d   1       2.370   4.157  -4.060  0.00  0.00     0.003 A 
ENDROOT
BRANCH   1   7
ATOM      7  C1' I4B d   1      -0.001   4.742  -4.636  0.00  0.00     0.060 C 
BRANCH   7   8
ATOM      8  C2' I4B d   1      -0.504   5.977  -3.916  0.00  0.00    -0.013 C 
ATOM      9  C4' I4B d   1      -2.008   6.000  -3.857  0.00  0.00     0.013 C 
ATOM     10  C3' I4B d   1       0.092   5.985  -2.540  0.00  0.00     0.013 C 
ENDBRANCH   7   8
ENDBRANCH   1   7
TORSDOF 2
ENDMDL
