MODEL 1
REMARK minimizedAffinity 0.196055487
REMARK minimizedRMSD -1
REMARK  2 active torsions:
REMARK  status: ('A' for Active; 'I' for Inactive)
REMARK    1  A    between atoms: C2'_3  and  C1'_4 
REMARK    2  A    between atoms: C1'_4  and  C1_5 
ROOT
ATOM      1  C1  I4B d   1      -0.699   5.970  -3.624  0.00  0.00    -0.075 A 
ATOM      2  C2  I4B d   1      -1.595   5.994  -4.664  0.00  0.00     0.003 A 
ATOM      3  C3  I4B d   1      -2.987   5.997  -4.405  0.00  0.00     0.002 A 
ATOM      4  C4  I4B d   1      -3.437   5.926  -3.103  0.00  0.00    -0.004 A 
ATOM      5  C5  I4B d   1      -2.527   5.925  -2.049  0.00  0.00     0.002 A 
ATOM      6  C6  I4B d   1      -1.150   5.959  -2.310  0.00  0.00     0.003 A 
ENDROOT
BRANCH   1   7
ATOM      7  C1' I4B d   1       0.764   5.934  -3.934  0.00  0.00     0.060 C 
BRANCH   7   8
ATOM      8  C2' I4B d   1       0.921   5.875  -5.440  0.00  0.00    -0.013 C 
ATOM      9  C4' I4B d   1       2.367   5.999  -5.842  0.00  0.00     0.013 C 
ATOM     10  C3' I4B d   1       0.335   4.579  -5.916  0.00  0.00     0.013 C 
ENDBRANCH   7   8
ENDBRANCH   1   7
TORSDOF 2
ENDMDL
