MODEL 1
REMARK minimizedAffinity 6.24586248
REMARK minimizedRMSD -1
REMARK  2 active torsions:
REMARK  status: ('A' for Active; 'I' for Inactive)
REMARK    1  A    between atoms: C2'_3  and  C1'_4 
REMARK    2  A    between atoms: C1'_4  and  C1_5 
ROOT
ATOM      1  C1  I4B d   1       2.529   4.969  -5.301  0.00  0.00    -0.075 A 
ATOM      2  C2  I4B d   1       2.809   3.722  -4.801  0.00  0.00     0.003 A 
ATOM      3  C3  I4B d   1       4.053   3.468  -4.175  0.00  0.00     0.002 A 
ATOM      4  C4  I4B d   1       5.001   4.469  -4.115  0.00  0.00    -0.004 A 
ATOM      5  C5  I4B d   1       4.707   5.739  -4.601  0.00  0.00     0.002 A 
ATOM      6  C6  I4B d   1       3.458   5.995  -5.187  0.00  0.00     0.003 A 
ENDROOT
BRANCH   1   7
ATOM      7  C1' I4B d   1       1.218   5.194  -5.985  0.00  0.00     0.060 C 
BRANCH   7   8
ATOM      8  C2' I4B d   1       0.121   5.064  -4.948  0.00  0.00    -0.013 C 
ATOM      9  C4' I4B d   1      -0.002   3.645  -4.460  0.00  0.00     0.013 C 
ATOM     10  C3' I4B d   1       0.439   5.999  -3.819  0.00  0.00     0.013 C 
ENDBRANCH   7   8
ENDBRANCH   1   7
TORSDOF 2
ENDMDL
