MODEL 1
REMARK minimizedAffinity 10.2600594
REMARK minimizedRMSD -1
REMARK  2 active torsions:
REMARK  status: ('A' for Active; 'I' for Inactive)
REMARK    1  A    between atoms: C2'_3  and  C1'_4 
REMARK    2  A    between atoms: C1'_4  and  C1_5 
ROOT
ATOM      1  C1  I4B d   1       3.931   3.991  -4.209  0.00  0.00    -0.075 A 
ATOM      2  C2  I4B d   1       4.854   4.932  -4.592  0.00  0.00     0.003 A 
ATOM      3  C3  I4B d   1       4.486   5.970  -5.481  0.00  0.00     0.002 A 
ATOM      4  C4  I4B d   1       3.208   6.000  -6.000  0.00  0.00    -0.004 A 
ATOM      5  C5  I4B d   1       2.267   5.059  -5.593  0.00  0.00     0.002 A 
ATOM      6  C6  I4B d   1       2.626   4.055  -4.682  0.00  0.00     0.003 A 
ENDROOT
BRANCH   1   7
ATOM      7  C1' I4B d   1       4.362   2.889  -3.294  0.00  0.00     0.060 C 
BRANCH   7   8
ATOM      8  C2' I4B d   1       3.788   3.172  -1.920  0.00  0.00    -0.013 C 
ATOM      9  C4' I4B d   1       2.630   2.259  -1.614  0.00  0.00     0.013 C 
ATOM     10  C3' I4B d   1       4.889   3.006  -0.915  0.00  0.00     0.013 C 
ENDBRANCH   7   8
ENDBRANCH   1   7
TORSDOF 2
ENDMDL
