MODEL 1
REMARK minimizedAffinity 4.01402187
REMARK minimizedRMSD -1
REMARK  2 active torsions:
REMARK  status: ('A' for Active; 'I' for Inactive)
REMARK    1  A    between atoms: C2'_3  and  C1'_4 
REMARK    2  A    between atoms: C1'_4  and  C1_5 
ROOT
ATOM      1  C1  I4B d   1       3.533   5.043  -5.356  0.00  0.00    -0.075 A 
ATOM      2  C2  I4B d   1       4.513   6.000  -5.274  0.00  0.00     0.003 A 
ATOM      3  C3  I4B d   1       5.746   5.706  -4.644  0.00  0.00     0.002 A 
ATOM      4  C4  I4B d   1       5.936   4.466  -4.067  0.00  0.00    -0.004 A 
ATOM      5  C5  I4B d   1       4.950   3.490  -4.171  0.00  0.00     0.002 A 
ATOM      6  C6  I4B d   1       3.745   3.775  -4.830  0.00  0.00     0.003 A 
ENDROOT
BRANCH   1   7
ATOM      7  C1' I4B d   1       2.230   5.398  -6.000  0.00  0.00     0.060 C 
BRANCH   7   8
ATOM      8  C2' I4B d   1       1.117   4.808  -5.158  0.00  0.00    -0.013 C 
ATOM      9  C4' I4B d   1       0.134   5.867  -4.735  0.00  0.00     0.013 C 
ATOM     10  C3' I4B d   1       0.445   3.737  -5.964  0.00  0.00     0.013 C 
ENDBRANCH   7   8
ENDBRANCH   1   7
TORSDOF 2
ENDMDL
