MODEL 1
REMARK minimizedAffinity 3.26951742
REMARK minimizedRMSD -1
REMARK  2 active torsions:
REMARK  status: ('A' for Active; 'I' for Inactive)
REMARK    1  A    between atoms: C2'_3  and  C1'_4 
REMARK    2  A    between atoms: C1'_4  and  C1_5 
ROOT
ATOM      1  C1  I4B d   1       0.605   0.855   0.697  0.00  0.00    -0.075 A 
ATOM      2  C2  I4B d   1       0.573   0.355  -0.581  0.00  0.00     0.003 A 
ATOM      3  C3  I4B d   1       1.051   1.132  -1.663  0.00  0.00     0.002 A 
ATOM      4  C4  I4B d   1       1.503   2.415  -1.430  0.00  0.00    -0.004 A 
ATOM      5  C5  I4B d   1       1.556   2.912  -0.131  0.00  0.00     0.002 A 
ATOM      6  C6  I4B d   1       1.115   2.123   0.941  0.00  0.00     0.003 A 
ENDROOT
BRANCH   1   7
ATOM      7  C1' I4B d   1       0.061   0.019   1.812  0.00  0.00     0.060 C 
BRANCH   7   8
ATOM      8  C2' I4B d   1      -0.304   0.945   2.954  0.00  0.00    -0.013 C 
ATOM      9  C4' I4B d   1      -1.743   0.767   3.361  0.00  0.00     0.013 C 
ATOM     10  C3' I4B d   1       0.622   0.656   4.098  0.00  0.00     0.013 C 
ENDBRANCH   7   8
ENDBRANCH   1   7
TORSDOF 2
ENDMDL
