MODEL 1
REMARK minimizedAffinity 7.7438941
REMARK minimizedRMSD -1
REMARK  2 active torsions:
REMARK  status: ('A' for Active; 'I' for Inactive)
REMARK    1  A    between atoms: C2'_3  and  C1'_4 
REMARK    2  A    between atoms: C1'_4  and  C1_5 
ROOT
ATOM      1  C1  I4B d   1       0.610   5.287  -4.532  0.00  0.00    -0.075 A 
ATOM      2  C2  I4B d   1       0.835   3.960  -4.263  0.00  0.00     0.003 A 
ATOM      3  C3  I4B d   1       1.960   3.301  -4.816  0.00  0.00     0.002 A 
ATOM      4  C4  I4B d   1       2.801   3.990  -5.666  0.00  0.00    -0.004 A 
ATOM      5  C5  I4B d   1       2.585   5.341  -5.919  0.00  0.00     0.002 A 
ATOM      6  C6  I4B d   1       1.490   5.998  -5.339  0.00  0.00     0.003 A 
ENDROOT
BRANCH   1   7
ATOM      7  C1' I4B d   1      -0.606   5.942  -3.959  0.00  0.00     0.060 C 
BRANCH   7   8
ATOM      8  C2' I4B d   1      -1.694   5.909  -5.012  0.00  0.00    -0.013 C 
ATOM      9  C4' I4B d   1      -1.469   4.789  -5.994  0.00  0.00     0.013 C 
ATOM     10  C3' I4B d   1      -3.012   5.758  -4.312  0.00  0.00     0.013 C 
ENDBRANCH   7   8
ENDBRANCH   1   7
TORSDOF 2
ENDMDL
