MODEL 1
REMARK minimizedAffinity 10.9027576
REMARK minimizedRMSD -1
REMARK  2 active torsions:
REMARK  status: ('A' for Active; 'I' for Inactive)
REMARK    1  A    between atoms: C2'_3  and  C1'_4 
REMARK    2  A    between atoms: C1'_4  and  C1_5 
ROOT
ATOM      1  C1  I4B d   1       3.084   5.013  -5.521  0.00  0.00    -0.075 A 
ATOM      2  C2  I4B d   1       3.528   4.081  -4.616  0.00  0.00     0.003 A 
ATOM      3  C3  I4B d   1       4.870   4.106  -4.167  0.00  0.00     0.002 A 
ATOM      4  C4  I4B d   1       5.743   5.041  -4.685  0.00  0.00    -0.004 A 
ATOM      5  C5  I4B d   1       5.286   5.999  -5.586  0.00  0.00     0.002 A 
ATOM      6  C6  I4B d   1       3.946   5.993  -5.997  0.00  0.00     0.003 A 
ENDROOT
BRANCH   1   7
ATOM      7  C1' I4B d   1       1.669   4.938  -5.998  0.00  0.00     0.060 C 
BRANCH   7   8
ATOM      8  C2' I4B d   1       0.777   4.754  -4.787  0.00  0.00    -0.013 C 
ATOM      9  C4' I4B d   1      -0.019   6.000  -4.501  0.00  0.00     0.013 C 
ATOM     10  C3' I4B d   1      -0.123   3.583  -5.048  0.00  0.00     0.013 C 
ENDBRANCH   7   8
ENDBRANCH   1   7
TORSDOF 2
ENDMDL
