MODEL 1
REMARK minimizedAffinity 4.27946997
REMARK minimizedRMSD -1
REMARK  2 active torsions:
REMARK  status: ('A' for Active; 'I' for Inactive)
REMARK    1  A    between atoms: C2'_3  and  C1'_4 
REMARK    2  A    between atoms: C1'_4  and  C1_5 
ROOT
ATOM      1  C1  I4B d   1       1.784   5.017  -5.283  0.00  0.00    -0.075 A 
ATOM      2  C2  I4B d   1       2.353   4.083  -4.453  0.00  0.00     0.003 A 
ATOM      3  C3  I4B d   1       3.747   4.103  -4.208  0.00  0.00     0.002 A 
ATOM      4  C4  I4B d   1       4.537   5.036  -4.848  0.00  0.00    -0.004 A 
ATOM      5  C5  I4B d   1       3.955   5.996  -5.670  0.00  0.00     0.002 A 
ATOM      6  C6  I4B d   1       2.569   5.995  -5.880  0.00  0.00     0.003 A 
ENDROOT
BRANCH   1   7
ATOM      7  C1' I4B d   1       0.313   4.946  -5.546  0.00  0.00     0.060 C 
BRANCH   7   8
ATOM      8  C2' I4B d   1      -0.370   5.963  -4.654  0.00  0.00    -0.013 C 
ATOM      9  C4' I4B d   1      -1.829   5.638  -4.475  0.00  0.00     0.013 C 
ATOM     10  C3' I4B d   1       0.347   5.979  -3.337  0.00  0.00     0.013 C 
ENDBRANCH   7   8
ENDBRANCH   1   7
TORSDOF 2
ENDMDL
