MODEL 1
REMARK minimizedAffinity -0.26916787
REMARK minimizedRMSD -1
REMARK  2 active torsions:
REMARK  status: ('A' for Active; 'I' for Inactive)
REMARK    1  A    between atoms: C2'_3  and  C1'_4 
REMARK    2  A    between atoms: C1'_4  and  C1_5 
ROOT
ATOM      1  C1  I4B d   1       2.921   5.166  -4.866  0.00  0.00    -0.075 A 
ATOM      2  C2  I4B d   1       2.159   5.042  -6.000  0.00  0.00     0.003 A 
ATOM      3  C3  I4B d   1       0.792   5.413  -5.984  0.00  0.00     0.002 A 
ATOM      4  C4  I4B d   1       0.221   5.852  -4.808  0.00  0.00    -0.004 A 
ATOM      5  C5  I4B d   1       1.001   5.999  -3.664  0.00  0.00     0.002 A 
ATOM      6  C6  I4B d   1       2.363   5.666  -3.696  0.00  0.00     0.003 A 
ENDROOT
BRANCH   1   7
ATOM      7  C1' I4B d   1       4.353   4.735  -4.909  0.00  0.00     0.060 C 
BRANCH   7   8
ATOM      8  C2' I4B d   1       4.669   4.034  -3.603  0.00  0.00    -0.013 C 
ATOM      9  C4' I4B d   1       5.023   2.588  -3.832  0.00  0.00     0.013 C 
ATOM     10  C3' I4B d   1       5.797   4.770  -2.944  0.00  0.00     0.013 C 
ENDBRANCH   7   8
ENDBRANCH   1   7
TORSDOF 2
ENDMDL
