MODEL 1
REMARK minimizedAffinity 2.58329844
REMARK minimizedRMSD -1
REMARK  2 active torsions:
REMARK  status: ('A' for Active; 'I' for Inactive)
REMARK    1  A    between atoms: C2'_3  and  C1'_4 
REMARK    2  A    between atoms: C1'_4  and  C1_5 
ROOT
ATOM      1  C1  I4B d   1       2.112   5.336  -4.714  0.00  0.00    -0.075 A 
ATOM      2  C2  I4B d   1       2.324   4.062  -4.248  0.00  0.00     0.003 A 
ATOM      3  C3  I4B d   1       3.556   3.410  -4.491  0.00  0.00     0.002 A 
ATOM      4  C4  I4B d   1       4.524   4.044  -5.243  0.00  0.00    -0.004 A 
ATOM      5  C5  I4B d   1       4.317   5.344  -5.695  0.00  0.00     0.002 A 
ATOM      6  C6  I4B d   1       3.109   5.999  -5.418  0.00  0.00     0.003 A 
ENDROOT
BRANCH   1   7
ATOM      7  C1' I4B d   1       0.787   5.983  -4.467  0.00  0.00     0.060 C 
BRANCH   7   8
ATOM      8  C2' I4B d   1      -0.123   5.642  -5.629  0.00  0.00    -0.013 C 
ATOM      9  C4' I4B d   1      -0.014   4.186  -5.998  0.00  0.00     0.013 C 
ATOM     10  C3' I4B d   1      -1.527   5.998  -5.239  0.00  0.00     0.013 C 
ENDBRANCH   7   8
ENDBRANCH   1   7
TORSDOF 2
ENDMDL
