MODEL 1
REMARK minimizedAffinity 3.30463362
REMARK minimizedRMSD -1
REMARK  1 active torsions:
REMARK  status: ('A' for Active; 'I' for Inactive)
REMARK    1  A    between atoms: C1_2  and  C2_3 
ROOT
ATOM      1  C2  UNL d   1       4.555   3.209   5.916  0.00  0.00    -0.081 A 
ATOM      2  C3  UNL d   1       3.441   2.362   5.967  0.00  0.00     0.006 A 
ATOM      3  C4  UNL d   1       3.607   0.975   5.980  0.00  0.00     0.002 A 
ATOM      4  C5  UNL d   1       4.888   0.413   5.950  0.00  0.00    -0.080 A 
ATOM      5  C6  UNL d   1       5.080  -1.074   5.994  0.00  0.00     0.076 C 
ATOM      6  C7  UNL d   1       6.000   1.259   5.881  0.00  0.00     0.002 A 
ATOM      7  C8  UNL d   1       5.835   2.646   5.867  0.00  0.00     0.006 A 
ENDROOT
BRANCH   1   8
ATOM      8  C1  UNL d   1       4.382   4.706   5.967  0.00  0.00     0.054 C 
ATOM      9  C   UNL d   1       5.727   5.419   5.949  0.00  0.00     0.018 C 
ENDBRANCH   1   8
TORSDOF 1
ENDMDL
