MODEL 1
REMARK minimizedAffinity 12.2970705
REMARK minimizedRMSD -1
REMARK  1 active torsions:
REMARK  status: ('A' for Active; 'I' for Inactive)
REMARK    1  A    between atoms: C1_2  and  C2_3 
ROOT
ATOM      1  C2  UNL d   1      -4.626   5.857  -3.518  0.00  0.00    -0.081 A 
ATOM      2  C3  UNL d   1      -5.879   5.998  -2.908  0.00  0.00     0.006 A 
ATOM      3  C4  UNL d   1      -5.996   5.973  -1.517  0.00  0.00     0.002 A 
ATOM      4  C5  UNL d   1      -4.862   5.813  -0.712  0.00  0.00    -0.080 A 
ATOM      5  C6  UNL d   1      -4.971   5.815   0.784  0.00  0.00     0.076 C 
ATOM      6  C7  UNL d   1      -3.613   5.655  -1.321  0.00  0.00     0.002 A 
ATOM      7  C8  UNL d   1      -3.496   5.680  -2.713  0.00  0.00     0.006 A 
ENDROOT
BRANCH   1   8
ATOM      8  C1  UNL d   1      -4.488   5.949  -5.016  0.00  0.00     0.054 C 
ATOM      9  C   UNL d   1      -5.778   5.546  -5.716  0.00  0.00     0.018 C 
ENDBRANCH   1   8
TORSDOF 1
ENDMDL
