MODEL 1
REMARK minimizedAffinity 17.8692169
REMARK minimizedRMSD -1
REMARK  1 active torsions:
REMARK  status: ('A' for Active; 'I' for Inactive)
REMARK    1  A    between atoms: C1_2  and  C2_3 
ROOT
ATOM      1  C2  UNL d   1       4.000   3.156  -0.501  0.00  0.00    -0.081 A 
ATOM      2  C3  UNL d   1       4.318   2.534  -1.715  0.00  0.00     0.006 A 
ATOM      3  C4  UNL d   1       3.560   1.457  -2.179  0.00  0.00     0.002 A 
ATOM      4  C5  UNL d   1       2.467   0.989  -1.442  0.00  0.00    -0.080 A 
ATOM      5  C6  UNL d   1       1.626  -0.147  -1.944  0.00  0.00     0.076 C 
ATOM      6  C7  UNL d   1       2.159   1.598  -0.221  0.00  0.00     0.002 A 
ATOM      7  C8  UNL d   1       2.918   2.675   0.244  0.00  0.00     0.006 A 
ENDROOT
BRANCH   1   8
ATOM      8  C1  UNL d   1       4.777   4.359  -0.029  0.00  0.00     0.054 C 
ATOM      9  C   UNL d   1       5.832   4.770  -1.046  0.00  0.00     0.018 C 
ENDBRANCH   1   8
TORSDOF 1
ENDMDL
