MODEL 1
REMARK minimizedAffinity 14.3611708
REMARK minimizedRMSD -1
REMARK  1 active torsions:
REMARK  status: ('A' for Active; 'I' for Inactive)
REMARK    1  A    between atoms: C1_2  and  C2_3 
ROOT
ATOM      1  C2  UNL d   1       0.624  -0.991  -1.505  0.00  0.00    -0.081 A 
ATOM      2  C3  UNL d   1      -0.508  -1.027  -2.329  0.00  0.00     0.006 A 
ATOM      3  C4  UNL d   1      -1.767  -1.305  -1.791  0.00  0.00     0.002 A 
ATOM      4  C5  UNL d   1      -1.916  -1.544  -0.421  0.00  0.00    -0.080 A 
ATOM      5  C6  UNL d   1      -3.266  -1.814   0.175  0.00  0.00     0.076 C 
ATOM      6  C7  UNL d   1      -0.783  -1.526   0.400  0.00  0.00     0.002 A 
ATOM      7  C8  UNL d   1       0.476  -1.249  -0.138  0.00  0.00     0.006 A 
ENDROOT
BRANCH   1   8
ATOM      8  C1  UNL d   1       1.973  -0.628  -2.071  0.00  0.00     0.054 C 
ATOM      9  C   UNL d   1       2.341   0.812  -1.744  0.00  0.00     0.018 C 
ENDBRANCH   1   8
TORSDOF 1
ENDMDL
