MODEL 1
REMARK minimizedAffinity 11.9567032
REMARK minimizedRMSD -1
REMARK  1 active torsions:
REMARK  status: ('A' for Active; 'I' for Inactive)
REMARK    1  A    between atoms: C1_2  and  C2_3 
ROOT
ATOM      1  C2  UNL d   1      -1.817  -3.250  -1.068  0.00  0.00    -0.081 A 
ATOM      2  C3  UNL d   1      -2.663  -2.610  -0.154  0.00  0.00     0.006 A 
ATOM      3  C4  UNL d   1      -3.377  -1.470  -0.529  0.00  0.00     0.002 A 
ATOM      4  C5  UNL d   1      -3.264  -0.954  -1.824  0.00  0.00    -0.080 A 
ATOM      5  C6  UNL d   1      -4.048   0.252  -2.248  0.00  0.00     0.076 C 
ATOM      6  C7  UNL d   1      -2.405  -1.583  -2.732  0.00  0.00     0.002 A 
ATOM      7  C8  UNL d   1      -1.690  -2.723  -2.358  0.00  0.00     0.006 A 
ENDROOT
BRANCH   1   8
ATOM      8  C1  UNL d   1      -1.095  -4.517  -0.688  0.00  0.00     0.054 C 
ATOM      9  C   UNL d   1      -1.366  -5.630  -1.689  0.00  0.00     0.018 C 
ENDBRANCH   1   8
TORSDOF 1
ENDMDL
