MODEL 1
REMARK minimizedAffinity 8.7219696
REMARK minimizedRMSD -1
REMARK  1 active torsions:
REMARK  status: ('A' for Active; 'I' for Inactive)
REMARK    1  A    between atoms: C1_2  and  C2_3 
ROOT
ATOM      1  C2  UNL d   1      -0.877  -0.860  -1.689  0.00  0.00    -0.081 A 
ATOM      2  C3  UNL d   1      -2.164  -0.360  -1.927  0.00  0.00     0.006 A 
ATOM      3  C4  UNL d   1      -3.227  -0.718  -1.096  0.00  0.00     0.002 A 
ATOM      4  C5  UNL d   1      -3.022  -1.576  -0.010  0.00  0.00    -0.080 A 
ATOM      5  C6  UNL d   1      -4.149  -1.944   0.908  0.00  0.00     0.076 C 
ATOM      6  C7  UNL d   1      -1.741  -2.089   0.218  0.00  0.00     0.002 A 
ATOM      7  C8  UNL d   1      -0.677  -1.732  -0.614  0.00  0.00     0.006 A 
ENDROOT
BRANCH   1   8
ATOM      8  C1  UNL d   1       0.285  -0.424  -2.545  0.00  0.00     0.054 C 
ATOM      9  C   UNL d   1       1.455   0.043  -1.692  0.00  0.00     0.018 C 
ENDBRANCH   1   8
TORSDOF 1
ENDMDL
