MODEL 1
REMARK minimizedAffinity 9.33124256
REMARK minimizedRMSD -1
REMARK  1 active torsions:
REMARK  status: ('A' for Active; 'I' for Inactive)
REMARK    1  A    between atoms: C1_2  and  C2_3 
ROOT
ATOM      1  C2  UNL d   1       5.440   2.844  -1.714  0.00  0.00    -0.081 A 
ATOM      2  C3  UNL d   1       5.999   4.119  -1.869  0.00  0.00     0.006 A 
ATOM      3  C4  UNL d   1       5.683   5.144  -0.975  0.00  0.00     0.002 A 
ATOM      4  C5  UNL d   1       4.809   4.911   0.092  0.00  0.00    -0.080 A 
ATOM      5  C6  UNL d   1       4.485   5.996   1.076  0.00  0.00     0.076 C 
ATOM      6  C7  UNL d   1       4.237   3.643   0.237  0.00  0.00     0.002 A 
ATOM      7  C8  UNL d   1       4.553   2.617  -0.656  0.00  0.00     0.006 A 
ENDROOT
BRANCH   1   8
ATOM      8  C1  UNL d   1       5.830   1.719  -2.637  0.00  0.00     0.054 C 
ATOM      9  C   UNL d   1       6.000   2.211  -4.068  0.00  0.00     0.018 C 
ENDBRANCH   1   8
TORSDOF 1
ENDMDL
