MODEL 1
REMARK minimizedAffinity 13.3159685
REMARK minimizedRMSD -1
REMARK  1 active torsions:
REMARK  status: ('A' for Active; 'I' for Inactive)
REMARK    1  A    between atoms: C1_2  and  C2_3 
ROOT
ATOM      1  C2  UNL d   1      -2.032  -1.801  -1.166  0.00  0.00    -0.081 A 
ATOM      2  C3  UNL d   1      -2.779  -0.994  -0.300  0.00  0.00     0.006 A 
ATOM      3  C4  UNL d   1      -2.740  -1.210   1.080  0.00  0.00     0.002 A 
ATOM      4  C5  UNL d   1      -1.948  -2.231   1.616  0.00  0.00    -0.080 A 
ATOM      5  C6  UNL d   1      -1.873  -2.454   3.097  0.00  0.00     0.076 C 
ATOM      6  C7  UNL d   1      -1.215  -3.049   0.749  0.00  0.00     0.002 A 
ATOM      7  C8  UNL d   1      -1.254  -2.833  -0.630  0.00  0.00     0.006 A 
ENDROOT
BRANCH   1   8
ATOM      8  C1  UNL d   1      -2.021  -1.529  -2.649  0.00  0.00     0.054 C 
ATOM      9  C   UNL d   1      -1.667  -2.781  -3.438  0.00  0.00     0.018 C 
ENDBRANCH   1   8
TORSDOF 1
ENDMDL
