MODEL 1
REMARK minimizedAffinity 18.9557972
REMARK minimizedRMSD -1
REMARK  1 active torsions:
REMARK  status: ('A' for Active; 'I' for Inactive)
REMARK    1  A    between atoms: C1_2  and  C2_3 
ROOT
ATOM      1  C2  UNL d   1       4.042   2.318  -0.678  0.00  0.00    -0.081 A 
ATOM      2  C3  UNL d   1       5.328   2.804  -0.940  0.00  0.00     0.006 A 
ATOM      3  C4  UNL d   1       5.966   2.506  -2.147  0.00  0.00     0.002 A 
ATOM      4  C5  UNL d   1       5.326   1.723  -3.113  0.00  0.00    -0.080 A 
ATOM      5  C6  UNL d   1       5.988   1.420  -4.425  0.00  0.00     0.076 C 
ATOM      6  C7  UNL d   1       4.048   1.221  -2.844  0.00  0.00     0.002 A 
ATOM      7  C8  UNL d   1       3.410   1.519  -1.638  0.00  0.00     0.006 A 
ENDROOT
BRANCH   1   8
ATOM      8  C1  UNL d   1       3.326   2.691   0.595  0.00  0.00     0.054 C 
ATOM      9  C   UNL d   1       4.147   2.320   1.821  0.00  0.00     0.018 C 
ENDBRANCH   1   8
TORSDOF 1
ENDMDL
