MODEL 1
REMARK minimizedAffinity 9.4128952
REMARK minimizedRMSD -1
REMARK  1 active torsions:
REMARK  status: ('A' for Active; 'I' for Inactive)
REMARK    1  A    between atoms: C1_2  and  C2_3 
ROOT
ATOM      1  C2  UNL d   1      -2.131  -2.126   5.111  0.00  0.00    -0.081 A 
ATOM      2  C3  UNL d   1      -3.348  -1.757   5.698  0.00  0.00     0.006 A 
ATOM      3  C4  UNL d   1      -3.612  -0.418   5.998  0.00  0.00     0.002 A 
ATOM      4  C5  UNL d   1      -2.668   0.573   5.710  0.00  0.00    -0.080 A 
ATOM      5  C6  UNL d   1      -2.951   2.018   6.000  0.00  0.00     0.076 C 
ATOM      6  C7  UNL d   1      -1.445   0.203   5.140  0.00  0.00     0.002 A 
ATOM      7  C8  UNL d   1      -1.180  -1.135   4.841  0.00  0.00     0.006 A 
ENDROOT
BRANCH   1   8
ATOM      8  C1  UNL d   1      -1.869  -3.560   4.727  0.00  0.00     0.054 C 
ATOM      9  C   UNL d   1      -1.568  -3.688   3.241  0.00  0.00     0.018 C 
ENDBRANCH   1   8
TORSDOF 1
ENDMDL
