MODEL 1
REMARK minimizedAffinity -3.23287725
REMARK minimizedRMSD -1
REMARK  0 active torsions:
REMARK  status: ('A' for Active; 'I' for Inactive)
ROOT
ATOM      1  C   UNL d   1      -0.442   3.226   1.885  0.00  0.00     0.172 C 
ATOM      2  N   UNL d   1      -0.454   1.785   1.795  0.00  0.00    -0.070 N 
ATOM      3  C1  UNL d   1       0.261   1.035   0.900  0.00  0.00    -0.004 A 
ATOM      4  C2  UNL d   1      -0.023  -0.292   1.140  0.00  0.00    -0.047 A 
ATOM      5  C3  UNL d   1      -0.941  -0.342   2.215  0.00  0.00    -0.047 A 
ATOM      6  C4  UNL d   1      -1.191   0.958   2.602  0.00  0.00    -0.004 A 
ENDROOT
TORSDOF 0
ENDMDL
