MODEL 1
REMARK minimizedAffinity -2.06586194
REMARK minimizedRMSD -1
REMARK  0 active torsions:
REMARK  status: ('A' for Active; 'I' for Inactive)
ROOT
ATOM      1  C   UNL d   1       1.105  -0.124  -0.722  0.00  0.00     0.172 C 
ATOM      2  N   UNL d   1       0.289   0.190   0.427  0.00  0.00    -0.070 N 
ATOM      3  C1  UNL d   1       0.200  -0.558   1.571  0.00  0.00    -0.004 A 
ATOM      4  C2  UNL d   1      -0.678   0.076   2.423  0.00  0.00    -0.047 A 
ATOM      5  C3  UNL d   1      -1.134   1.245   1.768  0.00  0.00    -0.047 A 
ATOM      6  C4  UNL d   1      -0.519   1.290   0.534  0.00  0.00    -0.004 A 
ENDROOT
TORSDOF 0
ENDMDL
