MODEL 1
REMARK minimizedAffinity -2.87589478
REMARK minimizedRMSD -1
REMARK  0 active torsions:
REMARK  status: ('A' for Active; 'I' for Inactive)
ROOT
ATOM      1  C   UNL d   1      -0.406   3.415   0.920  0.00  0.00     0.172 C 
ATOM      2  N   UNL d   1      -0.254   1.979   0.931  0.00  0.00    -0.070 N 
ATOM      3  C1  UNL d   1      -0.674   1.139   1.927  0.00  0.00    -0.004 A 
ATOM      4  C2  UNL d   1      -0.345  -0.148   1.561  0.00  0.00    -0.047 A 
ATOM      5  C3  UNL d   1       0.295  -0.079   0.301  0.00  0.00    -0.047 A 
ATOM      6  C4  UNL d   1       0.339   1.250  -0.066  0.00  0.00    -0.004 A 
ENDROOT
TORSDOF 0
ENDMDL
