MODEL 1
REMARK minimizedAffinity -0.460360914
REMARK minimizedRMSD -1
REMARK  0 active torsions:
REMARK  status: ('A' for Active; 'I' for Inactive)
ROOT
ATOM      1  C   UNL d   1      -0.571   2.524   2.278  0.00  0.00     0.172 C 
ATOM      2  N   UNL d   1      -0.285   1.241   1.680  0.00  0.00    -0.070 N 
ATOM      3  C1  UNL d   1       0.192   1.040   0.412  0.00  0.00    -0.004 A 
ATOM      4  C2  UNL d   1       0.332  -0.318   0.224  0.00  0.00    -0.047 A 
ATOM      5  C3  UNL d   1      -0.076  -0.955   1.420  0.00  0.00    -0.047 A 
ATOM      6  C4  UNL d   1      -0.453   0.034   2.304  0.00  0.00    -0.004 A 
ENDROOT
TORSDOF 0
ENDMDL
