MODEL 1
REMARK minimizedAffinity -1.96543455
REMARK minimizedRMSD -1
REMARK  0 active torsions:
REMARK  status: ('A' for Active; 'I' for Inactive)
ROOT
ATOM      1  C   UNL d   1       0.716  -2.025  -1.606  0.00  0.00     0.172 C 
ATOM      2  N   UNL d   1       0.487  -1.222  -0.428  0.00  0.00    -0.070 N 
ATOM      3  C1  UNL d   1       1.154  -0.070  -0.106  0.00  0.00    -0.004 A 
ATOM      4  C2  UNL d   1       0.646   0.392   1.089  0.00  0.00    -0.047 A 
ATOM      5  C3  UNL d   1      -0.362  -0.514   1.499  0.00  0.00    -0.047 A 
ATOM      6  C4  UNL d   1      -0.439  -1.503   0.541  0.00  0.00    -0.004 A 
ENDROOT
TORSDOF 0
ENDMDL
