MODEL 1
REMARK minimizedAffinity -1.76670134
REMARK minimizedRMSD -1
REMARK  0 active torsions:
REMARK  status: ('A' for Active; 'I' for Inactive)
ROOT
ATOM      1  C   UNL d   1      -1.129   1.794   2.056  0.00  0.00     0.172 C 
ATOM      2  N   UNL d   1      -0.372   1.087   1.049  0.00  0.00    -0.070 N 
ATOM      3  C1  UNL d   1       0.013  -0.225   1.115  0.00  0.00    -0.004 A 
ATOM      4  C2  UNL d   1       0.713  -0.518  -0.036  0.00  0.00    -0.047 A 
ATOM      5  C3  UNL d   1       0.751   0.660  -0.820  0.00  0.00    -0.047 A 
ATOM      6  C4  UNL d   1       0.072   1.638  -0.124  0.00  0.00    -0.004 A 
ENDROOT
TORSDOF 0
ENDMDL
