MODEL 1
REMARK minimizedAffinity -2.7816143
REMARK minimizedRMSD -1
REMARK  0 active torsions:
REMARK  status: ('A' for Active; 'I' for Inactive)
ROOT
ATOM      1  C   UNL d   1       0.622  -0.907   0.008  0.00  0.00     0.172 C 
ATOM      2  N   UNL d   1      -0.139  -0.127   0.956  0.00  0.00    -0.070 N 
ATOM      3  C1  UNL d   1      -0.781  -0.618   2.061  0.00  0.00    -0.004 A 
ATOM      4  C2  UNL d   1      -1.388   0.440   2.702  0.00  0.00    -0.047 A 
ATOM      5  C3  UNL d   1      -1.102   1.608   1.955  0.00  0.00    -0.047 A 
ATOM      6  C4  UNL d   1      -0.327   1.227   0.879  0.00  0.00    -0.004 A 
ENDROOT
TORSDOF 0
ENDMDL
