MODEL 1
REMARK minimizedAffinity -2.31413913
REMARK minimizedRMSD -1
REMARK  0 active torsions:
REMARK  status: ('A' for Active; 'I' for Inactive)
ROOT
ATOM      1  C   UNL d   1       0.372   0.074  -0.471  0.00  0.00     0.172 C 
ATOM      2  N   UNL d   1       0.211  -1.204  -1.125  0.00  0.00    -0.070 N 
ATOM      3  C1  UNL d   1      -0.439  -1.417  -2.311  0.00  0.00    -0.004 A 
ATOM      4  C2  UNL d   1      -0.373  -2.765  -2.592  0.00  0.00    -0.047 A 
ATOM      5  C3  UNL d   1       0.340  -3.383  -1.538  0.00  0.00    -0.047 A 
ATOM      6  C4  UNL d   1       0.690  -2.393  -0.643  0.00  0.00    -0.004 A 
ENDROOT
TORSDOF 0
ENDMDL
