MODEL 1
REMARK minimizedAffinity -2.44880557
REMARK minimizedRMSD -1
REMARK  0 active torsions:
REMARK  status: ('A' for Active; 'I' for Inactive)
ROOT
ATOM      1  C   UNL d   1       0.796  -0.450  -0.675  0.00  0.00     0.172 C 
ATOM      2  N   UNL d   1       0.057   0.213   0.374  0.00  0.00    -0.070 N 
ATOM      3  C1  UNL d   1      -0.124  -0.261   1.646  0.00  0.00    -0.004 A 
ATOM      4  C2  UNL d   1      -0.881   0.661   2.336  0.00  0.00    -0.047 A 
ATOM      5  C3  UNL d   1      -1.165   1.726   1.449  0.00  0.00    -0.047 A 
ATOM      6  C4  UNL d   1      -0.572   1.423   0.241  0.00  0.00    -0.004 A 
ENDROOT
TORSDOF 0
ENDMDL
