MODEL 1
REMARK minimizedAffinity -2.34010029
REMARK minimizedRMSD -1
REMARK  0 active torsions:
REMARK  status: ('A' for Active; 'I' for Inactive)
ROOT
ATOM      1  C   UNL d   1       0.742   0.358  -1.598  0.00  0.00     0.172 C 
ATOM      2  N   UNL d   1       0.595  -1.029  -1.971  0.00  0.00    -0.070 N 
ATOM      3  C1  UNL d   1       0.084  -1.487  -3.157  0.00  0.00    -0.004 A 
ATOM      4  C2  UNL d   1       0.114  -2.864  -3.125  0.00  0.00    -0.047 A 
ATOM      5  C3  UNL d   1       0.661  -3.248  -1.877  0.00  0.00    -0.047 A 
ATOM      6  C4  UNL d   1       0.950  -2.092  -1.183  0.00  0.00    -0.004 A 
ENDROOT
TORSDOF 0
ENDMDL
