MODEL 1
REMARK minimizedAffinity 0.265017182
REMARK minimizedRMSD -1
REMARK  0 active torsions:
REMARK  status: ('A' for Active; 'I' for Inactive)
ROOT
ATOM      1  C   UNL d   1      -1.004   2.323   1.602  0.00  0.00     0.172 C 
ATOM      2  N   UNL d   1      -0.295   3.580   1.657  0.00  0.00    -0.070 N 
ATOM      3  C1  UNL d   1      -0.221   4.499   0.646  0.00  0.00    -0.004 A 
ATOM      4  C2  UNL d   1       0.544   5.556   1.091  0.00  0.00    -0.047 A 
ATOM      5  C3  UNL d   1       0.944   5.260   2.416  0.00  0.00    -0.047 A 
ATOM      6  C4  UNL d   1       0.411   4.031   2.741  0.00  0.00    -0.004 A 
ENDROOT
TORSDOF 0
ENDMDL
