MODEL 1
REMARK minimizedAffinity -3.38975954
REMARK minimizedRMSD -1
REMARK  0 active torsions:
REMARK  status: ('A' for Active; 'I' for Inactive)
ROOT
ATOM      1  C   UNL d   1       0.710  -0.802  -0.434  0.00  0.00     0.172 C 
ATOM      2  N   UNL d   1       0.086  -0.163   0.701  0.00  0.00    -0.070 N 
ATOM      3  C1  UNL d   1      -0.224  -0.770   1.888  0.00  0.00    -0.004 A 
ATOM      4  C2  UNL d   1      -0.803   0.175   2.707  0.00  0.00    -0.047 A 
ATOM      5  C3  UNL d   1      -0.844   1.392   1.986  0.00  0.00    -0.047 A 
ATOM      6  C4  UNL d   1      -0.287   1.154   0.747  0.00  0.00    -0.004 A 
ENDROOT
TORSDOF 0
ENDMDL
