MODEL 1
REMARK minimizedAffinity -3.18663645
REMARK minimizedRMSD -1
REMARK  0 active torsions:
REMARK  status: ('A' for Active; 'I' for Inactive)
ROOT
ATOM      1  C   UNL d   1       0.685  -2.793  -2.160  0.00  0.00     0.172 C 
ATOM      2  N   UNL d   1       0.515  -1.476  -1.594  0.00  0.00    -0.070 N 
ATOM      3  C1  UNL d   1      -0.237  -0.466  -2.132  0.00  0.00    -0.004 A 
ATOM      4  C2  UNL d   1      -0.142   0.624  -1.294  0.00  0.00    -0.047 A 
ATOM      5  C3  UNL d   1       0.696   0.257  -0.215  0.00  0.00    -0.047 A 
ATOM      6  C4  UNL d   1       1.089  -1.048  -0.426  0.00  0.00    -0.004 A 
ENDROOT
TORSDOF 0
ENDMDL
