MODEL 1
REMARK minimizedAffinity 2.16759658
REMARK minimizedRMSD -1
REMARK  0 active torsions:
REMARK  status: ('A' for Active; 'I' for Inactive)
ROOT
ATOM      1  C   UNL d   1      -0.132   0.060  -0.937  0.00  0.00     0.172 C 
ATOM      2  N   UNL d   1      -0.140  -0.154   0.491  0.00  0.00    -0.070 N 
ATOM      3  C1  UNL d   1       0.873  -0.719   1.219  0.00  0.00    -0.004 A 
ATOM      4  C2  UNL d   1       0.481  -0.743   2.540  0.00  0.00    -0.047 A 
ATOM      5  C3  UNL d   1      -0.813  -0.174   2.608  0.00  0.00    -0.047 A 
ATOM      6  C4  UNL d   1      -1.173   0.182   1.326  0.00  0.00    -0.004 A 
ENDROOT
TORSDOF 0
ENDMDL
