MODEL 1
REMARK minimizedAffinity 1.30751884
REMARK minimizedRMSD -1
REMARK  0 active torsions:
REMARK  status: ('A' for Active; 'I' for Inactive)
ROOT
ATOM      1  C   UNL d   1      -0.273   1.059   2.817  0.00  0.00     0.172 C 
ATOM      2  N   UNL d   1       0.073   0.353   1.606  0.00  0.00    -0.070 N 
ATOM      3  C1  UNL d   1      -0.272  -0.939   1.308  0.00  0.00    -0.004 A 
ATOM      4  C2  UNL d   1       0.244  -1.238   0.066  0.00  0.00    -0.047 A 
ATOM      5  C3  UNL d   1       0.924  -0.087  -0.399  0.00  0.00    -0.047 A 
ATOM      6  C4  UNL d   1       0.802   0.883   0.574  0.00  0.00    -0.004 A 
ENDROOT
TORSDOF 0
ENDMDL
