MODEL 1
REMARK minimizedAffinity -2.20694065
REMARK minimizedRMSD -1
REMARK  0 active torsions:
REMARK  status: ('A' for Active; 'I' for Inactive)
ROOT
ATOM      1  C   UNL d   1      -0.005   1.444   4.183  0.00  0.00     0.172 C 
ATOM      2  N   UNL d   1      -0.626   0.798   3.051  0.00  0.00    -0.070 N 
ATOM      3  C1  UNL d   1      -0.359  -0.470   2.609  0.00  0.00    -0.004 A 
ATOM      4  C2  UNL d   1      -1.156  -0.711   1.511  0.00  0.00    -0.047 A 
ATOM      5  C3  UNL d   1      -1.928   0.453   1.284  0.00  0.00    -0.047 A 
ATOM      6  C4  UNL d   1      -1.581   1.371   2.252  0.00  0.00    -0.004 A 
ENDROOT
TORSDOF 0
ENDMDL
