MODEL 1
REMARK minimizedAffinity -3.12962246
REMARK minimizedRMSD -1
REMARK  0 active torsions:
REMARK  status: ('A' for Active; 'I' for Inactive)
ROOT
ATOM      1  C   UNL d   1       1.397  -0.257  -1.173  0.00  0.00     0.172 C 
ATOM      2  N   UNL d   1       1.030  -1.560  -1.675  0.00  0.00    -0.070 N 
ATOM      3  C1  UNL d   1       1.186  -2.745  -1.008  0.00  0.00    -0.004 A 
ATOM      4  C2  UNL d   1       0.716  -3.753  -1.822  0.00  0.00    -0.047 A 
ATOM      5  C3  UNL d   1       0.262  -3.152  -3.020  0.00  0.00    -0.047 A 
ATOM      6  C4  UNL d   1       0.468  -1.794  -2.902  0.00  0.00    -0.004 A 
ENDROOT
TORSDOF 0
ENDMDL
