MODEL 1
REMARK minimizedAffinity -0.471714467
REMARK minimizedRMSD -1
REMARK  0 active torsions:
REMARK  status: ('A' for Active; 'I' for Inactive)
ROOT
ATOM      1  C   UNL d   1       2.360   0.043  -2.695  0.00  0.00     0.172 C 
ATOM      2  N   UNL d   1       2.637  -0.779  -1.541  0.00  0.00    -0.070 N 
ATOM      3  C1  UNL d   1       1.795  -1.720  -1.010  0.00  0.00    -0.004 A 
ATOM      4  C2  UNL d   1       2.424  -2.283   0.079  0.00  0.00    -0.047 A 
ATOM      5  C3  UNL d   1       3.687  -1.658   0.208  0.00  0.00    -0.047 A 
ATOM      6  C4  UNL d   1       3.793  -0.731  -0.807  0.00  0.00    -0.004 A 
ENDROOT
TORSDOF 0
ENDMDL
