MODEL 1
REMARK minimizedAffinity 5.94405508
REMARK minimizedRMSD -1
REMARK  0 active torsions:
REMARK  status: ('A' for Active; 'I' for Inactive)
ROOT
ATOM      1  C   UNL d   1       3.811   4.251   1.992  0.00  0.00     0.172 C 
ATOM      2  N   UNL d   1       3.268   2.933   1.764  0.00  0.00    -0.070 N 
ATOM      3  C1  UNL d   1       3.723   2.031   0.839  0.00  0.00    -0.004 A 
ATOM      4  C2  UNL d   1       2.945   0.899   0.934  0.00  0.00    -0.047 A 
ATOM      5  C3  UNL d   1       1.988   1.127   1.951  0.00  0.00    -0.047 A 
ATOM      6  C4  UNL d   1       2.211   2.394   2.448  0.00  0.00    -0.004 A 
ENDROOT
TORSDOF 0
ENDMDL
