MODEL 1
REMARK minimizedAffinity 3.00173783
REMARK minimizedRMSD -1
REMARK  0 active torsions:
REMARK  status: ('A' for Active; 'I' for Inactive)
ROOT
ATOM      1  C   UNL d   1       5.575  -5.999  -0.367  0.00  0.00     0.172 C 
ATOM      2  N   UNL d   1       4.539  -5.100  -0.820  0.00  0.00    -0.070 N 
ATOM      3  C1  UNL d   1       3.868  -5.191  -2.010  0.00  0.00    -0.004 A 
ATOM      4  C2  UNL d   1       2.964  -4.152  -2.065  0.00  0.00    -0.047 A 
ATOM      5  C3  UNL d   1       3.098  -3.411  -0.867  0.00  0.00    -0.047 A 
ATOM      6  C4  UNL d   1       4.080  -4.020  -0.114  0.00  0.00    -0.004 A 
ENDROOT
TORSDOF 0
ENDMDL
