MODEL 1
REMARK minimizedAffinity 5.33246422
REMARK minimizedRMSD -1
REMARK  0 active torsions:
REMARK  status: ('A' for Active; 'I' for Inactive)
ROOT
ATOM      1  C   UNL d   1       2.365   2.307   2.508  0.00  0.00     0.172 C 
ATOM      2  N   UNL d   1       0.965   2.028   2.295  0.00  0.00    -0.070 N 
ATOM      3  C1  UNL d   1       0.012   2.946   1.945  0.00  0.00    -0.004 A 
ATOM      4  C2  UNL d   1      -1.193   2.285   1.839  0.00  0.00    -0.047 A 
ATOM      5  C3  UNL d   1      -0.956   0.922   2.137  0.00  0.00    -0.047 A 
ATOM      6  C4  UNL d   1       0.388   0.791   2.415  0.00  0.00    -0.004 A 
ENDROOT
TORSDOF 0
ENDMDL
