MODEL 1
REMARK minimizedAffinity 10.6693039
REMARK minimizedRMSD -1
REMARK  0 active torsions:
REMARK  status: ('A' for Active; 'I' for Inactive)
ROOT
ATOM      1  C   UNL d   1       1.565   2.302  -2.510  0.00  0.00     0.172 C 
ATOM      2  N   UNL d   1       1.784   1.065  -1.798  0.00  0.00    -0.070 N 
ATOM      3  C1  UNL d   1       1.451  -0.185  -2.248  0.00  0.00    -0.004 A 
ATOM      4  C2  UNL d   1       1.823  -1.094  -1.282  0.00  0.00    -0.047 A 
ATOM      5  C3  UNL d   1       2.399  -0.366  -0.214  0.00  0.00    -0.047 A 
ATOM      6  C4  UNL d   1       2.362   0.968  -0.560  0.00  0.00    -0.004 A 
ENDROOT
TORSDOF 0
ENDMDL
