MODEL 1
REMARK minimizedAffinity 6.7506237
REMARK minimizedRMSD -1
REMARK  0 active torsions:
REMARK  status: ('A' for Active; 'I' for Inactive)
ROOT
ATOM      1  C   UNL d   1      -5.993  -4.315   1.039  0.00  0.00     0.172 C 
ATOM      2  N   UNL d   1      -5.995  -4.428   2.479  0.00  0.00    -0.070 N 
ATOM      3  C1  UNL d   1      -5.997  -3.382   3.362  0.00  0.00    -0.004 A 
ATOM      4  C2  UNL d   1      -6.000  -3.905   4.637  0.00  0.00    -0.047 A 
ATOM      5  C3  UNL d   1      -5.999  -5.315   4.516  0.00  0.00    -0.047 A 
ATOM      6  C4  UNL d   1      -5.996  -5.612   3.169  0.00  0.00    -0.004 A 
ENDROOT
TORSDOF 0
ENDMDL
