MODEL 1
REMARK minimizedAffinity 8.03827763
REMARK minimizedRMSD -1
REMARK  0 active torsions:
REMARK  status: ('A' for Active; 'I' for Inactive)
ROOT
ATOM      1  C   UNL d   1      -0.345  -3.708  -2.221  0.00  0.00     0.172 C 
ATOM      2  N   UNL d   1       0.475  -2.575  -1.861  0.00  0.00    -0.070 N 
ATOM      3  C1  UNL d   1       0.911  -1.601  -2.719  0.00  0.00    -0.004 A 
ATOM      4  C2  UNL d   1       1.663  -0.704  -1.991  0.00  0.00    -0.047 A 
ATOM      5  C3  UNL d   1       1.679  -1.155  -0.650  0.00  0.00    -0.047 A 
ATOM      6  C4  UNL d   1       0.937  -2.315  -0.598  0.00  0.00    -0.004 A 
ENDROOT
TORSDOF 0
ENDMDL
