MODEL 1
REMARK minimizedAffinity 5.10003662
REMARK minimizedRMSD -1
REMARK  0 active torsions:
REMARK  status: ('A' for Active; 'I' for Inactive)
ROOT
ATOM      1  C   UNL d   1      -5.987  -5.251   5.006  0.00  0.00     0.172 C 
ATOM      2  N   UNL d   1      -5.992  -3.882   4.549  0.00  0.00    -0.070 N 
ATOM      3  C1  UNL d   1      -5.996  -3.477   3.241  0.00  0.00    -0.004 A 
ATOM      4  C2  UNL d   1      -6.000  -2.099   3.225  0.00  0.00    -0.047 A 
ATOM      5  C3  UNL d   1      -5.997  -1.660   4.571  0.00  0.00    -0.047 A 
ATOM      6  C4  UNL d   1      -5.992  -2.785   5.369  0.00  0.00    -0.004 A 
ENDROOT
TORSDOF 0
ENDMDL
