MODEL 1
REMARK minimizedAffinity 10.379652
REMARK minimizedRMSD -1
REMARK  0 active torsions:
REMARK  status: ('A' for Active; 'I' for Inactive)
ROOT
ATOM      1  C   UNL d   1       2.799   5.847   5.998  0.00  0.00     0.172 C 
ATOM      2  N   UNL d   1       3.437   4.551   5.984  0.00  0.00    -0.070 N 
ATOM      3  C1  UNL d   1       2.791   3.344   5.954  0.00  0.00    -0.004 A 
ATOM      4  C2  UNL d   1       3.749   2.353   5.949  0.00  0.00    -0.047 A 
ATOM      5  C3  UNL d   1       5.014   2.987   5.977  0.00  0.00    -0.047 A 
ATOM      6  C4  UNL d   1       4.792   4.348   5.999  0.00  0.00    -0.004 A 
ENDROOT
TORSDOF 0
ENDMDL
