MODEL 1
REMARK minimizedAffinity 9.29983902
REMARK minimizedRMSD -1
REMARK  0 active torsions:
REMARK  status: ('A' for Active; 'I' for Inactive)
ROOT
ATOM      1  C   UNL d   1      -5.769   0.250   4.338  0.00  0.00     0.172 C 
ATOM      2  N   UNL d   1      -5.863  -0.893   3.461  0.00  0.00    -0.070 N 
ATOM      3  C1  UNL d   1      -5.914  -0.848   2.094  0.00  0.00    -0.004 A 
ATOM      4  C2  UNL d   1      -5.999  -2.143   1.631  0.00  0.00    -0.047 A 
ATOM      5  C3  UNL d   1      -6.000  -2.996   2.761  0.00  0.00    -0.047 A 
ATOM      6  C4  UNL d   1      -5.915  -2.196   3.880  0.00  0.00    -0.004 A 
ENDROOT
TORSDOF 0
ENDMDL
