MODEL 1
REMARK minimizedAffinity 6.17130947
REMARK minimizedRMSD -1
REMARK  0 active torsions:
REMARK  status: ('A' for Active; 'I' for Inactive)
ROOT
ATOM      1  C   UNL d   1      -2.144  -3.159  -2.282  0.00  0.00     0.172 C 
ATOM      2  N   UNL d   1      -1.464  -4.315  -2.817  0.00  0.00    -0.070 N 
ATOM      3  C1  UNL d   1      -1.770  -4.948  -3.992  0.00  0.00    -0.004 A 
ATOM      4  C2  UNL d   1      -0.893  -6.000  -4.146  0.00  0.00    -0.047 A 
ATOM      5  C3  UNL d   1      -0.031  -6.000  -3.023  0.00  0.00    -0.047 A 
ATOM      6  C4  UNL d   1      -0.407  -4.946  -2.217  0.00  0.00    -0.004 A 
ENDROOT
TORSDOF 0
ENDMDL
