MODEL 1
REMARK minimizedAffinity 3.69047737
REMARK minimizedRMSD -1
REMARK  0 active torsions:
REMARK  status: ('A' for Active; 'I' for Inactive)
ROOT
ATOM      1  C   UNL d   1       1.768   2.431  -2.395  0.00  0.00     0.172 C 
ATOM      2  N   UNL d   1       1.848   3.814  -1.989  0.00  0.00    -0.070 N 
ATOM      3  C1  UNL d   1       1.432   4.319  -0.786  0.00  0.00    -0.004 A 
ATOM      4  C2  UNL d   1       1.680   5.675  -0.789  0.00  0.00    -0.047 A 
ATOM      5  C3  UNL d   1       2.264   5.996  -2.037  0.00  0.00    -0.047 A 
ATOM      6  C4  UNL d   1       2.357   4.826  -2.760  0.00  0.00    -0.004 A 
ENDROOT
TORSDOF 0
ENDMDL
