MODEL 1
REMARK minimizedAffinity 8.75005913
REMARK minimizedRMSD -1
REMARK  0 active torsions:
REMARK  status: ('A' for Active; 'I' for Inactive)
ROOT
ATOM      1  C   UNL d   1       0.653  -1.911  -1.708  0.00  0.00     0.172 C 
ATOM      2  N   UNL d   1      -0.654  -2.322  -2.163  0.00  0.00    -0.070 N 
ATOM      3  C1  UNL d   1      -1.638  -1.487  -2.622  0.00  0.00    -0.004 A 
ATOM      4  C2  UNL d   1      -2.727  -2.263  -2.957  0.00  0.00    -0.047 A 
ATOM      5  C3  UNL d   1      -2.386  -3.610  -2.690  0.00  0.00    -0.047 A 
ATOM      6  C4  UNL d   1      -1.097  -3.618  -2.199  0.00  0.00    -0.004 A 
ENDROOT
TORSDOF 0
ENDMDL
