MODEL 1
REMARK minimizedAffinity 0.255961806
REMARK minimizedRMSD -1
REMARK  0 active torsions:
REMARK  status: ('A' for Active; 'I' for Inactive)
ROOT
ATOM      1  C   UNL d   1      -0.945  -3.523  -2.098  0.00  0.00     0.172 C 
ATOM      2  N   UNL d   1       0.281  -2.810  -1.826  0.00  0.00    -0.070 N 
ATOM      3  C1  UNL d   1       1.037  -2.926  -0.690  0.00  0.00    -0.004 A 
ATOM      4  C2  UNL d   1       2.122  -2.086  -0.818  0.00  0.00    -0.047 A 
ATOM      5  C3  UNL d   1       2.014  -1.442  -2.073  0.00  0.00    -0.047 A 
ATOM      6  C4  UNL d   1       0.865  -1.909  -2.676  0.00  0.00    -0.004 A 
ENDROOT
TORSDOF 0
ENDMDL
