MODEL 1
REMARK minimizedAffinity -3.30456758
REMARK minimizedRMSD -1
REMARK  0 active torsions:
REMARK  status: ('A' for Active; 'I' for Inactive)
ROOT
ATOM      1  C   UNL d   1       0.280   0.885   0.344  0.00  0.00     0.172 C 
ATOM      2  N   UNL d   1       0.931  -0.126  -0.455  0.00  0.00    -0.070 N 
ATOM      3  C1  UNL d   1       0.724  -1.476  -0.359  0.00  0.00    -0.004 A 
ATOM      4  C2  UNL d   1       1.531  -2.095  -1.289  0.00  0.00    -0.047 A 
ATOM      5  C3  UNL d   1       2.248  -1.081  -1.968  0.00  0.00    -0.047 A 
ATOM      6  C4  UNL d   1       1.858   0.128  -1.431  0.00  0.00    -0.004 A 
ENDROOT
TORSDOF 0
ENDMDL
