MODEL 1
REMARK minimizedAffinity -0.803679109
REMARK minimizedRMSD -1
REMARK  1 active torsions:
REMARK  status: ('A' for Active; 'I' for Inactive)
REMARK    1  A    between atoms: C1_2  and  C2_3 
ROOT
ATOM      1  C2  UNL d   1       2.848  -3.384  -0.186  0.00  0.00    -0.076 A 
ATOM      2  C3  UNL d   1       1.517  -3.821  -0.074  0.00  0.00     0.004 A 
ATOM      3  C4  UNL d   1       0.502  -2.943   0.300  0.00  0.00    -0.003 A 
ATOM      4  C5  UNL d   1       0.801  -1.611   0.568  0.00  0.00     0.000 A 
ATOM      5  C6  UNL d   1       2.114  -1.156   0.445  0.00  0.00     0.000 A 
ATOM      6  C7  UNL d   1       3.146  -2.025   0.053  0.00  0.00    -0.073 A 
ATOM      7  C8  UNL d   1       4.544  -1.481  -0.058  0.00  0.00     0.078 C 
ENDROOT
BRANCH   1   8
ATOM      8  C1  UNL d   1       3.912  -4.388  -0.569  0.00  0.00     0.053 C 
ATOM      9  C   UNL d   1       4.032  -5.521   0.438  0.00  0.00     0.018 C 
ENDBRANCH   1   8
TORSDOF 1
ENDMDL
