MODEL 1
REMARK minimizedAffinity 7.07368803
REMARK minimizedRMSD -1
REMARK  1 active torsions:
REMARK  status: ('A' for Active; 'I' for Inactive)
REMARK    1  A    between atoms: C1_2  and  C2_3 
ROOT
ATOM      1  C2  UNL d   1       3.082  -3.640  -0.344  0.00  0.00    -0.076 A 
ATOM      2  C3  UNL d   1       1.820  -4.207  -0.593  0.00  0.00     0.004 A 
ATOM      3  C4  UNL d   1       0.652  -3.470  -0.401  0.00  0.00    -0.003 A 
ATOM      4  C5  UNL d   1       0.727  -2.155   0.043  0.00  0.00     0.000 A 
ATOM      5  C6  UNL d   1       1.971  -1.571   0.279  0.00  0.00     0.000 A 
ATOM      6  C7  UNL d   1       3.159  -2.294   0.074  0.00  0.00    -0.073 A 
ATOM      7  C8  UNL d   1       4.473  -1.616   0.350  0.00  0.00     0.078 C 
ENDROOT
BRANCH   1   8
ATOM      8  C1  UNL d   1       4.313  -4.495  -0.544  0.00  0.00     0.053 C 
ATOM      9  C   UNL d   1       4.233  -5.815   0.207  0.00  0.00     0.018 C 
ENDBRANCH   1   8
TORSDOF 1
ENDMDL
