MODEL 1
REMARK minimizedAffinity 4.13122368
REMARK minimizedRMSD -1
REMARK  1 active torsions:
REMARK  status: ('A' for Active; 'I' for Inactive)
REMARK    1  A    between atoms: C1_2  and  C2_3 
ROOT
ATOM      1  C2  UNL d   1       1.845  -0.691   1.649  0.00  0.00    -0.076 A 
ATOM      2  C3  UNL d   1       1.896  -0.943   0.267  0.00  0.00     0.004 A 
ATOM      3  C4  UNL d   1       0.731  -1.160  -0.466  0.00  0.00    -0.003 A 
ATOM      4  C5  UNL d   1      -0.505  -1.129   0.170  0.00  0.00     0.000 A 
ATOM      5  C6  UNL d   1      -0.576  -0.863   1.537  0.00  0.00     0.000 A 
ATOM      6  C7  UNL d   1       0.588  -0.626   2.289  0.00  0.00    -0.073 A 
ATOM      7  C8  UNL d   1       0.453  -0.351   3.761  0.00  0.00     0.078 C 
ENDROOT
BRANCH   1   8
ATOM      8  C1  UNL d   1       3.143  -0.490   2.398  0.00  0.00     0.053 C 
ATOM      9  C   UNL d   1       4.310  -1.217   1.747  0.00  0.00     0.018 C 
ENDBRANCH   1   8
TORSDOF 1
ENDMDL
