MODEL 1
REMARK minimizedAffinity 1.09520674
REMARK minimizedRMSD -1
REMARK  1 active torsions:
REMARK  status: ('A' for Active; 'I' for Inactive)
REMARK    1  A    between atoms: C1_2  and  C2_3 
ROOT
ATOM      1  C2  UNL d   1       0.176  -1.201   1.301  0.00  0.00    -0.076 A 
ATOM      2  C3  UNL d   1      -0.675  -2.258   0.933  0.00  0.00     0.004 A 
ATOM      3  C4  UNL d   1      -0.255  -3.237   0.034  0.00  0.00    -0.003 A 
ATOM      4  C5  UNL d   1       1.022  -3.176  -0.512  0.00  0.00     0.000 A 
ATOM      5  C6  UNL d   1       1.886  -2.144  -0.144  0.00  0.00     0.000 A 
ATOM      6  C7  UNL d   1       1.484  -1.158   0.773  0.00  0.00    -0.073 A 
ATOM      7  C8  UNL d   1       2.455  -0.065   1.129  0.00  0.00     0.078 C 
ENDROOT
BRANCH   1   8
ATOM      8  C1  UNL d   1      -0.343  -0.154   2.259  0.00  0.00     0.053 C 
ATOM      9  C   UNL d   1      -0.121  -0.534   3.715  0.00  0.00     0.018 C 
ENDBRANCH   1   8
TORSDOF 1
ENDMDL
