MODEL 1
REMARK minimizedAffinity 3.05302715
REMARK minimizedRMSD -1
REMARK  1 active torsions:
REMARK  status: ('A' for Active; 'I' for Inactive)
REMARK    1  A    between atoms: C1_2  and  C2_3 
ROOT
ATOM      1  C2  UNL d   1       2.224  -3.397  -0.150  0.00  0.00    -0.076 A 
ATOM      2  C3  UNL d   1       2.880  -2.381   0.566  0.00  0.00     0.004 A 
ATOM      3  C4  UNL d   1       2.176  -1.285   1.064  0.00  0.00    -0.003 A 
ATOM      4  C5  UNL d   1       0.805  -1.189   0.854  0.00  0.00     0.000 A 
ATOM      5  C6  UNL d   1       0.135  -2.196   0.161  0.00  0.00     0.000 A 
ATOM      6  C7  UNL d   1       0.827  -3.315  -0.333  0.00  0.00    -0.073 A 
ATOM      7  C8  UNL d   1       0.055  -4.369  -1.079  0.00  0.00     0.078 C 
ENDROOT
BRANCH   1   8
ATOM      8  C1  UNL d   1       3.044  -4.547  -0.690  0.00  0.00     0.053 C 
ATOM      9  C   UNL d   1       4.065  -5.056   0.315  0.00  0.00     0.018 C 
ENDBRANCH   1   8
TORSDOF 1
ENDMDL
