MODEL 1
REMARK minimizedAffinity 1.46879184
REMARK minimizedRMSD -1
REMARK  1 active torsions:
REMARK  status: ('A' for Active; 'I' for Inactive)
REMARK    1  A    between atoms: C1_2  and  C2_3 
ROOT
ATOM      1  C2  UNL d   1       2.202  -0.357   1.584  0.00  0.00    -0.076 A 
ATOM      2  C3  UNL d   1       0.883  -0.179   2.038  0.00  0.00     0.004 A 
ATOM      3  C4  UNL d   1      -0.180  -0.847   1.432  0.00  0.00    -0.003 A 
ATOM      4  C5  UNL d   1       0.059  -1.705   0.364  0.00  0.00     0.000 A 
ATOM      5  C6  UNL d   1       1.362  -1.907  -0.087  0.00  0.00     0.000 A 
ATOM      6  C7  UNL d   1       2.447  -1.254   0.523  0.00  0.00    -0.073 A 
ATOM      7  C8  UNL d   1       3.832  -1.504  -0.008  0.00  0.00     0.078 C 
ENDROOT
BRANCH   1   8
ATOM      8  C1  UNL d   1       3.311   0.415   2.262  0.00  0.00     0.053 C 
ATOM      9  C   UNL d   1       3.091   1.919   2.209  0.00  0.00     0.018 C 
ENDBRANCH   1   8
TORSDOF 1
ENDMDL
