MODEL 1
REMARK minimizedAffinity -0.555992782
REMARK minimizedRMSD -1
REMARK  1 active torsions:
REMARK  status: ('A' for Active; 'I' for Inactive)
REMARK    1  A    between atoms: C1_2  and  C2_3 
ROOT
ATOM      1  C2  UNL d   1       4.790   5.522  -0.132  0.00  0.00    -0.076 A 
ATOM      2  C3  UNL d   1       5.413   5.266   1.102  0.00  0.00     0.004 A 
ATOM      3  C4  UNL d   1       4.679   5.252   2.287  0.00  0.00    -0.003 A 
ATOM      4  C5  UNL d   1       3.310   5.492   2.258  0.00  0.00     0.000 A 
ATOM      5  C6  UNL d   1       2.672   5.730   1.040  0.00  0.00     0.000 A 
ATOM      6  C7  UNL d   1       3.395   5.732  -0.165  0.00  0.00    -0.073 A 
ATOM      7  C8  UNL d   1       2.657   6.000  -1.448  0.00  0.00     0.078 C 
ENDROOT
BRANCH   1   8
ATOM      8  C1  UNL d   1       5.641   5.551  -1.381  0.00  0.00     0.053 C 
ATOM      9  C   UNL d   1       6.000   4.158  -1.875  0.00  0.00     0.018 C 
ENDBRANCH   1   8
TORSDOF 1
ENDMDL
