MODEL 1
REMARK minimizedAffinity 1.84420252
REMARK minimizedRMSD -1
REMARK  1 active torsions:
REMARK  status: ('A' for Active; 'I' for Inactive)
REMARK    1  A    between atoms: C1_2  and  C2_3 
ROOT
ATOM      1  C2  UNL d   1       0.767  -2.038  -0.128  0.00  0.00    -0.076 A 
ATOM      2  C3  UNL d   1      -0.568  -1.824   0.257  0.00  0.00     0.004 A 
ATOM      3  C4  UNL d   1      -0.908  -0.786   1.122  0.00  0.00    -0.003 A 
ATOM      4  C5  UNL d   1       0.082   0.057   1.616  0.00  0.00     0.000 A 
ATOM      5  C6  UNL d   1       1.409  -0.130   1.231  0.00  0.00     0.000 A 
ATOM      6  C7  UNL d   1       1.767  -1.162   0.347  0.00  0.00    -0.073 A 
ATOM      7  C8  UNL d   1       3.214  -1.321  -0.030  0.00  0.00     0.078 C 
ENDROOT
BRANCH   1   8
ATOM      8  C1  UNL d   1       1.079  -3.197  -1.047  0.00  0.00     0.053 C 
ATOM      9  C   UNL d   1       2.162  -4.108  -0.490  0.00  0.00     0.018 C 
ENDBRANCH   1   8
TORSDOF 1
ENDMDL
