MODEL 1
REMARK minimizedAffinity -1.49387193
REMARK minimizedRMSD -1
REMARK  1 active torsions:
REMARK  status: ('A' for Active; 'I' for Inactive)
REMARK    1  A    between atoms: C1_2  and  C2_3 
ROOT
ATOM      1  C2  UNL d   1       0.840  -1.760   0.289  0.00  0.00    -0.076 A 
ATOM      2  C3  UNL d   1       2.018  -0.997   0.201  0.00  0.00     0.004 A 
ATOM      3  C4  UNL d   1       3.250  -1.604  -0.034  0.00  0.00    -0.003 A 
ATOM      4  C5  UNL d   1       3.325  -2.985  -0.186  0.00  0.00     0.000 A 
ATOM      5  C6  UNL d   1       2.165  -3.755  -0.120  0.00  0.00     0.000 A 
ATOM      6  C7  UNL d   1       0.912  -3.157   0.100  0.00  0.00    -0.073 A 
ATOM      7  C8  UNL d   1      -0.306  -4.037   0.169  0.00  0.00     0.078 C 
ENDROOT
BRANCH   1   8
ATOM      8  C1  UNL d   1      -0.463  -1.049   0.573  0.00  0.00     0.053 C 
ATOM      9  C   UNL d   1      -0.389  -0.168   1.810  0.00  0.00     0.018 C 
ENDBRANCH   1   8
TORSDOF 1
ENDMDL
