MODEL 1
REMARK minimizedAffinity 1.47553945
REMARK minimizedRMSD -1
REMARK  1 active torsions:
REMARK  status: ('A' for Active; 'I' for Inactive)
REMARK    1  A    between atoms: C1_2  and  C2_3 
ROOT
ATOM      1  C2  UNL d   1       1.945  -2.168   0.504  0.00  0.00    -0.076 A 
ATOM      2  C3  UNL d   1       1.909  -0.964   1.228  0.00  0.00     0.004 A 
ATOM      3  C4  UNL d   1       0.719  -0.255   1.384  0.00  0.00    -0.003 A 
ATOM      4  C5  UNL d   1      -0.455  -0.739   0.818  0.00  0.00     0.000 A 
ATOM      5  C6  UNL d   1      -0.442  -1.941   0.111  0.00  0.00     0.000 A 
ATOM      6  C7  UNL d   1       0.746  -2.676  -0.041  0.00  0.00    -0.073 A 
ATOM      7  C8  UNL d   1       0.704  -3.963  -0.819  0.00  0.00     0.078 C 
ENDROOT
BRANCH   1   8
ATOM      8  C1  UNL d   1       3.270  -2.879   0.345  0.00  0.00     0.053 C 
ATOM      9  C   UNL d   1       3.123  -4.393   0.350  0.00  0.00     0.018 C 
ENDBRANCH   1   8
TORSDOF 1
ENDMDL
