MODEL 1
REMARK minimizedAffinity 5.80033493
REMARK minimizedRMSD -1
REMARK  1 active torsions:
REMARK  status: ('A' for Active; 'I' for Inactive)
REMARK    1  A    between atoms: C1_2  and  C2_3 
ROOT
ATOM      1  C2  UNL d   1       3.389   3.037  -2.567  0.00  0.00    -0.076 A 
ATOM      2  C3  UNL d   1       4.015   1.940  -1.950  0.00  0.00     0.004 A 
ATOM      3  C4  UNL d   1       3.784   0.639  -2.394  0.00  0.00    -0.003 A 
ATOM      4  C5  UNL d   1       2.924   0.414  -3.463  0.00  0.00     0.000 A 
ATOM      5  C6  UNL d   1       2.308   1.492  -4.099  0.00  0.00     0.000 A 
ATOM      6  C7  UNL d   1       2.543   2.811  -3.674  0.00  0.00    -0.073 A 
ATOM      7  C8  UNL d   1       1.847   3.935  -4.391  0.00  0.00     0.078 C 
ENDROOT
BRANCH   1   8
ATOM      8  C1  UNL d   1       3.656   4.422  -2.024  0.00  0.00     0.053 C 
ATOM      9  C   UNL d   1       4.087   4.404  -0.566  0.00  0.00     0.018 C 
ENDBRANCH   1   8
TORSDOF 1
ENDMDL
