MODEL 1
REMARK minimizedAffinity -5.31275463
REMARK minimizedRMSD -1
REMARK  1 active torsions:
REMARK  status: ('A' for Active; 'I' for Inactive)
REMARK    1  A    between atoms: C1_2  and  C2_3 
ROOT
ATOM      1  C2  UNL d   1      -1.291  -0.695   1.122  0.00  0.00    -0.076 A 
ATOM      2  C3  UNL d   1      -2.092  -1.694   0.542  0.00  0.00     0.004 A 
ATOM      3  C4  UNL d   1      -1.540  -2.902   0.119  0.00  0.00    -0.003 A 
ATOM      4  C5  UNL d   1      -0.177  -3.132   0.272  0.00  0.00     0.000 A 
ATOM      5  C6  UNL d   1       0.630  -2.160   0.862  0.00  0.00     0.000 A 
ATOM      6  C7  UNL d   1       0.086  -0.943   1.308  0.00  0.00    -0.073 A 
ATOM      7  C8  UNL d   1       1.004   0.073   1.932  0.00  0.00     0.078 C 
ENDROOT
BRANCH   1   8
ATOM      8  C1  UNL d   1      -1.941   0.606   1.536  0.00  0.00     0.053 C 
ATOM      9  C   UNL d   1      -3.120   0.976   0.649  0.00  0.00     0.018 C 
ENDBRANCH   1   8
TORSDOF 1
ENDMDL
