MODEL 1
REMARK minimizedAffinity -3.16182351
REMARK minimizedRMSD -1
REMARK  1 active torsions:
REMARK  status: ('A' for Active; 'I' for Inactive)
REMARK    1  A    between atoms: C1_2  and  C2_3 
ROOT
ATOM      1  C2  UNL d   1       0.846  -2.585   0.260  0.00  0.00    -0.076 A 
ATOM      2  C3  UNL d   1       0.617  -3.963   0.100  0.00  0.00     0.004 A 
ATOM      3  C4  UNL d   1       1.676  -4.851  -0.078  0.00  0.00    -0.003 A 
ATOM      4  C5  UNL d   1       2.983  -4.376  -0.099  0.00  0.00     0.000 A 
ATOM      5  C6  UNL d   1       3.230  -3.014   0.075  0.00  0.00     0.000 A 
ATOM      6  C7  UNL d   1       2.174  -2.108   0.272  0.00  0.00    -0.073 A 
ATOM      7  C8  UNL d   1       2.498  -0.650   0.449  0.00  0.00     0.078 C 
ENDROOT
BRANCH   1   8
ATOM      8  C1  UNL d   1      -0.344  -1.667   0.422  0.00  0.00     0.053 C 
ATOM      9  C   UNL d   1      -0.221  -0.765   1.641  0.00  0.00     0.018 C 
ENDBRANCH   1   8
TORSDOF 1
ENDMDL
