MODEL 1
REMARK minimizedAffinity -1.01909554
REMARK minimizedRMSD -1
REMARK  1 active torsions:
REMARK  status: ('A' for Active; 'I' for Inactive)
REMARK    1  A    between atoms: C1_2  and  C2_3 
ROOT
ATOM      1  C2  UNL d   1       0.298  -0.742   1.240  0.00  0.00    -0.076 A 
ATOM      2  C3  UNL d   1      -0.117  -2.000   0.771  0.00  0.00     0.004 A 
ATOM      3  C4  UNL d   1       0.797  -2.899   0.224  0.00  0.00    -0.003 A 
ATOM      4  C5  UNL d   1       2.142  -2.555   0.139  0.00  0.00     0.000 A 
ATOM      5  C6  UNL d   1       2.574  -1.318   0.616  0.00  0.00     0.000 A 
ATOM      6  C7  UNL d   1       1.668  -0.406   1.185  0.00  0.00    -0.073 A 
ATOM      7  C8  UNL d   1       2.188   0.916   1.678  0.00  0.00     0.078 C 
ENDROOT
BRANCH   1   8
ATOM      8  C1  UNL d   1      -0.743   0.202   1.798  0.00  0.00     0.053 C 
ATOM      9  C   UNL d   1      -1.973   0.304   0.910  0.00  0.00     0.018 C 
ENDBRANCH   1   8
TORSDOF 1
ENDMDL
