MODEL 1
REMARK minimizedAffinity -1.80218387
REMARK minimizedRMSD -1
REMARK  1 active torsions:
REMARK  status: ('A' for Active; 'I' for Inactive)
REMARK    1  A    between atoms: C1_2  and  C2_3 
ROOT
ATOM      1  C2  UNL d   1       2.048  -2.191   0.192  0.00  0.00    -0.076 A 
ATOM      2  C3  UNL d   1       1.261  -3.277  -0.228  0.00  0.00     0.004 A 
ATOM      3  C4  UNL d   1      -0.065  -3.403   0.182  0.00  0.00    -0.003 A 
ATOM      4  C5  UNL d   1      -0.626  -2.443   1.018  0.00  0.00     0.000 A 
ATOM      5  C6  UNL d   1       0.134  -1.349   1.429  0.00  0.00     0.000 A 
ATOM      6  C7  UNL d   1       1.468  -1.199   1.012  0.00  0.00    -0.073 A 
ATOM      7  C8  UNL d   1       2.244  -0.003   1.491  0.00  0.00     0.078 C 
ENDROOT
BRANCH   1   8
ATOM      8  C1  UNL d   1       3.488  -2.122  -0.263  0.00  0.00     0.053 C 
ATOM      9  C   UNL d   1       4.119  -3.498  -0.412  0.00  0.00     0.018 C 
ENDBRANCH   1   8
TORSDOF 1
ENDMDL
