MODEL 1
REMARK minimizedAffinity 6.85125971
REMARK minimizedRMSD -1
REMARK  1 active torsions:
REMARK  status: ('A' for Active; 'I' for Inactive)
REMARK    1  A    between atoms: C1_2  and  C2_3 
ROOT
ATOM      1  C2  UNL d   1       0.904  -2.457   0.820  0.00  0.00    -0.076 A 
ATOM      2  C3  UNL d   1      -0.430  -2.625   1.229  0.00  0.00     0.004 A 
ATOM      3  C4  UNL d   1      -1.211  -1.530   1.596  0.00  0.00    -0.003 A 
ATOM      4  C5  UNL d   1      -0.670  -0.250   1.558  0.00  0.00     0.000 A 
ATOM      5  C6  UNL d   1       0.646  -0.063   1.138  0.00  0.00     0.000 A 
ATOM      6  C7  UNL d   1       1.442  -1.154   0.749  0.00  0.00    -0.073 A 
ATOM      7  C8  UNL d   1       2.857  -0.896   0.310  0.00  0.00     0.078 C 
ENDROOT
BRANCH   1   8
ATOM      8  C1  UNL d   1       1.711  -3.685   0.460  0.00  0.00     0.053 C 
ATOM      9  C   UNL d   1       1.005  -4.568  -0.558  0.00  0.00     0.018 C 
ENDBRANCH   1   8
TORSDOF 1
ENDMDL
