MODEL 1
REMARK minimizedAffinity 4.25550032
REMARK minimizedRMSD -1
REMARK  1 active torsions:
REMARK  status: ('A' for Active; 'I' for Inactive)
REMARK    1  A    between atoms: C1_2  and  C2_3 
ROOT
ATOM      1  C2  UNL d   1       1.128  -1.041   0.822  0.00  0.00    -0.076 A 
ATOM      2  C3  UNL d   1       2.220  -1.747   0.287  0.00  0.00     0.004 A 
ATOM      3  C4  UNL d   1       2.027  -2.898  -0.475  0.00  0.00    -0.003 A 
ATOM      4  C5  UNL d   1       0.738  -3.362  -0.714  0.00  0.00     0.000 A 
ATOM      5  C6  UNL d   1      -0.357  -2.666  -0.205  0.00  0.00     0.000 A 
ATOM      6  C7  UNL d   1      -0.180  -1.494   0.551  0.00  0.00    -0.073 A 
ATOM      7  C8  UNL d   1      -1.397  -0.786   1.080  0.00  0.00     0.078 C 
ENDROOT
BRANCH   1   8
ATOM      8  C1  UNL d   1       1.401   0.185   1.663  0.00  0.00     0.053 C 
ATOM      9  C   UNL d   1       1.735  -0.160   3.106  0.00  0.00     0.018 C 
ENDBRANCH   1   8
TORSDOF 1
ENDMDL
