MODEL 1
REMARK minimizedAffinity -1.85763502
REMARK minimizedRMSD -1
REMARK  1 active torsions:
REMARK  status: ('A' for Active; 'I' for Inactive)
REMARK    1  A    between atoms: C3_4  and  O_7 
ROOT
ATOM      1  C   UNL d   1       1.028  -3.623   2.878  0.00  0.00    -0.033 A 
ATOM      2  C1  UNL d   1       1.737  -2.950   3.875  0.00  0.00     0.039 A 
ATOM      3  C2  UNL d   1       2.292  -1.696   3.615  0.00  0.00    -0.080 A 
ATOM      4  C3  UNL d   1       2.130  -1.126   2.355  0.00  0.00     0.150 A 
ATOM      5  C4  UNL d   1       1.422  -1.788   1.358  0.00  0.00    -0.007 A 
ATOM      6  C5  UNL d   1       0.870  -3.042   1.620  0.00  0.00     0.039 A 
ENDROOT
BRANCH   4   7
ATOM      7  O   UNL d   1       2.657   0.095   2.052  0.00  0.00    -0.526 OA
ATOM      8  H5  UNL d   1       3.144   0.421   2.828  0.00  0.00     0.418 HD
ENDBRANCH   4   7
TORSDOF 1
ENDMDL
