MODEL 1
REMARK minimizedAffinity 1.39563906
REMARK minimizedRMSD -1
REMARK  1 active torsions:
REMARK  status: ('A' for Active; 'I' for Inactive)
REMARK    1  A    between atoms: C3_4  and  O_7 
ROOT
ATOM      1  C   UNL d   1       4.140  -5.985  -5.934  0.00  0.00    -0.033 A 
ATOM      2  C1  UNL d   1       3.231  -5.982  -4.874  0.00  0.00     0.039 A 
ATOM      3  C2  UNL d   1       3.693  -5.986  -3.556  0.00  0.00    -0.080 A 
ATOM      4  C3  UNL d   1       5.063  -5.991  -3.313  0.00  0.00     0.150 A 
ATOM      5  C4  UNL d   1       5.974  -5.989  -4.364  0.00  0.00    -0.007 A 
ATOM      6  C5  UNL d   1       5.512  -5.987  -5.679  0.00  0.00     0.039 A 
ENDROOT
BRANCH   4   7
ATOM      7  O   UNL d   1       5.561  -5.999  -2.043  0.00  0.00    -0.526 OA
ATOM      8  H5  UNL d   1       4.816  -6.029  -1.421  0.00  0.00     0.418 HD
ENDBRANCH   4   7
TORSDOF 1
ENDMDL
