MODEL 1
REMARK minimizedAffinity 7.04580832
REMARK minimizedRMSD -1
REMARK  1 active torsions:
REMARK  status: ('A' for Active; 'I' for Inactive)
REMARK    1  A    between atoms: C3_4  and  O_7 
ROOT
ATOM      1  C   UNL d   1      -5.564   4.364   0.905  0.00  0.00    -0.033 A 
ATOM      2  C1  UNL d   1      -5.503   3.500  -0.189  0.00  0.00     0.039 A 
ATOM      3  C2  UNL d   1      -4.489   2.544  -0.271  0.00  0.00    -0.080 A 
ATOM      4  C3  UNL d   1      -3.543   2.462   0.748  0.00  0.00     0.150 A 
ATOM      5  C4  UNL d   1      -3.600   3.318   1.843  0.00  0.00    -0.007 A 
ATOM      6  C5  UNL d   1      -4.613   4.272   1.922  0.00  0.00     0.039 A 
ENDROOT
BRANCH   4   7
ATOM      7  O   UNL d   1      -2.532   1.549   0.710  0.00  0.00    -0.526 OA
ATOM      8  H5  UNL d   1      -2.603   1.045  -0.119  0.00  0.00     0.418 HD
ENDBRANCH   4   7
TORSDOF 1
ENDMDL
