MODEL 1
REMARK minimizedAffinity 7.46510696
REMARK minimizedRMSD -1
REMARK  1 active torsions:
REMARK  status: ('A' for Active; 'I' for Inactive)
REMARK    1  A    between atoms: C3_4  and  O_7 
ROOT
ATOM      1  C   UNL d   1       1.884  -2.204   4.959  0.00  0.00    -0.033 A 
ATOM      2  C1  UNL d   1       2.772  -2.490   5.998  0.00  0.00     0.039 A 
ATOM      3  C2  UNL d   1       4.149  -2.486   5.763  0.00  0.00    -0.080 A 
ATOM      4  C3  UNL d   1       4.623  -2.194   4.487  0.00  0.00     0.150 A 
ATOM      5  C4  UNL d   1       3.745  -1.904   3.449  0.00  0.00    -0.007 A 
ATOM      6  C5  UNL d   1       2.371  -1.910   3.685  0.00  0.00     0.039 A 
ENDROOT
BRANCH   4   7
ATOM      7  O   UNL d   1       5.958  -2.182   4.209  0.00  0.00    -0.526 OA
ATOM      8  H5  UNL d   1       6.442  -2.429   5.015  0.00  0.00     0.418 HD
ENDBRANCH   4   7
TORSDOF 1
ENDMDL
