MODEL 1
REMARK minimizedAffinity -1.85897851
REMARK minimizedRMSD -1
REMARK  1 active torsions:
REMARK  status: ('A' for Active; 'I' for Inactive)
REMARK    1  A    between atoms: C3_4  and  O_7 
ROOT
ATOM      1  C   UNL d   1       2.250  -1.483   4.147  0.00  0.00    -0.033 A 
ATOM      2  C1  UNL d   1       3.297  -1.660   3.241  0.00  0.00     0.039 A 
ATOM      3  C2  UNL d   1       4.555  -2.062   3.695  0.00  0.00    -0.080 A 
ATOM      4  C3  UNL d   1       4.752  -2.284   5.055  0.00  0.00     0.150 A 
ATOM      5  C4  UNL d   1       3.713  -2.113   5.963  0.00  0.00    -0.007 A 
ATOM      6  C5  UNL d   1       2.458  -1.711   5.508  0.00  0.00     0.039 A 
ENDROOT
BRANCH   4   7
ATOM      7  O   UNL d   1       5.963  -2.673   5.545  0.00  0.00    -0.526 OA
ATOM      8  H5  UNL d   1       6.593  -2.723   4.807  0.00  0.00     0.418 HD
ENDBRANCH   4   7
TORSDOF 1
ENDMDL
