MODEL 1
REMARK minimizedAffinity -0.0757933483
REMARK minimizedRMSD -1
REMARK  1 active torsions:
REMARK  status: ('A' for Active; 'I' for Inactive)
REMARK    1  A    between atoms: C3_4  and  O_7 
ROOT
ATOM      1  C   UNL d   1       6.000  -2.630   5.274  0.00  0.00    -0.033 A 
ATOM      2  C1  UNL d   1       6.000  -2.255   3.929  0.00  0.00     0.039 A 
ATOM      3  C2  UNL d   1       4.807  -1.884   3.306  0.00  0.00    -0.080 A 
ATOM      4  C3  UNL d   1       3.623  -1.890   4.038  0.00  0.00     0.150 A 
ATOM      5  C4  UNL d   1       3.616  -2.258   5.379  0.00  0.00    -0.007 A 
ATOM      6  C5  UNL d   1       4.808  -2.629   6.000  0.00  0.00     0.039 A 
ENDROOT
BRANCH   4   7
ATOM      7  O   UNL d   1       2.433  -1.540   3.472  0.00  0.00    -0.526 OA
ATOM      8  H5  UNL d   1       2.586  -1.338   2.534  0.00  0.00     0.418 HD
ENDBRANCH   4   7
TORSDOF 1
ENDMDL
