MODEL 1
REMARK minimizedAffinity -5.96633625
REMARK minimizedRMSD -1
REMARK  0 active torsions:
REMARK  status: ('A' for Active; 'I' for Inactive)
ROOT
ATOM      1  C4' PXY d   1      -3.168   4.422  -1.637  0.00  0.00     0.077 C 
ATOM      2  C1' PXY d   1       0.389   5.284   2.837  0.00  0.00     0.077 C 
ATOM      3  C1  PXY d   1      -0.535   5.049   1.659  0.00  0.00    -0.082 A 
ATOM      4  C2  PXY d   1      -1.378   6.000   1.289  0.00  0.00     0.003 A 
ATOM      5  C3  PXY d   1      -2.244   5.792   0.246  0.00  0.00     0.003 A 
ATOM      6  C4  PXY d   1      -2.210   4.619  -0.459  0.00  0.00    -0.082 A 
ATOM      7  C5  PXY d   1      -1.345   3.648  -0.095  0.00  0.00     0.003 A 
ATOM      8  C6  PXY d   1      -0.504   3.863   0.992  0.00  0.00     0.003 A 
ENDROOT
TORSDOF 0
ENDMDL
