MODEL 1
REMARK minimizedAffinity -5.26682091
REMARK minimizedRMSD -1
REMARK  0 active torsions:
REMARK  status: ('A' for Active; 'I' for Inactive)
ROOT
ATOM      1  C4' PXY d   1      -0.043   2.543   1.568  0.00  0.00     0.077 C 
ATOM      2  C1' PXY d   1      -0.022  -3.021   0.001  0.00  0.00     0.077 C 
ATOM      3  C1  PXY d   1      -0.022  -1.565   0.423  0.00  0.00    -0.082 A 
ATOM      4  C2  PXY d   1      -0.896  -0.729  -0.113  0.00  0.00     0.003 A 
ATOM      5  C3  PXY d   1      -0.888   0.598   0.234  0.00  0.00     0.003 A 
ATOM      6  C4  PXY d   1      -0.013   1.062   1.178  0.00  0.00    -0.082 A 
ATOM      7  C5  PXY d   1       0.874   0.213   1.738  0.00  0.00     0.003 A 
ATOM      8  C6  PXY d   1       0.878  -1.122   1.342  0.00  0.00     0.003 A 
ENDROOT
TORSDOF 0
ENDMDL
