MODEL 1
REMARK minimizedAffinity -4.15554428
REMARK minimizedRMSD -1
REMARK  0 active torsions:
REMARK  status: ('A' for Active; 'I' for Inactive)
ROOT
ATOM      1  C4' PXY d   1       1.463   3.346   0.197  0.00  0.00     0.077 C 
ATOM      2  C1' PXY d   1      -0.835  -1.943  -0.201  0.00  0.00     0.077 C 
ATOM      3  C1  PXY d   1      -0.233  -0.555  -0.110  0.00  0.00    -0.082 A 
ATOM      4  C2  PXY d   1       0.479  -0.220   0.954  0.00  0.00     0.003 A 
ATOM      5  C3  PXY d   1       1.004   1.042   1.068  0.00  0.00     0.003 A 
ATOM      6  C4  PXY d   1       0.844   1.953   0.058  0.00  0.00    -0.082 A 
ATOM      7  C5  PXY d   1       0.128   1.615  -1.035  0.00  0.00     0.003 A 
ATOM      8  C6  PXY d   1      -0.431   0.342  -1.113  0.00  0.00     0.003 A 
ENDROOT
TORSDOF 0
ENDMDL
