MODEL 1
REMARK minimizedAffinity -5.06762934
REMARK minimizedRMSD -1
REMARK  0 active torsions:
REMARK  status: ('A' for Active; 'I' for Inactive)
ROOT
ATOM      1  C4' PXY d   1      -1.916   4.261   0.429  0.00  0.00     0.077 C 
ATOM      2  C1' PXY d   1       0.162  -0.856  -1.278  0.00  0.00     0.077 C 
ATOM      3  C1  PXY d   1      -0.371   0.492  -0.833  0.00  0.00    -0.082 A 
ATOM      4  C2  PXY d   1      -1.363   0.547   0.041  0.00  0.00     0.003 A 
ATOM      5  C3  PXY d   1      -1.879   1.756   0.430  0.00  0.00     0.003 A 
ATOM      6  C4  PXY d   1      -1.339   2.923  -0.041  0.00  0.00    -0.082 A 
ATOM      7  C5  PXY d   1      -0.320   2.876  -0.925  0.00  0.00     0.003 A 
ATOM      8  C6  PXY d   1       0.162   1.637  -1.339  0.00  0.00     0.003 A 
ENDROOT
TORSDOF 0
ENDMDL
