MODEL 1
REMARK minimizedAffinity -4.17846203
REMARK minimizedRMSD -1
REMARK  0 active torsions:
REMARK  status: ('A' for Active; 'I' for Inactive)
ROOT
ATOM      1  C4' PXY d   1      -1.054  -2.424  -0.042  0.00  0.00     0.077 C 
ATOM      2  C1' PXY d   1      -0.245   3.299   0.019  0.00  0.00     0.077 C 
ATOM      3  C1  PXY d   1      -0.454   1.798  -0.009  0.00  0.00    -0.082 A 
ATOM      4  C2  PXY d   1      -1.248   1.231   0.885  0.00  0.00     0.003 A 
ATOM      5  C3  PXY d   1      -1.423  -0.129   0.893  0.00  0.00     0.003 A 
ATOM      6  C4  PXY d   1      -0.821  -0.911  -0.056  0.00  0.00    -0.082 A 
ATOM      7  C5  PXY d   1      -0.019  -0.338  -0.979  0.00  0.00     0.003 A 
ATOM      8  C6  PXY d   1       0.179   1.039  -0.945  0.00  0.00     0.003 A 
ENDROOT
TORSDOF 0
ENDMDL
