MODEL 1
REMARK minimizedAffinity -1.93686688
REMARK minimizedRMSD -1
REMARK  0 active torsions:
REMARK  status: ('A' for Active; 'I' for Inactive)
ROOT
ATOM      1  C4' PXY d   1       3.774   3.202   1.122  0.00  0.00     0.077 C 
ATOM      2  C1' PXY d   1      -1.714   4.888   1.792  0.00  0.00     0.077 C 
ATOM      3  C1  PXY d   1      -0.279   4.436   1.610  0.00  0.00    -0.082 A 
ATOM      4  C2  PXY d   1       0.651   4.852   2.454  0.00  0.00     0.003 A 
ATOM      5  C3  PXY d   1       1.959   4.478   2.285  0.00  0.00     0.003 A 
ATOM      6  C4  PXY d   1       2.311   3.626   1.273  0.00  0.00    -0.082 A 
ATOM      7  C5  PXY d   1       1.367   3.188   0.414  0.00  0.00     0.003 A 
ATOM      8  C6  PXY d   1       0.051   3.612   0.578  0.00  0.00     0.003 A 
ENDROOT
TORSDOF 0
ENDMDL
