MODEL 1
REMARK minimizedAffinity -3.32649636
REMARK minimizedRMSD -1
REMARK  0 active torsions:
REMARK  status: ('A' for Active; 'I' for Inactive)
ROOT
ATOM      1  C4' PXY d   1       0.417   0.422  -1.787  0.00  0.00     0.077 C 
ATOM      2  C1' PXY d   1       4.412   3.726   0.769  0.00  0.00     0.077 C 
ATOM      3  C1  PXY d   1       3.358   2.870   0.096  0.00  0.00    -0.082 A 
ATOM      4  C2  PXY d   1       3.223   1.602   0.447  0.00  0.00     0.003 A 
ATOM      5  C3  PXY d   1       2.296   0.805  -0.174  0.00  0.00     0.003 A 
ATOM      6  C4  PXY d   1       1.462   1.326  -1.127  0.00  0.00    -0.082 A 
ATOM      7  C5  PXY d   1       1.586   2.622  -1.483  0.00  0.00     0.003 A 
ATOM      8  C6  PXY d   1       2.561   3.403  -0.869  0.00  0.00     0.003 A 
ENDROOT
TORSDOF 0
ENDMDL
