MODEL 1
REMARK minimizedAffinity -5.06824732
REMARK minimizedRMSD -1
REMARK  0 active torsions:
REMARK  status: ('A' for Active; 'I' for Inactive)
ROOT
ATOM      1  C4' PXY d   1      -1.037   4.205   1.313  0.00  0.00     0.077 C 
ATOM      2  C1' PXY d   1       0.103  -0.643  -1.622  0.00  0.00     0.077 C 
ATOM      3  C1  PXY d   1      -0.183   0.632  -0.853  0.00  0.00    -0.082 A 
ATOM      4  C2  PXY d   1      -1.229   0.688  -0.045  0.00  0.00     0.003 A 
ATOM      5  C3  PXY d   1      -1.521   1.843   0.633  0.00  0.00     0.003 A 
ATOM      6  C4  PXY d   1      -0.704   2.936   0.524  0.00  0.00    -0.082 A 
ATOM      7  C5  PXY d   1       0.372   2.884  -0.290  0.00  0.00     0.003 A 
ATOM      8  C6  PXY d   1       0.627   1.715  -1.002  0.00  0.00     0.003 A 
ENDROOT
TORSDOF 0
ENDMDL
