MODEL 1
REMARK minimizedAffinity -2.78552747
REMARK minimizedRMSD -1
REMARK  0 active torsions:
REMARK  status: ('A' for Active; 'I' for Inactive)
ROOT
ATOM      1  C4' PXY d   1      -2.574   0.044   1.906  0.00  0.00     0.077 C 
ATOM      2  C1' PXY d   1       0.646   0.908  -2.817  0.00  0.00     0.077 C 
ATOM      3  C1  PXY d   1      -0.199   0.695  -1.576  0.00  0.00    -0.082 A 
ATOM      4  C2  PXY d   1      -0.177  -0.478  -0.964  0.00  0.00     0.003 A 
ATOM      5  C3  PXY d   1      -0.958  -0.699   0.141  0.00  0.00     0.003 A 
ATOM      6  C4  PXY d   1      -1.730   0.308   0.656  0.00  0.00    -0.082 A 
ATOM      7  C5  PXY d   1      -1.750   1.511   0.043  0.00  0.00     0.003 A 
ATOM      8  C6  PXY d   1      -0.981   1.702  -1.101  0.00  0.00     0.003 A 
ENDROOT
TORSDOF 0
ENDMDL
