MODEL 1
REMARK minimizedAffinity -4.46951199
REMARK minimizedRMSD -1
REMARK  0 active torsions:
REMARK  status: ('A' for Active; 'I' for Inactive)
ROOT
ATOM      1  C4' PXY d   1      -0.988   3.147   0.723  0.00  0.00     0.077 C 
ATOM      2  C1' PXY d   1      -0.856  -2.617   0.298  0.00  0.00     0.077 C 
ATOM      3  C1  PXY d   1      -0.878  -1.105   0.406  0.00  0.00    -0.082 A 
ATOM      4  C2  PXY d   1      -1.773  -0.518   1.183  0.00  0.00     0.003 A 
ATOM      5  C3  PXY d   1      -1.827   0.850   1.268  0.00  0.00     0.003 A 
ATOM      6  C4  PXY d   1      -0.922   1.623   0.591  0.00  0.00    -0.082 A 
ATOM      7  C5  PXY d   1       0.001   1.030  -0.197  0.00  0.00     0.003 A 
ATOM      8  C6  PXY d   1       0.013  -0.357  -0.301  0.00  0.00     0.003 A 
ENDROOT
TORSDOF 0
ENDMDL
