MODEL 1
REMARK minimizedAffinity -2.16884613
REMARK minimizedRMSD -1
REMARK  0 active torsions:
REMARK  status: ('A' for Active; 'I' for Inactive)
ROOT
ATOM      1  C4' PXY d   1      -1.646   3.023  -0.128  0.00  0.00     0.077 C 
ATOM      2  C1' PXY d   1       0.251  -2.430   0.172  0.00  0.00     0.077 C 
ATOM      3  C1  PXY d   1      -0.235  -0.996   0.088  0.00  0.00    -0.082 A 
ATOM      4  C2  PXY d   1      -1.178  -0.576   0.916  0.00  0.00     0.003 A 
ATOM      5  C3  PXY d   1      -1.652   0.708   0.832  0.00  0.00     0.003 A 
ATOM      6  C4  PXY d   1      -1.118   1.586  -0.073  0.00  0.00    -0.082 A 
ATOM      7  C5  PXY d   1      -0.148   1.168  -0.913  0.00  0.00     0.003 A 
ATOM      8  C6  PXY d   1       0.290  -0.151  -0.840  0.00  0.00     0.003 A 
ENDROOT
TORSDOF 0
ENDMDL
