MODEL 1
REMARK minimizedAffinity -4.53160334
REMARK minimizedRMSD -1
REMARK  0 active torsions:
REMARK  status: ('A' for Active; 'I' for Inactive)
ROOT
ATOM      1  C4' PXY d   1      -0.985  -2.978   0.661  0.00  0.00     0.077 C 
ATOM      2  C1' PXY d   1      -0.177   2.586  -0.683  0.00  0.00     0.077 C 
ATOM      3  C1  PXY d   1      -0.387   1.124  -0.343  0.00  0.00    -0.082 A 
ATOM      4  C2  PXY d   1      -1.096   0.796   0.725  0.00  0.00     0.003 A 
ATOM      5  C3  PXY d   1      -1.269  -0.521   1.065  0.00  0.00     0.003 A 
ATOM      6  C4  PXY d   1      -0.755  -1.514   0.274  0.00  0.00    -0.082 A 
ATOM      7  C5  PXY d   1      -0.040  -1.188  -0.823  0.00  0.00     0.003 A 
ATOM      8  C6  PXY d   1       0.159   0.156  -1.128  0.00  0.00     0.003 A 
ENDROOT
TORSDOF 0
ENDMDL
