MODEL 1
REMARK minimizedAffinity -0.752991617
REMARK minimizedRMSD -1
REMARK  0 active torsions:
REMARK  status: ('A' for Active; 'I' for Inactive)
ROOT
ATOM      1  C4' PXY d   1      -1.183   3.300   0.842  0.00  0.00     0.077 C 
ATOM      2  C1' PXY d   1       0.256  -1.674  -1.728  0.00  0.00     0.077 C 
ATOM      3  C1  PXY d   1      -0.129  -0.376  -1.046  0.00  0.00    -0.082 A 
ATOM      4  C2  PXY d   1      -0.038   0.764  -1.710  0.00  0.00     0.003 A 
ATOM      5  C3  PXY d   1      -0.351   1.951  -1.098  0.00  0.00     0.003 A 
ATOM      6  C4  PXY d   1      -0.814   1.964   0.190  0.00  0.00    -0.082 A 
ATOM      7  C5  PXY d   1      -0.921   0.804   0.871  0.00  0.00     0.003 A 
ATOM      8  C6  PXY d   1      -0.558  -0.386   0.245  0.00  0.00     0.003 A 
ENDROOT
TORSDOF 0
ENDMDL
