MODEL 1
REMARK minimizedAffinity -5.48483086
REMARK minimizedRMSD -1
REMARK  0 active torsions:
REMARK  status: ('A' for Active; 'I' for Inactive)
ROOT
ATOM      1  C4' PXY d   1      -1.387  -2.918   0.305  0.00  0.00     0.077 C 
ATOM      2  C1' PXY d   1       0.380   2.329  -1.355  0.00  0.00     0.077 C 
ATOM      3  C1  PXY d   1      -0.084   0.957  -0.907  0.00  0.00    -0.082 A 
ATOM      4  C2  PXY d   1       0.204  -0.103  -1.644  0.00  0.00     0.003 A 
ATOM      5  C3  PXY d   1      -0.235  -1.347  -1.270  0.00  0.00     0.003 A 
ATOM      6  C4  PXY d   1      -0.931  -1.514  -0.103  0.00  0.00    -0.082 A 
ATOM      7  C5  PXY d   1      -1.220  -0.439   0.659  0.00  0.00     0.003 A 
ATOM      8  C6  PXY d   1      -0.801   0.821   0.241  0.00  0.00     0.003 A 
ENDROOT
TORSDOF 0
ENDMDL
