MODEL 1
REMARK minimizedAffinity -4.22393513
REMARK minimizedRMSD -1
REMARK  0 active torsions:
REMARK  status: ('A' for Active; 'I' for Inactive)
ROOT
ATOM      1  C4' PXY d   1      -1.205   2.717  -0.032  0.00  0.00     0.077 C 
ATOM      2  C1' PXY d   1      -0.316  -2.991   0.180  0.00  0.00     0.077 C 
ATOM      3  C1  PXY d   1      -0.538  -1.492   0.118  0.00  0.00    -0.082 A 
ATOM      4  C2  PXY d   1      -1.344  -0.914   0.993  0.00  0.00     0.003 A 
ATOM      5  C3  PXY d   1      -1.581   0.435   0.932  0.00  0.00     0.003 A 
ATOM      6  C4  PXY d   1      -0.944   1.209  -0.002  0.00  0.00    -0.082 A 
ATOM      7  C5  PXY d   1      -0.112   0.627  -0.891  0.00  0.00     0.003 A 
ATOM      8  C6  PXY d   1       0.083  -0.750  -0.838  0.00  0.00     0.003 A 
ENDROOT
TORSDOF 0
ENDMDL
