MODEL 1
REMARK minimizedAffinity -5.02014065
REMARK minimizedRMSD -1
REMARK  0 active torsions:
REMARK  status: ('A' for Active; 'I' for Inactive)
ROOT
ATOM      1  C4' PXY d   1      -0.628   5.009   1.669  0.00  0.00     0.077 C 
ATOM      2  C1' PXY d   1      -0.043   0.541  -1.953  0.00  0.00     0.077 C 
ATOM      3  C1  PXY d   1      -0.183   1.714  -1.002  0.00  0.00    -0.082 A 
ATOM      4  C2  PXY d   1      -1.282   1.839  -0.276  0.00  0.00     0.003 A 
ATOM      5  C3  PXY d   1      -1.439   2.911   0.564  0.00  0.00     0.003 A 
ATOM      6  C4  PXY d   1      -0.439   3.835   0.703  0.00  0.00    -0.082 A 
ATOM      7  C5  PXY d   1       0.690   3.708  -0.026  0.00  0.00     0.003 A 
ATOM      8  C6  PXY d   1       0.813   2.636  -0.905  0.00  0.00     0.003 A 
ENDROOT
TORSDOF 0
ENDMDL
