MODEL 1
REMARK minimizedAffinity -2.59241915
REMARK minimizedRMSD -1
REMARK  0 active torsions:
REMARK  status: ('A' for Active; 'I' for Inactive)
ROOT
ATOM      1  C4' PXY d   1      -1.346  -3.168   0.942  0.00  0.00     0.077 C 
ATOM      2  C1' PXY d   1      -0.192   2.107  -1.122  0.00  0.00     0.077 C 
ATOM      3  C1  PXY d   1      -0.497   0.729  -0.569  0.00  0.00    -0.082 A 
ATOM      4  C2  PXY d   1       0.026  -0.340  -1.149  0.00  0.00     0.003 A 
ATOM      5  C3  PXY d   1      -0.265  -1.595  -0.681  0.00  0.00     0.003 A 
ATOM      6  C4  PXY d   1      -1.058  -1.756   0.423  0.00  0.00    -0.082 A 
ATOM      7  C5  PXY d   1      -1.587  -0.671   1.026  0.00  0.00     0.003 A 
ATOM      8  C6  PXY d   1      -1.313   0.592   0.511  0.00  0.00     0.003 A 
ENDROOT
TORSDOF 0
ENDMDL
