MODEL 1
REMARK minimizedAffinity -4.12205076
REMARK minimizedRMSD -1
REMARK  0 active torsions:
REMARK  status: ('A' for Active; 'I' for Inactive)
ROOT
ATOM      1  C4' PXY d   1      -1.121   2.556   0.040  0.00  0.00     0.077 C 
ATOM      2  C1' PXY d   1      -0.353  -3.158   0.468  0.00  0.00     0.077 C 
ATOM      3  C1  PXY d   1      -0.544  -1.659   0.349  0.00  0.00    -0.082 A 
ATOM      4  C2  PXY d   1      -1.257  -1.015   1.259  0.00  0.00     0.003 A 
ATOM      5  C3  PXY d   1      -1.466   0.335   1.149  0.00  0.00     0.003 A 
ATOM      6  C4  PXY d   1      -0.894   1.044   0.126  0.00  0.00    -0.082 A 
ATOM      7  C5  PXY d   1      -0.156   0.396  -0.800  0.00  0.00     0.003 A 
ATOM      8  C6  PXY d   1       0.010  -0.981  -0.694  0.00  0.00     0.003 A 
ENDROOT
TORSDOF 0
ENDMDL
