MODEL 1
REMARK minimizedAffinity -3.50272226
REMARK minimizedRMSD -1
REMARK  0 active torsions:
REMARK  status: ('A' for Active; 'I' for Inactive)
ROOT
ATOM      1  C4' PXY d   1       1.008   3.081  -0.291  0.00  0.00     0.077 C 
ATOM      2  C1' PXY d   1      -1.349  -1.973   1.231  0.00  0.00     0.077 C 
ATOM      3  C1  PXY d   1      -0.729  -0.652   0.820  0.00  0.00    -0.082 A 
ATOM      4  C2  PXY d   1      -0.194   0.134   1.740  0.00  0.00     0.003 A 
ATOM      5  C3  PXY d   1       0.342   1.346   1.390  0.00  0.00     0.003 A 
ATOM      6  C4  PXY d   1       0.379   1.734   0.077  0.00  0.00    -0.082 A 
ATOM      7  C5  PXY d   1      -0.155   0.933  -0.869  0.00  0.00     0.003 A 
ATOM      8  C6  PXY d   1      -0.732  -0.275  -0.488  0.00  0.00     0.003 A 
ENDROOT
TORSDOF 0
ENDMDL
