MODEL 1
REMARK minimizedAffinity 10.992795
REMARK minimizedRMSD -1
REMARK  1 active torsions:
REMARK  status: ('A' for Active; 'I' for Inactive)
REMARK    1  A    between atoms: N_2  and  C1_3 
ROOT
ATOM      1  C1  UNL d   1      -3.994   2.433   3.789  0.00  0.00     0.143 A 
ATOM      2  C2  UNL d   1      -4.323   1.135   3.382  0.00  0.00    -0.057 A 
ATOM      3  C3  UNL d   1      -3.464   0.390   2.566  0.00  0.00     0.033 A 
ATOM      4  C4  UNL d   1      -2.269   0.942   2.116  0.00  0.00    -0.042 A 
ATOM      5  C5  UNL d   1      -1.933   2.239   2.487  0.00  0.00     0.033 A 
ATOM      6  C6  UNL d   1      -2.792   2.976   3.308  0.00  0.00    -0.057 A 
ENDROOT
BRANCH   1   7
ATOM      7  N   UNL d   1      -4.851   3.260   4.519  0.00  0.00    -0.732 N 
ATOM      8  C   UNL d   1      -5.996   3.877   3.885  0.00  0.00     0.284 C 
ATOM      9  H3  UNL d   1      -5.035   2.901   5.453  0.00  0.00     0.395 HD
ENDBRANCH   1   7
TORSDOF 1
ENDMDL
