MODEL 1
REMARK minimizedAffinity -3.69144654
REMARK minimizedRMSD -1
REMARK  1 active torsions:
REMARK  status: ('A' for Active; 'I' for Inactive)
REMARK    1  A    between atoms: N_2  and  C1_3 
ROOT
ATOM      1  C1  UNL d   1       3.557  -4.185  -0.930  0.00  0.00     0.143 A 
ATOM      2  C2  UNL d   1       2.407  -3.442  -1.215  0.00  0.00    -0.057 A 
ATOM      3  C3  UNL d   1       2.064  -3.110  -2.531  0.00  0.00     0.033 A 
ATOM      4  C4  UNL d   1       2.884  -3.492  -3.587  0.00  0.00    -0.042 A 
ATOM      5  C5  UNL d   1       4.046  -4.210  -3.326  0.00  0.00     0.033 A 
ATOM      6  C6  UNL d   1       4.380  -4.544  -2.010  0.00  0.00    -0.057 A 
ENDROOT
BRANCH   1   7
ATOM      7  N   UNL d   1       4.004  -4.461   0.364  0.00  0.00    -0.732 N 
ATOM      8  C   UNL d   1       5.369  -4.174   0.750  0.00  0.00     0.284 C 
ATOM      9  H3  UNL d   1       3.313  -4.224   1.073  0.00  0.00     0.395 HD
ENDBRANCH   1   7
TORSDOF 1
ENDMDL
