MODEL 1
REMARK minimizedAffinity 7.48602533
REMARK minimizedRMSD -1
REMARK  1 active torsions:
REMARK  status: ('A' for Active; 'I' for Inactive)
REMARK    1  A    between atoms: N_2  and  C1_3 
ROOT
ATOM      1  C1  UNL d   1       2.305   2.448  -2.372  0.00  0.00     0.143 A 
ATOM      2  C2  UNL d   1       1.556   1.737  -3.316  0.00  0.00    -0.057 A 
ATOM      3  C3  UNL d   1       1.450   0.342  -3.257  0.00  0.00     0.033 A 
ATOM      4  C4  UNL d   1       2.118  -0.371  -2.267  0.00  0.00    -0.042 A 
ATOM      5  C5  UNL d   1       2.888   0.313  -1.333  0.00  0.00     0.033 A 
ATOM      6  C6  UNL d   1       2.984   1.706  -1.393  0.00  0.00    -0.057 A 
ENDROOT
BRANCH   1   7
ATOM      7  N   UNL d   1       2.529   3.825  -2.435  0.00  0.00    -0.732 N 
ATOM      8  C   UNL d   1       1.948   4.712  -1.450  0.00  0.00     0.284 C 
ATOM      9  H3  UNL d   1       3.489   4.052  -2.683  0.00  0.00     0.395 HD
ENDBRANCH   1   7
TORSDOF 1
ENDMDL
