MODEL 1
REMARK minimizedAffinity 14.3248014
REMARK minimizedRMSD -1
REMARK  1 active torsions:
REMARK  status: ('A' for Active; 'I' for Inactive)
REMARK    1  A    between atoms: N_2  and  C1_3 
ROOT
ATOM      1  C1  UNL d   1       1.857  -1.266  -4.402  0.00  0.00     0.143 A 
ATOM      2  C2  UNL d   1       1.576   0.097  -4.259  0.00  0.00    -0.057 A 
ATOM      3  C3  UNL d   1       1.260   0.646  -3.010  0.00  0.00     0.033 A 
ATOM      4  C4  UNL d   1       1.192  -0.166  -1.883  0.00  0.00    -0.042 A 
ATOM      5  C5  UNL d   1       1.443  -1.528  -2.006  0.00  0.00     0.033 A 
ATOM      6  C6  UNL d   1       1.764  -2.070  -3.254  0.00  0.00    -0.057 A 
ENDROOT
BRANCH   1   7
ATOM      7  N   UNL d   1       2.080  -1.890  -5.632  0.00  0.00    -0.732 N 
ATOM      8  C   UNL d   1       3.403  -2.351  -5.995  0.00  0.00     0.284 C 
ATOM      9  H3  UNL d   1       1.333  -2.533  -5.882  0.00  0.00     0.395 HD
ENDBRANCH   1   7
TORSDOF 1
ENDMDL
