MODEL 1
REMARK minimizedAffinity 1.96009016
REMARK minimizedRMSD -1
REMARK  1 active torsions:
REMARK  status: ('A' for Active; 'I' for Inactive)
REMARK    1  A    between atoms: N_2  and  C1_3 
ROOT
ATOM      1  C1  UNL d   1       1.171   3.554  -0.787  0.00  0.00     0.143 A 
ATOM      2  C2  UNL d   1      -0.187   3.609  -0.456  0.00  0.00    -0.057 A 
ATOM      3  C3  UNL d   1      -0.805   4.821  -0.126  0.00  0.00     0.033 A 
ATOM      4  C4  UNL d   1      -0.066   5.999  -0.093  0.00  0.00    -0.042 A 
ATOM      5  C5  UNL d   1       1.291   5.964  -0.394  0.00  0.00     0.033 A 
ATOM      6  C6  UNL d   1       1.901   4.751  -0.730  0.00  0.00    -0.057 A 
ENDROOT
BRANCH   1   7
ATOM      7  N   UNL d   1       1.865   2.365  -1.028  0.00  0.00    -0.732 N 
ATOM      8  C   UNL d   1       1.611   1.593  -2.226  0.00  0.00     0.284 C 
ATOM      9  H3  UNL d   1       2.849   2.432  -0.778  0.00  0.00     0.395 HD
ENDBRANCH   1   7
TORSDOF 1
ENDMDL
