MODEL 1
REMARK minimizedAffinity -0.829308867
REMARK minimizedRMSD -1
REMARK  1 active torsions:
REMARK  status: ('A' for Active; 'I' for Inactive)
REMARK    1  A    between atoms: N_2  and  C1_3 
ROOT
ATOM      1  C1  UNL d   1       1.252   2.888  -0.934  0.00  0.00     0.143 A 
ATOM      2  C2  UNL d   1       2.055   2.977  -2.076  0.00  0.00    -0.057 A 
ATOM      3  C3  UNL d   1       2.713   1.853  -2.590  0.00  0.00     0.033 A 
ATOM      4  C4  UNL d   1       2.601   0.622  -1.952  0.00  0.00    -0.042 A 
ATOM      5  C5  UNL d   1       1.828   0.516  -0.801  0.00  0.00     0.033 A 
ATOM      6  C6  UNL d   1       1.169   1.640  -0.296  0.00  0.00    -0.057 A 
ENDROOT
BRANCH   1   7
ATOM      7  N   UNL d   1       0.652   3.989  -0.318  0.00  0.00    -0.732 N 
ATOM      8  C   UNL d   1       1.068   5.335  -0.647  0.00  0.00     0.284 C 
ATOM      9  H3  UNL d   1      -0.354   3.878  -0.218  0.00  0.00     0.395 HD
ENDBRANCH   1   7
TORSDOF 1
ENDMDL
