MODEL 1
REMARK minimizedAffinity 5.38630724
REMARK minimizedRMSD -1
REMARK  1 active torsions:
REMARK  status: ('A' for Active; 'I' for Inactive)
REMARK    1  A    between atoms: N_2  and  C1_3 
ROOT
ATOM      1  C1  UNL d   1       2.836  -0.748  -0.902  0.00  0.00     0.143 A 
ATOM      2  C2  UNL d   1       2.920   0.335  -1.784  0.00  0.00    -0.057 A 
ATOM      3  C3  UNL d   1       1.950   0.544  -2.772  0.00  0.00     0.033 A 
ATOM      4  C4  UNL d   1       0.890  -0.347  -2.914  0.00  0.00    -0.042 A 
ATOM      5  C5  UNL d   1       0.801  -1.444  -2.064  0.00  0.00     0.033 A 
ATOM      6  C6  UNL d   1       1.769  -1.643  -1.075  0.00  0.00    -0.057 A 
ENDROOT
BRANCH   1   7
ATOM      7  N   UNL d   1       3.821  -1.064   0.037  0.00  0.00    -0.732 N 
ATOM      8  C   UNL d   1       4.391  -2.394   0.088  0.00  0.00     0.284 C 
ATOM      9  H3  UNL d   1       4.501  -0.316   0.154  0.00  0.00     0.395 HD
ENDBRANCH   1   7
TORSDOF 1
ENDMDL
