MODEL 1
REMARK minimizedAffinity 3.46371794
REMARK minimizedRMSD -1
REMARK  1 active torsions:
REMARK  status: ('A' for Active; 'I' for Inactive)
REMARK    1  A    between atoms: N_2  and  C1_3 
ROOT
ATOM      1  C1  UNL d   1       1.587  -1.898  -1.109  0.00  0.00     0.143 A 
ATOM      2  C2  UNL d   1       1.339  -0.789  -1.924  0.00  0.00    -0.057 A 
ATOM      3  C3  UNL d   1       2.287   0.231  -2.072  0.00  0.00     0.033 A 
ATOM      4  C4  UNL d   1       3.492   0.173  -1.380  0.00  0.00    -0.042 A 
ATOM      5  C5  UNL d   1       3.750  -0.908  -0.544  0.00  0.00     0.033 A 
ATOM      6  C6  UNL d   1       2.802  -1.926  -0.407  0.00  0.00    -0.057 A 
ENDROOT
BRANCH   1   7
ATOM      7  N   UNL d   1       0.645  -2.895  -0.845  0.00  0.00    -0.732 N 
ATOM      8  C   UNL d   1      -0.153  -3.457  -1.913  0.00  0.00     0.284 C 
ATOM      9  H3  UNL d   1       0.983  -3.581  -0.174  0.00  0.00     0.395 HD
ENDBRANCH   1   7
TORSDOF 1
ENDMDL
