MODEL 1
REMARK minimizedAffinity 3.81984663
REMARK minimizedRMSD -1
REMARK  1 active torsions:
REMARK  status: ('A' for Active; 'I' for Inactive)
REMARK    1  A    between atoms: N_2  and  C1_3 
ROOT
ATOM      1  C1  UNL d   1      -2.220  -4.170  -3.363  0.00  0.00     0.143 A 
ATOM      2  C2  UNL d   1      -3.049  -4.780  -4.309  0.00  0.00    -0.057 A 
ATOM      3  C3  UNL d   1      -3.135  -4.295  -5.620  0.00  0.00     0.033 A 
ATOM      4  C4  UNL d   1      -2.412  -3.169  -6.000  0.00  0.00    -0.042 A 
ATOM      5  C5  UNL d   1      -1.600  -2.531  -5.069  0.00  0.00     0.033 A 
ATOM      6  C6  UNL d   1      -1.513  -3.025  -3.763  0.00  0.00    -0.057 A 
ENDROOT
BRANCH   1   7
ATOM      7  N   UNL d   1      -2.166  -4.545  -2.018  0.00  0.00    -0.732 N 
ATOM      8  C   UNL d   1      -1.358  -5.670  -1.598  0.00  0.00     0.284 C 
ATOM      9  H3  UNL d   1      -2.121  -3.744  -1.393  0.00  0.00     0.395 HD
ENDBRANCH   1   7
TORSDOF 1
ENDMDL
