MODEL 1
REMARK minimizedAffinity 7.4766798
REMARK minimizedRMSD -1
REMARK  1 active torsions:
REMARK  status: ('A' for Active; 'I' for Inactive)
REMARK    1  A    between atoms: N_2  and  C1_3 
ROOT
ATOM      1  C1  UNL d   1      -2.249  -4.417  -4.996  0.00  0.00     0.143 A 
ATOM      2  C2  UNL d   1      -1.868  -3.087  -5.201  0.00  0.00    -0.057 A 
ATOM      3  C3  UNL d   1      -1.460  -2.276  -4.135  0.00  0.00     0.033 A 
ATOM      4  C4  UNL d   1      -1.453  -2.775  -2.836  0.00  0.00    -0.042 A 
ATOM      5  C5  UNL d   1      -1.851  -4.087  -2.606  0.00  0.00     0.033 A 
ATOM      6  C6  UNL d   1      -2.251  -4.894  -3.675  0.00  0.00    -0.057 A 
ENDROOT
BRANCH   1   7
ATOM      7  N   UNL d   1      -2.758  -5.244  -6.000  0.00  0.00    -0.732 N 
ATOM      8  C   UNL d   1      -4.151  -5.638  -5.995  0.00  0.00     0.284 C 
ATOM      9  H3  UNL d   1      -2.397  -5.005  -6.921  0.00  0.00     0.395 HD
ENDBRANCH   1   7
TORSDOF 1
ENDMDL
