MODEL 1
REMARK minimizedAffinity 8.19073677
REMARK minimizedRMSD -1
REMARK  1 active torsions:
REMARK  status: ('A' for Active; 'I' for Inactive)
REMARK    1  A    between atoms: N_2  and  C1_3 
ROOT
ATOM      1  C1  UNL d   1      -3.109  -3.529   2.814  0.00  0.00     0.143 A 
ATOM      2  C2  UNL d   1      -1.977  -4.006   2.144  0.00  0.00    -0.057 A 
ATOM      3  C3  UNL d   1      -0.691  -3.584   2.501  0.00  0.00     0.033 A 
ATOM      4  C4  UNL d   1      -0.516  -2.652   3.519  0.00  0.00    -0.042 A 
ATOM      5  C5  UNL d   1      -1.628  -2.145   4.182  0.00  0.00     0.033 A 
ATOM      6  C6  UNL d   1      -2.910  -2.576   3.825  0.00  0.00    -0.057 A 
ENDROOT
BRANCH   1   7
ATOM      7  N   UNL d   1      -4.420  -3.835   2.441  0.00  0.00    -0.732 N 
ATOM      8  C   UNL d   1      -5.526  -3.543   3.328  0.00  0.00     0.284 C 
ATOM      9  H3  UNL d   1      -4.605  -3.625   1.463  0.00  0.00     0.395 HD
ENDBRANCH   1   7
TORSDOF 1
ENDMDL
