MODEL 1
REMARK minimizedAffinity 4.83130693
REMARK minimizedRMSD -1
REMARK  1 active torsions:
REMARK  status: ('A' for Active; 'I' for Inactive)
REMARK    1  A    between atoms: N_2  and  C1_3 
ROOT
ATOM      1  C1  UNL d   1      -1.118  -3.259   1.804  0.00  0.00     0.143 A 
ATOM      2  C2  UNL d   1       0.141  -2.965   1.270  0.00  0.00    -0.057 A 
ATOM      3  C3  UNL d   1       0.405  -3.121  -0.096  0.00  0.00     0.033 A 
ATOM      4  C4  UNL d   1      -0.580  -3.604  -0.950  0.00  0.00    -0.042 A 
ATOM      5  C5  UNL d   1      -1.832  -3.926  -0.438  0.00  0.00     0.033 A 
ATOM      6  C6  UNL d   1      -2.092  -3.761   0.926  0.00  0.00    -0.057 A 
ENDROOT
BRANCH   1   7
ATOM      7  N   UNL d   1      -1.414  -3.218   3.168  0.00  0.00    -0.732 N 
ATOM      8  C   UNL d   1      -1.602  -1.952   3.844  0.00  0.00     0.284 C 
ATOM      9  H3  UNL d   1      -2.077  -3.939   3.444  0.00  0.00     0.395 HD
ENDBRANCH   1   7
TORSDOF 1
ENDMDL
