MODEL 1
REMARK minimizedAffinity -3.6525147
REMARK minimizedRMSD -1
REMARK  0 active torsions:
REMARK  status: ('A' for Active; 'I' for Inactive)
ROOT
ATOM      1  C4' PXY d   1       0.880   4.760  -0.012  0.00  0.00     0.077 C 
ATOM      2  C1' PXY d   1      -0.161  -0.865   0.822  0.00  0.00     0.077 C 
ATOM      3  C1  PXY d   1       0.100   0.613   0.604  0.00  0.00    -0.082 A 
ATOM      4  C2  PXY d   1       1.213   0.999   0.004  0.00  0.00     0.003 A 
ATOM      5  C3  PXY d   1       1.480   2.333  -0.173  0.00  0.00     0.003 A 
ATOM      6  C4  PXY d   1       0.571   3.278   0.221  0.00  0.00    -0.082 A 
ATOM      7  C5  PXY d   1      -0.572   2.892   0.825  0.00  0.00     0.003 A 
ATOM      8  C6  PXY d   1      -0.805   1.535   1.032  0.00  0.00     0.003 A 
ENDROOT
TORSDOF 0
ENDMDL
