MODEL 1
REMARK minimizedAffinity -4.11138105
REMARK minimizedRMSD -1
REMARK  0 active torsions:
REMARK  status: ('A' for Active; 'I' for Inactive)
ROOT
ATOM      1  C4' PXY d   1       2.133   0.698  -0.207  0.00  0.00     0.077 C 
ATOM      2  C1' PXY d   1      -3.073   2.581   1.456  0.00  0.00     0.077 C 
ATOM      3  C1  PXY d   1      -1.707   2.097   1.011  0.00  0.00    -0.082 A 
ATOM      4  C2  PXY d   1      -1.358   0.838   1.224  0.00  0.00     0.003 A 
ATOM      5  C3  PXY d   1      -0.115   0.392   0.856  0.00  0.00     0.003 A 
ATOM      6  C4  PXY d   1       0.760   1.229   0.217  0.00  0.00    -0.082 A 
ATOM      7  C5  PXY d   1       0.408   2.511  -0.013  0.00  0.00     0.003 A 
ATOM      8  C6  PXY d   1      -0.844   2.955   0.405  0.00  0.00     0.003 A 
ENDROOT
TORSDOF 0
ENDMDL
