MODEL 1
REMARK minimizedAffinity -4.46448088
REMARK minimizedRMSD -1
REMARK  0 active torsions:
REMARK  status: ('A' for Active; 'I' for Inactive)
ROOT
ATOM      1  C4' PXY d   1      -0.588  -1.969  -0.206  0.00  0.00     0.077 C 
ATOM      2  C1' PXY d   1       0.387   3.673   0.593  0.00  0.00     0.077 C 
ATOM      3  C1  PXY d   1       0.122   2.194   0.393  0.00  0.00    -0.082 A 
ATOM      4  C2  PXY d   1       1.077   1.418  -0.095  0.00  0.00     0.003 A 
ATOM      5  C3  PXY d   1       0.844   0.084  -0.312  0.00  0.00     0.003 A 
ATOM      6  C4  PXY d   1      -0.362  -0.472   0.022  0.00  0.00    -0.082 A 
ATOM      7  C5  PXY d   1      -1.338   0.311   0.530  0.00  0.00     0.003 A 
ATOM      8  C6  PXY d   1      -1.095   1.670   0.705  0.00  0.00     0.003 A 
ENDROOT
TORSDOF 0
ENDMDL
