MODEL 1
REMARK minimizedAffinity -2.63873148
REMARK minimizedRMSD -1
REMARK  0 active torsions:
REMARK  status: ('A' for Active; 'I' for Inactive)
ROOT
ATOM      1  C4' PXY d   1       1.438  -1.501   1.413  0.00  0.00     0.077 C 
ATOM      2  C1' PXY d   1      -0.029   3.516  -1.055  0.00  0.00     0.077 C 
ATOM      3  C1  PXY d   1       0.343   2.199  -0.403  0.00  0.00    -0.082 A 
ATOM      4  C2  PXY d   1       1.603   1.965  -0.075  0.00  0.00     0.003 A 
ATOM      5  C3  PXY d   1       1.963   0.766   0.485  0.00  0.00     0.003 A 
ATOM      6  C4  PXY d   1       1.014  -0.182   0.762  0.00  0.00    -0.082 A 
ATOM      7  C5  PXY d   1      -0.275   0.054   0.440  0.00  0.00     0.003 A 
ATOM      8  C6  PXY d   1      -0.613   1.261  -0.166  0.00  0.00     0.003 A 
ENDROOT
TORSDOF 0
ENDMDL
