MODEL 1
REMARK minimizedAffinity -3.20675302
REMARK minimizedRMSD -1
REMARK  0 active torsions:
REMARK  status: ('A' for Active; 'I' for Inactive)
ROOT
ATOM      1  C4' PXY d   1      -0.718  -3.491  -0.706  0.00  0.00     0.077 C 
ATOM      2  C1' PXY d   1       0.280   2.029   0.690  0.00  0.00     0.077 C 
ATOM      3  C1  PXY d   1       0.031   0.579   0.325  0.00  0.00    -0.082 A 
ATOM      4  C2  PXY d   1      -1.050   0.254  -0.366  0.00  0.00     0.003 A 
ATOM      5  C3  PXY d   1      -1.307  -1.056  -0.677  0.00  0.00     0.003 A 
ATOM      6  C4  PXY d   1      -0.421  -2.039  -0.323  0.00  0.00    -0.082 A 
ATOM      7  C5  PXY d   1       0.689  -1.714   0.372  0.00  0.00     0.003 A 
ATOM      8  C6  PXY d   1       0.911  -0.383   0.714  0.00  0.00     0.003 A 
ENDROOT
TORSDOF 0
ENDMDL
