MODEL 1
REMARK minimizedAffinity -3.65483642
REMARK minimizedRMSD -1
REMARK  0 active torsions:
REMARK  status: ('A' for Active; 'I' for Inactive)
ROOT
ATOM      1  C4' PXY d   1      -0.338  -2.565  -0.653  0.00  0.00     0.077 C 
ATOM      2  C1' PXY d   1      -0.244   2.827   1.429  0.00  0.00     0.077 C 
ATOM      3  C1  PXY d   1      -0.260   1.416   0.874  0.00  0.00    -0.082 A 
ATOM      4  C2  PXY d   1      -1.309   0.640   1.091  0.00  0.00     0.003 A 
ATOM      5  C3  PXY d   1      -1.326  -0.649   0.624  0.00  0.00     0.003 A 
ATOM      6  C4  PXY d   1      -0.282  -1.131  -0.120  0.00  0.00    -0.082 A 
ATOM      7  C5  PXY d   1       0.787  -0.341  -0.355  0.00  0.00     0.003 A 
ATOM      8  C6  PXY d   1       0.803   0.951   0.163  0.00  0.00     0.003 A 
ENDROOT
TORSDOF 0
ENDMDL
