MODEL 1
REMARK minimizedAffinity -3.04264307
REMARK minimizedRMSD -1
REMARK  0 active torsions:
REMARK  status: ('A' for Active; 'I' for Inactive)
ROOT
ATOM      1  C4' PXY d   1       0.426   4.541  -0.337  0.00  0.00     0.077 C 
ATOM      2  C1' PXY d   1      -0.290  -1.165   0.249  0.00  0.00     0.077 C 
ATOM      3  C1  PXY d   1      -0.114   0.333   0.101  0.00  0.00    -0.082 A 
ATOM      4  C2  PXY d   1       0.685   0.808  -0.841  0.00  0.00     0.003 A 
ATOM      5  C3  PXY d   1       0.880   2.160  -0.968  0.00  0.00     0.003 A 
ATOM      6  C4  PXY d   1       0.210   3.036  -0.157  0.00  0.00    -0.082 A 
ATOM      7  C5  PXY d   1      -0.614   2.559   0.800  0.00  0.00     0.003 A 
ATOM      8  C6  PXY d   1      -0.767   1.183   0.939  0.00  0.00     0.003 A 
ENDROOT
TORSDOF 0
ENDMDL
