MODEL 1
REMARK minimizedAffinity -1.18006814
REMARK minimizedRMSD -1
REMARK  0 active torsions:
REMARK  status: ('A' for Active; 'I' for Inactive)
ROOT
ATOM      1  C4' PXY d   1       0.531   3.756  -0.008  0.00  0.00     0.077 C 
ATOM      2  C1' PXY d   1      -0.605  -1.857   0.775  0.00  0.00     0.077 C 
ATOM      3  C1  PXY d   1      -0.320  -0.383   0.569  0.00  0.00    -0.082 A 
ATOM      4  C2  PXY d   1       0.851  -0.005   0.083  0.00  0.00     0.003 A 
ATOM      5  C3  PXY d   1       1.137   1.326  -0.080  0.00  0.00     0.003 A 
ATOM      6  C4  PXY d   1       0.196   2.278   0.208  0.00  0.00    -0.082 A 
ATOM      7  C5  PXY d   1      -1.005   1.900   0.695  0.00  0.00     0.003 A 
ATOM      8  C6  PXY d   1      -1.261   0.546   0.891  0.00  0.00     0.003 A 
ENDROOT
TORSDOF 0
ENDMDL
