MODEL 1
REMARK minimizedAffinity -4.34205484
REMARK minimizedRMSD -1
REMARK  0 active torsions:
REMARK  status: ('A' for Active; 'I' for Inactive)
ROOT
ATOM      1  C4' PXY d   1      -0.423  -2.364   0.272  0.00  0.00     0.077 C 
ATOM      2  C1' PXY d   1      -0.483   3.409  -0.017  0.00  0.00     0.077 C 
ATOM      3  C1  PXY d   1      -0.475   1.895   0.069  0.00  0.00    -0.082 A 
ATOM      4  C2  PXY d   1       0.553   1.217  -0.414  0.00  0.00     0.003 A 
ATOM      5  C3  PXY d   1       0.562  -0.153  -0.374  0.00  0.00     0.003 A 
ATOM      6  C4  PXY d   1      -0.469  -0.835   0.215  0.00  0.00    -0.082 A 
ATOM      7  C5  PXY d   1      -1.518  -0.150   0.720  0.00  0.00     0.003 A 
ATOM      8  C6  PXY d   1      -1.526   1.239   0.632  0.00  0.00     0.003 A 
ENDROOT
TORSDOF 0
ENDMDL
