MODEL 1
REMARK minimizedAffinity -5.0751276
REMARK minimizedRMSD -1
REMARK  0 active torsions:
REMARK  status: ('A' for Active; 'I' for Inactive)
ROOT
ATOM      1  C4' PXY d   1       0.078  -2.062   0.013  0.00  0.00     0.077 C 
ATOM      2  C1' PXY d   1      -0.125   3.715   0.073  0.00  0.00     0.077 C 
ATOM      3  C1  PXY d   1      -0.081   2.200   0.067  0.00  0.00    -0.082 A 
ATOM      4  C2  PXY d   1       0.989   1.579  -0.404  0.00  0.00     0.003 A 
ATOM      5  C3  PXY d   1       1.033   0.209  -0.446  0.00  0.00     0.003 A 
ATOM      6  C4  PXY d   1      -0.007  -0.533   0.047  0.00  0.00    -0.082 A 
ATOM      7  C5  PXY d   1      -1.097   0.093   0.539  0.00  0.00     0.003 A 
ATOM      8  C6  PXY d   1      -1.139   1.484   0.535  0.00  0.00     0.003 A 
ENDROOT
TORSDOF 0
ENDMDL
