MODEL 1
REMARK minimizedAffinity -4.34620142
REMARK minimizedRMSD -1
REMARK  0 active torsions:
REMARK  status: ('A' for Active; 'I' for Inactive)
ROOT
ATOM      1  C4' PXY d   1      -0.182   3.062   0.239  0.00  0.00     0.077 C 
ATOM      2  C1' PXY d   1      -0.673  -2.697   0.168  0.00  0.00     0.077 C 
ATOM      3  C1  PXY d   1      -0.557  -1.186   0.189  0.00  0.00    -0.082 A 
ATOM      4  C2  PXY d   1       0.395  -0.593  -0.513  0.00  0.00     0.003 A 
ATOM      5  C3  PXY d   1       0.534   0.771  -0.479  0.00  0.00     0.003 A 
ATOM      6  C4  PXY d   1      -0.343   1.539   0.239  0.00  0.00    -0.082 A 
ATOM      7  C5  PXY d   1      -1.323   0.942   0.950  0.00  0.00     0.003 A 
ATOM      8  C6  PXY d   1      -1.422  -0.446   0.935  0.00  0.00     0.003 A 
ENDROOT
TORSDOF 0
ENDMDL
