MODEL 1
REMARK minimizedAffinity -4.35201645
REMARK minimizedRMSD -1
REMARK  0 active torsions:
REMARK  status: ('A' for Active; 'I' for Inactive)
ROOT
ATOM      1  C4' PXY d   1      -0.504  -2.558  -0.954  0.00  0.00     0.077 C 
ATOM      2  C1' PXY d   1      -0.780   2.926   0.851  0.00  0.00     0.077 C 
ATOM      3  C1  PXY d   1      -0.716   1.484   0.387  0.00  0.00    -0.082 A 
ATOM      4  C2  PXY d   1       0.330   1.067  -0.308  0.00  0.00     0.003 A 
ATOM      5  C3  PXY d   1       0.389  -0.226  -0.762  0.00  0.00     0.003 A 
ATOM      6  C4  PXY d   1      -0.607  -1.114  -0.457  0.00  0.00    -0.082 A 
ATOM      7  C5  PXY d   1      -1.672  -0.698   0.260  0.00  0.00     0.003 A 
ATOM      8  C6  PXY d   1      -1.733   0.628   0.677  0.00  0.00     0.003 A 
ENDROOT
TORSDOF 0
ENDMDL
