MODEL 1
REMARK minimizedAffinity -3.84468722
REMARK minimizedRMSD -1
REMARK  0 active torsions:
REMARK  status: ('A' for Active; 'I' for Inactive)
ROOT
ATOM      1  C4' PXY d   1       3.729   1.142   0.708  0.00  0.00     0.077 C 
ATOM      2  C1' PXY d   1      -2.038   1.344   1.034  0.00  0.00     0.077 C 
ATOM      3  C1  PXY d   1      -0.526   1.304   0.946  0.00  0.00    -0.082 A 
ATOM      4  C2  PXY d   1       0.084   0.162   0.672  0.00  0.00     0.003 A 
ATOM      5  C3  PXY d   1       1.452   0.101   0.620  0.00  0.00     0.003 A 
ATOM      6  C4  PXY d   1       2.203   1.232   0.797  0.00  0.00    -0.082 A 
ATOM      7  C5  PXY d   1       1.589   2.403   1.066  0.00  0.00     0.003 A 
ATOM      8  C6  PXY d   1       0.200   2.435   1.155  0.00  0.00     0.003 A 
ENDROOT
TORSDOF 0
ENDMDL
