MODEL 1
REMARK minimizedAffinity -2.64509058
REMARK minimizedRMSD -1
REMARK  0 active torsions:
REMARK  status: ('A' for Active; 'I' for Inactive)
ROOT
ATOM      1  C4' PXY d   1       0.006   3.367   0.712  0.00  0.00     0.077 C 
ATOM      2  C1' PXY d   1      -0.483  -2.293  -0.353  0.00  0.00     0.077 C 
ATOM      3  C1  PXY d   1      -0.368  -0.807  -0.073  0.00  0.00    -0.082 A 
ATOM      4  C2  PXY d   1       0.742  -0.165  -0.400  0.00  0.00     0.003 A 
ATOM      5  C3  PXY d   1       0.875   1.172  -0.126  0.00  0.00     0.003 A 
ATOM      6  C4  PXY d   1      -0.158   1.870   0.441  0.00  0.00    -0.082 A 
ATOM      7  C5  PXY d   1      -1.297   1.223   0.767  0.00  0.00     0.003 A 
ATOM      8  C6  PXY d   1      -1.397  -0.143   0.518  0.00  0.00     0.003 A 
ENDROOT
TORSDOF 0
ENDMDL
