MODEL 1
REMARK minimizedAffinity -4.62674856
REMARK minimizedRMSD -1
REMARK  0 active torsions:
REMARK  status: ('A' for Active; 'I' for Inactive)
ROOT
ATOM      1  C4' PXY d   1       0.185  -2.457  -1.218  0.00  0.00     0.077 C 
ATOM      2  C1' PXY d   1      -0.393   2.571   1.576  0.00  0.00     0.077 C 
ATOM      3  C1  PXY d   1      -0.244   1.246   0.855  0.00  0.00    -0.082 A 
ATOM      4  C2  PXY d   1       0.481   1.181  -0.250  0.00  0.00     0.003 A 
ATOM      5  C3  PXY d   1       0.600  -0.003  -0.933  0.00  0.00     0.003 A 
ATOM      6  C4  PXY d   1       0.014  -1.143  -0.451  0.00  0.00    -0.082 A 
ATOM      7  C5  PXY d   1      -0.718  -1.087   0.682  0.00  0.00     0.003 A 
ATOM      8  C6  PXY d   1      -0.861   0.133   1.337  0.00  0.00     0.003 A 
ENDROOT
TORSDOF 0
ENDMDL
