MODEL 1
REMARK minimizedAffinity -3.06446815
REMARK minimizedRMSD -1
REMARK  0 active torsions:
REMARK  status: ('A' for Active; 'I' for Inactive)
ROOT
ATOM      1  C4' PXY d   1      -0.721  -2.677  -0.384  0.00  0.00     0.077 C 
ATOM      2  C1' PXY d   1      -0.361   3.039   0.393  0.00  0.00     0.077 C 
ATOM      3  C1  PXY d   1      -0.445   1.541   0.181  0.00  0.00    -0.082 A 
ATOM      4  C2  PXY d   1      -1.605   0.922   0.336  0.00  0.00     0.003 A 
ATOM      5  C3  PXY d   1      -1.691  -0.438   0.180  0.00  0.00     0.003 A 
ATOM      6  C4  PXY d   1      -0.592  -1.164  -0.190  0.00  0.00    -0.082 A 
ATOM      7  C5  PXY d   1       0.592  -0.539  -0.361  0.00  0.00     0.003 A 
ATOM      8  C6  PXY d   1       0.668   0.836  -0.158  0.00  0.00     0.003 A 
ENDROOT
TORSDOF 0
ENDMDL
