MODEL 1
REMARK minimizedAffinity -2.99738026
REMARK minimizedRMSD -1
REMARK  0 active torsions:
REMARK  status: ('A' for Active; 'I' for Inactive)
ROOT
ATOM      1  C4' PXY d   1      -0.682  -2.336  -0.281  0.00  0.00     0.077 C 
ATOM      2  C1' PXY d   1      -0.079   3.411  -0.115  0.00  0.00     0.077 C 
ATOM      3  C1  PXY d   1      -0.229   1.903  -0.168  0.00  0.00    -0.082 A 
ATOM      4  C2  PXY d   1      -1.313   1.336   0.334  0.00  0.00     0.003 A 
ATOM      5  C3  PXY d   1      -1.451  -0.028   0.322  0.00  0.00     0.003 A 
ATOM      6  C4  PXY d   1      -0.492  -0.816  -0.257  0.00  0.00    -0.082 A 
ATOM      7  C5  PXY d   1       0.612  -0.244  -0.781  0.00  0.00     0.003 A 
ATOM      8  C6  PXY d   1       0.752   1.140  -0.722  0.00  0.00     0.003 A 
ENDROOT
TORSDOF 0
ENDMDL
