MODEL 1
REMARK minimizedAffinity -4.50919914
REMARK minimizedRMSD -1
REMARK  0 active torsions:
REMARK  status: ('A' for Active; 'I' for Inactive)
ROOT
ATOM      1  C4' PXY d   1       0.037  -2.177  -0.015  0.00  0.00     0.077 C 
ATOM      2  C1' PXY d   1      -0.109   3.602   0.014  0.00  0.00     0.077 C 
ATOM      3  C1  PXY d   1      -0.060   2.087  -0.001  0.00  0.00    -0.082 A 
ATOM      4  C2  PXY d   1      -1.161   1.395   0.243  0.00  0.00     0.003 A 
ATOM      5  C3  PXY d   1      -1.128   0.024   0.265  0.00  0.00     0.003 A 
ATOM      6  C4  PXY d   1       0.033  -0.645  -0.019  0.00  0.00    -0.082 A 
ATOM      7  C5  PXY d   1       1.157   0.054  -0.280  0.00  0.00     0.003 A 
ATOM      8  C6  PXY d   1       1.112   1.445  -0.257  0.00  0.00     0.003 A 
ENDROOT
TORSDOF 0
ENDMDL
