MODEL 1
REMARK minimizedAffinity -4.45171213
REMARK minimizedRMSD -1
REMARK  0 active torsions:
REMARK  status: ('A' for Active; 'I' for Inactive)
ROOT
ATOM      1  C4' PXY d   1      -0.562  -2.332  -0.125  0.00  0.00     0.077 C 
ATOM      2  C1' PXY d   1       0.653   3.310   0.188  0.00  0.00     0.077 C 
ATOM      3  C1  PXY d   1       0.346   1.829   0.100  0.00  0.00    -0.082 A 
ATOM      4  C2  PXY d   1      -0.911   1.417   0.149  0.00  0.00     0.003 A 
ATOM      5  C3  PXY d   1      -1.204   0.079   0.103  0.00  0.00     0.003 A 
ATOM      6  C4  PXY d   1      -0.205  -0.845  -0.049  0.00  0.00    -0.082 A 
ATOM      7  C5  PXY d   1       1.078  -0.433  -0.111  0.00  0.00     0.003 A 
ATOM      8  C6  PXY d   1       1.359   0.928  -0.020  0.00  0.00     0.003 A 
ENDROOT
TORSDOF 0
ENDMDL
