MODEL 1
REMARK minimizedAffinity -4.45704889
REMARK minimizedRMSD -1
REMARK  0 active torsions:
REMARK  status: ('A' for Active; 'I' for Inactive)
ROOT
ATOM      1  C4' PXY d   1      -0.091  -2.430   0.160  0.00  0.00     0.077 C 
ATOM      2  C1' PXY d   1       0.127   3.339  -0.126  0.00  0.00     0.077 C 
ATOM      3  C1  PXY d   1       0.060   1.827  -0.043  0.00  0.00    -0.082 A 
ATOM      4  C2  PXY d   1       1.143   1.109  -0.291  0.00  0.00     0.003 A 
ATOM      5  C3  PXY d   1       1.092  -0.261  -0.252  0.00  0.00     0.003 A 
ATOM      6  C4  PXY d   1      -0.067  -0.901   0.097  0.00  0.00    -0.082 A 
ATOM      7  C5  PXY d   1      -1.174  -0.175   0.362  0.00  0.00     0.003 A 
ATOM      8  C6  PXY d   1      -1.112   1.213   0.276  0.00  0.00     0.003 A 
ENDROOT
TORSDOF 0
ENDMDL
