MODEL 1
REMARK minimizedAffinity 10.0243444
REMARK minimizedRMSD -1
REMARK  0 active torsions:
REMARK  status: ('A' for Active; 'I' for Inactive)
ROOT
ATOM      1  C2' OXE d   1       1.326  -1.523   3.675  0.00  0.00     0.078 C 
ATOM      2  C1' OXE d   1       1.977   0.419   1.756  0.00  0.00     0.078 C 
ATOM      3  C1  OXE d   1       1.468  -0.913   1.264  0.00  0.00    -0.078 A 
ATOM      4  C2  OXE d   1       1.196  -1.874   2.208  0.00  0.00    -0.078 A 
ATOM      5  C3  OXE d   1       0.672  -3.101   1.812  0.00  0.00     0.003 A 
ATOM      6  C4  OXE d   1       0.564  -3.420   0.453  0.00  0.00    -0.002 A 
ATOM      7  C5  OXE d   1       0.874  -2.470  -0.526  0.00  0.00    -0.002 A 
ATOM      8  C6  OXE d   1       1.286  -1.200  -0.137  0.00  0.00     0.003 A 
ENDROOT
TORSDOF 0
ENDMDL
