MODEL 1
REMARK minimizedAffinity 7.86174345
REMARK minimizedRMSD -1
REMARK  0 active torsions:
REMARK  status: ('A' for Active; 'I' for Inactive)
ROOT
ATOM      1  C2' OXE d   1       0.816  -2.259   3.664  0.00  0.00     0.078 C 
ATOM      2  C1' OXE d   1       2.262  -0.931   1.657  0.00  0.00     0.078 C 
ATOM      3  C1  OXE d   1       1.633  -2.258   1.310  0.00  0.00    -0.078 A 
ATOM      4  C2  OXE d   1       0.967  -2.923   2.312  0.00  0.00    -0.078 A 
ATOM      5  C3  OXE d   1       0.323  -4.124   2.031  0.00  0.00     0.003 A 
ATOM      6  C4  OXE d   1       0.476  -4.736   0.781  0.00  0.00    -0.002 A 
ATOM      7  C5  OXE d   1       1.184  -4.094  -0.241  0.00  0.00    -0.002 A 
ATOM      8  C6  OXE d   1       1.732  -2.838  -0.006  0.00  0.00     0.003 A 
ENDROOT
TORSDOF 0
ENDMDL
