MODEL 1
REMARK minimizedAffinity 10.2287931
REMARK minimizedRMSD -1
REMARK  0 active torsions:
REMARK  status: ('A' for Active; 'I' for Inactive)
ROOT
ATOM      1  C2' OXE d   1       1.497   0.104   2.153  0.00  0.00     0.078 C 
ATOM      2  C1' OXE d   1       0.695  -2.200   3.541  0.00  0.00     0.078 C 
ATOM      3  C1  OXE d   1       0.986  -2.332   2.067  0.00  0.00    -0.078 A 
ATOM      4  C2  OXE d   1       1.333  -1.190   1.386  0.00  0.00    -0.078 A 
ATOM      5  C3  OXE d   1       1.664  -1.266   0.037  0.00  0.00     0.003 A 
ATOM      6  C4  OXE d   1       1.500  -2.465  -0.668  0.00  0.00    -0.002 A 
ATOM      7  C5  OXE d   1       1.109  -3.631  -0.002  0.00  0.00    -0.002 A 
ATOM      8  C6  OXE d   1       0.890  -3.592   1.371  0.00  0.00     0.003 A 
ENDROOT
TORSDOF 0
ENDMDL
