MODEL 1
REMARK minimizedAffinity -2.34017205
REMARK minimizedRMSD -1
REMARK  0 active torsions:
REMARK  status: ('A' for Active; 'I' for Inactive)
ROOT
ATOM      1  C2' OXE d   1      -5.648  -3.471  -1.872  0.00  0.00     0.078 C 
ATOM      2  C1' OXE d   1      -4.422  -5.993  -2.007  0.00  0.00     0.078 C 
ATOM      3  C1  OXE d   1      -4.882  -5.364  -3.299  0.00  0.00    -0.078 A 
ATOM      4  C2  OXE d   1      -5.522  -4.151  -3.218  0.00  0.00    -0.078 A 
ATOM      5  C3  OXE d   1      -5.918  -3.501  -4.384  0.00  0.00     0.003 A 
ATOM      6  C4  OXE d   1      -5.808  -4.142  -5.625  0.00  0.00    -0.002 A 
ATOM      7  C5  OXE d   1      -5.194  -5.395  -5.724  0.00  0.00    -0.002 A 
ATOM      8  C6  OXE d   1      -4.688  -5.999  -4.579  0.00  0.00     0.003 A 
ENDROOT
TORSDOF 0
ENDMDL
