MODEL 1
REMARK minimizedAffinity 9.03619194
REMARK minimizedRMSD -1
REMARK  0 active torsions:
REMARK  status: ('A' for Active; 'I' for Inactive)
ROOT
ATOM      1  C2' OXE d   1       4.674   5.218  -1.666  0.00  0.00     0.078 C 
ATOM      2  C1' OXE d   1       2.896   3.730  -3.248  0.00  0.00     0.078 C 
ATOM      3  C1  OXE d   1       3.985   4.502  -3.950  0.00  0.00    -0.078 A 
ATOM      4  C2  OXE d   1       4.821   5.265  -3.172  0.00  0.00    -0.078 A 
ATOM      5  C3  OXE d   1       5.877   5.953  -3.764  0.00  0.00     0.003 A 
ATOM      6  C4  OXE d   1       6.000   5.999  -5.158  0.00  0.00    -0.002 A 
ATOM      7  C5  OXE d   1       5.134   5.261  -5.972  0.00  0.00    -0.002 A 
ATOM      8  C6  OXE d   1       4.149   4.475  -5.383  0.00  0.00     0.003 A 
ENDROOT
TORSDOF 0
ENDMDL
