MODEL 1
REMARK minimizedAffinity 6.70078611
REMARK minimizedRMSD -1
REMARK  0 active torsions:
REMARK  status: ('A' for Active; 'I' for Inactive)
ROOT
ATOM      1  C2' OXE d   1       1.780  -0.686   4.501  0.00  0.00     0.078 C 
ATOM      2  C1' OXE d   1       1.499  -1.669   1.886  0.00  0.00     0.078 C 
ATOM      3  C1  OXE d   1       1.926  -2.638   2.960  0.00  0.00    -0.078 A 
ATOM      4  C2  OXE d   1       2.106  -2.138   4.228  0.00  0.00    -0.078 A 
ATOM      5  C3  OXE d   1       2.446  -3.000   5.267  0.00  0.00     0.003 A 
ATOM      6  C4  OXE d   1       2.755  -4.340   5.004  0.00  0.00    -0.002 A 
ATOM      7  C5  OXE d   1       2.617  -4.861   3.713  0.00  0.00    -0.002 A 
ATOM      8  C6  OXE d   1       2.163  -4.035   2.690  0.00  0.00     0.003 A 
ENDROOT
TORSDOF 0
ENDMDL
