MODEL 1
REMARK minimizedAffinity 4.29756594
REMARK minimizedRMSD -1
REMARK  0 active torsions:
REMARK  status: ('A' for Active; 'I' for Inactive)
ROOT
ATOM      1  C2' OXE d   1       6.000  -3.113   2.465  0.00  0.00     0.078 C 
ATOM      2  C1' OXE d   1       5.608  -3.000   5.242  0.00  0.00     0.078 C 
ATOM      3  C1  OXE d   1       4.385  -3.015   4.359  0.00  0.00    -0.078 A 
ATOM      4  C2  OXE d   1       4.587  -3.023   3.000  0.00  0.00    -0.078 A 
ATOM      5  C3  OXE d   1       3.494  -3.092   2.141  0.00  0.00     0.003 A 
ATOM      6  C4  OXE d   1       2.190  -2.998   2.643  0.00  0.00    -0.002 A 
ATOM      7  C5  OXE d   1       1.963  -2.948   4.023  0.00  0.00    -0.002 A 
ATOM      8  C6  OXE d   1       3.046  -2.999   4.894  0.00  0.00     0.003 A 
ENDROOT
TORSDOF 0
ENDMDL
