MODEL 1
REMARK minimizedAffinity 8.56809139
REMARK minimizedRMSD -1
REMARK  0 active torsions:
REMARK  status: ('A' for Active; 'I' for Inactive)
ROOT
ATOM      1  C2' OXE d   1       1.517  -2.352   0.417  0.00  0.00     0.078 C 
ATOM      2  C1' OXE d   1       2.125  -4.183   2.456  0.00  0.00     0.078 C 
ATOM      3  C1  OXE d   1       1.564  -2.842   2.859  0.00  0.00    -0.078 A 
ATOM      4  C2  OXE d   1       1.313  -1.935   1.857  0.00  0.00    -0.078 A 
ATOM      5  C3  OXE d   1       0.744  -0.703   2.169  0.00  0.00     0.003 A 
ATOM      6  C4  OXE d   1       0.568  -0.321   3.505  0.00  0.00    -0.002 A 
ATOM      7  C5  OXE d   1       0.854  -1.215   4.542  0.00  0.00    -0.002 A 
ATOM      8  C6  OXE d   1       1.312  -2.492   4.235  0.00  0.00     0.003 A 
ENDROOT
TORSDOF 0
ENDMDL
