MODEL 1
REMARK minimizedAffinity 2.60032749
REMARK minimizedRMSD -1
REMARK  0 active torsions:
REMARK  status: ('A' for Active; 'I' for Inactive)
ROOT
ATOM      1  C2' OXE d   1      -2.891   2.984   1.510  0.00  0.00     0.078 C 
ATOM      2  C1' OXE d   1      -4.506   3.818  -0.629  0.00  0.00     0.078 C 
ATOM      3  C1  OXE d   1      -3.539   2.688  -0.877  0.00  0.00    -0.078 A 
ATOM      4  C2  OXE d   1      -2.719   2.318   0.162  0.00  0.00    -0.078 A 
ATOM      5  C3  OXE d   1      -1.847   1.245   0.003  0.00  0.00     0.003 A 
ATOM      6  C4  OXE d   1      -1.687   0.641  -1.250  0.00  0.00    -0.002 A 
ATOM      7  C5  OXE d   1      -2.483   1.029  -2.332  0.00  0.00    -0.002 A 
ATOM      8  C6  OXE d   1      -3.442   2.021  -2.152  0.00  0.00     0.003 A 
ENDROOT
TORSDOF 0
ENDMDL
