MODEL 1
REMARK minimizedAffinity 11.2136908
REMARK minimizedRMSD -1
REMARK  0 active torsions:
REMARK  status: ('A' for Active; 'I' for Inactive)
ROOT
ATOM      1  C2' OXE d   1       4.773  -5.634  -1.869  0.00  0.00     0.078 C 
ATOM      2  C1' OXE d   1       2.029  -5.583  -2.457  0.00  0.00     0.078 C 
ATOM      3  C1  OXE d   1       2.992  -5.744  -3.607  0.00  0.00    -0.078 A 
ATOM      4  C2  OXE d   1       4.335  -5.721  -3.315  0.00  0.00    -0.078 A 
ATOM      5  C3  OXE d   1       5.265  -5.919  -4.331  0.00  0.00     0.003 A 
ATOM      6  C4  OXE d   1       4.851  -5.989  -5.667  0.00  0.00    -0.002 A 
ATOM      7  C5  OXE d   1       3.490  -5.974  -5.990  0.00  0.00    -0.002 A 
ATOM      8  C6  OXE d   1       2.548  -5.896  -4.970  0.00  0.00     0.003 A 
ENDROOT
TORSDOF 0
ENDMDL
