MODEL 1
REMARK minimizedAffinity 1.24154305
REMARK minimizedRMSD -1
REMARK  0 active torsions:
REMARK  status: ('A' for Active; 'I' for Inactive)
ROOT
ATOM      1  C2' OXE d   1       2.455  -4.985   4.628  0.00  0.00     0.078 C 
ATOM      2  C1' OXE d   1       4.503  -3.968   2.999  0.00  0.00     0.078 C 
ATOM      3  C1  OXE d   1       3.172  -3.257   2.983  0.00  0.00    -0.078 A 
ATOM      4  C2  OXE d   1       2.162  -3.789   3.748  0.00  0.00    -0.078 A 
ATOM      5  C3  OXE d   1       0.932  -3.141   3.812  0.00  0.00     0.003 A 
ATOM      6  C4  OXE d   1       0.666  -2.041   2.988  0.00  0.00    -0.002 A 
ATOM      7  C5  OXE d   1       1.669  -1.507   2.171  0.00  0.00    -0.002 A 
ATOM      8  C6  OXE d   1       2.937  -2.076   2.190  0.00  0.00     0.003 A 
ENDROOT
TORSDOF 0
ENDMDL
