MODEL 1
REMARK minimizedAffinity 2.99178123
REMARK minimizedRMSD -1
REMARK  0 active torsions:
REMARK  status: ('A' for Active; 'I' for Inactive)
ROOT
ATOM      1  C2' OXE d   1       4.873  -2.449   5.053  0.00  0.00     0.078 C 
ATOM      2  C1' OXE d   1       4.993  -2.029   2.280  0.00  0.00     0.078 C 
ATOM      3  C1  OXE d   1       3.662  -1.841   2.963  0.00  0.00    -0.078 A 
ATOM      4  C2  OXE d   1       3.602  -2.094   4.312  0.00  0.00    -0.078 A 
ATOM      5  C3  OXE d   1       2.411  -1.883   5.001  0.00  0.00     0.003 A 
ATOM      6  C4  OXE d   1       1.238  -1.563   4.307  0.00  0.00    -0.002 A 
ATOM      7  C5  OXE d   1       1.268  -1.340   2.927  0.00  0.00    -0.002 A 
ATOM      8  C6  OXE d   1       2.478  -1.433   2.248  0.00  0.00     0.003 A 
ENDROOT
TORSDOF 0
ENDMDL
