MODEL 1
REMARK minimizedAffinity -2.79306674
REMARK minimizedRMSD -1
REMARK  0 active torsions:
REMARK  status: ('A' for Active; 'I' for Inactive)
ROOT
ATOM      1  C2' OXE d   1      -3.838  -5.991  -5.766  0.00  0.00     0.078 C 
ATOM      2  C1' OXE d   1      -6.000  -4.209  -5.585  0.00  0.00     0.078 C 
ATOM      3  C1  OXE d   1      -5.361  -4.672  -4.300  0.00  0.00    -0.078 A 
ATOM      4  C2  OXE d   1      -4.334  -5.581  -4.396  0.00  0.00    -0.078 A 
ATOM      5  C3  OXE d   1      -3.674  -5.999  -3.244  0.00  0.00     0.003 A 
ATOM      6  C4  OXE d   1      -4.146  -5.623  -1.981  0.00  0.00    -0.002 A 
ATOM      7  C5  OXE d   1      -5.216  -4.730  -1.859  0.00  0.00    -0.002 A 
ATOM      8  C6  OXE d   1      -5.806  -4.213  -3.007  0.00  0.00     0.003 A 
ENDROOT
TORSDOF 0
ENDMDL
