MODEL 1
REMARK minimizedAffinity 5.25384521
REMARK minimizedRMSD -1
REMARK  0 active torsions:
REMARK  status: ('A' for Active; 'I' for Inactive)
ROOT
ATOM      1  C2' OXE d   1       3.235  -3.829   5.042  0.00  0.00     0.078 C 
ATOM      2  C1' OXE d   1       4.878  -2.956   2.940  0.00  0.00     0.078 C 
ATOM      3  C1  OXE d   1       3.418  -2.580   2.895  0.00  0.00    -0.078 A 
ATOM      4  C2  OXE d   1       2.612  -3.051   3.903  0.00  0.00    -0.078 A 
ATOM      5  C3  OXE d   1       1.269  -2.688   3.939  0.00  0.00     0.003 A 
ATOM      6  C4  OXE d   1       0.699  -1.976   2.877  0.00  0.00    -0.002 A 
ATOM      7  C5  OXE d   1       1.493  -1.521   1.819  0.00  0.00    -0.002 A 
ATOM      8  C6  OXE d   1       2.860  -1.777   1.835  0.00  0.00     0.003 A 
ENDROOT
TORSDOF 0
ENDMDL
