MODEL 1
REMARK minimizedAffinity -0.319011271
REMARK minimizedRMSD -1
REMARK  0 active torsions:
REMARK  status: ('A' for Active; 'I' for Inactive)
ROOT
ATOM      1  C   UNL d   1       0.747   0.192   0.956  0.00  0.00     0.172 C 
ATOM      2  N   UNL d   1       1.727   1.243   1.092  0.00  0.00    -0.070 N 
ATOM      3  C1  UNL d   1       2.228   1.719   2.275  0.00  0.00    -0.004 A 
ATOM      4  C2  UNL d   1       3.134   2.714   1.979  0.00  0.00    -0.047 A 
ATOM      5  C3  UNL d   1       3.179   2.842   0.571  0.00  0.00    -0.047 A 
ATOM      6  C4  UNL d   1       2.298   1.919   0.047  0.00  0.00    -0.004 A 
ENDROOT
TORSDOF 0
ENDMDL
