MODEL 1
REMARK minimizedAffinity 0.418022424
REMARK minimizedRMSD -1
REMARK  0 active torsions:
REMARK  status: ('A' for Active; 'I' for Inactive)
ROOT
ATOM      1  C   UNL d   1       2.071   0.869   0.100  0.00  0.00     0.172 C 
ATOM      2  N   UNL d   1       0.929   0.050   0.432  0.00  0.00    -0.070 N 
ATOM      3  C1  UNL d   1       0.864  -0.848   1.464  0.00  0.00    -0.004 A 
ATOM      4  C2  UNL d   1      -0.389  -1.423   1.444  0.00  0.00    -0.047 A 
ATOM      5  C3  UNL d   1      -1.100  -0.852   0.362  0.00  0.00    -0.047 A 
ATOM      6  C4  UNL d   1      -0.261   0.057  -0.247  0.00  0.00    -0.004 A 
ENDROOT
TORSDOF 0
ENDMDL
