MODEL 1
REMARK minimizedAffinity -3.12316251
REMARK minimizedRMSD -1
REMARK  0 active torsions:
REMARK  status: ('A' for Active; 'I' for Inactive)
ROOT
ATOM      1  C   UNL d   1       0.252   0.516  -1.082  0.00  0.00     0.172 C 
ATOM      2  N   UNL d   1      -0.626  -0.326  -0.305  0.00  0.00    -0.070 N 
ATOM      3  C1  UNL d   1      -1.935  -0.601  -0.598  0.00  0.00    -0.004 A 
ATOM      4  C2  UNL d   1      -2.421  -1.439   0.382  0.00  0.00    -0.047 A 
ATOM      5  C3  UNL d   1      -1.367  -1.677   1.296  0.00  0.00    -0.047 A 
ATOM      6  C4  UNL d   1      -0.268  -0.975   0.847  0.00  0.00    -0.004 A 
ENDROOT
TORSDOF 0
ENDMDL
