MODEL 1
REMARK minimizedAffinity -1.65988231
REMARK minimizedRMSD -1
REMARK  0 active torsions:
REMARK  status: ('A' for Active; 'I' for Inactive)
ROOT
ATOM      1  C   UNL d   1       0.621   0.782  -0.032  0.00  0.00     0.172 C 
ATOM      2  N   UNL d   1       1.293   1.864   0.650  0.00  0.00    -0.070 N 
ATOM      3  C1  UNL d   1       2.164   2.751   0.076  0.00  0.00    -0.004 A 
ATOM      4  C2  UNL d   1       2.585   3.624   1.056  0.00  0.00    -0.047 A 
ATOM      5  C3  UNL d   1       1.945   3.247   2.261  0.00  0.00    -0.047 A 
ATOM      6  C4  UNL d   1       1.151   2.155   1.981  0.00  0.00    -0.004 A 
ENDROOT
TORSDOF 0
ENDMDL
