MODEL 1
REMARK minimizedAffinity -1.00207233
REMARK minimizedRMSD -1
REMARK  0 active torsions:
REMARK  status: ('A' for Active; 'I' for Inactive)
ROOT
ATOM      1  C   UNL d   1       1.484   0.476   0.441  0.00  0.00     0.172 C 
ATOM      2  N   UNL d   1       2.202   1.679   0.792  0.00  0.00    -0.070 N 
ATOM      3  C1  UNL d   1       2.240   2.252   2.035  0.00  0.00    -0.004 A 
ATOM      4  C2  UNL d   1       3.029   3.379   1.956  0.00  0.00    -0.047 A 
ATOM      5  C3  UNL d   1       3.480   3.488   0.619  0.00  0.00    -0.047 A 
ATOM      6  C4  UNL d   1       2.954   2.422  -0.080  0.00  0.00    -0.004 A 
ENDROOT
TORSDOF 0
ENDMDL
