MODEL 1
REMARK minimizedAffinity -1.69839656
REMARK minimizedRMSD -1
REMARK  0 active torsions:
REMARK  status: ('A' for Active; 'I' for Inactive)
ROOT
ATOM      1  C   UNL d   1      -2.724  -0.706   0.981  0.00  0.00     0.172 C 
ATOM      2  N   UNL d   1      -1.284  -0.672   0.876  0.00  0.00    -0.070 N 
ATOM      3  C1  UNL d   1      -0.566   0.081  -0.014  0.00  0.00    -0.004 A 
ATOM      4  C2  UNL d   1       0.772  -0.166   0.207  0.00  0.00    -0.047 A 
ATOM      5  C3  UNL d   1       0.861  -1.101   1.266  0.00  0.00    -0.047 A 
ATOM      6  C4  UNL d   1      -0.427  -1.397   1.661  0.00  0.00    -0.004 A 
ENDROOT
TORSDOF 0
ENDMDL
