MODEL 1
REMARK minimizedAffinity -3.32189012
REMARK minimizedRMSD -1
REMARK  0 active torsions:
REMARK  status: ('A' for Active; 'I' for Inactive)
ROOT
ATOM      1  C   UNL d   1       3.355   2.112   2.261  0.00  0.00     0.172 C 
ATOM      2  N   UNL d   1       3.536   3.136   1.259  0.00  0.00    -0.070 N 
ATOM      3  C1  UNL d   1       3.696   4.473   1.505  0.00  0.00    -0.004 A 
ATOM      4  C2  UNL d   1       3.839   5.111   0.291  0.00  0.00    -0.047 A 
ATOM      5  C3  UNL d   1       3.762   4.122  -0.718  0.00  0.00    -0.047 A 
ATOM      6  C4  UNL d   1       3.574   2.908  -0.091  0.00  0.00    -0.004 A 
ENDROOT
TORSDOF 0
ENDMDL
