MODEL 1
REMARK minimizedAffinity -0.881613433
REMARK minimizedRMSD -1
REMARK  0 active torsions:
REMARK  status: ('A' for Active; 'I' for Inactive)
ROOT
ATOM      1  C   UNL d   1      -4.980   6.000   2.907  0.00  0.00     0.172 C 
ATOM      2  N   UNL d   1      -5.219   5.404   1.613  0.00  0.00    -0.070 N 
ATOM      3  C1  UNL d   1      -5.874   6.000   0.568  0.00  0.00    -0.004 A 
ATOM      4  C2  UNL d   1      -5.893   5.108  -0.482  0.00  0.00    -0.047 A 
ATOM      5  C3  UNL d   1      -5.227   3.935  -0.054  0.00  0.00    -0.047 A 
ATOM      6  C4  UNL d   1      -4.820   4.146   1.247  0.00  0.00    -0.004 A 
ENDROOT
TORSDOF 0
ENDMDL
