MODEL 1
REMARK minimizedAffinity -2.17813206
REMARK minimizedRMSD -1
REMARK  0 active torsions:
REMARK  status: ('A' for Active; 'I' for Inactive)
ROOT
ATOM      1  C   UNL d   1       0.454  -0.050   0.338  0.00  0.00     0.172 C 
ATOM      2  N   UNL d   1      -0.850  -0.490  -0.100  0.00  0.00    -0.070 N 
ATOM      3  C1  UNL d   1      -1.535  -1.569   0.391  0.00  0.00    -0.004 A 
ATOM      4  C2  UNL d   1      -2.734  -1.651  -0.284  0.00  0.00    -0.047 A 
ATOM      5  C3  UNL d   1      -2.770  -0.585  -1.213  0.00  0.00    -0.047 A 
ATOM      6  C4  UNL d   1      -1.592   0.118  -1.078  0.00  0.00    -0.004 A 
ENDROOT
TORSDOF 0
ENDMDL
