MODEL 1
REMARK minimizedAffinity -1.99950683
REMARK minimizedRMSD -1
REMARK  0 active torsions:
REMARK  status: ('A' for Active; 'I' for Inactive)
ROOT
ATOM      1  C   UNL d   1       3.696   3.541  -0.036  0.00  0.00     0.172 C 
ATOM      2  N   UNL d   1       3.454   3.070   1.307  0.00  0.00    -0.070 N 
ATOM      3  C1  UNL d   1       3.688   1.799   1.762  0.00  0.00    -0.004 A 
ATOM      4  C2  UNL d   1       3.330   1.755   3.092  0.00  0.00    -0.047 A 
ATOM      5  C3  UNL d   1       2.864   3.043   3.449  0.00  0.00    -0.047 A 
ATOM      6  C4  UNL d   1       2.952   3.837   2.325  0.00  0.00    -0.004 A 
ENDROOT
TORSDOF 0
ENDMDL
