MODEL 1
REMARK minimizedAffinity -3.62759471
REMARK minimizedRMSD -1
REMARK  0 active torsions:
REMARK  status: ('A' for Active; 'I' for Inactive)
ROOT
ATOM      1  C   UNL d   1       1.021  -0.210  -0.105  0.00  0.00     0.172 C 
ATOM      2  N   UNL d   1      -0.413  -0.248  -0.266  0.00  0.00    -0.070 N 
ATOM      3  C1  UNL d   1      -1.101   0.134  -1.387  0.00  0.00    -0.004 A 
ATOM      4  C2  UNL d   1      -2.444  -0.054  -1.143  0.00  0.00    -0.047 A 
ATOM      5  C3  UNL d   1      -2.568  -0.565   0.171  0.00  0.00    -0.047 A 
ATOM      6  C4  UNL d   1      -1.296  -0.675   0.690  0.00  0.00    -0.004 A 
ENDROOT
TORSDOF 0
ENDMDL
