MODEL 1
REMARK minimizedAffinity -3.37794876
REMARK minimizedRMSD -1
REMARK  0 active torsions:
REMARK  status: ('A' for Active; 'I' for Inactive)
ROOT
ATOM      1  C   UNL d   1       0.138   0.260  -1.318  0.00  0.00     0.172 C 
ATOM      2  N   UNL d   1      -1.000  -0.245  -0.586  0.00  0.00    -0.070 N 
ATOM      3  C1  UNL d   1      -2.202  -0.608  -1.131  0.00  0.00    -0.004 A 
ATOM      4  C2  UNL d   1      -3.018  -1.035  -0.106  0.00  0.00    -0.047 A 
ATOM      5  C3  UNL d   1      -2.281  -0.924   1.097  0.00  0.00    -0.047 A 
ATOM      6  C4  UNL d   1      -1.035  -0.432   0.771  0.00  0.00    -0.004 A 
ENDROOT
TORSDOF 0
ENDMDL
