MODEL 1
REMARK minimizedAffinity -2.77244377
REMARK minimizedRMSD -1
REMARK  0 active torsions:
REMARK  status: ('A' for Active; 'I' for Inactive)
ROOT
ATOM      1  C   UNL d   1       0.958   0.164   0.027  0.00  0.00     0.172 C 
ATOM      2  N   UNL d   1      -0.427  -0.245   0.044  0.00  0.00    -0.070 N 
ATOM      3  C1  UNL d   1      -1.008  -1.055   0.983  0.00  0.00    -0.004 A 
ATOM      4  C2  UNL d   1      -2.336  -1.205   0.647  0.00  0.00    -0.047 A 
ATOM      5  C3  UNL d   1      -2.560  -0.460  -0.535  0.00  0.00    -0.047 A 
ATOM      6  C4  UNL d   1      -1.362   0.124  -0.886  0.00  0.00    -0.004 A 
ENDROOT
TORSDOF 0
ENDMDL
