MODEL 1
REMARK minimizedAffinity -3.85329151
REMARK minimizedRMSD -1
REMARK  0 active torsions:
REMARK  status: ('A' for Active; 'I' for Inactive)
ROOT
ATOM      1  C   UNL d   1      -1.064  -2.312   1.837  0.00  0.00     0.172 C 
ATOM      2  N   UNL d   1      -1.717  -1.563   0.790  0.00  0.00    -0.070 N 
ATOM      3  C1  UNL d   1      -1.233  -0.426   0.201  0.00  0.00    -0.004 A 
ATOM      4  C2  UNL d   1      -2.148  -0.019  -0.747  0.00  0.00    -0.047 A 
ATOM      5  C3  UNL d   1      -3.219  -0.944  -0.725  0.00  0.00    -0.047 A 
ATOM      6  C4  UNL d   1      -2.927  -1.889   0.235  0.00  0.00    -0.004 A 
ENDROOT
TORSDOF 0
ENDMDL
