MODEL 1
REMARK minimizedAffinity -1.90532327
REMARK minimizedRMSD -1
REMARK  0 active torsions:
REMARK  status: ('A' for Active; 'I' for Inactive)
ROOT
ATOM      1  C   UNL d   1      -0.318   0.368  -2.287  0.00  0.00     0.172 C 
ATOM      2  N   UNL d   1       0.897   0.074  -3.011  0.00  0.00    -0.070 N 
ATOM      3  C1  UNL d   1       1.030   0.059  -4.374  0.00  0.00    -0.004 A 
ATOM      4  C2  UNL d   1       2.337  -0.264  -4.667  0.00  0.00    -0.047 A 
ATOM      5  C3  UNL d   1       3.013  -0.450  -3.438  0.00  0.00    -0.047 A 
ATOM      6  C4  UNL d   1       2.098  -0.235  -2.429  0.00  0.00    -0.004 A 
ENDROOT
TORSDOF 0
ENDMDL
