MODEL 1
REMARK minimizedAffinity 0.280445486
REMARK minimizedRMSD -1
REMARK  0 active torsions:
REMARK  status: ('A' for Active; 'I' for Inactive)
ROOT
ATOM      1  C   UNL d   1       5.965   4.278  -5.315  0.00  0.00     0.020 A 
ATOM      2  C1  UNL d   1       5.586   5.482  -5.908  0.00  0.00     0.020 A 
ATOM      3  C2  UNL d   1       4.306   5.996  -5.689  0.00  0.00     0.034 A 
ATOM      4  C3  UNL d   1       3.400   5.306  -4.875  0.00  0.00     0.017 A 
ATOM      5  C4  UNL d   1       3.781   4.098  -4.280  0.00  0.00     0.017 A 
ATOM      6  C5  UNL d   1       5.064   3.588  -4.503  0.00  0.00     0.034 A 
ATOM      7 Cl   UNL d   1       2.719   3.189  -3.264  0.00  0.00    -0.070 Cl
ATOM      8 Cl1  UNL d   1       1.834   6.000  -4.648  0.00  0.00    -0.070 Cl
ENDROOT
TORSDOF 0
ENDMDL
