MODEL 1
REMARK minimizedAffinity 6.74696779
REMARK minimizedRMSD -1
REMARK  0 active torsions:
REMARK  status: ('A' for Active; 'I' for Inactive)
ROOT
ATOM      1  C   UNL d   1      -5.998  -3.662  -3.397  0.00  0.00     0.020 A 
ATOM      2  C1  UNL d   1      -5.805  -4.949  -3.895  0.00  0.00     0.020 A 
ATOM      3  C2  UNL d   1      -4.640  -5.653  -3.580  0.00  0.00     0.034 A 
ATOM      4  C3  UNL d   1      -3.664  -5.069  -2.764  0.00  0.00     0.017 A 
ATOM      5  C4  UNL d   1      -3.859  -3.776  -2.264  0.00  0.00     0.017 A 
ATOM      6  C5  UNL d   1      -5.027  -3.076  -2.583  0.00  0.00     0.034 A 
ATOM      7 Cl   UNL d   1      -2.700  -2.989  -1.252  0.00  0.00    -0.070 Cl
ATOM      8 Cl1  UNL d   1      -2.249  -5.997  -2.414  0.00  0.00    -0.070 Cl
ENDROOT
TORSDOF 0
ENDMDL
