MODEL 1
REMARK minimizedAffinity 6.22169447
REMARK minimizedRMSD -1
REMARK  0 active torsions:
REMARK  status: ('A' for Active; 'I' for Inactive)
ROOT
ATOM      1  C   UNL d   1      -0.402   0.956  -2.601  0.00  0.00     0.020 A 
ATOM      2  C1  UNL d   1       0.390   2.096  -2.469  0.00  0.00     0.020 A 
ATOM      3  C2  UNL d   1       1.462   2.101  -1.574  0.00  0.00     0.034 A 
ATOM      4  C3  UNL d   1       1.746   0.964  -0.809  0.00  0.00     0.017 A 
ATOM      5  C4  UNL d   1       0.950  -0.180  -0.943  0.00  0.00     0.017 A 
ATOM      6  C5  UNL d   1      -0.122  -0.180  -1.840  0.00  0.00     0.034 A 
ATOM      7 Cl   UNL d   1       1.238  -1.621  -0.033  0.00  0.00    -0.070 Cl
ATOM      8 Cl1  UNL d   1       3.087   1.040   0.277  0.00  0.00    -0.070 Cl
ENDROOT
TORSDOF 0
ENDMDL
