MODEL 1
REMARK minimizedAffinity 4.22348499
REMARK minimizedRMSD -1
REMARK  0 active torsions:
REMARK  status: ('A' for Active; 'I' for Inactive)
ROOT
ATOM      1  C   UNL d   1       4.125   0.140   0.702  0.00  0.00     0.020 A 
ATOM      2  C1  UNL d   1       4.018  -0.293  -0.619  0.00  0.00     0.020 A 
ATOM      3  C2  UNL d   1       3.018   0.226  -1.444  0.00  0.00     0.034 A 
ATOM      4  C3  UNL d   1       2.121   1.180  -0.949  0.00  0.00     0.017 A 
ATOM      5  C4  UNL d   1       2.229   1.613   0.377  0.00  0.00     0.017 A 
ATOM      6  C5  UNL d   1       3.233   1.091   1.199  0.00  0.00     0.034 A 
ATOM      7 Cl   UNL d   1       1.160   2.787   1.059  0.00  0.00    -0.070 Cl
ATOM      8 Cl1  UNL d   1       0.909   1.778  -2.026  0.00  0.00    -0.070 Cl
ENDROOT
TORSDOF 0
ENDMDL
