MODEL 1
REMARK minimizedAffinity 10.8124304
REMARK minimizedRMSD -1
REMARK  0 active torsions:
REMARK  status: ('A' for Active; 'I' for Inactive)
ROOT
ATOM      1  C   UNL d   1       1.681   3.151   0.684  0.00  0.00     0.020 A 
ATOM      2  C1  UNL d   1       0.557   3.973   0.743  0.00  0.00     0.020 A 
ATOM      3  C2  UNL d   1      -0.551   3.588   1.502  0.00  0.00     0.034 A 
ATOM      4  C3  UNL d   1      -0.536   2.378   2.205  0.00  0.00     0.017 A 
ATOM      5  C4  UNL d   1       0.594   1.554   2.146  0.00  0.00     0.017 A 
ATOM      6  C5  UNL d   1       1.700   1.944   1.385  0.00  0.00     0.034 A 
ATOM      7 Cl   UNL d   1       0.686   0.047   2.987  0.00  0.00    -0.070 Cl
ATOM      8 Cl1  UNL d   1      -1.940   1.965   3.123  0.00  0.00    -0.070 Cl
ENDROOT
TORSDOF 0
ENDMDL
