MODEL 1
REMARK minimizedAffinity -0.943083167
REMARK minimizedRMSD -1
REMARK  0 active torsions:
REMARK  status: ('A' for Active; 'I' for Inactive)
ROOT
ATOM      1  C   UNL d   1      -4.503   2.472   5.744  0.00  0.00     0.020 A 
ATOM      2  C1  UNL d   1      -4.106   2.835   4.457  0.00  0.00     0.020 A 
ATOM      3  C2  UNL d   1      -4.292   1.950   3.393  0.00  0.00     0.034 A 
ATOM      4  C3  UNL d   1      -4.875   0.697   3.614  0.00  0.00     0.017 A 
ATOM      5  C4  UNL d   1      -5.273   0.333   4.905  0.00  0.00     0.017 A 
ATOM      6  C5  UNL d   1      -5.085   1.224   5.967  0.00  0.00     0.034 A 
ATOM      7 Cl   UNL d   1      -6.000  -1.195   5.255  0.00  0.00    -0.070 Cl
ATOM      8 Cl1  UNL d   1      -5.075  -0.347   2.251  0.00  0.00    -0.070 Cl
ENDROOT
TORSDOF 0
ENDMDL
