MODEL 1
REMARK minimizedAffinity 0.490728289
REMARK minimizedRMSD -1
REMARK  0 active torsions:
REMARK  status: ('A' for Active; 'I' for Inactive)
ROOT
ATOM      1  C   UNL d   1       0.615  -1.928   0.914  0.00  0.00     0.020 A 
ATOM      2  C1  UNL d   1       0.075  -1.392   2.083  0.00  0.00     0.020 A 
ATOM      3  C2  UNL d   1       0.233  -0.034   2.366  0.00  0.00     0.034 A 
ATOM      4  C3  UNL d   1       0.932   0.793   1.480  0.00  0.00     0.017 A 
ATOM      5  C4  UNL d   1       1.473   0.255   0.307  0.00  0.00     0.017 A 
ATOM      6  C5  UNL d   1       1.312  -1.106   0.028  0.00  0.00     0.034 A 
ATOM      7 Cl   UNL d   1       2.348   1.213  -0.835  0.00  0.00    -0.070 Cl
ATOM      8 Cl1  UNL d   1       1.088   2.464   1.893  0.00  0.00    -0.070 Cl
ENDROOT
TORSDOF 0
ENDMDL
