MODEL 1
REMARK minimizedAffinity 13.992713
REMARK minimizedRMSD -1
REMARK  0 active torsions:
REMARK  status: ('A' for Active; 'I' for Inactive)
ROOT
ATOM      1  C   UNL d   1       1.074   2.622   1.399  0.00  0.00     0.020 A 
ATOM      2  C1  UNL d   1      -0.066   3.398   1.190  0.00  0.00     0.020 A 
ATOM      3  C2  UNL d   1      -1.306   2.958   1.657  0.00  0.00     0.034 A 
ATOM      4  C3  UNL d   1      -1.410   1.738   2.335  0.00  0.00     0.017 A 
ATOM      5  C4  UNL d   1      -0.266   0.959   2.544  0.00  0.00     0.017 A 
ATOM      6  C5  UNL d   1       0.974   1.405   2.075  0.00  0.00     0.034 A 
ATOM      7 Cl   UNL d   1      -0.315  -0.557   3.373  0.00  0.00    -0.070 Cl
ATOM      8 Cl1  UNL d   1      -2.975   1.255   2.885  0.00  0.00    -0.070 Cl
ENDROOT
TORSDOF 0
ENDMDL
