MODEL 1
REMARK minimizedAffinity 5.72771978
REMARK minimizedRMSD -1
REMARK  0 active torsions:
REMARK  status: ('A' for Active; 'I' for Inactive)
ROOT
ATOM      1  C   UNL d   1       0.366  -0.823  -2.288  0.00  0.00     0.020 A 
ATOM      2  C1  UNL d   1       1.196  -1.176  -1.224  0.00  0.00     0.020 A 
ATOM      3  C2  UNL d   1       2.075  -0.237  -0.683  0.00  0.00     0.034 A 
ATOM      4  C3  UNL d   1       2.128   1.061  -1.205  0.00  0.00     0.017 A 
ATOM      5  C4  UNL d   1       1.295   1.414  -2.273  0.00  0.00     0.017 A 
ATOM      6  C5  UNL d   1       0.416   0.469  -2.811  0.00  0.00     0.034 A 
ATOM      7 Cl   UNL d   1       1.303   2.996  -2.971  0.00  0.00    -0.070 Cl
ATOM      8 Cl1  UNL d   1       3.239   2.172  -0.487  0.00  0.00    -0.070 Cl
ENDROOT
TORSDOF 0
ENDMDL
