MODEL 1
REMARK minimizedAffinity 7.97263718
REMARK minimizedRMSD -1
REMARK  0 active torsions:
REMARK  status: ('A' for Active; 'I' for Inactive)
ROOT
ATOM      1  C   UNL d   1       3.187   0.824  -1.162  0.00  0.00     0.020 A 
ATOM      2  C1  UNL d   1       2.477  -0.368  -1.027  0.00  0.00     0.020 A 
ATOM      3  C2  UNL d   1       1.296  -0.562  -1.746  0.00  0.00     0.034 A 
ATOM      4  C3  UNL d   1       0.821   0.438  -2.603  0.00  0.00     0.017 A 
ATOM      5  C4  UNL d   1       1.535   1.634  -2.738  0.00  0.00     0.017 A 
ATOM      6  C5  UNL d   1       2.717   1.823  -2.016  0.00  0.00     0.034 A 
ATOM      7 Cl   UNL d   1       1.012   2.913  -3.776  0.00  0.00    -0.070 Cl
ATOM      8 Cl1  UNL d   1      -0.646   0.130  -3.462  0.00  0.00    -0.070 Cl
ENDROOT
TORSDOF 0
ENDMDL
