MODEL 1
REMARK minimizedAffinity 4.38909769
REMARK minimizedRMSD -1
REMARK  0 active torsions:
REMARK  status: ('A' for Active; 'I' for Inactive)
ROOT
ATOM      1  C   UNL d   1      -1.068   1.146   1.953  0.00  0.00     0.020 A 
ATOM      2  C1  UNL d   1      -0.607   2.233   2.693  0.00  0.00     0.020 A 
ATOM      3  C2  UNL d   1       0.742   2.591   2.641  0.00  0.00     0.034 A 
ATOM      4  C3  UNL d   1       1.634   1.861   1.848  0.00  0.00     0.017 A 
ATOM      5  C4  UNL d   1       1.170   0.769   1.105  0.00  0.00     0.017 A 
ATOM      6  C5  UNL d   1      -0.181   0.415   1.161  0.00  0.00     0.034 A 
ATOM      7 Cl   UNL d   1       2.211  -0.180   0.104  0.00  0.00    -0.070 Cl
ATOM      8 Cl1  UNL d   1       3.288   2.360   1.831  0.00  0.00    -0.070 Cl
ENDROOT
TORSDOF 0
ENDMDL
