MODEL 1
REMARK minimizedAffinity 4.51968479
REMARK minimizedRMSD -1
REMARK  0 active torsions:
REMARK  status: ('A' for Active; 'I' for Inactive)
ROOT
ATOM      1  C   UNL d   1       1.394  -1.064  -2.596  0.00  0.00     0.020 A 
ATOM      2  C1  UNL d   1       0.849  -0.348  -3.661  0.00  0.00     0.020 A 
ATOM      3  C2  UNL d   1       0.213   0.873  -3.429  0.00  0.00     0.034 A 
ATOM      4  C3  UNL d   1       0.120   1.382  -2.128  0.00  0.00     0.017 A 
ATOM      5  C4  UNL d   1       0.667   0.663  -1.060  0.00  0.00     0.017 A 
ATOM      6  C5  UNL d   1       1.303  -0.560  -1.298  0.00  0.00     0.034 A 
ATOM      7 Cl   UNL d   1       0.592   1.226   0.573  0.00  0.00    -0.070 Cl
ATOM      8 Cl1  UNL d   1      -0.679   2.899  -1.914  0.00  0.00    -0.070 Cl
ENDROOT
TORSDOF 0
ENDMDL
