MODEL 1
REMARK minimizedAffinity 3.84239411
REMARK minimizedRMSD -1
REMARK  0 active torsions:
REMARK  status: ('A' for Active; 'I' for Inactive)
ROOT
ATOM      1  C   UNL d   1       2.162  -0.229  -1.264  0.00  0.00     0.020 A 
ATOM      2  C1  UNL d   1       3.455   0.139  -0.894  0.00  0.00     0.020 A 
ATOM      3  C2  UNL d   1       3.677   0.780   0.326  0.00  0.00     0.034 A 
ATOM      4  C3  UNL d   1       2.604   1.056   1.181  0.00  0.00     0.017 A 
ATOM      5  C4  UNL d   1       1.306   0.687   0.810  0.00  0.00     0.017 A 
ATOM      6  C5  UNL d   1       1.090   0.044  -0.413  0.00  0.00     0.034 A 
ATOM      7 Cl   UNL d   1      -0.068   0.993   1.813  0.00  0.00    -0.070 Cl
ATOM      8 Cl1  UNL d   1       2.951   1.852   2.675  0.00  0.00    -0.070 Cl
ENDROOT
TORSDOF 0
ENDMDL
