MODEL 1
REMARK minimizedAffinity -3.67694712
REMARK minimizedRMSD -1
REMARK  0 active torsions:
REMARK  status: ('A' for Active; 'I' for Inactive)
ROOT
ATOM      1  C   UNL d   1      -0.191   0.776   0.023  0.00  0.00     0.172 C 
ATOM      2  N   UNL d   1       0.496  -0.487   0.161  0.00  0.00    -0.070 N 
ATOM      3  C1  UNL d   1       1.435  -0.983  -0.703  0.00  0.00    -0.004 A 
ATOM      4  C2  UNL d   1       1.847  -2.207  -0.221  0.00  0.00    -0.047 A 
ATOM      5  C3  UNL d   1       1.130  -2.454   0.974  0.00  0.00    -0.047 A 
ATOM      6  C4  UNL d   1       0.301  -1.374   1.187  0.00  0.00    -0.004 A 
ENDROOT
TORSDOF 0
ENDMDL
