MODEL 1
REMARK minimizedAffinity -3.71511269
REMARK minimizedRMSD -1
REMARK  0 active torsions:
REMARK  status: ('A' for Active; 'I' for Inactive)
ROOT
ATOM      1  C   UNL d   1      -0.005   1.025  -0.612  0.00  0.00     0.172 C 
ATOM      2  N   UNL d   1       0.800   0.017   0.037  0.00  0.00    -0.070 N 
ATOM      3  C1  UNL d   1       0.328  -1.128   0.620  0.00  0.00    -0.004 A 
ATOM      4  C2  UNL d   1       1.408  -1.821   1.124  0.00  0.00    -0.047 A 
ATOM      5  C3  UNL d   1       2.568  -1.065   0.834  0.00  0.00    -0.047 A 
ATOM      6  C4  UNL d   1       2.163   0.068   0.161  0.00  0.00    -0.004 A 
ENDROOT
TORSDOF 0
ENDMDL
