MODEL 1
REMARK minimizedAffinity -2.85294843
REMARK minimizedRMSD -1
REMARK  0 active torsions:
REMARK  status: ('A' for Active; 'I' for Inactive)
ROOT
ATOM      1  C   UNL d   1       0.176   0.046  -0.018  0.00  0.00     0.172 C 
ATOM      2  N   UNL d   1      -0.061   1.068  -1.009  0.00  0.00    -0.070 N 
ATOM      3  C1  UNL d   1      -0.883   0.950  -2.098  0.00  0.00    -0.004 A 
ATOM      4  C2  UNL d   1      -0.836   2.139  -2.793  0.00  0.00    -0.047 A 
ATOM      5  C3  UNL d   1       0.045   3.001  -2.099  0.00  0.00    -0.047 A 
ATOM      6  C4  UNL d   1       0.511   2.313  -0.998  0.00  0.00    -0.004 A 
ENDROOT
TORSDOF 0
ENDMDL
