MODEL 1
REMARK minimizedAffinity -3.45887089
REMARK minimizedRMSD -1
REMARK  0 active torsions:
REMARK  status: ('A' for Active; 'I' for Inactive)
ROOT
ATOM      1  C   UNL d   1       0.214   0.373  -0.366  0.00  0.00     0.172 C 
ATOM      2  N   UNL d   1       0.953  -0.733   0.195  0.00  0.00    -0.070 N 
ATOM      3  C1  UNL d   1       0.478  -2.007   0.362  0.00  0.00    -0.004 A 
ATOM      4  C2  UNL d   1       1.484  -2.761   0.926  0.00  0.00    -0.047 A 
ATOM      5  C3  UNL d   1       2.602  -1.911   1.105  0.00  0.00    -0.047 A 
ATOM      6  C4  UNL d   1       2.245  -0.662   0.644  0.00  0.00    -0.004 A 
ENDROOT
TORSDOF 0
ENDMDL
