MODEL 1
REMARK minimizedAffinity -2.97049475
REMARK minimizedRMSD -1
REMARK  0 active torsions:
REMARK  status: ('A' for Active; 'I' for Inactive)
ROOT
ATOM      1  C   UNL d   1      -0.424  -0.201  -0.420  0.00  0.00     0.172 C 
ATOM      2  N   UNL d   1       0.524  -1.117   0.169  0.00  0.00    -0.070 N 
ATOM      3  C1  UNL d   1       0.285  -2.431   0.468  0.00  0.00    -0.004 A 
ATOM      4  C2  UNL d   1       1.437  -2.957   1.012  0.00  0.00    -0.047 A 
ATOM      5  C3  UNL d   1       2.402  -1.922   1.042  0.00  0.00    -0.047 A 
ATOM      6  C4  UNL d   1       1.810  -0.794   0.514  0.00  0.00    -0.004 A 
ENDROOT
TORSDOF 0
ENDMDL
