MODEL 1
REMARK minimizedAffinity -2.47187519
REMARK minimizedRMSD -1
REMARK  0 active torsions:
REMARK  status: ('A' for Active; 'I' for Inactive)
ROOT
ATOM      1  C   UNL d   1      -0.519   0.299   0.408  0.00  0.00     0.172 C 
ATOM      2  N   UNL d   1       0.415  -0.780   0.629  0.00  0.00    -0.070 N 
ATOM      3  C1  UNL d   1       0.140  -1.954   1.277  0.00  0.00    -0.004 A 
ATOM      4  C2  UNL d   1       1.290  -2.714   1.279  0.00  0.00    -0.047 A 
ATOM      5  C3  UNL d   1       2.290  -1.971   0.610  0.00  0.00    -0.047 A 
ATOM      6  C4  UNL d   1       1.722  -0.777   0.218  0.00  0.00    -0.004 A 
ENDROOT
TORSDOF 0
ENDMDL
