MODEL 1
REMARK minimizedAffinity -3.30255294
REMARK minimizedRMSD -1
REMARK  0 active torsions:
REMARK  status: ('A' for Active; 'I' for Inactive)
ROOT
ATOM      1  C   UNL d   1       1.350  -2.632   0.856  0.00  0.00     0.172 C 
ATOM      2  N   UNL d   1       0.783  -1.359   0.476  0.00  0.00    -0.070 N 
ATOM      3  C1  UNL d   1      -0.488  -0.936   0.758  0.00  0.00    -0.004 A 
ATOM      4  C2  UNL d   1      -0.640   0.327   0.227  0.00  0.00    -0.047 A 
ATOM      5  C3  UNL d   1       0.582   0.674  -0.396  0.00  0.00    -0.047 A 
ATOM      6  C4  UNL d   1       1.446  -0.388  -0.227  0.00  0.00    -0.004 A 
ENDROOT
TORSDOF 0
ENDMDL
