MODEL 1
REMARK minimizedAffinity -2.22049642
REMARK minimizedRMSD -1
REMARK  0 active torsions:
REMARK  status: ('A' for Active; 'I' for Inactive)
ROOT
ATOM      1  C   UNL d   1       2.346  -1.252   0.851  0.00  0.00     0.172 C 
ATOM      2  N   UNL d   1       1.209  -0.543   0.312  0.00  0.00    -0.070 N 
ATOM      3  C1  UNL d   1      -0.087  -0.674   0.736  0.00  0.00    -0.004 A 
ATOM      4  C2  UNL d   1      -0.867   0.168  -0.027  0.00  0.00    -0.047 A 
ATOM      5  C3  UNL d   1      -0.011   0.828  -0.940  0.00  0.00    -0.047 A 
ATOM      6  C4  UNL d   1       1.269   0.369  -0.708  0.00  0.00    -0.004 A 
ENDROOT
TORSDOF 0
ENDMDL
