MODEL 1
REMARK minimizedAffinity -3.05704021
REMARK minimizedRMSD -1
REMARK  0 active torsions:
REMARK  status: ('A' for Active; 'I' for Inactive)
ROOT
ATOM      1  C   UNL d   1      -0.706  -0.289  -1.023  0.00  0.00     0.172 C 
ATOM      2  N   UNL d   1       0.394  -0.721  -0.194  0.00  0.00    -0.070 N 
ATOM      3  C1  UNL d   1       1.529   0.001   0.066  0.00  0.00    -0.004 A 
ATOM      4  C2  UNL d   1       2.329  -0.755   0.895  0.00  0.00    -0.047 A 
ATOM      5  C3  UNL d   1       1.652  -1.974   1.142  0.00  0.00    -0.047 A 
ATOM      6  C4  UNL d   1       0.457  -1.925   0.455  0.00  0.00    -0.004 A 
ENDROOT
TORSDOF 0
ENDMDL
