MODEL 1
REMARK minimizedAffinity -3.66418839
REMARK minimizedRMSD -1
REMARK  0 active torsions:
REMARK  status: ('A' for Active; 'I' for Inactive)
ROOT
ATOM      1  C   UNL d   1       1.346  -2.551   0.829  0.00  0.00     0.172 C 
ATOM      2  N   UNL d   1       0.639  -1.308   0.629  0.00  0.00    -0.070 N 
ATOM      3  C1  UNL d   1       0.983  -0.329  -0.264  0.00  0.00    -0.004 A 
ATOM      4  C2  UNL d   1       0.061   0.690  -0.149  0.00  0.00    -0.047 A 
ATOM      5  C3  UNL d   1      -0.868   0.310   0.849  0.00  0.00    -0.047 A 
ATOM      6  C4  UNL d   1      -0.486  -0.931   1.314  0.00  0.00    -0.004 A 
ENDROOT
TORSDOF 0
ENDMDL
