MODEL 1
REMARK minimizedAffinity -3.63235784
REMARK minimizedRMSD -1
REMARK  0 active torsions:
REMARK  status: ('A' for Active; 'I' for Inactive)
ROOT
ATOM      1  C   UNL d   1      -0.436   0.915   0.034  0.00  0.00     0.172 C 
ATOM      2  N   UNL d   1       0.512  -0.137   0.315  0.00  0.00    -0.070 N 
ATOM      3  C1  UNL d   1       1.852  -0.100   0.034  0.00  0.00    -0.004 A 
ATOM      4  C2  UNL d   1       2.405  -1.290   0.455  0.00  0.00    -0.047 A 
ATOM      5  C3  UNL d   1       1.361  -2.069   1.008  0.00  0.00    -0.047 A 
ATOM      6  C4  UNL d   1       0.200  -1.332   0.909  0.00  0.00    -0.004 A 
ENDROOT
TORSDOF 0
ENDMDL
