MODEL 1
REMARK minimizedAffinity -2.84286642
REMARK minimizedRMSD -1
REMARK  0 active torsions:
REMARK  status: ('A' for Active; 'I' for Inactive)
ROOT
ATOM      1  C   UNL d   1       1.092  -2.653   1.015  0.00  0.00     0.172 C 
ATOM      2  N   UNL d   1       0.363  -1.419   0.837  0.00  0.00    -0.070 N 
ATOM      3  C1  UNL d   1      -0.700  -1.004   1.594  0.00  0.00    -0.004 A 
ATOM      4  C2  UNL d   1      -1.112   0.218   1.108  0.00  0.00    -0.047 A 
ATOM      5  C3  UNL d   1      -0.268   0.548   0.020  0.00  0.00    -0.047 A 
ATOM      6  C4  UNL d   1       0.635  -0.484  -0.126  0.00  0.00    -0.004 A 
ENDROOT
TORSDOF 0
ENDMDL
