MODEL 1
REMARK minimizedAffinity -3.75214434
REMARK minimizedRMSD -1
REMARK  0 active torsions:
REMARK  status: ('A' for Active; 'I' for Inactive)
ROOT
ATOM      1  C   UNL d   1       0.004  -0.334  -0.274  0.00  0.00     0.172 C 
ATOM      2  N   UNL d   1       0.250  -1.256   0.810  0.00  0.00    -0.070 N 
ATOM      3  C1  UNL d   1       1.340  -2.076   0.929  0.00  0.00    -0.004 A 
ATOM      4  C2  UNL d   1       1.201  -2.795   2.097  0.00  0.00    -0.047 A 
ATOM      5  C3  UNL d   1      -0.015  -2.394   2.700  0.00  0.00    -0.047 A 
ATOM      6  C4  UNL d   1      -0.583  -1.440   1.882  0.00  0.00    -0.004 A 
ENDROOT
TORSDOF 0
ENDMDL
