MODEL 1
REMARK minimizedAffinity -3.83380532
REMARK minimizedRMSD -1
REMARK  0 active torsions:
REMARK  status: ('A' for Active; 'I' for Inactive)
ROOT
ATOM      1  C   UNL d   1      -0.080   0.828  -0.554  0.00  0.00     0.172 C 
ATOM      2  N   UNL d   1       0.657  -0.283  -0.001  0.00  0.00    -0.070 N 
ATOM      3  C1  UNL d   1       0.113  -1.355   0.655  0.00  0.00    -0.004 A 
ATOM      4  C2  UNL d   1       1.145  -2.191   1.025  0.00  0.00    -0.047 A 
ATOM      5  C3  UNL d   1       2.350  -1.600   0.578  0.00  0.00    -0.047 A 
ATOM      6  C4  UNL d   1       2.019  -0.420  -0.054  0.00  0.00    -0.004 A 
ENDROOT
TORSDOF 0
ENDMDL
