MODEL 1
REMARK minimizedAffinity -4.20356989
REMARK minimizedRMSD -1
REMARK  0 active torsions:
REMARK  status: ('A' for Active; 'I' for Inactive)
ROOT
ATOM      1  C   UNL d   1      -0.321  -0.026  -0.059  0.00  0.00     0.172 C 
ATOM      2  N   UNL d   1       0.055  -1.155   0.760  0.00  0.00    -0.070 N 
ATOM      3  C1  UNL d   1      -0.616  -1.596   1.868  0.00  0.00    -0.004 A 
ATOM      4  C2  UNL d   1       0.059  -2.691   2.363  0.00  0.00    -0.047 A 
ATOM      5  C3  UNL d   1       1.175  -2.915   1.523  0.00  0.00    -0.047 A 
ATOM      6  C4  UNL d   1       1.149  -1.950   0.538  0.00  0.00    -0.004 A 
ENDROOT
TORSDOF 0
ENDMDL
