MODEL 1
REMARK minimizedAffinity -3.06288147
REMARK minimizedRMSD -1
REMARK  0 active torsions:
REMARK  status: ('A' for Active; 'I' for Inactive)
ROOT
ATOM      1  C   UNL d   1      -0.774   1.336  -0.281  0.00  0.00     0.172 C 
ATOM      2  N   UNL d   1      -1.025   1.543  -1.688  0.00  0.00    -0.070 N 
ATOM      3  C1  UNL d   1      -0.344   2.409  -2.501  0.00  0.00    -0.004 A 
ATOM      4  C2  UNL d   1      -0.882   2.311  -3.766  0.00  0.00    -0.047 A 
ATOM      5  C3  UNL d   1      -1.923   1.354  -3.711  0.00  0.00    -0.047 A 
ATOM      6  C4  UNL d   1      -1.989   0.894  -2.413  0.00  0.00    -0.004 A 
ENDROOT
TORSDOF 0
ENDMDL
