MODEL 1
REMARK minimizedAffinity -4.0011797
REMARK minimizedRMSD -1
REMARK  0 active torsions:
REMARK  status: ('A' for Active; 'I' for Inactive)
ROOT
ATOM      1  C   UNL d   1      -0.003   0.568  -0.123  0.00  0.00     0.172 C 
ATOM      2  N   UNL d   1       0.687  -0.609   0.348  0.00  0.00    -0.070 N 
ATOM      3  C1  UNL d   1       0.180  -1.538   1.218  0.00  0.00    -0.004 A 
ATOM      4  C2  UNL d   1       1.145  -2.503   1.414  0.00  0.00    -0.047 A 
ATOM      5  C3  UNL d   1       2.270  -2.141   0.637  0.00  0.00    -0.047 A 
ATOM      6  C4  UNL d   1       1.960  -0.965  -0.013  0.00  0.00    -0.004 A 
ENDROOT
TORSDOF 0
ENDMDL
