MODEL 1
REMARK minimizedAffinity -4.02823591
REMARK minimizedRMSD -1
REMARK  0 active torsions:
REMARK  status: ('A' for Active; 'I' for Inactive)
ROOT
ATOM      1  C   UNL d   1       2.240  -2.508  -0.459  0.00  0.00     0.078 C 
ATOM      2  C1  UNL d   1       1.121  -1.731   0.168  0.00  0.00    -0.077 A 
ATOM      3  C2  UNL d   1       0.781  -0.454  -0.296  0.00  0.00    -0.001 A 
ATOM      4  C3  UNL d   1      -0.256   0.262   0.303  0.00  0.00     0.003 A 
ATOM      5  C4  UNL d   1      -0.963  -0.290   1.369  0.00  0.00    -0.005 A 
ATOM      6  C5  UNL d   1      -0.631  -1.559   1.839  0.00  0.00     0.003 A 
ATOM      7  C6  UNL d   1       0.407  -2.277   1.242  0.00  0.00    -0.001 A 
ENDROOT
TORSDOF 0
ENDMDL
