MODEL 1
REMARK minimizedAffinity 1.03388631
REMARK minimizedRMSD -1
REMARK  0 active torsions:
REMARK  status: ('A' for Active; 'I' for Inactive)
ROOT
ATOM      1  C   UNL d   1      -0.074   0.151  -0.289  0.00  0.00     0.078 C 
ATOM      2  C1  UNL d   1      -0.480  -0.355  -1.641  0.00  0.00    -0.077 A 
ATOM      3  C2  UNL d   1      -0.890   0.527  -2.648  0.00  0.00    -0.001 A 
ATOM      4  C3  UNL d   1      -1.275   0.041  -3.899  0.00  0.00     0.003 A 
ATOM      5  C4  UNL d   1      -1.255  -1.329  -4.153  0.00  0.00    -0.005 A 
ATOM      6  C5  UNL d   1      -0.850  -2.215  -3.156  0.00  0.00     0.003 A 
ATOM      7  C6  UNL d   1      -0.465  -1.730  -1.905  0.00  0.00    -0.001 A 
ENDROOT
TORSDOF 0
ENDMDL
