MODEL 1
REMARK minimizedAffinity -0.3893466
REMARK minimizedRMSD -1
REMARK  0 active torsions:
REMARK  status: ('A' for Active; 'I' for Inactive)
ROOT
ATOM      1  C   UNL d   1       3.039  -0.754   0.741  0.00  0.00     0.078 C 
ATOM      2  C1  UNL d   1       1.717  -0.103   0.465  0.00  0.00    -0.077 A 
ATOM      3  C2  UNL d   1       0.550  -0.866   0.335  0.00  0.00    -0.001 A 
ATOM      4  C3  UNL d   1      -0.672  -0.247   0.068  0.00  0.00     0.003 A 
ATOM      5  C4  UNL d   1      -0.739   1.138  -0.071  0.00  0.00    -0.005 A 
ATOM      6  C5  UNL d   1       0.417   1.905   0.055  0.00  0.00     0.003 A 
ATOM      7  C6  UNL d   1       1.640   1.288   0.321  0.00  0.00    -0.001 A 
ENDROOT
TORSDOF 0
ENDMDL
