MODEL 1
REMARK minimizedAffinity -2.57886672
REMARK minimizedRMSD -1
REMARK  0 active torsions:
REMARK  status: ('A' for Active; 'I' for Inactive)
ROOT
ATOM      1  C   UNL d   1      -5.783  -0.710  -0.389  0.00  0.00     0.078 C 
ATOM      2  C1  UNL d   1      -4.883  -0.010   0.585  0.00  0.00    -0.077 A 
ATOM      3  C2  UNL d   1      -5.366   1.021   1.401  0.00  0.00    -0.001 A 
ATOM      4  C3  UNL d   1      -4.514   1.671   2.295  0.00  0.00     0.003 A 
ATOM      5  C4  UNL d   1      -3.174   1.298   2.382  0.00  0.00    -0.005 A 
ATOM      6  C5  UNL d   1      -2.684   0.275   1.572  0.00  0.00     0.003 A 
ATOM      7  C6  UNL d   1      -3.534  -0.376   0.677  0.00  0.00    -0.001 A 
ENDROOT
TORSDOF 0
ENDMDL
