MODEL 1
REMARK minimizedAffinity -4.16029835
REMARK minimizedRMSD -1
REMARK  0 active torsions:
REMARK  status: ('A' for Active; 'I' for Inactive)
ROOT
ATOM      1  C   UNL d   1      -0.226  -2.677  -1.725  0.00  0.00     0.078 C 
ATOM      2  C1  UNL d   1       0.539  -1.740  -0.839  0.00  0.00    -0.077 A 
ATOM      3  C2  UNL d   1       0.041  -0.467  -0.536  0.00  0.00    -0.001 A 
ATOM      4  C3  UNL d   1       0.769   0.399   0.282  0.00  0.00     0.003 A 
ATOM      5  C4  UNL d   1       1.998   0.001   0.803  0.00  0.00    -0.005 A 
ATOM      6  C5  UNL d   1       2.502  -1.263   0.505  0.00  0.00     0.003 A 
ATOM      7  C6  UNL d   1       1.776  -2.130  -0.313  0.00  0.00    -0.001 A 
ENDROOT
TORSDOF 0
ENDMDL
