MODEL 1
REMARK minimizedAffinity -2.28512788
REMARK minimizedRMSD -1
REMARK  0 active torsions:
REMARK  status: ('A' for Active; 'I' for Inactive)
ROOT
ATOM      1  C   UNL d   1      -0.445   0.800  -0.106  0.00  0.00     0.078 C 
ATOM      2  C1  UNL d   1       0.716  -0.078   0.255  0.00  0.00    -0.077 A 
ATOM      3  C2  UNL d   1       1.058  -1.182  -0.535  0.00  0.00    -0.001 A 
ATOM      4  C3  UNL d   1       2.136  -1.996  -0.181  0.00  0.00     0.003 A 
ATOM      5  C4  UNL d   1       2.879  -1.715   0.963  0.00  0.00    -0.005 A 
ATOM      6  C5  UNL d   1       2.545  -0.619   1.756  0.00  0.00     0.003 A 
ATOM      7  C6  UNL d   1       1.468   0.196   1.405  0.00  0.00    -0.001 A 
ENDROOT
TORSDOF 0
ENDMDL
