MODEL 1
REMARK minimizedAffinity 2.90198946
REMARK minimizedRMSD -1
REMARK  0 active torsions:
REMARK  status: ('A' for Active; 'I' for Inactive)
ROOT
ATOM      1  C   UNL d   1      -0.066  -0.132  -0.035  0.00  0.00     0.078 C 
ATOM      2  C1  UNL d   1      -0.665  -0.245  -1.405  0.00  0.00    -0.077 A 
ATOM      3  C2  UNL d   1      -0.574  -1.435  -2.136  0.00  0.00    -0.001 A 
ATOM      4  C3  UNL d   1      -1.128  -1.522  -3.414  0.00  0.00     0.003 A 
ATOM      5  C4  UNL d   1      -1.776  -0.422  -3.973  0.00  0.00    -0.005 A 
ATOM      6  C5  UNL d   1      -1.870   0.767  -3.253  0.00  0.00     0.003 A 
ATOM      7  C6  UNL d   1      -1.316   0.856  -1.975  0.00  0.00    -0.001 A 
ENDROOT
TORSDOF 0
ENDMDL
