MODEL 1
REMARK minimizedAffinity -1.86715794
REMARK minimizedRMSD -1
REMARK  0 active torsions:
REMARK  status: ('A' for Active; 'I' for Inactive)
ROOT
ATOM      1  C   UNL d   1      -1.225   0.157  -0.268  0.00  0.00     0.078 C 
ATOM      2  C1  UNL d   1       0.118   0.467   0.323  0.00  0.00    -0.077 A 
ATOM      3  C2  UNL d   1       0.727   1.711   0.117  0.00  0.00    -0.001 A 
ATOM      4  C3  UNL d   1       1.982   1.982   0.665  0.00  0.00     0.003 A 
ATOM      5  C4  UNL d   1       2.638   1.014   1.422  0.00  0.00    -0.005 A 
ATOM      6  C5  UNL d   1       2.041  -0.228   1.631  0.00  0.00     0.003 A 
ATOM      7  C6  UNL d   1       0.786  -0.501   1.084  0.00  0.00    -0.001 A 
ENDROOT
TORSDOF 0
ENDMDL
