MODEL 1
REMARK minimizedAffinity -3.87966895
REMARK minimizedRMSD -1
REMARK  0 active torsions:
REMARK  status: ('A' for Active; 'I' for Inactive)
ROOT
ATOM      1  C   UNL d   1       0.208  -0.756   1.229  0.00  0.00     0.020 A 
ATOM      2  C1  UNL d   1       0.677  -0.652  -0.081  0.00  0.00     0.020 A 
ATOM      3  C2  UNL d   1       0.247   0.399  -0.894  0.00  0.00     0.034 A 
ATOM      4  C3  UNL d   1      -0.653   1.350  -0.399  0.00  0.00     0.017 A 
ATOM      5  C4  UNL d   1      -1.123   1.244   0.916  0.00  0.00     0.017 A 
ATOM      6  C5  UNL d   1      -0.689   0.189   1.725  0.00  0.00     0.034 A 
ATOM      7 Cl   UNL d   1      -2.235   2.378   1.597  0.00  0.00    -0.070 Cl
ATOM      8 Cl1  UNL d   1      -1.142   2.623  -1.460  0.00  0.00    -0.070 Cl
ENDROOT
TORSDOF 0
ENDMDL
