MODEL 1
REMARK minimizedAffinity -1.36849546
REMARK minimizedRMSD -1
REMARK  0 active torsions:
REMARK  status: ('A' for Active; 'I' for Inactive)
ROOT
ATOM      1  C   UNL d   1      -0.156  -1.135   1.124  0.00  0.00     0.020 A 
ATOM      2  C1  UNL d   1       0.625  -0.910  -0.009  0.00  0.00     0.020 A 
ATOM      3  C2  UNL d   1       0.518   0.297  -0.703  0.00  0.00     0.034 A 
ATOM      4  C3  UNL d   1      -0.372   1.284  -0.264  0.00  0.00     0.017 A 
ATOM      5  C4  UNL d   1      -1.155   1.058   0.874  0.00  0.00     0.017 A 
ATOM      6  C5  UNL d   1      -1.044  -0.153   1.564  0.00  0.00     0.034 A 
ATOM      7 Cl   UNL d   1      -2.275   2.228   1.476  0.00  0.00    -0.070 Cl
ATOM      8 Cl1  UNL d   1      -0.452   2.753  -1.170  0.00  0.00    -0.070 Cl
ENDROOT
TORSDOF 0
ENDMDL
