MODEL 1
REMARK minimizedAffinity -5.10235119
REMARK minimizedRMSD -1
REMARK  0 active torsions:
REMARK  status: ('A' for Active; 'I' for Inactive)
ROOT
ATOM      1  C   UNL d   1      -1.017   3.611  -0.724  0.00  0.00     0.020 A 
ATOM      2  C1  UNL d   1      -1.545   3.642   0.566  0.00  0.00     0.020 A 
ATOM      3  C2  UNL d   1      -1.540   2.486   1.350  0.00  0.00     0.034 A 
ATOM      4  C3  UNL d   1      -1.007   1.295   0.844  0.00  0.00     0.017 A 
ATOM      5  C4  UNL d   1      -0.477   1.265  -0.451  0.00  0.00     0.017 A 
ATOM      6  C5  UNL d   1      -0.484   2.425  -1.231  0.00  0.00     0.034 A 
ATOM      7 Cl   UNL d   1       0.198  -0.167  -1.143  0.00  0.00    -0.070 Cl
ATOM      8 Cl1  UNL d   1      -1.034  -0.096   1.869  0.00  0.00    -0.070 Cl
ENDROOT
TORSDOF 0
ENDMDL
