MODEL 1
REMARK minimizedAffinity -3.91120577
REMARK minimizedRMSD -1
REMARK  0 active torsions:
REMARK  status: ('A' for Active; 'I' for Inactive)
ROOT
ATOM      1  C   UNL d   1       0.289  -0.797   0.393  0.00  0.00     0.020 A 
ATOM      2  C1  UNL d   1       1.058  -0.435  -0.711  0.00  0.00     0.020 A 
ATOM      3  C2  UNL d   1       0.848   0.797  -1.334  0.00  0.00     0.034 A 
ATOM      4  C3  UNL d   1      -0.133   1.671  -0.853  0.00  0.00     0.017 A 
ATOM      5  C4  UNL d   1      -0.905   1.306   0.256  0.00  0.00     0.017 A 
ATOM      6  C5  UNL d   1      -0.691   0.071   0.876  0.00  0.00     0.034 A 
ATOM      7 Cl   UNL d   1      -2.135   2.331   0.907  0.00  0.00    -0.070 Cl
ATOM      8 Cl1  UNL d   1      -0.339   3.179  -1.672  0.00  0.00    -0.070 Cl
ENDROOT
TORSDOF 0
ENDMDL
