MODEL 1
REMARK minimizedAffinity -4.36014652
REMARK minimizedRMSD -1
REMARK  0 active torsions:
REMARK  status: ('A' for Active; 'I' for Inactive)
ROOT
ATOM      1  C   UNL d   1       0.762  -0.576   0.144  0.00  0.00     0.020 A 
ATOM      2  C1  UNL d   1       0.172  -0.549   1.407  0.00  0.00     0.020 A 
ATOM      3  C2  UNL d   1      -0.723   0.471   1.738  0.00  0.00     0.034 A 
ATOM      4  C3  UNL d   1      -1.030   1.468   0.804  0.00  0.00     0.017 A 
ATOM      5  C4  UNL d   1      -0.437   1.439  -0.463  0.00  0.00     0.017 A 
ATOM      6  C5  UNL d   1       0.458   0.416  -0.789  0.00  0.00     0.034 A 
ATOM      7 Cl   UNL d   1      -0.767   2.634  -1.668  0.00  0.00    -0.070 Cl
ATOM      8 Cl1  UNL d   1      -2.145   2.699   1.281  0.00  0.00    -0.070 Cl
ENDROOT
TORSDOF 0
ENDMDL
