MODEL 1
REMARK minimizedAffinity -1.19405031
REMARK minimizedRMSD -1
REMARK  0 active torsions:
REMARK  status: ('A' for Active; 'I' for Inactive)
ROOT
ATOM      1  C   UNL d   1       1.375  -3.320  -1.960  0.00  0.00     0.020 A 
ATOM      2  C1  UNL d   1       1.060  -2.515  -3.054  0.00  0.00     0.020 A 
ATOM      3  C2  UNL d   1       0.690  -1.183  -2.857  0.00  0.00     0.034 A 
ATOM      4  C3  UNL d   1       0.634  -0.652  -1.563  0.00  0.00     0.017 A 
ATOM      5  C4  UNL d   1       0.951  -1.461  -0.466  0.00  0.00     0.017 A 
ATOM      6  C5  UNL d   1       1.321  -2.794  -0.669  0.00  0.00     0.034 A 
ATOM      7 Cl   UNL d   1       0.905  -0.876   1.160  0.00  0.00    -0.070 Cl
ATOM      8 Cl1  UNL d   1       0.168   1.003  -1.393  0.00  0.00    -0.070 Cl
ENDROOT
TORSDOF 0
ENDMDL
