MODEL 1
REMARK minimizedAffinity -3.43969178
REMARK minimizedRMSD -1
REMARK  0 active torsions:
REMARK  status: ('A' for Active; 'I' for Inactive)
ROOT
ATOM      1  C   UNL d   1       0.056  -1.267   1.288  0.00  0.00     0.020 A 
ATOM      2  C1  UNL d   1       0.818  -1.130   0.128  0.00  0.00     0.020 A 
ATOM      3  C2  UNL d   1       0.701   0.023  -0.652  0.00  0.00     0.034 A 
ATOM      4  C3  UNL d   1      -0.180   1.043  -0.273  0.00  0.00     0.017 A 
ATOM      5  C4  UNL d   1      -0.944   0.904   0.891  0.00  0.00     0.017 A 
ATOM      6  C5  UNL d   1      -0.823  -0.252   1.669  0.00  0.00     0.034 A 
ATOM      7 Cl   UNL d   1      -2.052   2.119   1.423  0.00  0.00    -0.070 Cl
ATOM      8 Cl1  UNL d   1      -0.274   2.440  -1.285  0.00  0.00    -0.070 Cl
ENDROOT
TORSDOF 0
ENDMDL
