MODEL 1
REMARK minimizedAffinity -5.13329983
REMARK minimizedRMSD -1
REMARK  0 active torsions:
REMARK  status: ('A' for Active; 'I' for Inactive)
ROOT
ATOM      1  C   UNL d   1      -1.235   2.147  -0.155  0.00  0.00     0.020 A 
ATOM      2  C1  UNL d   1      -1.557   2.089   1.200  0.00  0.00     0.020 A 
ATOM      3  C2  UNL d   1      -1.113   1.017   1.978  0.00  0.00     0.034 A 
ATOM      4  C3  UNL d   1      -0.346  -0.001   1.401  0.00  0.00     0.017 A 
ATOM      5  C4  UNL d   1      -0.023   0.058   0.040  0.00  0.00     0.017 A 
ATOM      6  C5  UNL d   1      -0.470   1.134  -0.734  0.00  0.00     0.034 A 
ATOM      7 Cl   UNL d   1       0.920  -1.160  -0.743  0.00  0.00    -0.070 Cl
ATOM      8 Cl1  UNL d   1       0.169  -1.297   2.422  0.00  0.00    -0.070 Cl
ENDROOT
TORSDOF 0
ENDMDL
