MODEL 1
REMARK minimizedAffinity 0.279458135
REMARK minimizedRMSD -1
REMARK  0 active torsions:
REMARK  status: ('A' for Active; 'I' for Inactive)
ROOT
ATOM      1  C   UNL d   1      -1.240  -0.132   1.965  0.00  0.00     0.020 A 
ATOM      2  C1  UNL d   1      -1.709   1.166   1.762  0.00  0.00     0.020 A 
ATOM      3  C2  UNL d   1      -1.319   1.880   0.627  0.00  0.00     0.034 A 
ATOM      4  C3  UNL d   1      -0.457   1.297  -0.309  0.00  0.00     0.017 A 
ATOM      5  C4  UNL d   1       0.013  -0.005  -0.105  0.00  0.00     0.017 A 
ATOM      6  C5  UNL d   1      -0.381  -0.716   1.033  0.00  0.00     0.034 A 
ATOM      7 Cl   UNL d   1       1.079  -0.791  -1.215  0.00  0.00    -0.070 Cl
ATOM      8 Cl1  UNL d   1      -0.015   2.238  -1.689  0.00  0.00    -0.070 Cl
ENDROOT
TORSDOF 0
ENDMDL
