MODEL 1
REMARK minimizedAffinity -1.49322593
REMARK minimizedRMSD -1
REMARK  0 active torsions:
REMARK  status: ('A' for Active; 'I' for Inactive)
ROOT
ATOM      1  C   UNL d   1       1.534   0.238  -1.437  0.00  0.00     0.020 A 
ATOM      2  C1  UNL d   1       1.119   1.554  -1.638  0.00  0.00     0.020 A 
ATOM      3  C2  UNL d   1       0.260   2.163  -0.720  0.00  0.00     0.034 A 
ATOM      4  C3  UNL d   1      -0.187   1.456   0.402  0.00  0.00     0.017 A 
ATOM      5  C4  UNL d   1       0.230   0.135   0.603  0.00  0.00     0.017 A 
ATOM      6  C5  UNL d   1       1.091  -0.470  -0.319  0.00  0.00     0.034 A 
ATOM      7 Cl   UNL d   1      -0.278  -0.801   1.964  0.00  0.00    -0.070 Cl
ATOM      8 Cl1  UNL d   1      -1.248   2.271   1.495  0.00  0.00    -0.070 Cl
ENDROOT
TORSDOF 0
ENDMDL
