MODEL 1
REMARK minimizedAffinity -4.13637257
REMARK minimizedRMSD -1
REMARK  0 active torsions:
REMARK  status: ('A' for Active; 'I' for Inactive)
ROOT
ATOM      1  C   UNL d   1      -1.398   3.535   0.678  0.00  0.00     0.020 A 
ATOM      2  C1  UNL d   1      -1.734   2.475   1.519  0.00  0.00     0.020 A 
ATOM      3  C2  UNL d   1      -1.190   1.208   1.296  0.00  0.00     0.034 A 
ATOM      4  C3  UNL d   1      -0.308   0.998   0.230  0.00  0.00     0.017 A 
ATOM      5  C4  UNL d   1       0.028   2.063  -0.613  0.00  0.00     0.017 A 
ATOM      6  C5  UNL d   1      -0.519   3.329  -0.386  0.00  0.00     0.034 A 
ATOM      7 Cl   UNL d   1       1.110   1.881  -1.949  0.00  0.00    -0.070 Cl
ATOM      8 Cl1  UNL d   1       0.327  -0.594   0.014  0.00  0.00    -0.070 Cl
ENDROOT
TORSDOF 0
ENDMDL
