MODEL 1
REMARK minimizedAffinity -5.47894192
REMARK minimizedRMSD -1
REMARK  0 active torsions:
REMARK  status: ('A' for Active; 'I' for Inactive)
ROOT
ATOM      1  C   UNL d   1       0.123  -0.476   1.403  0.00  0.00     0.020 A 
ATOM      2  C1  UNL d   1       0.921  -0.458   0.261  0.00  0.00     0.020 A 
ATOM      3  C2  UNL d   1       0.857   0.624  -0.619  0.00  0.00     0.034 A 
ATOM      4  C3  UNL d   1      -0.008   1.693  -0.358  0.00  0.00     0.017 A 
ATOM      5  C4  UNL d   1      -0.809   1.674   0.790  0.00  0.00     0.017 A 
ATOM      6  C5  UNL d   1      -0.741   0.588   1.667  0.00  0.00     0.034 A 
ATOM      7 Cl   UNL d   1      -1.901   2.956   1.179  0.00  0.00    -0.070 Cl
ATOM      8 Cl1  UNL d   1      -0.037   2.999  -1.489  0.00  0.00    -0.070 Cl
ENDROOT
TORSDOF 0
ENDMDL
