MODEL 1
REMARK minimizedAffinity -3.50180554
REMARK minimizedRMSD -1
REMARK  0 active torsions:
REMARK  status: ('A' for Active; 'I' for Inactive)
ROOT
ATOM      1  C   UNL d   1       1.224  -0.153  -1.190  0.00  0.00     0.020 A 
ATOM      2  C1  UNL d   1       0.646   1.081  -1.483  0.00  0.00     0.020 A 
ATOM      3  C2  UNL d   1      -0.243   1.668  -0.580  0.00  0.00     0.034 A 
ATOM      4  C3  UNL d   1      -0.555   1.022   0.621  0.00  0.00     0.017 A 
ATOM      5  C4  UNL d   1       0.026  -0.217   0.915  0.00  0.00     0.017 A 
ATOM      6  C5  UNL d   1       0.915  -0.801   0.007  0.00  0.00     0.034 A 
ATOM      7 Cl   UNL d   1      -0.311  -1.075   2.377  0.00  0.00    -0.070 Cl
ATOM      8 Cl1  UNL d   1      -1.661   1.806   1.692  0.00  0.00    -0.070 Cl
ENDROOT
TORSDOF 0
ENDMDL
