MODEL 1
REMARK minimizedAffinity -5.42365408
REMARK minimizedRMSD -1
REMARK  0 active torsions:
REMARK  status: ('A' for Active; 'I' for Inactive)
ROOT
ATOM      1  C   UNL d   1      -0.751   3.024  -0.235  0.00  0.00     0.020 A 
ATOM      2  C1  UNL d   1      -1.555   2.780   0.878  0.00  0.00     0.020 A 
ATOM      3  C2  UNL d   1      -1.590   1.506   1.449  0.00  0.00     0.034 A 
ATOM      4  C3  UNL d   1      -0.820   0.471   0.907  0.00  0.00     0.017 A 
ATOM      5  C4  UNL d   1      -0.014   0.716  -0.210  0.00  0.00     0.017 A 
ATOM      6  C5  UNL d   1       0.018   1.994  -0.778  0.00  0.00     0.034 A 
ATOM      7 Cl   UNL d   1       0.964  -0.511  -0.935  0.00  0.00    -0.070 Cl
ATOM      8 Cl1  UNL d   1      -0.912  -1.080   1.664  0.00  0.00    -0.070 Cl
ENDROOT
TORSDOF 0
ENDMDL
