MODEL 1
REMARK minimizedAffinity -4.48219872
REMARK minimizedRMSD -1
REMARK  0 active torsions:
REMARK  status: ('A' for Active; 'I' for Inactive)
ROOT
ATOM      1  C   UNL d   1       1.083   0.207  -0.841  0.00  0.00     0.020 A 
ATOM      2  C1  UNL d   1       0.484  -0.605   0.121  0.00  0.00     0.020 A 
ATOM      3  C2  UNL d   1      -0.303  -0.036   1.125  0.00  0.00     0.034 A 
ATOM      4  C3  UNL d   1      -0.493   1.350   1.169  0.00  0.00     0.017 A 
ATOM      5  C4  UNL d   1       0.109   2.165   0.203  0.00  0.00     0.017 A 
ATOM      6  C5  UNL d   1       0.896   1.590  -0.799  0.00  0.00     0.034 A 
ATOM      7 Cl   UNL d   1      -0.079   3.883   0.193  0.00  0.00    -0.070 Cl
ATOM      8 Cl1  UNL d   1      -1.478   1.986   2.438  0.00  0.00    -0.070 Cl
ENDROOT
TORSDOF 0
ENDMDL
