MODEL 1
REMARK minimizedAffinity -3.73826718
REMARK minimizedRMSD -1
REMARK  0 active torsions:
REMARK  status: ('A' for Active; 'I' for Inactive)
ROOT
ATOM      1  C   UNL d   1      -2.136   1.599   1.550  0.00  0.00     0.020 A 
ATOM      2  C1  UNL d   1      -2.053   1.657   0.159  0.00  0.00     0.020 A 
ATOM      3  C2  UNL d   1      -1.028   0.984  -0.508  0.00  0.00     0.034 A 
ATOM      4  C3  UNL d   1      -0.080   0.251   0.214  0.00  0.00     0.017 A 
ATOM      5  C4  UNL d   1      -0.163   0.193   1.610  0.00  0.00     0.017 A 
ATOM      6  C5  UNL d   1      -1.192   0.868   2.274  0.00  0.00     0.034 A 
ATOM      7 Cl   UNL d   1       0.969  -0.692   2.571  0.00  0.00    -0.070 Cl
ATOM      8 Cl1  UNL d   1       1.161  -0.557  -0.676  0.00  0.00    -0.070 Cl
ENDROOT
TORSDOF 0
ENDMDL
