MODEL 1
REMARK minimizedAffinity -4.38821125
REMARK minimizedRMSD -1
REMARK  0 active torsions:
REMARK  status: ('A' for Active; 'I' for Inactive)
ROOT
ATOM      1  C   UNL d   1      -1.914   2.168   1.479  0.00  0.00     0.020 A 
ATOM      2  C1  UNL d   1      -1.467   0.893   1.825  0.00  0.00     0.020 A 
ATOM      3  C2  UNL d   1      -0.480   0.268   1.060  0.00  0.00     0.034 A 
ATOM      4  C3  UNL d   1       0.062   0.917  -0.055  0.00  0.00     0.017 A 
ATOM      5  C4  UNL d   1      -0.387   2.196  -0.402  0.00  0.00     0.017 A 
ATOM      6  C5  UNL d   1      -1.376   2.818   0.368  0.00  0.00     0.034 A 
ATOM      7 Cl   UNL d   1       0.234   3.060  -1.763  0.00  0.00    -0.070 Cl
ATOM      8 Cl1  UNL d   1       1.280   0.085  -0.956  0.00  0.00    -0.070 Cl
ENDROOT
TORSDOF 0
ENDMDL
