MODEL 1
REMARK minimizedAffinity -3.40972686
REMARK minimizedRMSD -1
REMARK  0 active torsions:
REMARK  status: ('A' for Active; 'I' for Inactive)
ROOT
ATOM      1  C   UNL d   1      -1.172   3.335   0.098  0.00  0.00     0.020 A 
ATOM      2  C1  UNL d   1      -0.249   2.973  -0.882  0.00  0.00     0.020 A 
ATOM      3  C2  UNL d   1       0.316   1.696  -0.872  0.00  0.00     0.034 A 
ATOM      4  C3  UNL d   1      -0.042   0.776   0.121  0.00  0.00     0.017 A 
ATOM      5  C4  UNL d   1      -0.969   1.141   1.104  0.00  0.00     0.017 A 
ATOM      6  C5  UNL d   1      -1.531   2.421   1.089  0.00  0.00     0.034 A 
ATOM      7 Cl   UNL d   1      -1.460   0.060   2.361  0.00  0.00    -0.070 Cl
ATOM      8 Cl1  UNL d   1       0.695  -0.786   0.072  0.00  0.00    -0.070 Cl
ENDROOT
TORSDOF 0
ENDMDL
