MODEL 1
REMARK minimizedAffinity -4.73340368
REMARK minimizedRMSD -1
REMARK  0 active torsions:
REMARK  status: ('A' for Active; 'I' for Inactive)
ROOT
ATOM      1  C   UNL d   1      -1.992   1.494   1.341  0.00  0.00     0.020 A 
ATOM      2  C1  UNL d   1      -1.574   2.759   0.931  0.00  0.00     0.020 A 
ATOM      3  C2  UNL d   1      -0.571   2.885  -0.032  0.00  0.00     0.034 A 
ATOM      4  C3  UNL d   1       0.018   1.743  -0.588  0.00  0.00     0.017 A 
ATOM      5  C4  UNL d   1      -0.402   0.474  -0.175  0.00  0.00     0.017 A 
ATOM      6  C5  UNL d   1      -1.407   0.354   0.789  0.00  0.00     0.034 A 
ATOM      7 Cl   UNL d   1       0.277  -0.981  -0.816  0.00  0.00    -0.070 Cl
ATOM      8 Cl1  UNL d   1       1.253   1.973  -1.774  0.00  0.00    -0.070 Cl
ENDROOT
TORSDOF 0
ENDMDL
