MODEL 1
REMARK minimizedAffinity 0.00984341744
REMARK minimizedRMSD -1
REMARK  1 active torsions:
REMARK  status: ('A' for Active; 'I' for Inactive)
REMARK    1  A    between atoms: N_2  and  C1_3 
ROOT
ATOM      1  C1  UNL d   1       3.675  -4.336  -4.965  0.00  0.00     0.143 A 
ATOM      2  C2  UNL d   1       4.616  -4.279  -5.999  0.00  0.00    -0.057 A 
ATOM      3  C3  UNL d   1       5.761  -5.085  -5.984  0.00  0.00     0.033 A 
ATOM      4  C4  UNL d   1       6.000  -5.944  -4.917  0.00  0.00    -0.042 A 
ATOM      5  C5  UNL d   1       5.091  -6.000  -3.867  0.00  0.00     0.033 A 
ATOM      6  C6  UNL d   1       3.946  -5.197  -3.891  0.00  0.00    -0.057 A 
ENDROOT
BRANCH   1   7
ATOM      7  N   UNL d   1       2.567  -3.489  -4.874  0.00  0.00    -0.732 N 
ATOM      8  C   UNL d   1       2.462  -2.527  -3.799  0.00  0.00     0.284 C 
ATOM      9  H3  UNL d   1       2.275  -3.133  -5.781  0.00  0.00     0.395 HD
ENDBRANCH   1   7
TORSDOF 1
ENDMDL
