MODEL 1
REMARK minimizedAffinity -0.602059364
REMARK minimizedRMSD -1
REMARK  1 active torsions:
REMARK  status: ('A' for Active; 'I' for Inactive)
REMARK    1  A    between atoms: N_2  and  C1_3 
ROOT
ATOM      1  C1  UNL d   1      -2.145   4.467  -5.998  0.00  0.00     0.143 A 
ATOM      2  C2  UNL d   1      -1.600   5.755  -5.971  0.00  0.00    -0.057 A 
ATOM      3  C3  UNL d   1      -0.214   5.957  -5.986  0.00  0.00     0.033 A 
ATOM      4  C4  UNL d   1       0.653   4.870  -5.998  0.00  0.00    -0.042 A 
ATOM      5  C5  UNL d   1       0.134   3.581  -5.999  0.00  0.00     0.033 A 
ATOM      6  C6  UNL d   1      -1.251   3.385  -5.991  0.00  0.00    -0.057 A 
ENDROOT
BRANCH   1   7
ATOM      7  N   UNL d   1      -3.512   4.199  -5.885  0.00  0.00    -0.732 N 
ATOM      8  C   UNL d   1      -4.004   3.297  -4.867  0.00  0.00     0.284 C 
ATOM      9  H3  UNL d   1      -4.083   5.030  -6.016  0.00  0.00     0.395 HD
ENDBRANCH   1   7
TORSDOF 1
ENDMDL
