MODEL 1
REMARK minimizedAffinity -3.12167454
REMARK minimizedRMSD -1
REMARK  1 active torsions:
REMARK  status: ('A' for Active; 'I' for Inactive)
REMARK    1  A    between atoms: N_2  and  C1_3 
ROOT
ATOM      1  C1  UNL d   1      -1.290   4.810  -5.983  0.00  0.00     0.143 A 
ATOM      2  C2  UNL d   1       0.044   5.231  -5.977  0.00  0.00    -0.057 A 
ATOM      3  C3  UNL d   1       1.096   4.308  -6.000  0.00  0.00     0.033 A 
ATOM      4  C4  UNL d   1       0.832   2.942  -5.999  0.00  0.00    -0.042 A 
ATOM      5  C5  UNL d   1      -0.487   2.501  -5.980  0.00  0.00     0.033 A 
ATOM      6  C6  UNL d   1      -1.533   3.428  -5.964  0.00  0.00    -0.057 A 
ENDROOT
BRANCH   1   7
ATOM      7  N   UNL d   1      -2.380   5.677  -5.861  0.00  0.00    -0.732 N 
ATOM      8  C   UNL d   1      -2.923   5.999  -4.560  0.00  0.00     0.284 C 
ATOM      9  H3  UNL d   1      -2.317   6.471  -6.494  0.00  0.00     0.395 HD
ENDBRANCH   1   7
TORSDOF 1
ENDMDL
