MODEL 1
REMARK minimizedAffinity -1.15007603
REMARK minimizedRMSD -1
REMARK  1 active torsions:
REMARK  status: ('A' for Active; 'I' for Inactive)
REMARK    1  A    between atoms: N_2  and  C1_3 
ROOT
ATOM      1  C1  UNL d   1       3.199   4.861  -5.999  0.00  0.00     0.143 A 
ATOM      2  C2  UNL d   1       3.277   3.465  -5.972  0.00  0.00    -0.057 A 
ATOM      3  C3  UNL d   1       2.122   2.673  -5.985  0.00  0.00     0.033 A 
ATOM      4  C4  UNL d   1       0.864   3.268  -5.996  0.00  0.00    -0.042 A 
ATOM      5  C5  UNL d   1       0.763   4.654  -5.998  0.00  0.00     0.033 A 
ATOM      6  C6  UNL d   1       1.920   5.439  -5.992  0.00  0.00    -0.057 A 
ENDROOT
BRANCH   1   7
ATOM      7  N   UNL d   1       4.308   5.704  -5.888  0.00  0.00    -0.732 N 
ATOM      8  C   UNL d   1       5.534   5.234  -5.279  0.00  0.00     0.284 C 
ATOM      9  H3  UNL d   1       4.449   6.272  -6.721  0.00  0.00     0.395 HD
ENDBRANCH   1   7
TORSDOF 1
ENDMDL
