MODEL 1
REMARK minimizedAffinity -0.491175294
REMARK minimizedRMSD -1
REMARK  1 active torsions:
REMARK  status: ('A' for Active; 'I' for Inactive)
REMARK    1  A    between atoms: N_2  and  C1_3 
ROOT
ATOM      1  C1  UNL d   1      -0.865   3.609  -5.924  0.00  0.00     0.143 A 
ATOM      2  C2  UNL d   1       0.448   3.127  -5.972  0.00  0.00    -0.057 A 
ATOM      3  C3  UNL d   1       1.542   4.001  -5.994  0.00  0.00     0.033 A 
ATOM      4  C4  UNL d   1       1.340   5.377  -5.999  0.00  0.00    -0.042 A 
ATOM      5  C5  UNL d   1       0.044   5.879  -5.978  0.00  0.00     0.033 A 
ATOM      6  C6  UNL d   1      -1.044   5.001  -5.949  0.00  0.00    -0.057 A 
ENDROOT
BRANCH   1   7
ATOM      7  N   UNL d   1      -1.996   2.793  -6.000  0.00  0.00    -0.732 N 
ATOM      8  C   UNL d   1      -3.324   3.369  -5.967  0.00  0.00     0.284 C 
ATOM      9  H3  UNL d   1      -1.887   2.039  -6.674  0.00  0.00     0.395 HD
ENDBRANCH   1   7
TORSDOF 1
ENDMDL
