MODEL 1
REMARK minimizedAffinity 0.302624285
REMARK minimizedRMSD -1
REMARK  1 active torsions:
REMARK  status: ('A' for Active; 'I' for Inactive)
REMARK    1  A    between atoms: N_2  and  C1_3 
ROOT
ATOM      1  C1  UNL d   1      -0.452   3.636  -5.923  0.00  0.00     0.143 A 
ATOM      2  C2  UNL d   1      -0.718   5.009  -5.976  0.00  0.00    -0.057 A 
ATOM      3  C3  UNL d   1      -2.031   5.494  -6.000  0.00  0.00     0.033 A 
ATOM      4  C4  UNL d   1      -3.106   4.610  -5.999  0.00  0.00    -0.042 A 
ATOM      5  C5  UNL d   1      -2.865   3.241  -5.972  0.00  0.00     0.033 A 
ATOM      6  C6  UNL d   1      -1.551   2.763  -5.942  0.00  0.00    -0.057 A 
ENDROOT
BRANCH   1   7
ATOM      7  N   UNL d   1       0.831   3.089  -5.997  0.00  0.00    -0.732 N 
ATOM      8  C   UNL d   1       1.998   3.945  -5.999  0.00  0.00     0.284 C 
ATOM      9  H3  UNL d   1       0.930   2.252  -5.427  0.00  0.00     0.395 HD
ENDBRANCH   1   7
TORSDOF 1
ENDMDL
