MODEL 1
REMARK minimizedAffinity -1.89061809
REMARK minimizedRMSD -1
REMARK  1 active torsions:
REMARK  status: ('A' for Active; 'I' for Inactive)
REMARK    1  A    between atoms: N_2  and  C1_3 
ROOT
ATOM      1  C1  UNL d   1       0.578   4.610  -5.344  0.00  0.00     0.143 A 
ATOM      2  C2  UNL d   1       0.336   4.169  -4.038  0.00  0.00    -0.057 A 
ATOM      3  C3  UNL d   1      -0.882   4.427  -3.398  0.00  0.00     0.033 A 
ATOM      4  C4  UNL d   1      -1.873   5.158  -4.045  0.00  0.00    -0.042 A 
ATOM      5  C5  UNL d   1      -1.645   5.628  -5.333  0.00  0.00     0.033 A 
ATOM      6  C6  UNL d   1      -0.429   5.361  -5.970  0.00  0.00    -0.057 A 
ENDROOT
BRANCH   1   7
ATOM      7  N   UNL d   1       1.804   4.470  -5.998  0.00  0.00    -0.732 N 
ATOM      8  C   UNL d   1       2.498   3.200  -6.000  0.00  0.00     0.284 C 
ATOM      9  H3  UNL d   1       1.826   4.957  -6.891  0.00  0.00     0.395 HD
ENDBRANCH   1   7
TORSDOF 1
ENDMDL
