MODEL 1
REMARK minimizedAffinity 10.0067034
REMARK minimizedRMSD -1
REMARK  1 active torsions:
REMARK  status: ('A' for Active; 'I' for Inactive)
REMARK    1  A    between atoms: N_2  and  C1_3 
ROOT
ATOM      1  C1  UNL d   1      -5.668   3.184  -1.243  0.00  0.00     0.143 A 
ATOM      2  C2  UNL d   1      -5.403   3.795  -0.013  0.00  0.00    -0.057 A 
ATOM      3  C3  UNL d   1      -5.455   5.186   0.133  0.00  0.00     0.033 A 
ATOM      4  C4  UNL d   1      -5.744   5.996  -0.960  0.00  0.00    -0.042 A 
ATOM      5  C5  UNL d   1      -5.986   5.412  -2.199  0.00  0.00     0.033 A 
ATOM      6  C6  UNL d   1      -5.940   4.022  -2.336  0.00  0.00    -0.057 A 
ENDROOT
BRANCH   1   7
ATOM      7  N   UNL d   1      -5.537   1.813  -1.475  0.00  0.00    -0.732 N 
ATOM      8  C   UNL d   1      -4.229   1.215  -1.642  0.00  0.00     0.284 C 
ATOM      9  H3  UNL d   1      -6.177   1.260  -0.910  0.00  0.00     0.395 HD
ENDBRANCH   1   7
TORSDOF 1
ENDMDL
