MODEL 1
REMARK minimizedAffinity 4.43296719
REMARK minimizedRMSD -1
REMARK  1 active torsions:
REMARK  status: ('A' for Active; 'I' for Inactive)
REMARK    1  A    between atoms: N_2  and  C1_3 
ROOT
ATOM      1  C1  UNL d   1       2.156  -1.278  -3.759  0.00  0.00     0.143 A 
ATOM      2  C2  UNL d   1       2.952  -2.279  -3.194  0.00  0.00    -0.057 A 
ATOM      3  C3  UNL d   1       3.137  -2.364  -1.808  0.00  0.00     0.033 A 
ATOM      4  C4  UNL d   1       2.551  -1.427  -0.964  0.00  0.00    -0.042 A 
ATOM      5  C5  UNL d   1       1.775  -0.408  -1.506  0.00  0.00     0.033 A 
ATOM      6  C6  UNL d   1       1.589  -0.333  -2.889  0.00  0.00    -0.057 A 
ENDROOT
BRANCH   1   7
ATOM      7  N   UNL d   1       2.013  -1.081  -5.135  0.00  0.00    -0.732 N 
ATOM      8  C   UNL d   1       2.288   0.210  -5.728  0.00  0.00     0.284 C 
ATOM      9  H3  UNL d   1       2.358  -1.870  -5.678  0.00  0.00     0.395 HD
ENDBRANCH   1   7
TORSDOF 1
ENDMDL
