MODEL 1
REMARK minimizedAffinity 5.92779779
REMARK minimizedRMSD -1
REMARK  1 active torsions:
REMARK  status: ('A' for Active; 'I' for Inactive)
REMARK    1  A    between atoms: N_2  and  C1_3 
ROOT
ATOM      1  C1  UNL d   1      -2.522  -1.901   2.569  0.00  0.00     0.143 A 
ATOM      2  C2  UNL d   1      -2.662  -0.719   1.833  0.00  0.00    -0.057 A 
ATOM      3  C3  UNL d   1      -3.836   0.042   1.898  0.00  0.00     0.033 A 
ATOM      4  C4  UNL d   1      -4.905  -0.383   2.679  0.00  0.00    -0.042 A 
ATOM      5  C5  UNL d   1      -4.798  -1.567   3.400  0.00  0.00     0.033 A 
ATOM      6  C6  UNL d   1      -3.621  -2.319   3.337  0.00  0.00    -0.057 A 
ENDROOT
BRANCH   1   7
ATOM      7  N   UNL d   1      -1.419  -2.752   2.471  0.00  0.00    -0.732 N 
ATOM      8  C   UNL d   1      -0.906  -3.431   3.641  0.00  0.00     0.284 C 
ATOM      9  H3  UNL d   1      -1.448  -3.330   1.634  0.00  0.00     0.395 HD
ENDBRANCH   1   7
TORSDOF 1
ENDMDL
