MODEL 1
REMARK minimizedAffinity 1.63569355
REMARK minimizedRMSD -1
REMARK  1 active torsions:
REMARK  status: ('A' for Active; 'I' for Inactive)
REMARK    1  A    between atoms: N_2  and  C1_3 
ROOT
ATOM      1  C1  UNL d   1      -0.274   1.449   0.324  0.00  0.00     0.143 A 
ATOM      2  C2  UNL d   1       0.067   2.719  -0.152  0.00  0.00    -0.057 A 
ATOM      3  C3  UNL d   1       0.879   2.878  -1.282  0.00  0.00     0.033 A 
ATOM      4  C4  UNL d   1       1.390   1.764  -1.940  0.00  0.00    -0.042 A 
ATOM      5  C5  UNL d   1       1.085   0.492  -1.470  0.00  0.00     0.033 A 
ATOM      6  C6  UNL d   1       0.269   0.340  -0.345  0.00  0.00    -0.057 A 
ENDROOT
BRANCH   1   7
ATOM      7  N   UNL d   1      -0.995   1.226   1.499  0.00  0.00    -0.732 N 
ATOM      8  C   UNL d   1      -2.442   1.276   1.497  0.00  0.00     0.284 C 
ATOM      9  H3  UNL d   1      -0.607   0.468   2.056  0.00  0.00     0.395 HD
ENDBRANCH   1   7
TORSDOF 1
ENDMDL
