MODEL 1
REMARK minimizedAffinity 0.861917317
REMARK minimizedRMSD -1
REMARK  1 active torsions:
REMARK  status: ('A' for Active; 'I' for Inactive)
REMARK    1  A    between atoms: C1_2  and  C2_3 
ROOT
ATOM      1  C2  UNL d   1      -2.674   2.316   0.549  0.00  0.00    -0.081 A 
ATOM      2  C3  UNL d   1      -2.783   3.678   0.244  0.00  0.00     0.006 A 
ATOM      3  C4  UNL d   1      -1.661   4.406  -0.160  0.00  0.00     0.002 A 
ATOM      4  C5  UNL d   1      -0.414   3.783  -0.272  0.00  0.00    -0.080 A 
ATOM      5  C6  UNL d   1       0.792   4.546  -0.733  0.00  0.00     0.076 C 
ATOM      6  C7  UNL d   1      -0.301   2.426   0.049  0.00  0.00     0.002 A 
ATOM      7  C8  UNL d   1      -1.422   1.698   0.453  0.00  0.00     0.006 A 
ENDROOT
BRANCH   1   8
ATOM      8  C1  UNL d   1      -3.894   1.514   0.922  0.00  0.00     0.054 C 
ATOM      9  C   UNL d   1      -4.400   0.696  -0.258  0.00  0.00     0.018 C 
ENDBRANCH   1   8
TORSDOF 1
ENDMDL
