MODEL 1
REMARK minimizedAffinity -1.44371927
REMARK minimizedRMSD -1
REMARK  1 active torsions:
REMARK  status: ('A' for Active; 'I' for Inactive)
REMARK    1  A    between atoms: C1_2  and  C2_3 
ROOT
ATOM      1  C2  UNL d   1       0.020   2.348  -0.748  0.00  0.00    -0.081 A 
ATOM      2  C3  UNL d   1      -0.476   2.005   0.515  0.00  0.00     0.006 A 
ATOM      3  C4  UNL d   1      -1.485   2.765   1.111  0.00  0.00     0.002 A 
ATOM      4  C5  UNL d   1      -2.021   3.876   0.451  0.00  0.00    -0.080 A 
ATOM      5  C6  UNL d   1      -3.125   4.682   1.066  0.00  0.00     0.076 C 
ATOM      6  C7  UNL d   1      -1.514   4.230  -0.804  0.00  0.00     0.002 A 
ATOM      7  C8  UNL d   1      -0.504   3.470  -1.400  0.00  0.00     0.006 A 
ENDROOT
BRANCH   1   8
ATOM      8  C1  UNL d   1       1.062   1.493  -1.421  0.00  0.00     0.054 C 
ATOM      9  C   UNL d   1       1.031   0.065  -0.895  0.00  0.00     0.018 C 
ENDBRANCH   1   8
TORSDOF 1
ENDMDL
