MODEL 1
REMARK minimizedAffinity 6.05153608
REMARK minimizedRMSD -1
REMARK  1 active torsions:
REMARK  status: ('A' for Active; 'I' for Inactive)
REMARK    1  A    between atoms: C1_2  and  C2_3 
ROOT
ATOM      1  C2  UNL d   1       0.926   0.640  -0.267  0.00  0.00    -0.081 A 
ATOM      2  C3  UNL d   1       1.275   0.942  -1.589  0.00  0.00     0.006 A 
ATOM      3  C4  UNL d   1       0.797   2.104  -2.200  0.00  0.00     0.002 A 
ATOM      4  C5  UNL d   1      -0.031   2.985  -1.497  0.00  0.00    -0.080 A 
ATOM      5  C6  UNL d   1      -0.527   4.251  -2.131  0.00  0.00     0.076 C 
ATOM      6  C7  UNL d   1      -0.394   2.675  -0.182  0.00  0.00     0.002 A 
ATOM      7  C8  UNL d   1       0.083   1.513   0.429  0.00  0.00     0.006 A 
ENDROOT
BRANCH   1   8
ATOM      8  C1  UNL d   1       1.493  -0.579   0.416  0.00  0.00     0.054 C 
ATOM      9  C   UNL d   1       2.947  -0.806   0.026  0.00  0.00     0.018 C 
ENDBRANCH   1   8
TORSDOF 1
ENDMDL
