MODEL 1
REMARK minimizedAffinity 2.69445276
REMARK minimizedRMSD -1
REMARK  1 active torsions:
REMARK  status: ('A' for Active; 'I' for Inactive)
REMARK    1  A    between atoms: C1_2  and  C2_3 
ROOT
ATOM      1  C2  UNL d   1      -0.597   2.572   1.145  0.00  0.00    -0.081 A 
ATOM      2  C3  UNL d   1      -0.318   3.944   1.179  0.00  0.00     0.006 A 
ATOM      3  C4  UNL d   1       0.069   4.617   0.018  0.00  0.00     0.002 A 
ATOM      4  C5  UNL d   1       0.177   3.932  -1.197  0.00  0.00    -0.080 A 
ATOM      5  C6  UNL d   1       0.562   4.648  -2.457  0.00  0.00     0.076 C 
ATOM      6  C7  UNL d   1      -0.085   2.558  -1.228  0.00  0.00     0.002 A 
ATOM      7  C8  UNL d   1      -0.472   1.884  -0.067  0.00  0.00     0.006 A 
ENDROOT
BRANCH   1   8
ATOM      8  C1  UNL d   1      -1.078   1.857   2.382  0.00  0.00     0.054 C 
ATOM      9  C   UNL d   1      -0.250   2.240   3.600  0.00  0.00     0.018 C 
ENDBRANCH   1   8
TORSDOF 1
ENDMDL
