MODEL 1
REMARK minimizedAffinity 2.89118934
REMARK minimizedRMSD -1
REMARK  1 active torsions:
REMARK  status: ('A' for Active; 'I' for Inactive)
REMARK    1  A    between atoms: C1_2  and  C2_3 
ROOT
ATOM      1  C2  UNL d   1       2.325  -0.786   0.013  0.00  0.00    -0.081 A 
ATOM      2  C3  UNL d   1       2.028  -2.154  -0.015  0.00  0.00     0.006 A 
ATOM      3  C4  UNL d   1       3.054  -3.101  -0.068  0.00  0.00     0.002 A 
ATOM      4  C5  UNL d   1       4.393  -2.696  -0.086  0.00  0.00    -0.080 A 
ATOM      5  C6  UNL d   1       5.504  -3.703  -0.112  0.00  0.00     0.076 C 
ATOM      6  C7  UNL d   1       4.690  -1.329  -0.075  0.00  0.00     0.002 A 
ATOM      7  C8  UNL d   1       3.664  -0.382  -0.023  0.00  0.00     0.006 A 
ENDROOT
BRANCH   1   8
ATOM      8  C1  UNL d   1       1.223   0.235   0.135  0.00  0.00     0.054 C 
ATOM      9  C   UNL d   1       0.979   0.947  -1.188  0.00  0.00     0.018 C 
ENDBRANCH   1   8
TORSDOF 1
ENDMDL
