MODEL 1
REMARK minimizedAffinity 1.62400305
REMARK minimizedRMSD -1
REMARK  1 active torsions:
REMARK  status: ('A' for Active; 'I' for Inactive)
REMARK    1  A    between atoms: C1_2  and  C2_3 
ROOT
ATOM      1  C2  UNL d   1       0.263   1.472  -1.436  0.00  0.00    -0.081 A 
ATOM      2  C3  UNL d   1      -0.591   1.328  -0.336  0.00  0.00     0.006 A 
ATOM      3  C4  UNL d   1      -1.119   2.452   0.304  0.00  0.00     0.002 A 
ATOM      4  C5  UNL d   1      -0.807   3.738  -0.151  0.00  0.00    -0.080 A 
ATOM      5  C6  UNL d   1      -1.391   4.953   0.508  0.00  0.00     0.076 C 
ATOM      6  C7  UNL d   1       0.060   3.883  -1.238  0.00  0.00     0.002 A 
ATOM      7  C8  UNL d   1       0.589   2.759  -1.878  0.00  0.00     0.006 A 
ENDROOT
BRANCH   1   8
ATOM      8  C1  UNL d   1       0.782   0.261  -2.167  0.00  0.00     0.054 C 
ATOM      9  C   UNL d   1      -0.347  -0.502  -2.844  0.00  0.00     0.018 C 
ENDBRANCH   1   8
TORSDOF 1
ENDMDL
