MODEL 1
REMARK minimizedAffinity 0.872035086
REMARK minimizedRMSD -1
REMARK  1 active torsions:
REMARK  status: ('A' for Active; 'I' for Inactive)
REMARK    1  A    between atoms: C1_2  and  C2_3 
ROOT
ATOM      1  C2  UNL d   1      -0.936   2.134   1.275  0.00  0.00    -0.081 A 
ATOM      2  C3  UNL d   1       0.091   1.184   1.303  0.00  0.00     0.006 A 
ATOM      3  C4  UNL d   1      -0.083  -0.028   1.977  0.00  0.00     0.002 A 
ATOM      4  C5  UNL d   1      -1.290  -0.312   2.626  0.00  0.00    -0.080 A 
ATOM      5  C6  UNL d   1      -1.501  -1.621   3.327  0.00  0.00     0.076 C 
ATOM      6  C7  UNL d   1      -2.310   0.646   2.612  0.00  0.00     0.002 A 
ATOM      7  C8  UNL d   1      -2.136   1.857   1.940  0.00  0.00     0.006 A 
ENDROOT
BRANCH   1   8
ATOM      8  C1  UNL d   1      -0.775   3.414   0.495  0.00  0.00     0.054 C 
ATOM      9  C   UNL d   1      -0.024   3.177  -0.808  0.00  0.00     0.018 C 
ENDBRANCH   1   8
TORSDOF 1
ENDMDL
