MODEL 1
REMARK minimizedAffinity 10.1596737
REMARK minimizedRMSD -1
REMARK  1 active torsions:
REMARK  status: ('A' for Active; 'I' for Inactive)
REMARK    1  A    between atoms: C1_2  and  C2_3 
ROOT
ATOM      1  C2  UNL d   1       0.247   0.812  -2.134  0.00  0.00    -0.081 A 
ATOM      2  C3  UNL d   1      -0.337   0.910  -0.865  0.00  0.00     0.006 A 
ATOM      3  C4  UNL d   1      -0.382   2.136  -0.198  0.00  0.00     0.002 A 
ATOM      4  C5  UNL d   1       0.149   3.287  -0.792  0.00  0.00    -0.080 A 
ATOM      5  C6  UNL d   1       0.080   4.615  -0.100  0.00  0.00     0.076 C 
ATOM      6  C7  UNL d   1       0.748   3.186  -2.052  0.00  0.00     0.002 A 
ATOM      7  C8  UNL d   1       0.794   1.960  -2.719  0.00  0.00     0.006 A 
ENDROOT
BRANCH   1   8
ATOM      8  C1  UNL d   1       0.240  -0.496  -2.883  0.00  0.00     0.054 C 
ATOM      9  C   UNL d   1      -1.178  -1.017  -3.072  0.00  0.00     0.018 C 
ENDBRANCH   1   8
TORSDOF 1
ENDMDL
