MODEL 1
REMARK minimizedAffinity 8.95867634
REMARK minimizedRMSD -1
REMARK  1 active torsions:
REMARK  status: ('A' for Active; 'I' for Inactive)
REMARK    1  A    between atoms: C1_2  and  C2_3 
ROOT
ATOM      1  C2  UNL d   1      -0.796   2.148   1.327  0.00  0.00    -0.081 A 
ATOM      2  C3  UNL d   1       0.243   1.480   1.987  0.00  0.00     0.006 A 
ATOM      3  C4  UNL d   1       0.010   0.252   2.611  0.00  0.00     0.002 A 
ATOM      4  C5  UNL d   1      -1.261  -0.332   2.578  0.00  0.00    -0.080 A 
ATOM      5  C6  UNL d   1      -1.516  -1.664   3.218  0.00  0.00     0.076 C 
ATOM      6  C7  UNL d   1      -2.302   0.344   1.933  0.00  0.00     0.002 A 
ATOM      7  C8  UNL d   1      -2.071   1.572   1.310  0.00  0.00     0.006 A 
ENDROOT
BRANCH   1   8
ATOM      8  C1  UNL d   1      -0.533   3.441   0.598  0.00  0.00     0.054 C 
ATOM      9  C   UNL d   1      -0.236   3.195  -0.875  0.00  0.00     0.018 C 
ENDBRANCH   1   8
TORSDOF 1
ENDMDL
