MODEL 1
REMARK minimizedAffinity -4.51719379
REMARK minimizedRMSD -1
REMARK  0 active torsions:
REMARK  status: ('A' for Active; 'I' for Inactive)
ROOT
ATOM      1  C2' OXE d   1       1.866   0.899   0.852  0.00  0.00     0.078 C 
ATOM      2  C1' OXE d   1       0.032  -0.058  -1.045  0.00  0.00     0.078 C 
ATOM      3  C1  OXE d   1      -0.412   0.001   0.395  0.00  0.00    -0.078 A 
ATOM      4  C2  OXE d   1       0.508   0.427   1.323  0.00  0.00    -0.078 A 
ATOM      5  C3  OXE d   1       0.133   0.552   2.658  0.00  0.00     0.003 A 
ATOM      6  C4  OXE d   1      -1.122   0.103   3.087  0.00  0.00    -0.002 A 
ATOM      7  C5  OXE d   1      -2.060  -0.371   2.163  0.00  0.00    -0.002 A 
ATOM      8  C6  OXE d   1      -1.736  -0.389   0.811  0.00  0.00     0.003 A 
ENDROOT
TORSDOF 0
ENDMDL
