MODEL 1
REMARK minimizedAffinity -6.42384291
REMARK minimizedRMSD -1
REMARK  0 active torsions:
REMARK  status: ('A' for Active; 'I' for Inactive)
ROOT
ATOM      1  C2' OXE d   1       1.612   0.099   1.043  0.00  0.00     0.078 C 
ATOM      2  C1' OXE d   1      -0.583   0.054  -0.707  0.00  0.00     0.078 C 
ATOM      3  C1  OXE d   1      -0.861  -0.024   0.773  0.00  0.00    -0.078 A 
ATOM      4  C2  OXE d   1       0.221  -0.049   1.620  0.00  0.00    -0.078 A 
ATOM      5  C3  OXE d   1       0.018  -0.065   2.997  0.00  0.00     0.003 A 
ATOM      6  C4  OXE d   1      -1.271  -0.212   3.522  0.00  0.00    -0.002 A 
ATOM      7  C5  OXE d   1      -2.385  -0.229   2.676  0.00  0.00    -0.002 A 
ATOM      8  C6  OXE d   1      -2.200  -0.094   1.304  0.00  0.00     0.003 A 
ENDROOT
TORSDOF 0
ENDMDL
