MODEL 1
REMARK minimizedAffinity -6.09403372
REMARK minimizedRMSD -1
REMARK  0 active torsions:
REMARK  status: ('A' for Active; 'I' for Inactive)
ROOT
ATOM      1  C2' OXE d   1       0.130   0.002   3.576  0.00  0.00     0.078 C 
ATOM      2  C1' OXE d   1       1.500   0.005   1.125  0.00  0.00     0.078 C 
ATOM      3  C1  OXE d   1      -0.007   0.065   1.089  0.00  0.00    -0.078 A 
ATOM      4  C2  OXE d   1      -0.671   0.015   2.291  0.00  0.00    -0.078 A 
ATOM      5  C3  OXE d   1      -2.058   0.122   2.317  0.00  0.00     0.003 A 
ATOM      6  C4  OXE d   1      -2.792   0.124   1.124  0.00  0.00    -0.002 A 
ATOM      7  C5  OXE d   1      -2.137   0.135  -0.112  0.00  0.00    -0.002 A 
ATOM      8  C6  OXE d   1      -0.747   0.148  -0.146  0.00  0.00     0.003 A 
ENDROOT
TORSDOF 0
ENDMDL
