MODEL 1
REMARK minimizedAffinity -2.29445267
REMARK minimizedRMSD -1
REMARK  0 active torsions:
REMARK  status: ('A' for Active; 'I' for Inactive)
ROOT
ATOM      1  C2' OXE d   1      -0.414  -0.542   2.780  0.00  0.00     0.078 C 
ATOM      2  C1' OXE d   1       2.134   0.284   1.937  0.00  0.00     0.078 C 
ATOM      3  C1  OXE d   1       1.071   0.095   0.883  0.00  0.00    -0.078 A 
ATOM      4  C2  OXE d   1      -0.159  -0.354   1.300  0.00  0.00    -0.078 A 
ATOM      5  C3  OXE d   1      -1.191  -0.493   0.376  0.00  0.00     0.003 A 
ATOM      6  C4  OXE d   1      -0.944  -0.327  -0.993  0.00  0.00    -0.002 A 
ATOM      7  C5  OXE d   1       0.312   0.092  -1.442  0.00  0.00    -0.002 A 
ATOM      8  C6  OXE d   1       1.317   0.348  -0.515  0.00  0.00     0.003 A 
ENDROOT
TORSDOF 0
ENDMDL
