MODEL 1
REMARK minimizedAffinity -5.99015045
REMARK minimizedRMSD -1
REMARK  0 active torsions:
REMARK  status: ('A' for Active; 'I' for Inactive)
ROOT
ATOM      1  C2' OXE d   1      -2.802   0.128   0.594  0.00  0.00     0.078 C 
ATOM      2  C1' OXE d   1      -1.490  -0.323   3.034  0.00  0.00     0.078 C 
ATOM      3  C1  OXE d   1      -0.640  -0.146   1.801  0.00  0.00    -0.078 A 
ATOM      4  C2  OXE d   1      -1.292   0.027   0.603  0.00  0.00    -0.078 A 
ATOM      5  C3  OXE d   1      -0.556   0.250  -0.557  0.00  0.00     0.003 A 
ATOM      6  C4  OXE d   1       0.841   0.145  -0.541  0.00  0.00    -0.002 A 
ATOM      7  C5  OXE d   1       1.523  -0.071   0.661  0.00  0.00    -0.002 A 
ATOM      8  C6  OXE d   1       0.801  -0.176   1.845  0.00  0.00     0.003 A 
ENDROOT
TORSDOF 0
ENDMDL
