MODEL 1
REMARK minimizedAffinity -6.26654911
REMARK minimizedRMSD -1
REMARK  0 active torsions:
REMARK  status: ('A' for Active; 'I' for Inactive)
ROOT
ATOM      1  C2' OXE d   1       0.028   0.153  -0.782  0.00  0.00     0.078 C 
ATOM      2  C1' OXE d   1      -2.677   0.381  -0.065  0.00  0.00     0.078 C 
ATOM      3  C1  OXE d   1      -1.682   0.075   1.027  0.00  0.00    -0.078 A 
ATOM      4  C2  OXE d   1      -0.368  -0.081   0.660  0.00  0.00    -0.078 A 
ATOM      5  C3  OXE d   1       0.598  -0.309   1.636  0.00  0.00     0.003 A 
ATOM      6  C4  OXE d   1       0.223  -0.534   2.966  0.00  0.00    -0.002 A 
ATOM      7  C5  OXE d   1      -1.116  -0.419   3.355  0.00  0.00    -0.002 A 
ATOM      8  C6  OXE d   1      -2.073  -0.074   2.407  0.00  0.00     0.003 A 
ENDROOT
TORSDOF 0
ENDMDL
