MODEL 1
REMARK minimizedAffinity -1.21979165
REMARK minimizedRMSD -1
REMARK  0 active torsions:
REMARK  status: ('A' for Active; 'I' for Inactive)
ROOT
ATOM      1  C2' OXE d   1       1.099   0.894   0.180  0.00  0.00     0.078 C 
ATOM      2  C1' OXE d   1      -1.472  -0.155  -0.233  0.00  0.00     0.078 C 
ATOM      3  C1  OXE d   1      -0.406  -0.486  -1.247  0.00  0.00    -0.078 A 
ATOM      4  C2  OXE d   1       0.837   0.070  -1.062  0.00  0.00    -0.078 A 
ATOM      5  C3  OXE d   1       1.871  -0.247  -1.939  0.00  0.00     0.003 A 
ATOM      6  C4  OXE d   1       1.618  -1.002  -3.090  0.00  0.00    -0.002 A 
ATOM      7  C5  OXE d   1       0.349  -1.545  -3.319  0.00  0.00    -0.002 A 
ATOM      8  C6  OXE d   1      -0.661  -1.332  -2.387  0.00  0.00     0.003 A 
ENDROOT
TORSDOF 0
ENDMDL
