MODEL 1
REMARK minimizedAffinity -4.69916534
REMARK minimizedRMSD -1
REMARK  0 active torsions:
REMARK  status: ('A' for Active; 'I' for Inactive)
ROOT
ATOM      1  C2' OXE d   1      -0.501   0.391  -1.181  0.00  0.00     0.078 C 
ATOM      2  C1' OXE d   1      -2.857  -0.124   0.256  0.00  0.00     0.078 C 
ATOM      3  C1  OXE d   1      -1.545  -0.255   0.987  0.00  0.00    -0.078 A 
ATOM      4  C2  OXE d   1      -0.395  -0.047   0.264  0.00  0.00    -0.078 A 
ATOM      5  C3  OXE d   1       0.841  -0.102   0.903  0.00  0.00     0.003 A 
ATOM      6  C4  OXE d   1       0.931  -0.517   2.237  0.00  0.00    -0.002 A 
ATOM      7  C5  OXE d   1      -0.226  -0.773   2.981  0.00  0.00    -0.002 A 
ATOM      8  C6  OXE d   1      -1.471  -0.606   2.384  0.00  0.00     0.003 A 
ENDROOT
TORSDOF 0
ENDMDL
