MODEL 1
REMARK minimizedAffinity -5.74757528
REMARK minimizedRMSD -1
REMARK  0 active torsions:
REMARK  status: ('A' for Active; 'I' for Inactive)
ROOT
ATOM      1  C2' OXE d   1       1.275   0.290   0.864  0.00  0.00     0.078 C 
ATOM      2  C1' OXE d   1      -0.894   0.517  -0.904  0.00  0.00     0.078 C 
ATOM      3  C1  OXE d   1      -1.189   0.146   0.528  0.00  0.00    -0.078 A 
ATOM      4  C2  OXE d   1      -0.119  -0.008   1.375  0.00  0.00    -0.078 A 
ATOM      5  C3  OXE d   1      -0.339  -0.296   2.719  0.00  0.00     0.003 A 
ATOM      6  C4  OXE d   1      -1.630  -0.579   3.181  0.00  0.00    -0.002 A 
ATOM      7  C5  OXE d   1      -2.731  -0.466   2.325  0.00  0.00    -0.002 A 
ATOM      8  C6  OXE d   1      -2.532  -0.064   1.009  0.00  0.00     0.003 A 
ENDROOT
TORSDOF 0
ENDMDL
