MODEL 1
REMARK minimizedAffinity 0.886218965
REMARK minimizedRMSD -1
REMARK  0 active torsions:
REMARK  status: ('A' for Active; 'I' for Inactive)
ROOT
ATOM      1  C2' OXE d   1      -1.669   0.331   0.297  0.00  0.00     0.078 C 
ATOM      2  C1' OXE d   1       0.920   0.003   1.330  0.00  0.00     0.078 C 
ATOM      3  C1  OXE d   1       0.757   0.010  -0.169  0.00  0.00    -0.078 A 
ATOM      4  C2  OXE d   1      -0.519   0.124  -0.666  0.00  0.00    -0.078 A 
ATOM      5  C3  OXE d   1      -0.720   0.191  -2.041  0.00  0.00     0.003 A 
ATOM      6  C4  OXE d   1       0.347  -0.012  -2.924  0.00  0.00    -0.002 A 
ATOM      7  C5  OXE d   1       1.650  -0.169  -2.439  0.00  0.00    -0.002 A 
ATOM      8  C6  OXE d   1       1.877  -0.119  -1.068  0.00  0.00     0.003 A 
ENDROOT
TORSDOF 0
ENDMDL
