MODEL 1
REMARK minimizedAffinity -0.623616338
REMARK minimizedRMSD -1
REMARK  0 active torsions:
REMARK  status: ('A' for Active; 'I' for Inactive)
ROOT
ATOM      1  C2' OXE d   1       0.361  -0.015  -1.509  0.00  0.00     0.078 C 
ATOM      2  C1' OXE d   1      -1.791   0.603   0.185  0.00  0.00     0.078 C 
ATOM      3  C1  OXE d   1      -0.448   0.343   0.820  0.00  0.00    -0.078 A 
ATOM      4  C2  OXE d   1       0.589  -0.005  -0.013  0.00  0.00    -0.078 A 
ATOM      5  C3  OXE d   1       1.861  -0.202   0.516  0.00  0.00     0.003 A 
ATOM      6  C4  OXE d   1       2.061  -0.200   1.902  0.00  0.00    -0.002 A 
ATOM      7  C5  OXE d   1       1.010   0.113   2.770  0.00  0.00    -0.002 A 
ATOM      8  C6  OXE d   1      -0.238   0.427   2.244  0.00  0.00     0.003 A 
ENDROOT
TORSDOF 0
ENDMDL
