MODEL 1
REMARK minimizedAffinity -5.75687361
REMARK minimizedRMSD -1
REMARK  0 active torsions:
REMARK  status: ('A' for Active; 'I' for Inactive)
ROOT
ATOM      1  C2' OXE d   1       2.094   0.714   0.765  0.00  0.00     0.078 C 
ATOM      2  C1' OXE d   1       0.069   0.094  -1.077  0.00  0.00     0.078 C 
ATOM      3  C1  OXE d   1      -0.239  -0.075   0.390  0.00  0.00    -0.078 A 
ATOM      4  C2  OXE d   1       0.773   0.186   1.282  0.00  0.00    -0.078 A 
ATOM      5  C3  OXE d   1       0.526   0.099   2.650  0.00  0.00     0.003 A 
ATOM      6  C4  OXE d   1      -0.695  -0.399   3.119  0.00  0.00    -0.002 A 
ATOM      7  C5  OXE d   1      -1.726  -0.709   2.226  0.00  0.00    -0.002 A 
ATOM      8  C6  OXE d   1      -1.529  -0.513   0.863  0.00  0.00     0.003 A 
ENDROOT
TORSDOF 0
ENDMDL
