MODEL 1
REMARK minimizedAffinity -3.6176455
REMARK minimizedRMSD -1
REMARK  0 active torsions:
REMARK  status: ('A' for Active; 'I' for Inactive)
ROOT
ATOM      1  C2' OXE d   1       0.666   0.467  -0.107  0.00  0.00     0.078 C 
ATOM      2  C1' OXE d   1      -1.413   1.254  -1.821  0.00  0.00     0.078 C 
ATOM      3  C1  OXE d   1      -0.503   0.143  -2.283  0.00  0.00    -0.078 A 
ATOM      4  C2  OXE d   1       0.540  -0.204  -1.458  0.00  0.00    -0.078 A 
ATOM      5  C3  OXE d   1       1.376  -1.259  -1.811  0.00  0.00     0.003 A 
ATOM      6  C4  OXE d   1       1.259  -1.867  -3.066  0.00  0.00    -0.002 A 
ATOM      7  C5  OXE d   1       0.228  -1.502  -3.938  0.00  0.00    -0.002 A 
ATOM      8  C6  OXE d   1      -0.686  -0.530  -3.545  0.00  0.00     0.003 A 
ENDROOT
TORSDOF 0
ENDMDL
