MODEL 1
REMARK minimizedAffinity -5.01788378
REMARK minimizedRMSD -1
REMARK  0 active torsions:
REMARK  status: ('A' for Active; 'I' for Inactive)
ROOT
ATOM      1  C2' OXE d   1      -3.427   0.445   0.893  0.00  0.00     0.078 C 
ATOM      2  C1' OXE d   1      -0.907   0.705  -0.315  0.00  0.00     0.078 C 
ATOM      3  C1  OXE d   1      -0.955   0.241   1.119  0.00  0.00    -0.078 A 
ATOM      4  C2  OXE d   1      -2.190   0.162   1.717  0.00  0.00    -0.078 A 
ATOM      5  C3  OXE d   1      -2.295  -0.312   3.021  0.00  0.00     0.003 A 
ATOM      6  C4  OXE d   1      -1.145  -0.562   3.780  0.00  0.00    -0.002 A 
ATOM      7  C5  OXE d   1       0.125  -0.449   3.202  0.00  0.00    -0.002 A 
ATOM      8  C6  OXE d   1       0.235  -0.090   1.863  0.00  0.00     0.003 A 
ENDROOT
TORSDOF 0
ENDMDL
