MODEL 1
REMARK minimizedAffinity -5.35573816
REMARK minimizedRMSD -1
REMARK  0 active torsions:
REMARK  status: ('A' for Active; 'I' for Inactive)
ROOT
ATOM      1  C2' OXE d   1       1.630   0.053   1.134  0.00  0.00     0.078 C 
ATOM      2  C1' OXE d   1      -0.261  -0.077  -0.937  0.00  0.00     0.078 C 
ATOM      3  C1  OXE d   1      -0.772  -0.060   0.482  0.00  0.00    -0.078 A 
ATOM      4  C2  OXE d   1       0.162  -0.044   1.490  0.00  0.00    -0.078 A 
ATOM      5  C3  OXE d   1      -0.255   0.027   2.816  0.00  0.00     0.003 A 
ATOM      6  C4  OXE d   1      -1.614  -0.073   3.137  0.00  0.00    -0.002 A 
ATOM      7  C5  OXE d   1      -2.580  -0.131   2.127  0.00  0.00    -0.002 A 
ATOM      8  C6  OXE d   1      -2.179  -0.082   0.797  0.00  0.00     0.003 A 
ENDROOT
TORSDOF 0
ENDMDL
