MODEL 1
REMARK minimizedAffinity -3.44918704
REMARK minimizedRMSD -1
REMARK  0 active torsions:
REMARK  status: ('A' for Active; 'I' for Inactive)
ROOT
ATOM      1  C2' OXE d   1      -3.480   0.343   1.508  0.00  0.00     0.078 C 
ATOM      2  C1' OXE d   1      -1.167  -0.462   2.880  0.00  0.00     0.078 C 
ATOM      3  C1  OXE d   1      -1.013   0.000   1.453  0.00  0.00    -0.078 A 
ATOM      4  C2  OXE d   1      -2.157   0.348   0.774  0.00  0.00    -0.078 A 
ATOM      5  C3  OXE d   1      -2.065   0.834  -0.527  0.00  0.00     0.003 A 
ATOM      6  C4  OXE d   1      -0.838   0.826  -1.202  0.00  0.00    -0.002 A 
ATOM      7  C5  OXE d   1       0.333   0.438  -0.542  0.00  0.00    -0.002 A 
ATOM      8  C6  OXE d   1       0.269   0.064   0.796  0.00  0.00     0.003 A 
ENDROOT
TORSDOF 0
ENDMDL
