MODEL 1
REMARK minimizedAffinity -6.38127899
REMARK minimizedRMSD -1
REMARK  0 active torsions:
REMARK  status: ('A' for Active; 'I' for Inactive)
ROOT
ATOM      1  C2' OXE d   1      -0.012   0.240  -0.995  0.00  0.00     0.078 C 
ATOM      2  C1' OXE d   1       1.597  -0.102   1.279  0.00  0.00     0.078 C 
ATOM      3  C1  OXE d   1       0.101  -0.095   1.471  0.00  0.00    -0.078 A 
ATOM      4  C2  OXE d   1      -0.677   0.119   0.359  0.00  0.00    -0.078 A 
ATOM      5  C3  OXE d   1      -2.064   0.080   0.471  0.00  0.00     0.003 A 
ATOM      6  C4  OXE d   1      -2.671  -0.022   1.728  0.00  0.00    -0.002 A 
ATOM      7  C5  OXE d   1      -1.896  -0.201   2.879  0.00  0.00    -0.002 A 
ATOM      8  C6  OXE d   1      -0.513  -0.283   2.762  0.00  0.00     0.003 A 
ENDROOT
TORSDOF 0
ENDMDL
