MODEL 1
REMARK minimizedAffinity -6.52334166
REMARK minimizedRMSD -1
REMARK  0 active torsions:
REMARK  status: ('A' for Active; 'I' for Inactive)
ROOT
ATOM      1  C   UNL d   1      -0.055   0.634   3.433  0.00  0.00     0.020 A 
ATOM      2  C1  UNL d   1       1.179   0.084   3.088  0.00  0.00     0.020 A 
ATOM      3  C2  UNL d   1       1.399  -0.379   1.789  0.00  0.00     0.034 A 
ATOM      4  C3  UNL d   1       0.383  -0.294   0.830  0.00  0.00     0.017 A 
ATOM      5  C4  UNL d   1      -0.855   0.258   1.177  0.00  0.00     0.017 A 
ATOM      6  C5  UNL d   1      -1.070   0.721   2.479  0.00  0.00     0.034 A 
ATOM      7 Cl   UNL d   1      -2.157   0.397   0.048  0.00  0.00    -0.070 Cl
ATOM      8 Cl1  UNL d   1       0.725  -0.886  -0.757  0.00  0.00    -0.070 Cl
ENDROOT
TORSDOF 0
ENDMDL
