MODEL 1
REMARK minimizedAffinity -4.54957342
REMARK minimizedRMSD -1
REMARK  0 active torsions:
REMARK  status: ('A' for Active; 'I' for Inactive)
ROOT
ATOM      1  C   UNL d   1      -0.610   0.755   3.249  0.00  0.00     0.020 A 
ATOM      2  C1  UNL d   1       0.760   0.844   3.006  0.00  0.00     0.020 A 
ATOM      3  C2  UNL d   1       1.266   0.545   1.739  0.00  0.00     0.034 A 
ATOM      4  C3  UNL d   1       0.401   0.155   0.710  0.00  0.00     0.017 A 
ATOM      5  C4  UNL d   1      -0.975   0.065   0.955  0.00  0.00     0.017 A 
ATOM      6  C5  UNL d   1      -1.475   0.366   2.226  0.00  0.00     0.034 A 
ATOM      7 Cl   UNL d   1      -2.104  -0.409  -0.264  0.00  0.00    -0.070 Cl
ATOM      8 Cl1  UNL d   1       1.094  -0.200  -0.832  0.00  0.00    -0.070 Cl
ENDROOT
TORSDOF 0
ENDMDL
