MODEL 1
REMARK minimizedAffinity -4.38306665
REMARK minimizedRMSD -1
REMARK  0 active torsions:
REMARK  status: ('A' for Active; 'I' for Inactive)
ROOT
ATOM      1  C   UNL d   1      -1.198  -0.310  -0.659  0.00  0.00     0.020 A 
ATOM      2  C1  UNL d   1       0.065  -0.828  -0.945  0.00  0.00     0.020 A 
ATOM      3  C2  UNL d   1       1.105  -0.682  -0.024  0.00  0.00     0.034 A 
ATOM      4  C3  UNL d   1       0.884  -0.018   1.187  0.00  0.00     0.017 A 
ATOM      5  C4  UNL d   1      -0.384   0.502   1.474  0.00  0.00     0.017 A 
ATOM      6  C5  UNL d   1      -1.421   0.353   0.549  0.00  0.00     0.034 A 
ATOM      7 Cl   UNL d   1      -0.732   1.334   2.948  0.00  0.00    -0.070 Cl
ATOM      8 Cl1  UNL d   1       2.215   0.125   2.279  0.00  0.00    -0.070 Cl
ENDROOT
TORSDOF 0
ENDMDL
