MODEL 1
REMARK minimizedAffinity -5.10435724
REMARK minimizedRMSD -1
REMARK  0 active torsions:
REMARK  status: ('A' for Active; 'I' for Inactive)
ROOT
ATOM      1  C   UNL d   1      -1.397   1.155   2.416  0.00  0.00     0.020 A 
ATOM      2  C1  UNL d   1      -0.621   0.952   3.556  0.00  0.00     0.020 A 
ATOM      3  C2  UNL d   1       0.665   0.422   3.439  0.00  0.00     0.034 A 
ATOM      4  C3  UNL d   1       1.180   0.093   2.180  0.00  0.00     0.017 A 
ATOM      5  C4  UNL d   1       0.400   0.297   1.036  0.00  0.00     0.017 A 
ATOM      6  C5  UNL d   1      -0.888   0.829   1.158  0.00  0.00     0.034 A 
ATOM      7 Cl   UNL d   1       0.966  -0.084  -0.552  0.00  0.00    -0.070 Cl
ATOM      8 Cl1  UNL d   1       2.779  -0.558   2.110  0.00  0.00    -0.070 Cl
ENDROOT
TORSDOF 0
ENDMDL
