MODEL 1
REMARK minimizedAffinity -4.71873379
REMARK minimizedRMSD -1
REMARK  0 active torsions:
REMARK  status: ('A' for Active; 'I' for Inactive)
ROOT
ATOM      1  C   UNL d   1      -1.058   0.877   2.662  0.00  0.00     0.020 A 
ATOM      2  C1  UNL d   1       0.186   1.287   2.184  0.00  0.00     0.020 A 
ATOM      3  C2  UNL d   1       0.619   0.877   0.921  0.00  0.00     0.034 A 
ATOM      4  C3  UNL d   1      -0.192   0.054   0.132  0.00  0.00     0.017 A 
ATOM      5  C4  UNL d   1      -1.441  -0.357   0.613  0.00  0.00     0.017 A 
ATOM      6  C5  UNL d   1      -1.870   0.057   1.878  0.00  0.00     0.034 A 
ATOM      7 Cl   UNL d   1      -2.498  -1.372  -0.303  0.00  0.00    -0.070 Cl
ATOM      8 Cl1  UNL d   1       0.406  -0.415  -1.419  0.00  0.00    -0.070 Cl
ENDROOT
TORSDOF 0
ENDMDL
