MODEL 1
REMARK minimizedAffinity -5.2496748
REMARK minimizedRMSD -1
REMARK  0 active torsions:
REMARK  status: ('A' for Active; 'I' for Inactive)
ROOT
ATOM      1  C   UNL d   1       0.610   0.753   2.422  0.00  0.00     0.020 A 
ATOM      2  C1  UNL d   1      -0.755   0.958   2.625  0.00  0.00     0.020 A 
ATOM      3  C2  UNL d   1      -1.683   0.393   1.749  0.00  0.00     0.034 A 
ATOM      4  C3  UNL d   1      -1.250  -0.379   0.665  0.00  0.00     0.017 A 
ATOM      5  C4  UNL d   1       0.120  -0.584   0.462  0.00  0.00     0.017 A 
ATOM      6  C5  UNL d   1       1.046  -0.016   1.343  0.00  0.00     0.034 A 
ATOM      7 Cl   UNL d   1       0.731  -1.525  -0.853  0.00  0.00    -0.070 Cl
ATOM      8 Cl1  UNL d   1      -2.454  -1.047  -0.379  0.00  0.00    -0.070 Cl
ENDROOT
TORSDOF 0
ENDMDL
