MODEL 1
REMARK minimizedAffinity -1.11877096
REMARK minimizedRMSD -1
REMARK  0 active torsions:
REMARK  status: ('A' for Active; 'I' for Inactive)
ROOT
ATOM      1  C   UNL d   1      -0.917   1.172   2.957  0.00  0.00     0.020 A 
ATOM      2  C1  UNL d   1       0.151   1.933   2.485  0.00  0.00     0.020 A 
ATOM      3  C2  UNL d   1       0.608   1.761   1.177  0.00  0.00     0.034 A 
ATOM      4  C3  UNL d   1      -0.003   0.824   0.336  0.00  0.00     0.017 A 
ATOM      5  C4  UNL d   1      -1.076   0.060   0.810  0.00  0.00     0.017 A 
ATOM      6  C5  UNL d   1      -1.529   0.237   2.121  0.00  0.00     0.034 A 
ATOM      7 Cl   UNL d   1      -1.881  -1.115  -0.169  0.00  0.00    -0.070 Cl
ATOM      8 Cl1  UNL d   1       0.614   0.664  -1.270  0.00  0.00    -0.070 Cl
ENDROOT
TORSDOF 0
ENDMDL
