MODEL 1
REMARK minimizedAffinity -4.64534044
REMARK minimizedRMSD -1
REMARK  0 active torsions:
REMARK  status: ('A' for Active; 'I' for Inactive)
ROOT
ATOM      1  C   UNL d   1       0.937   0.536   2.362  0.00  0.00     0.020 A 
ATOM      2  C1  UNL d   1      -0.355   0.697   2.860  0.00  0.00     0.020 A 
ATOM      3  C2  UNL d   1      -1.456   0.448   2.037  0.00  0.00     0.034 A 
ATOM      4  C3  UNL d   1      -1.267   0.037   0.713  0.00  0.00     0.017 A 
ATOM      5  C4  UNL d   1       0.031  -0.125   0.215  0.00  0.00     0.017 A 
ATOM      6  C5  UNL d   1       1.130   0.125   1.042  0.00  0.00     0.034 A 
ATOM      7 Cl   UNL d   1       0.344  -0.630  -1.408  0.00  0.00    -0.070 Cl
ATOM      8 Cl1  UNL d   1      -2.674  -0.254  -0.247  0.00  0.00    -0.070 Cl
ENDROOT
TORSDOF 0
ENDMDL
