MODEL 1
REMARK minimizedAffinity -5.43169403
REMARK minimizedRMSD -1
REMARK  0 active torsions:
REMARK  status: ('A' for Active; 'I' for Inactive)
ROOT
ATOM      1  C   UNL d   1       0.059  -1.404  -0.785  0.00  0.00     0.020 A 
ATOM      2  C1  UNL d   1      -1.254  -1.011  -0.527  0.00  0.00     0.020 A 
ATOM      3  C2  UNL d   1      -1.536  -0.196   0.571  0.00  0.00     0.034 A 
ATOM      4  C3  UNL d   1      -0.504   0.228   1.416  0.00  0.00     0.017 A 
ATOM      5  C4  UNL d   1       0.813  -0.167   1.157  0.00  0.00     0.017 A 
ATOM      6  C5  UNL d   1       1.090  -0.983   0.056  0.00  0.00     0.034 A 
ATOM      7 Cl   UNL d   1       2.139   0.317   2.155  0.00  0.00    -0.070 Cl
ATOM      8 Cl1  UNL d   1      -0.926   1.235   2.755  0.00  0.00    -0.070 Cl
ENDROOT
TORSDOF 0
ENDMDL
