MODEL 1
REMARK minimizedAffinity 0.289927751
REMARK minimizedRMSD -1
REMARK  0 active torsions:
REMARK  status: ('A' for Active; 'I' for Inactive)
ROOT
ATOM      1  C   UNL d   1      -2.702  -0.048   0.356  0.00  0.00     0.020 A 
ATOM      2  C1  UNL d   1      -1.739  -0.919  -0.152  0.00  0.00     0.020 A 
ATOM      3  C2  UNL d   1      -0.476  -0.986   0.440  0.00  0.00     0.034 A 
ATOM      4  C3  UNL d   1      -0.172  -0.180   1.543  0.00  0.00     0.017 A 
ATOM      5  C4  UNL d   1      -1.139   0.695   2.052  0.00  0.00     0.017 A 
ATOM      6  C5  UNL d   1      -2.402   0.757   1.456  0.00  0.00     0.034 A 
ATOM      7 Cl   UNL d   1      -0.837   1.721   3.410  0.00  0.00    -0.070 Cl
ATOM      8 Cl1  UNL d   1       1.410  -0.315   2.225  0.00  0.00    -0.070 Cl
ENDROOT
TORSDOF 0
ENDMDL
