MODEL 1
REMARK minimizedAffinity -0.554898739
REMARK minimizedRMSD -1
REMARK  1 active torsions:
REMARK  status: ('A' for Active; 'I' for Inactive)
REMARK    1  A    between atoms: C1_2  and  C2_3 
ROOT
ATOM      1  C2  UNL d   1      -1.318  -3.022  -2.707  0.00  0.00    -0.076 A 
ATOM      2  C3  UNL d   1      -0.694  -4.278  -2.613  0.00  0.00     0.004 A 
ATOM      3  C4  UNL d   1      -0.002  -4.651  -1.462  0.00  0.00    -0.003 A 
ATOM      4  C5  UNL d   1       0.076  -3.774  -0.386  0.00  0.00     0.000 A 
ATOM      5  C6  UNL d   1      -0.552  -2.531  -0.455  0.00  0.00     0.000 A 
ATOM      6  C7  UNL d   1      -1.267  -2.146  -1.601  0.00  0.00    -0.073 A 
ATOM      7  C8  UNL d   1      -1.920  -0.791  -1.624  0.00  0.00     0.078 C 
ENDROOT
BRANCH   1   8
ATOM      8  C1  UNL d   1      -2.032  -2.662  -3.990  0.00  0.00     0.053 C 
ATOM      9  C   UNL d   1      -1.208  -2.991  -5.226  0.00  0.00     0.018 C 
ENDBRANCH   1   8
TORSDOF 1
ENDMDL
