MODEL 1
REMARK minimizedAffinity 12.2262659
REMARK minimizedRMSD -1
REMARK  1 active torsions:
REMARK  status: ('A' for Active; 'I' for Inactive)
REMARK    1  A    between atoms: C1_2  and  C2_3 
ROOT
ATOM      1  C2  UNL d   1       2.748   3.578  -3.857  0.00  0.00    -0.076 A 
ATOM      2  C3  UNL d   1       2.670   4.834  -3.231  0.00  0.00     0.004 A 
ATOM      3  C4  UNL d   1       2.504   5.999  -3.977  0.00  0.00    -0.003 A 
ATOM      4  C5  UNL d   1       2.412   5.927  -5.363  0.00  0.00     0.000 A 
ATOM      5  C6  UNL d   1       2.470   4.688  -6.000  0.00  0.00     0.000 A 
ATOM      6  C7  UNL d   1       2.621   3.502  -5.261  0.00  0.00    -0.073 A 
ATOM      7  C8  UNL d   1       2.684   2.193  -6.000  0.00  0.00     0.078 C 
ENDROOT
BRANCH   1   8
ATOM      8  C1  UNL d   1       2.957   2.351  -2.998  0.00  0.00     0.053 C 
ATOM      9  C   UNL d   1       2.766   2.639  -1.516  0.00  0.00     0.018 C 
ENDBRANCH   1   8
TORSDOF 1
ENDMDL
