MODEL 1
REMARK minimizedAffinity 10.220746
REMARK minimizedRMSD -1
REMARK  1 active torsions:
REMARK  status: ('A' for Active; 'I' for Inactive)
REMARK    1  A    between atoms: C1_2  and  C2_3 
ROOT
ATOM      1  C2  UNL d   1       2.734   4.767  -3.321  0.00  0.00    -0.076 A 
ATOM      2  C3  UNL d   1       3.617   5.634  -3.987  0.00  0.00     0.004 A 
ATOM      3  C4  UNL d   1       3.398   6.000  -5.314  0.00  0.00    -0.003 A 
ATOM      4  C5  UNL d   1       2.293   5.504  -5.997  0.00  0.00     0.000 A 
ATOM      5  C6  UNL d   1       1.397   4.656  -5.346  0.00  0.00     0.000 A 
ATOM      6  C7  UNL d   1       1.594   4.291  -4.004  0.00  0.00    -0.073 A 
ATOM      7  C8  UNL d   1       0.599   3.369  -3.353  0.00  0.00     0.078 C 
ENDROOT
BRANCH   1   8
ATOM      8  C1  UNL d   1       3.037   4.384  -1.890  0.00  0.00     0.053 C 
ATOM      9  C   UNL d   1       3.791   3.067  -1.786  0.00  0.00     0.018 C 
ENDBRANCH   1   8
TORSDOF 1
ENDMDL
