MODEL 1
REMARK minimizedAffinity 7.15933561
REMARK minimizedRMSD -1
REMARK  1 active torsions:
REMARK  status: ('A' for Active; 'I' for Inactive)
REMARK    1  A    between atoms: C1_2  and  C2_3 
ROOT
ATOM      1  C2  UNL d   1      -0.952  -1.350   1.637  0.00  0.00    -0.076 A 
ATOM      2  C3  UNL d   1      -1.917  -1.895   2.502  0.00  0.00     0.004 A 
ATOM      3  C4  UNL d   1      -1.786  -1.781   3.885  0.00  0.00    -0.003 A 
ATOM      4  C5  UNL d   1      -0.689  -1.121   4.426  0.00  0.00     0.000 A 
ATOM      5  C6  UNL d   1       0.269  -0.559   3.582  0.00  0.00     0.000 A 
ATOM      6  C7  UNL d   1       0.144  -0.651   2.185  0.00  0.00    -0.073 A 
ATOM      7  C8  UNL d   1       1.210  -0.032   1.323  0.00  0.00     0.078 C 
ENDROOT
BRANCH   1   8
ATOM      8  C1  UNL d   1      -1.133  -1.528   0.146  0.00  0.00     0.053 C 
ATOM      9  C   UNL d   1      -2.528  -1.143  -0.321  0.00  0.00     0.018 C 
ENDBRANCH   1   8
TORSDOF 1
ENDMDL
