MODEL 1
REMARK minimizedAffinity 1.78748846
REMARK minimizedRMSD -1
REMARK  1 active torsions:
REMARK  status: ('A' for Active; 'I' for Inactive)
REMARK    1  A    between atoms: C1_2  and  C2_3 
ROOT
ATOM      1  C2  UNL d   1       5.096  -0.347  -4.457  0.00  0.00    -0.076 A 
ATOM      2  C3  UNL d   1       5.185  -1.681  -4.025  0.00  0.00     0.004 A 
ATOM      3  C4  UNL d   1       4.360  -2.667  -4.564  0.00  0.00    -0.003 A 
ATOM      4  C5  UNL d   1       3.431  -2.333  -5.544  0.00  0.00     0.000 A 
ATOM      5  C6  UNL d   1       3.341  -1.018  -5.997  0.00  0.00     0.000 A 
ATOM      6  C7  UNL d   1       4.177  -0.015  -5.476  0.00  0.00    -0.073 A 
ATOM      7  C8  UNL d   1       4.033   1.388  -5.997  0.00  0.00     0.078 C 
ENDROOT
BRANCH   1   8
ATOM      8  C1  UNL d   1       5.999   0.684  -3.817  0.00  0.00     0.053 C 
ATOM      9  C   UNL d   1       5.536   1.079  -2.424  0.00  0.00     0.018 C 
ENDBRANCH   1   8
TORSDOF 1
ENDMDL
