MODEL 1
REMARK minimizedAffinity 7.89209127
REMARK minimizedRMSD -1
REMARK  1 active torsions:
REMARK  status: ('A' for Active; 'I' for Inactive)
REMARK    1  A    between atoms: C1_2  and  C2_3 
ROOT
ATOM      1  C2  UNL d   1       2.415   3.273  -5.229  0.00  0.00    -0.076 A 
ATOM      2  C3  UNL d   1       3.437   3.859  -5.996  0.00  0.00     0.004 A 
ATOM      3  C4  UNL d   1       3.751   5.210  -5.859  0.00  0.00    -0.003 A 
ATOM      4  C5  UNL d   1       3.049   5.997  -4.953  0.00  0.00     0.000 A 
ATOM      5  C6  UNL d   1       2.044   5.428  -4.171  0.00  0.00     0.000 A 
ATOM      6  C7  UNL d   1       1.725   4.064  -4.285  0.00  0.00    -0.073 A 
ATOM      7  C8  UNL d   1       0.628   3.505  -3.422  0.00  0.00     0.078 C 
ENDROOT
BRANCH   1   8
ATOM      8  C1  UNL d   1       2.100   1.809  -5.440  0.00  0.00     0.053 C 
ATOM      9  C   UNL d   1       3.344   0.980  -5.718  0.00  0.00     0.018 C 
ENDBRANCH   1   8
TORSDOF 1
ENDMDL
