MODEL 1
REMARK minimizedAffinity 5.72090292
REMARK minimizedRMSD -1
REMARK  1 active torsions:
REMARK  status: ('A' for Active; 'I' for Inactive)
REMARK    1  A    between atoms: C1_2  and  C2_3 
ROOT
ATOM      1  C2  UNL d   1      -1.649  -2.906  -1.194  0.00  0.00    -0.076 A 
ATOM      2  C3  UNL d   1      -2.796  -2.155  -0.886  0.00  0.00     0.004 A 
ATOM      3  C4  UNL d   1      -3.121  -1.849   0.435  0.00  0.00    -0.003 A 
ATOM      4  C5  UNL d   1      -2.302  -2.289   1.469  0.00  0.00     0.000 A 
ATOM      5  C6  UNL d   1      -1.150  -3.020   1.181  0.00  0.00     0.000 A 
ATOM      6  C7  UNL d   1      -0.800  -3.323  -0.146  0.00  0.00    -0.073 A 
ATOM      7  C8  UNL d   1       0.450  -4.120  -0.399  0.00  0.00     0.078 C 
ENDROOT
BRANCH   1   8
ATOM      8  C1  UNL d   1      -1.362  -3.229  -2.643  0.00  0.00     0.053 C 
ATOM      9  C   UNL d   1      -2.485  -4.021  -3.296  0.00  0.00     0.018 C 
ENDBRANCH   1   8
TORSDOF 1
ENDMDL
