MODEL 1
REMARK minimizedAffinity 4.87309361
REMARK minimizedRMSD -1
REMARK  1 active torsions:
REMARK  status: ('A' for Active; 'I' for Inactive)
REMARK    1  A    between atoms: C1_2  and  C2_3 
ROOT
ATOM      1  C2  UNL d   1      -3.142  -2.166  -1.561  0.00  0.00    -0.076 A 
ATOM      2  C3  UNL d   1      -2.309  -2.156  -2.693  0.00  0.00     0.004 A 
ATOM      3  C4  UNL d   1      -2.564  -2.991  -3.779  0.00  0.00    -0.003 A 
ATOM      4  C5  UNL d   1      -3.658  -3.849  -3.752  0.00  0.00     0.000 A 
ATOM      5  C6  UNL d   1      -4.506  -3.859  -2.645  0.00  0.00     0.000 A 
ATOM      6  C7  UNL d   1      -4.272  -3.012  -1.548  0.00  0.00    -0.073 A 
ATOM      7  C8  UNL d   1      -5.215  -3.068  -0.378  0.00  0.00     0.078 C 
ENDROOT
BRANCH   1   8
ATOM      8  C1  UNL d   1      -2.800  -1.257  -0.402  0.00  0.00     0.053 C 
ATOM      9  C   UNL d   1      -1.471  -1.615   0.246  0.00  0.00     0.018 C 
ENDBRANCH   1   8
TORSDOF 1
ENDMDL
