MODEL 1
REMARK minimizedAffinity 4.19450569
REMARK minimizedRMSD -1
REMARK  1 active torsions:
REMARK  status: ('A' for Active; 'I' for Inactive)
REMARK    1  A    between atoms: C1_2  and  C2_3 
ROOT
ATOM      1  C2  UNL d   1       1.651   1.958   2.222  0.00  0.00    -0.076 A 
ATOM      2  C3  UNL d   1       2.543   0.893   2.010  0.00  0.00     0.004 A 
ATOM      3  C4  UNL d   1       3.351   0.848   0.875  0.00  0.00    -0.003 A 
ATOM      4  C5  UNL d   1       3.280   1.868  -0.067  0.00  0.00     0.000 A 
ATOM      5  C6  UNL d   1       2.413   2.942   0.135  0.00  0.00     0.000 A 
ATOM      6  C7  UNL d   1       1.604   3.010   1.282  0.00  0.00    -0.073 A 
ATOM      7  C8  UNL d   1       0.683   4.188   1.447  0.00  0.00     0.078 C 
ENDROOT
BRANCH   1   8
ATOM      8  C1  UNL d   1       0.780   1.939   3.458  0.00  0.00     0.053 C 
ATOM      9  C   UNL d   1       0.449   0.527   3.916  0.00  0.00     0.018 C 
ENDBRANCH   1   8
TORSDOF 1
ENDMDL
