MODEL 1
REMARK minimizedAffinity 7.016819
REMARK minimizedRMSD -1
REMARK  1 active torsions:
REMARK  status: ('A' for Active; 'I' for Inactive)
REMARK    1  A    between atoms: C1_2  and  C2_3 
ROOT
ATOM      1  C2  UNL d   1      -1.754  -2.643   0.978  0.00  0.00    -0.076 A 
ATOM      2  C3  UNL d   1      -2.899  -1.904   0.632  0.00  0.00     0.004 A 
ATOM      3  C4  UNL d   1      -3.134  -1.522  -0.687  0.00  0.00    -0.003 A 
ATOM      4  C5  UNL d   1      -2.229  -1.873  -1.683  0.00  0.00     0.000 A 
ATOM      5  C6  UNL d   1      -1.097  -2.621  -1.360  0.00  0.00     0.000 A 
ATOM      6  C7  UNL d   1      -0.853  -3.028  -0.037  0.00  0.00    -0.073 A 
ATOM      7  C8  UNL d   1       0.386  -3.829   0.255  0.00  0.00     0.078 C 
ENDROOT
BRANCH   1   8
ATOM      8  C1  UNL d   1      -1.538  -3.006   2.430  0.00  0.00     0.053 C 
ATOM      9  C   UNL d   1      -2.562  -4.010   2.938  0.00  0.00     0.018 C 
ENDBRANCH   1   8
TORSDOF 1
ENDMDL
