MODEL 1
REMARK minimizedAffinity 8.49041367
REMARK minimizedRMSD -1
REMARK  1 active torsions:
REMARK  status: ('A' for Active; 'I' for Inactive)
REMARK    1  A    between atoms: C1_2  and  C2_3 
ROOT
ATOM      1  C2  UNL d   1       1.431   3.202   1.673  0.00  0.00    -0.076 A 
ATOM      2  C3  UNL d   1       1.802   1.980   2.261  0.00  0.00     0.004 A 
ATOM      3  C4  UNL d   1       0.888   1.234   3.002  0.00  0.00    -0.003 A 
ATOM      4  C5  UNL d   1      -0.413   1.698   3.168  0.00  0.00     0.000 A 
ATOM      5  C6  UNL d   1      -0.803   2.899   2.578  0.00  0.00     0.000 A 
ATOM      6  C7  UNL d   1       0.102   3.656   1.813  0.00  0.00    -0.073 A 
ATOM      7  C8  UNL d   1      -0.371   4.947   1.204  0.00  0.00     0.078 C 
ENDROOT
BRANCH   1   8
ATOM      8  C1  UNL d   1       2.473   3.981   0.902  0.00  0.00     0.053 C 
ATOM      9  C   UNL d   1       3.111   5.082   1.735  0.00  0.00     0.018 C 
ENDBRANCH   1   8
TORSDOF 1
ENDMDL
