MODEL 1
REMARK minimizedAffinity 5.05168676
REMARK minimizedRMSD -1
REMARK  1 active torsions:
REMARK  status: ('A' for Active; 'I' for Inactive)
REMARK    1  A    between atoms: C1_2  and  C2_3 
ROOT
ATOM      1  C2  UNL d   1       1.338   3.828  -0.407  0.00  0.00    -0.076 A 
ATOM      2  C3  UNL d   1       0.474   3.795  -1.516  0.00  0.00     0.004 A 
ATOM      3  C4  UNL d   1      -0.673   4.586  -1.556  0.00  0.00    -0.003 A 
ATOM      4  C5  UNL d   1      -0.975   5.423  -0.487  0.00  0.00     0.000 A 
ATOM      5  C6  UNL d   1      -0.120   5.481   0.613  0.00  0.00     0.000 A 
ATOM      6  C7  UNL d   1       1.049   4.703   0.662  0.00  0.00    -0.073 A 
ATOM      7  C8  UNL d   1       1.932   4.801   1.876  0.00  0.00     0.078 C 
ENDROOT
BRANCH   1   8
ATOM      8  C1  UNL d   1       2.553   2.928  -0.409  0.00  0.00     0.053 C 
ATOM      9  C   UNL d   1       3.736   3.548  -1.135  0.00  0.00     0.018 C 
ENDBRANCH   1   8
TORSDOF 1
ENDMDL
