MODEL 1
REMARK minimizedAffinity 6.14932156
REMARK minimizedRMSD -1
REMARK  0 active torsions:
REMARK  status: ('A' for Active; 'I' for Inactive)
ROOT
ATOM      1  C1  DEN d   1       6.000   5.301   0.455  0.00  0.00     0.130 A 
ATOM      2  C2  DEN d   1       5.973   6.000   1.737  0.00  0.00    -0.031 A 
ATOM      3  C3  DEN d   1       5.023   5.295   2.622  0.00  0.00     0.027 A 
ATOM      4  C4  DEN d   1       3.603   3.198   2.134  0.00  0.00     0.027 A 
ATOM      5  C5  DEN d   1       3.279   2.258   1.181  0.00  0.00    -0.003 A 
ATOM      6  C6  DEN d   1       3.809   2.286  -0.082  0.00  0.00     0.001 A 
ATOM      7  C7  DEN d   1       4.727   3.248  -0.411  0.00  0.00     0.017 A 
ATOM      8  C8  DEN d   1       5.053   4.204   0.542  0.00  0.00    -0.094 A 
ATOM      9  C9  DEN d   1       4.515   4.151   1.817  0.00  0.00    -0.072 A 
ENDROOT
TORSDOF 0
ENDMDL
