MODEL 1
REMARK minimizedAffinity -2.8002212
REMARK minimizedRMSD -1
REMARK  0 active torsions:
REMARK  status: ('A' for Active; 'I' for Inactive)
ROOT
ATOM      1  C1  DEN d   1       0.106   1.270   0.177  0.00  0.00     0.130 A 
ATOM      2  C2  DEN d   1      -1.101   0.507   0.483  0.00  0.00    -0.031 A 
ATOM      3  C3  DEN d   1      -0.834  -0.913   0.178  0.00  0.00     0.027 A 
ATOM      4  C4  DEN d   1       1.322  -1.999  -0.729  0.00  0.00     0.027 A 
ATOM      5  C5  DEN d   1       2.610  -1.755  -1.153  0.00  0.00    -0.003 A 
ATOM      6  C6  DEN d   1       3.138  -0.492  -1.195  0.00  0.00     0.001 A 
ATOM      7  C7  DEN d   1       2.389   0.571  -0.763  0.00  0.00     0.017 A 
ATOM      8  C8  DEN d   1       1.087   0.334  -0.342  0.00  0.00    -0.094 A 
ATOM      9  C9  DEN d   1       0.576  -0.952  -0.296  0.00  0.00    -0.072 A 
ENDROOT
TORSDOF 0
ENDMDL
