MODEL 1
REMARK minimizedAffinity -4.92572021
REMARK minimizedRMSD -1
REMARK  0 active torsions:
REMARK  status: ('A' for Active; 'I' for Inactive)
ROOT
ATOM      1  C1  DEN d   1       1.663   1.290  -0.773  0.00  0.00     0.130 A 
ATOM      2  C2  DEN d   1       3.075   0.954  -0.935  0.00  0.00    -0.031 A 
ATOM      3  C3  DEN d   1       3.218  -0.507  -0.779  0.00  0.00     0.027 A 
ATOM      4  C4  DEN d   1       1.400  -2.274  -0.308  0.00  0.00     0.027 A 
ATOM      5  C5  DEN d   1       0.055  -2.469  -0.080  0.00  0.00    -0.003 A 
ATOM      6  C6  DEN d   1      -0.835  -1.429  -0.033  0.00  0.00     0.001 A 
ATOM      7  C7  DEN d   1      -0.399  -0.151  -0.262  0.00  0.00     0.017 A 
ATOM      8  C8  DEN d   1       0.957   0.054  -0.486  0.00  0.00    -0.094 A 
ATOM      9  C9  DEN d   1       1.839  -1.012  -0.541  0.00  0.00    -0.072 A 
ENDROOT
TORSDOF 0
ENDMDL
