MODEL 1
REMARK minimizedAffinity -3.434798
REMARK minimizedRMSD -1
REMARK  0 active torsions:
REMARK  status: ('A' for Active; 'I' for Inactive)
ROOT
ATOM      1  C1  DEN d   1       0.249  -1.932  -0.706  0.00  0.00     0.130 A 
ATOM      2  C2  DEN d   1       1.475  -2.331  -1.392  0.00  0.00    -0.031 A 
ATOM      3  C3  DEN d   1       2.298  -1.122  -1.597  0.00  0.00     0.027 A 
ATOM      4  C4  DEN d   1       1.798   1.315  -0.917  0.00  0.00     0.027 A 
ATOM      5  C5  DEN d   1       0.877   2.147  -0.320  0.00  0.00    -0.003 A 
ATOM      6  C6  DEN d   1      -0.322   1.688   0.155  0.00  0.00     0.001 A 
ATOM      7  C7  DEN d   1      -0.614   0.351   0.083  0.00  0.00     0.017 A 
ATOM      8  C8  DEN d   1       0.306  -0.493  -0.524  0.00  0.00    -0.094 A 
ATOM      9  C9  DEN d   1       1.519  -0.011  -0.987  0.00  0.00    -0.072 A 
ENDROOT
TORSDOF 0
ENDMDL
