MODEL 1
REMARK minimizedAffinity -5.5532546
REMARK minimizedRMSD -1
REMARK  0 active torsions:
REMARK  status: ('A' for Active; 'I' for Inactive)
ROOT
ATOM      1  C1  DEN d   1      -2.966  -1.889   2.293  0.00  0.00     0.130 A 
ATOM      2  C2  DEN d   1      -3.561  -2.249   3.577  0.00  0.00    -0.031 A 
ATOM      3  C3  DEN d   1      -3.382  -1.109   4.498  0.00  0.00     0.027 A 
ATOM      4  C4  DEN d   1      -2.250   1.168   4.062  0.00  0.00     0.027 A 
ATOM      5  C5  DEN d   1      -1.586   1.930   3.126  0.00  0.00    -0.003 A 
ATOM      6  C6  DEN d   1      -1.308   1.464   1.869  0.00  0.00     0.001 A 
ATOM      7  C7  DEN d   1      -1.735   0.217   1.497  0.00  0.00     0.017 A 
ATOM      8  C8  DEN d   1      -2.398  -0.561   2.437  0.00  0.00    -0.094 A 
ATOM      9  C9  DEN d   1      -2.681  -0.067   3.700  0.00  0.00    -0.072 A 
ENDROOT
TORSDOF 0
ENDMDL
