MODEL 1
REMARK minimizedAffinity -1.05441415
REMARK minimizedRMSD -1
REMARK  0 active torsions:
REMARK  status: ('A' for Active; 'I' for Inactive)
ROOT
ATOM      1  C1  DEN d   1      -0.436  -2.729  -0.040  0.00  0.00     0.130 A 
ATOM      2  C2  DEN d   1      -1.578  -1.903   0.345  0.00  0.00    -0.031 A 
ATOM      3  C3  DEN d   1      -1.156  -0.489   0.293  0.00  0.00     0.027 A 
ATOM      4  C4  DEN d   1       1.139   0.498  -0.347  0.00  0.00     0.027 A 
ATOM      5  C5  DEN d   1       2.424   0.191  -0.736  0.00  0.00    -0.003 A 
ATOM      6  C6  DEN d   1       2.852  -1.101  -0.886  0.00  0.00     0.001 A 
ATOM      7  C7  DEN d   1       1.974  -2.134  -0.690  0.00  0.00     0.017 A 
ATOM      8  C8  DEN d   1       0.679  -1.833  -0.290  0.00  0.00    -0.094 A 
ATOM      9  C9  DEN d   1       0.262  -0.519  -0.155  0.00  0.00    -0.072 A 
ENDROOT
TORSDOF 0
ENDMDL
