MODEL 1
REMARK minimizedAffinity -4.73191023
REMARK minimizedRMSD -1
REMARK  0 active torsions:
REMARK  status: ('A' for Active; 'I' for Inactive)
ROOT
ATOM      1  C1  DEN d   1       0.090  -1.283   0.274  0.00  0.00     0.130 A 
ATOM      2  C2  DEN d   1      -1.014  -0.352   0.491  0.00  0.00    -0.031 A 
ATOM      3  C3  DEN d   1      -0.697   0.906  -0.215  0.00  0.00     0.027 A 
ATOM      4  C4  DEN d   1       1.384   1.498  -1.619  0.00  0.00     0.027 A 
ATOM      5  C5  DEN d   1       2.597   1.034  -2.079  0.00  0.00    -0.003 A 
ATOM      6  C6  DEN d   1       3.071  -0.211  -1.762  0.00  0.00     0.001 A 
ATOM      7  C7  DEN d   1       2.307  -1.054  -0.999  0.00  0.00     0.017 A 
ATOM      8  C8  DEN d   1       1.086  -0.591  -0.525  0.00  0.00    -0.094 A 
ATOM      9  C9  DEN d   1       0.619   0.667  -0.867  0.00  0.00    -0.072 A 
ENDROOT
TORSDOF 0
ENDMDL
