MODEL 1
REMARK minimizedAffinity -5.89981699
REMARK minimizedRMSD -1
REMARK  0 active torsions:
REMARK  status: ('A' for Active; 'I' for Inactive)
ROOT
ATOM      1  C1  DEN d   1       3.027   0.397  -2.331  0.00  0.00     0.130 A 
ATOM      2  C2  DEN d   1       2.539   1.748  -2.596  0.00  0.00    -0.031 A 
ATOM      3  C3  DEN d   1       1.270   1.928  -1.863  0.00  0.00     0.027 A 
ATOM      4  C4  DEN d   1       0.022   0.256  -0.347  0.00  0.00     0.027 A 
ATOM      5  C5  DEN d   1       0.041  -1.020   0.171  0.00  0.00    -0.003 A 
ATOM      6  C6  DEN d   1       1.031  -1.917  -0.132  0.00  0.00     0.001 A 
ATOM      7  C7  DEN d   1       2.067  -1.535  -0.943  0.00  0.00     0.017 A 
ATOM      8  C8  DEN d   1       2.051  -0.253  -1.475  0.00  0.00    -0.094 A 
ATOM      9  C9  DEN d   1       1.048   0.643  -1.146  0.00  0.00    -0.072 A 
ENDROOT
TORSDOF 0
ENDMDL
