MODEL 1
REMARK minimizedAffinity -5.06207657
REMARK minimizedRMSD -1
REMARK  0 active torsions:
REMARK  status: ('A' for Active; 'I' for Inactive)
ROOT
ATOM      1  C1  DEN d   1       1.875   0.860  -1.220  0.00  0.00     0.130 A 
ATOM      2  C2  DEN d   1       2.491  -0.194  -2.022  0.00  0.00    -0.031 A 
ATOM      3  C3  DEN d   1       1.728  -1.439  -1.803  0.00  0.00     0.027 A 
ATOM      4  C4  DEN d   1      -0.339  -1.834  -0.311  0.00  0.00     0.027 A 
ATOM      5  C5  DEN d   1      -1.217  -1.243   0.570  0.00  0.00    -0.003 A 
ATOM      6  C6  DEN d   1      -1.107   0.072   0.939  0.00  0.00     0.001 A 
ATOM      7  C7  DEN d   1      -0.123   0.850   0.390  0.00  0.00     0.017 A 
ATOM      8  C8  DEN d   1       0.771   0.259  -0.493  0.00  0.00    -0.094 A 
ATOM      9  C9  DEN d   1       0.635  -1.068  -0.863  0.00  0.00    -0.072 A 
ENDROOT
TORSDOF 0
ENDMDL
