MODEL 1
REMARK minimizedAffinity -6.26075697
REMARK minimizedRMSD -1
REMARK  0 active torsions:
REMARK  status: ('A' for Active; 'I' for Inactive)
ROOT
ATOM      1  C1  DEN d   1       2.705   0.095  -0.305  0.00  0.00     0.130 A 
ATOM      2  C2  DEN d   1       3.148  -0.980  -1.188  0.00  0.00    -0.031 A 
ATOM      3  C3  DEN d   1       1.980  -1.832  -1.492  0.00  0.00     0.027 A 
ATOM      4  C4  DEN d   1      -0.458  -1.588  -0.687  0.00  0.00     0.027 A 
ATOM      5  C5  DEN d   1      -1.315  -0.837   0.087  0.00  0.00    -0.003 A 
ATOM      6  C6  DEN d   1      -0.889   0.248   0.805  0.00  0.00     0.001 A 
ATOM      7  C7  DEN d   1       0.421   0.641   0.729  0.00  0.00     0.017 A 
ATOM      8  C8  DEN d   1       1.293  -0.116  -0.043  0.00  0.00    -0.094 A 
ATOM      9  C9  DEN d   1       0.840  -1.203  -0.772  0.00  0.00    -0.072 A 
ENDROOT
TORSDOF 0
ENDMDL
