MODEL 1
REMARK minimizedAffinity 3.50433421
REMARK minimizedRMSD -1
REMARK  0 active torsions:
REMARK  status: ('A' for Active; 'I' for Inactive)
ROOT
ATOM      1  C1  DEN d   1       2.244  -1.471  -1.939  0.00  0.00     0.130 A 
ATOM      2  C2  DEN d   1       1.732  -2.533  -1.077  0.00  0.00    -0.031 A 
ATOM      3  C3  DEN d   1       0.626  -1.975  -0.273  0.00  0.00     0.027 A 
ATOM      4  C4  DEN d   1      -0.340   0.417  -0.282  0.00  0.00     0.027 A 
ATOM      5  C5  DEN d   1      -0.224   1.672  -0.837  0.00  0.00    -0.003 A 
ATOM      6  C6  DEN d   1       0.736   1.974  -1.766  0.00  0.00     0.001 A 
ATOM      7  C7  DEN d   1       1.591   0.996  -2.201  0.00  0.00     0.017 A 
ATOM      8  C8  DEN d   1       1.485  -0.270  -1.640  0.00  0.00    -0.094 A 
ATOM      9  C9  DEN d   1       0.500  -0.559  -0.712  0.00  0.00    -0.072 A 
ENDROOT
TORSDOF 0
ENDMDL
