MODEL 1
REMARK minimizedAffinity -5.08782864
REMARK minimizedRMSD -1
REMARK  0 active torsions:
REMARK  status: ('A' for Active; 'I' for Inactive)
ROOT
ATOM      1  C1  DEN d   1       3.093  -0.934  -1.019  0.00  0.00     0.130 A 
ATOM      2  C2  DEN d   1       3.570   0.287  -0.376  0.00  0.00    -0.031 A 
ATOM      3  C3  DEN d   1       2.414   0.951   0.259  0.00  0.00     0.027 A 
ATOM      4  C4  DEN d   1      -0.055   0.208   0.311  0.00  0.00     0.027 A 
ATOM      5  C5  DEN d   1      -0.947  -0.756  -0.106  0.00  0.00    -0.003 A 
ATOM      6  C6  DEN d   1      -0.563  -1.820  -0.878  0.00  0.00     0.001 A 
ATOM      7  C7  DEN d   1       0.755  -1.970  -1.221  0.00  0.00     0.017 A 
ATOM      8  C8  DEN d   1       1.658  -0.998  -0.810  0.00  0.00    -0.094 A 
ATOM      9  C9  DEN d   1       1.253   0.063  -0.019  0.00  0.00    -0.072 A 
ENDROOT
TORSDOF 0
ENDMDL
