MODEL 1
REMARK minimizedAffinity -4.93475771
REMARK minimizedRMSD -1
REMARK  0 active torsions:
REMARK  status: ('A' for Active; 'I' for Inactive)
ROOT
ATOM      1  C1  BNZ d   1      -0.150  -1.152   0.303  0.00  0.00     0.000 A 
ATOM      2  C2  BNZ d   1      -0.727   0.069   0.074  0.00  0.00     0.000 A 
ATOM      3  C3  BNZ d   1      -2.026   0.306   0.426  0.00  0.00     0.000 A 
ATOM      4  C4  BNZ d   1      -2.758  -0.688   0.969  0.00  0.00     0.000 A 
ATOM      5  C5  BNZ d   1      -2.193  -1.927   1.198  0.00  0.00     0.000 A 
ATOM      6  C6  BNZ d   1      -0.874  -2.150   0.878  0.00  0.00     0.000 A 
ENDROOT
TORSDOF 0
ENDMDL
