MODEL 1
REMARK minimizedAffinity -4.51819658
REMARK minimizedRMSD -1
REMARK  0 active torsions:
REMARK  status: ('A' for Active; 'I' for Inactive)
ROOT
ATOM      1  C1  BNZ d   1       0.127  -1.278   0.726  0.00  0.00     0.000 A 
ATOM      2  C2  BNZ d   1      -0.501  -2.257   1.448  0.00  0.00     0.000 A 
ATOM      3  C3  BNZ d   1      -1.790  -2.094   1.875  0.00  0.00     0.000 A 
ATOM      4  C4  BNZ d   1      -2.433  -0.938   1.613  0.00  0.00     0.000 A 
ATOM      5  C5  BNZ d   1      -1.810   0.062   0.894  0.00  0.00     0.000 A 
ATOM      6  C6  BNZ d   1      -0.527  -0.121   0.433  0.00  0.00     0.000 A 
ENDROOT
TORSDOF 0
ENDMDL
