MODEL 1
REMARK minimizedAffinity -1.41686559
REMARK minimizedRMSD -1
REMARK  0 active torsions:
REMARK  status: ('A' for Active; 'I' for Inactive)
ROOT
ATOM      1  C1  BNZ d   1       1.884   2.524  -1.170  0.00  0.00     0.000 A 
ATOM      2  C2  BNZ d   1       1.241   1.879  -0.147  0.00  0.00     0.000 A 
ATOM      3  C3  BNZ d   1       0.429   0.808  -0.396  0.00  0.00     0.000 A 
ATOM      4  C4  BNZ d   1       0.228   0.410  -1.669  0.00  0.00     0.000 A 
ATOM      5  C5  BNZ d   1       0.862   1.056  -2.712  0.00  0.00     0.000 A 
ATOM      6  C6  BNZ d   1       1.709   2.109  -2.454  0.00  0.00     0.000 A 
ENDROOT
TORSDOF 0
ENDMDL
