MODEL 1
REMARK minimizedAffinity -2.93877363
REMARK minimizedRMSD -1
REMARK  0 active torsions:
REMARK  status: ('A' for Active; 'I' for Inactive)
ROOT
ATOM      1  C1  BNZ d   1       0.930  -1.804  -0.008  0.00  0.00     0.000 A 
ATOM      2  C2  BNZ d   1       0.943  -0.849  -0.989  0.00  0.00     0.000 A 
ATOM      3  C3  BNZ d   1       0.312   0.349  -0.807  0.00  0.00     0.000 A 
ATOM      4  C4  BNZ d   1      -0.364   0.576   0.338  0.00  0.00     0.000 A 
ATOM      5  C5  BNZ d   1      -0.393  -0.380   1.333  0.00  0.00     0.000 A 
ATOM      6  C6  BNZ d   1       0.276  -1.571   1.162  0.00  0.00     0.000 A 
ENDROOT
TORSDOF 0
ENDMDL
