MODEL 1
REMARK minimizedAffinity -3.39685869
REMARK minimizedRMSD -1
REMARK  0 active torsions:
REMARK  status: ('A' for Active; 'I' for Inactive)
ROOT
ATOM      1  C1  BNZ d   1       0.054   1.903  -0.492  0.00  0.00     0.000 A 
ATOM      2  C2  BNZ d   1       0.885   0.993  -1.089  0.00  0.00     0.000 A 
ATOM      3  C3  BNZ d   1       0.842  -0.328  -0.741  0.00  0.00     0.000 A 
ATOM      4  C4  BNZ d   1      -0.003  -0.730   0.231  0.00  0.00     0.000 A 
ATOM      5  C5  BNZ d   1      -0.841   0.177   0.848  0.00  0.00     0.000 A 
ATOM      6  C6  BNZ d   1      -0.822   1.499   0.468  0.00  0.00     0.000 A 
ENDROOT
TORSDOF 0
ENDMDL
