MODEL 1
REMARK minimizedAffinity -0.976930559
REMARK minimizedRMSD -1
REMARK  0 active torsions:
REMARK  status: ('A' for Active; 'I' for Inactive)
ROOT
ATOM      1  C1  BNZ d   1       0.649   0.516  -0.117  0.00  0.00     0.000 A 
ATOM      2  C2  BNZ d   1       0.854  -0.831  -0.251  0.00  0.00     0.000 A 
ATOM      3  C3  BNZ d   1      -0.084  -1.728   0.178  0.00  0.00     0.000 A 
ATOM      4  C4  BNZ d   1      -1.206  -1.279   0.776  0.00  0.00     0.000 A 
ATOM      5  C5  BNZ d   1      -1.423   0.076   0.928  0.00  0.00     0.000 A 
ATOM      6  C6  BNZ d   1      -0.494   0.977   0.460  0.00  0.00     0.000 A 
ENDROOT
TORSDOF 0
ENDMDL
