MODEL 1
REMARK minimizedAffinity -0.518390775
REMARK minimizedRMSD -1
REMARK  0 active torsions:
REMARK  status: ('A' for Active; 'I' for Inactive)
ROOT
ATOM      1  C1  BNZ d   1      -0.395  -1.120   1.111  0.00  0.00     0.000 A 
ATOM      2  C2  BNZ d   1      -0.852   0.146   0.859  0.00  0.00     0.000 A 
ATOM      3  C3  BNZ d   1      -0.121   1.016   0.099  0.00  0.00     0.000 A 
ATOM      4  C4  BNZ d   1       1.083   0.633  -0.374  0.00  0.00     0.000 A 
ATOM      5  C5  BNZ d   1       1.562  -0.637  -0.121  0.00  0.00     0.000 A 
ATOM      6  C6  BNZ d   1       0.806  -1.523   0.612  0.00  0.00     0.000 A 
ENDROOT
TORSDOF 0
ENDMDL
