MODEL 1
REMARK minimizedAffinity -4.96413469
REMARK minimizedRMSD -1
REMARK  0 active torsions:
REMARK  status: ('A' for Active; 'I' for Inactive)
ROOT
ATOM      1  C1  BNZ d   1      -2.843  -2.629   1.819  0.00  0.00     0.000 A 
ATOM      2  C2  BNZ d   1      -1.742  -2.887   1.046  0.00  0.00     0.000 A 
ATOM      3  C3  BNZ d   1      -0.976  -1.867   0.556  0.00  0.00     0.000 A 
ATOM      4  C4  BNZ d   1      -1.333  -0.591   0.805  0.00  0.00     0.000 A 
ATOM      5  C5  BNZ d   1      -2.446  -0.314   1.574  0.00  0.00     0.000 A 
ATOM      6  C6  BNZ d   1      -3.192  -1.344   2.099  0.00  0.00     0.000 A 
ENDROOT
TORSDOF 0
ENDMDL
