MODEL 1
REMARK minimizedAffinity -2.34598804
REMARK minimizedRMSD -1
REMARK  0 active torsions:
REMARK  status: ('A' for Active; 'I' for Inactive)
ROOT
ATOM      1  C1  BNZ d   1       1.007  -0.286  -0.317  0.00  0.00     0.000 A 
ATOM      2  C2  BNZ d   1       1.158  -1.519   0.259  0.00  0.00     0.000 A 
ATOM      3  C3  BNZ d   1       0.217  -2.009   1.121  0.00  0.00     0.000 A 
ATOM      4  C4  BNZ d   1      -0.852  -1.250   1.436  0.00  0.00     0.000 A 
ATOM      5  C5  BNZ d   1      -1.014  -0.001   0.871  0.00  0.00     0.000 A 
ATOM      6  C6  BNZ d   1      -0.085   0.473  -0.026  0.00  0.00     0.000 A 
ENDROOT
TORSDOF 0
ENDMDL
