MODEL 1
REMARK minimizedAffinity -5.10659933
REMARK minimizedRMSD -1
REMARK  0 active torsions:
REMARK  status: ('A' for Active; 'I' for Inactive)
ROOT
ATOM      1  C1  BNZ d   1      -0.081   0.283   0.364  0.00  0.00     0.000 A 
ATOM      2  C2  BNZ d   1      -1.360   0.526   0.790  0.00  0.00     0.000 A 
ATOM      3  C3  BNZ d   1      -2.126  -0.477   1.313  0.00  0.00     0.000 A 
ATOM      4  C4  BNZ d   1      -1.629  -1.729   1.374  0.00  0.00     0.000 A 
ATOM      5  C5  BNZ d   1      -0.345  -1.993   0.940  0.00  0.00     0.000 A 
ATOM      6  C6  BNZ d   1       0.438  -0.973   0.450  0.00  0.00     0.000 A 
ENDROOT
TORSDOF 0
ENDMDL
