MODEL 1
REMARK minimizedAffinity -5.46865416
REMARK minimizedRMSD -1
REMARK  0 active torsions:
REMARK  status: ('A' for Active; 'I' for Inactive)
ROOT
ATOM      1  C1  BNZ d   1      -0.741  -1.705   0.381  0.00  0.00     0.000 A 
ATOM      2  C2  BNZ d   1      -1.469  -2.588   1.133  0.00  0.00     0.000 A 
ATOM      3  C3  BNZ d   1      -2.523  -2.160   1.891  0.00  0.00     0.000 A 
ATOM      4  C4  BNZ d   1      -2.822  -0.846   1.927  0.00  0.00     0.000 A 
ATOM      5  C5  BNZ d   1      -2.093   0.059   1.182  0.00  0.00     0.000 A 
ATOM      6  C6  BNZ d   1      -1.057  -0.381   0.390  0.00  0.00     0.000 A 
ENDROOT
TORSDOF 0
ENDMDL
