MODEL 1
REMARK minimizedAffinity -4.25508833
REMARK minimizedRMSD -1
REMARK  0 active torsions:
REMARK  status: ('A' for Active; 'I' for Inactive)
ROOT
ATOM      1  C1  BNZ d   1      -1.416  -0.114   0.473  0.00  0.00     0.000 A 
ATOM      2  C2  BNZ d   1      -2.436   0.218   1.325  0.00  0.00     0.000 A 
ATOM      3  C3  BNZ d   1      -2.966  -0.710   2.176  0.00  0.00     0.000 A 
ATOM      4  C4  BNZ d   1      -2.504  -1.977   2.147  0.00  0.00     0.000 A 
ATOM      5  C5  BNZ d   1      -1.483  -2.329   1.287  0.00  0.00     0.000 A 
ATOM      6  C6  BNZ d   1      -0.925  -1.383   0.459  0.00  0.00     0.000 A 
ENDROOT
TORSDOF 0
ENDMDL
