MODEL 1
REMARK minimizedAffinity -4.64324093
REMARK minimizedRMSD -1
REMARK  0 active torsions:
REMARK  status: ('A' for Active; 'I' for Inactive)
ROOT
ATOM      1  C1  BNZ d   1      -0.825  -1.337   0.013  0.00  0.00     0.000 A 
ATOM      2  C2  BNZ d   1      -2.096  -1.785  -0.227  0.00  0.00     0.000 A 
ATOM      3  C3  BNZ d   1      -2.824  -2.388   0.760  0.00  0.00     0.000 A 
ATOM      4  C4  BNZ d   1      -2.266  -2.579   1.973  0.00  0.00     0.000 A 
ATOM      5  C5  BNZ d   1      -0.982  -2.141   2.228  0.00  0.00     0.000 A 
ATOM      6  C6  BNZ d   1      -0.266  -1.499   1.244  0.00  0.00     0.000 A 
ENDROOT
TORSDOF 0
ENDMDL
