MODEL 1
REMARK minimizedAffinity -2.45076752
REMARK minimizedRMSD -1
REMARK  1 active torsions:
REMARK  status: ('A' for Active; 'I' for Inactive)
REMARK    1  A    between atoms: N_2  and  C1_3 
ROOT
ATOM      1  C1  UNL d   1      -1.039  -1.659  -0.174  0.00  0.00     0.143 A 
ATOM      2  C2  UNL d   1      -0.999  -0.586   0.724  0.00  0.00    -0.057 A 
ATOM      3  C3  UNL d   1      -0.538   0.675   0.328  0.00  0.00     0.033 A 
ATOM      4  C4  UNL d   1      -0.081   0.879  -0.970  0.00  0.00    -0.042 A 
ATOM      5  C5  UNL d   1      -0.088  -0.179  -1.872  0.00  0.00     0.033 A 
ATOM      6  C6  UNL d   1      -0.556  -1.434  -1.472  0.00  0.00    -0.057 A 
ENDROOT
BRANCH   1   7
ATOM      7  N   UNL d   1      -1.394  -2.961   0.186  0.00  0.00    -0.732 N 
ATOM      8  C   UNL d   1      -0.546  -4.080  -0.167  0.00  0.00     0.284 C 
ATOM      9  H3  UNL d   1      -1.780  -3.013   1.126  0.00  0.00     0.395 HD
ENDBRANCH   1   7
TORSDOF 1
ENDMDL
