MODEL 1
REMARK minimizedAffinity -2.05920649
REMARK minimizedRMSD -1
REMARK  1 active torsions:
REMARK  status: ('A' for Active; 'I' for Inactive)
REMARK    1  A    between atoms: N_2  and  C1_3 
ROOT
ATOM      1  C1  UNL d   1       0.695   1.328   0.289  0.00  0.00     0.143 A 
ATOM      2  C2  UNL d   1       0.864   0.546   1.437  0.00  0.00    -0.057 A 
ATOM      3  C3  UNL d   1       0.112  -0.617   1.641  0.00  0.00     0.033 A 
ATOM      4  C4  UNL d   1      -0.847  -1.004   0.711  0.00  0.00    -0.042 A 
ATOM      5  C5  UNL d   1      -1.050  -0.229  -0.426  0.00  0.00     0.033 A 
ATOM      6  C6  UNL d   1      -0.290   0.928  -0.627  0.00  0.00    -0.057 A 
ENDROOT
BRANCH   1   7
ATOM      7  N   UNL d   1       1.343   2.547   0.077  0.00  0.00    -0.732 N 
ATOM      8  C   UNL d   1       1.364   3.561   1.109  0.00  0.00     0.284 C 
ATOM      9  H3  UNL d   1       2.227   2.437  -0.416  0.00  0.00     0.395 HD
ENDBRANCH   1   7
TORSDOF 1
ENDMDL
