MODEL 1
REMARK minimizedAffinity -2.96788526
REMARK minimizedRMSD -1
REMARK  1 active torsions:
REMARK  status: ('A' for Active; 'I' for Inactive)
REMARK    1  A    between atoms: N_2  and  C1_3 
ROOT
ATOM      1  C1  UNL d   1      -0.067  -1.201  -0.843  0.00  0.00     0.143 A 
ATOM      2  C2  UNL d   1       0.396  -0.206   0.024  0.00  0.00    -0.057 A 
ATOM      3  C3  UNL d   1       0.011  -0.179   1.370  0.00  0.00     0.033 A 
ATOM      4  C4  UNL d   1      -0.871  -1.134   1.867  0.00  0.00    -0.042 A 
ATOM      5  C5  UNL d   1      -1.364  -2.117   1.016  0.00  0.00     0.033 A 
ATOM      6  C6  UNL d   1      -0.970  -2.143  -0.325  0.00  0.00    -0.057 A 
ENDROOT
BRANCH   1   7
ATOM      7  N   UNL d   1       0.201  -1.224  -2.214  0.00  0.00    -0.732 N 
ATOM      8  C   UNL d   1       0.232   0.003  -2.980  0.00  0.00     0.284 C 
ATOM      9  H3  UNL d   1       0.939  -1.882  -2.454  0.00  0.00     0.395 HD
ENDBRANCH   1   7
TORSDOF 1
ENDMDL
