MODEL 1
REMARK minimizedAffinity -3.87779522
REMARK minimizedRMSD -1
REMARK  1 active torsions:
REMARK  status: ('A' for Active; 'I' for Inactive)
REMARK    1  A    between atoms: N_2  and  C1_3 
ROOT
ATOM      1  C1  UNL d   1      -0.395  -0.177  -0.472  0.00  0.00     0.143 A 
ATOM      2  C2  UNL d   1      -0.907  -0.656   0.739  0.00  0.00    -0.057 A 
ATOM      3  C3  UNL d   1      -0.942  -2.027   1.021  0.00  0.00     0.033 A 
ATOM      4  C4  UNL d   1      -0.490  -2.948   0.081  0.00  0.00    -0.042 A 
ATOM      5  C5  UNL d   1      -0.001  -2.496  -1.139  0.00  0.00     0.033 A 
ATOM      6  C6  UNL d   1       0.037  -1.126  -1.412  0.00  0.00    -0.057 A 
ENDROOT
BRANCH   1   7
ATOM      7  N   UNL d   1      -0.425   1.167  -0.851  0.00  0.00    -0.732 N 
ATOM      8  C   UNL d   1       0.238   2.174  -0.050  0.00  0.00     0.284 C 
ATOM      9  H3  UNL d   1      -0.307   1.290  -1.855  0.00  0.00     0.395 HD
ENDBRANCH   1   7
TORSDOF 1
ENDMDL
