MODEL 1
REMARK minimizedAffinity -4.26985407
REMARK minimizedRMSD -1
REMARK  1 active torsions:
REMARK  status: ('A' for Active; 'I' for Inactive)
REMARK    1  A    between atoms: N_2  and  C1_3 
ROOT
ATOM      1  C1  UNL d   1       1.124   1.316   0.252  0.00  0.00     0.143 A 
ATOM      2  C2  UNL d   1       1.250   0.309   1.214  0.00  0.00    -0.057 A 
ATOM      3  C3  UNL d   1       0.236  -0.635   1.416  0.00  0.00     0.033 A 
ATOM      4  C4  UNL d   1      -0.940  -0.569   0.676  0.00  0.00    -0.042 A 
ATOM      5  C5  UNL d   1      -1.099   0.439  -0.268  0.00  0.00     0.033 A 
ATOM      6  C6  UNL d   1      -0.079   1.374  -0.470  0.00  0.00    -0.057 A 
ENDROOT
BRANCH   1   7
ATOM      7  N   UNL d   1       2.055   2.342   0.073  0.00  0.00    -0.732 N 
ATOM      8  C   UNL d   1       2.041   3.508   0.929  0.00  0.00     0.284 C 
ATOM      9  H3  UNL d   1       2.986   1.989  -0.134  0.00  0.00     0.395 HD
ENDBRANCH   1   7
TORSDOF 1
ENDMDL
