MODEL 1
REMARK minimizedAffinity -3.67384315
REMARK minimizedRMSD -1
REMARK  1 active torsions:
REMARK  status: ('A' for Active; 'I' for Inactive)
REMARK    1  A    between atoms: N_2  and  C1_3 
ROOT
ATOM      1  C1  UNL d   1       0.570  -1.391  -1.125  0.00  0.00     0.143 A 
ATOM      2  C2  UNL d   1       0.385  -0.370  -2.063  0.00  0.00    -0.057 A 
ATOM      3  C3  UNL d   1       0.359   0.976  -1.677  0.00  0.00     0.033 A 
ATOM      4  C4  UNL d   1       0.489   1.323  -0.336  0.00  0.00    -0.042 A 
ATOM      5  C5  UNL d   1       0.649   0.323   0.617  0.00  0.00     0.033 A 
ATOM      6  C6  UNL d   1       0.681  -1.018   0.223  0.00  0.00    -0.057 A 
ENDROOT
BRANCH   1   7
ATOM      7  N   UNL d   1       0.507  -2.752  -1.435  0.00  0.00    -0.732 N 
ATOM      8  C   UNL d   1      -0.230  -3.666  -0.589  0.00  0.00     0.284 C 
ATOM      9  H3  UNL d   1       0.387  -2.918  -2.431  0.00  0.00     0.395 HD
ENDBRANCH   1   7
TORSDOF 1
ENDMDL
