MODEL 1
REMARK minimizedAffinity -3.29904556
REMARK minimizedRMSD -1
REMARK  1 active torsions:
REMARK  status: ('A' for Active; 'I' for Inactive)
REMARK    1  A    between atoms: N_2  and  C1_3 
ROOT
ATOM      1  C1  UNL d   1      -0.204   0.232  -0.612  0.00  0.00     0.143 A 
ATOM      2  C2  UNL d   1       0.020  -0.478  -1.797  0.00  0.00    -0.057 A 
ATOM      3  C3  UNL d   1      -0.268  -1.845  -1.889  0.00  0.00     0.033 A 
ATOM      4  C4  UNL d   1      -0.758  -2.535  -0.784  0.00  0.00    -0.042 A 
ATOM      5  C5  UNL d   1      -0.964  -1.854   0.410  0.00  0.00     0.033 A 
ATOM      6  C6  UNL d   1      -0.681  -0.488   0.494  0.00  0.00    -0.057 A 
ENDROOT
BRANCH   1   7
ATOM      7  N   UNL d   1       0.154   1.570  -0.429  0.00  0.00    -0.732 N 
ATOM      8  C   UNL d   1       1.177   1.935   0.528  0.00  0.00     0.284 C 
ATOM      9  H3  UNL d   1       0.204   2.083  -1.306  0.00  0.00     0.395 HD
ENDBRANCH   1   7
TORSDOF 1
ENDMDL
