MODEL 1
REMARK minimizedAffinity -1.79593575
REMARK minimizedRMSD -1
REMARK  1 active torsions:
REMARK  status: ('A' for Active; 'I' for Inactive)
REMARK    1  A    between atoms: N_2  and  C1_3 
ROOT
ATOM      1  C1  UNL d   1       0.739   2.090   0.331  0.00  0.00     0.143 A 
ATOM      2  C2  UNL d   1       2.056   1.749   0.658  0.00  0.00    -0.057 A 
ATOM      3  C3  UNL d   1       2.965   2.712   1.111  0.00  0.00     0.033 A 
ATOM      4  C4  UNL d   1       2.580   4.045   1.216  0.00  0.00    -0.042 A 
ATOM      5  C5  UNL d   1       1.284   4.412   0.873  0.00  0.00     0.033 A 
ATOM      6  C6  UNL d   1       0.378   3.443   0.428  0.00  0.00    -0.057 A 
ENDROOT
BRANCH   1   7
ATOM      7  N   UNL d   1      -0.183   1.196  -0.218  0.00  0.00    -0.732 N 
ATOM      8  C   UNL d   1      -0.400  -0.102   0.384  0.00  0.00     0.284 C 
ATOM      9  H3  UNL d   1      -1.035   1.658  -0.528  0.00  0.00     0.395 HD
ENDBRANCH   1   7
TORSDOF 1
ENDMDL
