MODEL 1
REMARK minimizedAffinity -2.33382058
REMARK minimizedRMSD -1
REMARK  1 active torsions:
REMARK  status: ('A' for Active; 'I' for Inactive)
REMARK    1  A    between atoms: N_2  and  C1_3 
ROOT
ATOM      1  C1  UNL d   1       0.292   1.363   0.404  0.00  0.00     0.143 A 
ATOM      2  C2  UNL d   1       0.327   0.679   1.624  0.00  0.00    -0.057 A 
ATOM      3  C3  UNL d   1      -0.091  -0.654   1.721  0.00  0.00     0.033 A 
ATOM      4  C4  UNL d   1      -0.581  -1.319   0.601  0.00  0.00    -0.042 A 
ATOM      5  C5  UNL d   1      -0.648  -0.650  -0.616  0.00  0.00     0.033 A 
ATOM      6  C6  UNL d   1      -0.223   0.679  -0.708  0.00  0.00    -0.057 A 
ENDROOT
BRANCH   1   7
ATOM      7  N   UNL d   1       0.601   2.719   0.264  0.00  0.00    -0.732 N 
ATOM      8  C   UNL d   1       1.846   3.248   0.778  0.00  0.00     0.284 C 
ATOM      9  H3  UNL d   1       0.339   3.084  -0.648  0.00  0.00     0.395 HD
ENDBRANCH   1   7
TORSDOF 1
ENDMDL
