MODEL 1
REMARK minimizedAffinity -2.16132998
REMARK minimizedRMSD -1
REMARK  0 active torsions:
REMARK  status: ('A' for Active; 'I' for Inactive)
ROOT
ATOM      1  C   UNL d   1      -1.974   2.046   1.926  0.00  0.00     0.020 A 
ATOM      2  C1  UNL d   1      -1.659   2.623   0.697  0.00  0.00     0.020 A 
ATOM      3  C2  UNL d   1      -0.351   2.560   0.211  0.00  0.00     0.034 A 
ATOM      4  C3  UNL d   1       0.646   1.919   0.955  0.00  0.00     0.017 A 
ATOM      5  C4  UNL d   1       0.328   1.339   2.189  0.00  0.00     0.017 A 
ATOM      6  C5  UNL d   1      -0.983   1.405   2.670  0.00  0.00     0.034 A 
ATOM      7 Cl   UNL d   1       1.504   0.531   3.163  0.00  0.00    -0.070 Cl
ATOM      8 Cl1  UNL d   1       2.242   1.878   0.293  0.00  0.00    -0.070 Cl
ENDROOT
TORSDOF 0
ENDMDL
