MODEL 1
REMARK minimizedAffinity 4.78136539
REMARK minimizedRMSD -1
REMARK  0 active torsions:
REMARK  status: ('A' for Active; 'I' for Inactive)
ROOT
ATOM      1  C   UNL d   1       1.789  -1.453  -1.963  0.00  0.00     0.020 A 
ATOM      2  C1  UNL d   1       2.531  -1.576  -0.789  0.00  0.00     0.020 A 
ATOM      3  C2  UNL d   1       2.018  -2.302   0.288  0.00  0.00     0.034 A 
ATOM      4  C3  UNL d   1       0.760  -2.908   0.193  0.00  0.00     0.017 A 
ATOM      5  C4  UNL d   1       0.016  -2.784  -0.987  0.00  0.00     0.017 A 
ATOM      6  C5  UNL d   1       0.534  -2.056  -2.062  0.00  0.00     0.034 A 
ATOM      7 Cl   UNL d   1      -1.543  -3.504  -1.179  0.00  0.00    -0.070 Cl
ATOM      8 Cl1  UNL d   1       0.188  -3.791   1.563  0.00  0.00    -0.070 Cl
ENDROOT
TORSDOF 0
ENDMDL
