MODEL 1
REMARK minimizedAffinity 4.09997988
REMARK minimizedRMSD -1
REMARK  0 active torsions:
REMARK  status: ('A' for Active; 'I' for Inactive)
ROOT
ATOM      1  C   UNL d   1      -0.466   3.257   0.366  0.00  0.00     0.020 A 
ATOM      2  C1  UNL d   1      -1.366   3.148   1.425  0.00  0.00     0.020 A 
ATOM      3  C2  UNL d   1      -1.190   2.156   2.392  0.00  0.00     0.034 A 
ATOM      4  C3  UNL d   1      -0.112   1.269   2.302  0.00  0.00     0.017 A 
ATOM      5  C4  UNL d   1       0.791   1.378   1.239  0.00  0.00     0.017 A 
ATOM      6  C5  UNL d   1       0.611   2.374   0.273  0.00  0.00     0.034 A 
ATOM      7 Cl   UNL d   1       2.146   0.320   1.061  0.00  0.00    -0.070 Cl
ATOM      8 Cl1  UNL d   1       0.044   0.067   3.534  0.00  0.00    -0.070 Cl
ENDROOT
TORSDOF 0
ENDMDL
