MODEL 1
REMARK minimizedAffinity 0.921520293
REMARK minimizedRMSD -1
REMARK  0 active torsions:
REMARK  status: ('A' for Active; 'I' for Inactive)
ROOT
ATOM      1  C   UNL d   1      -4.893   1.855  -4.548  0.00  0.00     0.020 A 
ATOM      2  C1  UNL d   1      -5.707   2.575  -3.674  0.00  0.00     0.020 A 
ATOM      3  C2  UNL d   1      -5.872   2.141  -2.357  0.00  0.00     0.034 A 
ATOM      4  C3  UNL d   1      -5.222   0.984  -1.910  0.00  0.00     0.017 A 
ATOM      5  C4  UNL d   1      -4.406   0.262  -2.789  0.00  0.00     0.017 A 
ATOM      6  C5  UNL d   1      -4.244   0.702  -4.107  0.00  0.00     0.034 A 
ATOM      7 Cl   UNL d   1      -3.572  -1.174  -2.311  0.00  0.00    -0.070 Cl
ATOM      8 Cl1  UNL d   1      -5.471   0.506  -0.269  0.00  0.00    -0.070 Cl
ENDROOT
TORSDOF 0
ENDMDL
