MODEL 1
REMARK minimizedAffinity 4.71852446
REMARK minimizedRMSD -1
REMARK  0 active torsions:
REMARK  status: ('A' for Active; 'I' for Inactive)
ROOT
ATOM      1  C   UNL d   1       4.285   3.259   2.685  0.00  0.00     0.020 A 
ATOM      2  C1  UNL d   1       4.017   2.442   3.783  0.00  0.00     0.020 A 
ATOM      3  C2  UNL d   1       2.918   1.580   3.759  0.00  0.00     0.034 A 
ATOM      4  C3  UNL d   1       2.085   1.532   2.636  0.00  0.00     0.017 A 
ATOM      5  C4  UNL d   1       2.355   2.353   1.535  0.00  0.00     0.017 A 
ATOM      6  C5  UNL d   1       3.456   3.215   1.564  0.00  0.00     0.034 A 
ATOM      7 Cl   UNL d   1       1.372   2.350   0.113  0.00  0.00    -0.070 Cl
ATOM      8 Cl1  UNL d   1       0.745   0.442   2.675  0.00  0.00    -0.070 Cl
ENDROOT
TORSDOF 0
ENDMDL
