MODEL 1
REMARK minimizedAffinity 6.02904654
REMARK minimizedRMSD -1
REMARK  0 active torsions:
REMARK  status: ('A' for Active; 'I' for Inactive)
ROOT
ATOM      1  C   UNL d   1       2.411  -2.486  -0.101  0.00  0.00     0.020 A 
ATOM      2  C1  UNL d   1       2.600  -1.194  -0.591  0.00  0.00     0.020 A 
ATOM      3  C2  UNL d   1       1.526  -0.494  -1.144  0.00  0.00     0.034 A 
ATOM      4  C3  UNL d   1       0.259  -1.084  -1.208  0.00  0.00     0.017 A 
ATOM      5  C4  UNL d   1       0.070  -2.381  -0.716  0.00  0.00     0.017 A 
ATOM      6  C5  UNL d   1       1.149  -3.078  -0.164  0.00  0.00     0.034 A 
ATOM      7 Cl   UNL d   1      -1.464  -3.175  -0.761  0.00  0.00    -0.070 Cl
ATOM      8 Cl1  UNL d   1      -1.024  -0.159  -1.905  0.00  0.00    -0.070 Cl
ENDROOT
TORSDOF 0
ENDMDL
