MODEL 1
REMARK minimizedAffinity 4.34317017
REMARK minimizedRMSD -1
REMARK  0 active torsions:
REMARK  status: ('A' for Active; 'I' for Inactive)
ROOT
ATOM      1  C   UNL d   1       0.918  -3.376  -0.634  0.00  0.00     0.020 A 
ATOM      2  C1  UNL d   1      -0.021  -2.431  -1.046  0.00  0.00     0.020 A 
ATOM      3  C2  UNL d   1       0.217  -1.071  -0.835  0.00  0.00     0.034 A 
ATOM      4  C3  UNL d   1       1.397  -0.652  -0.211  0.00  0.00     0.017 A 
ATOM      5  C4  UNL d   1       2.340  -1.601   0.203  0.00  0.00     0.017 A 
ATOM      6  C5  UNL d   1       2.096  -2.961  -0.011  0.00  0.00     0.034 A 
ATOM      7 Cl   UNL d   1       3.819  -1.160   0.980  0.00  0.00    -0.070 Cl
ATOM      8 Cl1  UNL d   1       1.627   1.045   0.017  0.00  0.00    -0.070 Cl
ENDROOT
TORSDOF 0
ENDMDL
