MODEL 1
REMARK minimizedAffinity 4.87821484
REMARK minimizedRMSD -1
REMARK  0 active torsions:
REMARK  status: ('A' for Active; 'I' for Inactive)
ROOT
ATOM      1  C   UNL d   1      -0.254   3.068  -0.180  0.00  0.00     0.020 A 
ATOM      2  C1  UNL d   1       0.802   2.845   0.703  0.00  0.00     0.020 A 
ATOM      3  C2  UNL d   1       0.552   2.322   1.973  0.00  0.00     0.034 A 
ATOM      4  C3  UNL d   1      -0.757   2.019   2.364  0.00  0.00     0.017 A 
ATOM      5  C4  UNL d   1      -1.817   2.243   1.477  0.00  0.00     0.017 A 
ATOM      6  C5  UNL d   1      -1.560   2.767   0.207  0.00  0.00     0.034 A 
ATOM      7 Cl   UNL d   1      -3.459   1.894   1.888  0.00  0.00    -0.070 Cl
ATOM      8 Cl1  UNL d   1      -0.993   1.374   3.950  0.00  0.00    -0.070 Cl
ENDROOT
TORSDOF 0
ENDMDL
