MODEL 1
REMARK minimizedAffinity 5.11993933
REMARK minimizedRMSD -1
REMARK  0 active torsions:
REMARK  status: ('A' for Active; 'I' for Inactive)
ROOT
ATOM      1  C   UNL d   1       0.103   2.387   0.460  0.00  0.00     0.020 A 
ATOM      2  C1  UNL d   1      -0.548   2.077   1.654  0.00  0.00     0.020 A 
ATOM      3  C2  UNL d   1      -0.267   0.878   2.312  0.00  0.00     0.034 A 
ATOM      4  C3  UNL d   1       0.668  -0.016   1.777  0.00  0.00     0.017 A 
ATOM      5  C4  UNL d   1       1.320   0.295   0.578  0.00  0.00     0.017 A 
ATOM      6  C5  UNL d   1       1.035   1.498  -0.076  0.00  0.00     0.034 A 
ATOM      7 Cl   UNL d   1       2.485  -0.758  -0.144  0.00  0.00    -0.070 Cl
ATOM      8 Cl1  UNL d   1       0.967  -1.480   2.644  0.00  0.00    -0.070 Cl
ENDROOT
TORSDOF 0
ENDMDL
