MODEL 1
REMARK minimizedAffinity 4.83878183
REMARK minimizedRMSD -1
REMARK  0 active torsions:
REMARK  status: ('A' for Active; 'I' for Inactive)
ROOT
ATOM      1  C   UNL d   1       5.659   1.777   0.135  0.00  0.00     0.020 A 
ATOM      2  C1  UNL d   1       6.000   2.166  -1.160  0.00  0.00     0.020 A 
ATOM      3  C2  UNL d   1       5.400   1.543  -2.257  0.00  0.00     0.034 A 
ATOM      4  C3  UNL d   1       4.456   0.528  -2.060  0.00  0.00     0.017 A 
ATOM      5  C4  UNL d   1       4.114   0.139  -0.760  0.00  0.00     0.017 A 
ATOM      6  C5  UNL d   1       4.718   0.767   0.334  0.00  0.00     0.034 A 
ATOM      7 Cl   UNL d   1       2.958  -1.104  -0.438  0.00  0.00    -0.070 Cl
ATOM      8 Cl1  UNL d   1       3.753  -0.198  -3.462  0.00  0.00    -0.070 Cl
ENDROOT
TORSDOF 0
ENDMDL
