MODEL 1
REMARK minimizedAffinity 11.570755
REMARK minimizedRMSD -1
REMARK  1 active torsions:
REMARK  status: ('A' for Active; 'I' for Inactive)
REMARK    1  A    between atoms: N_2  and  C1_3 
ROOT
ATOM      1  C1  UNL d   1       3.846   5.931   3.405  0.00  0.00     0.143 A 
ATOM      2  C2  UNL d   1       3.175   5.965   4.632  0.00  0.00    -0.057 A 
ATOM      3  C3  UNL d   1       3.877   5.996   5.843  0.00  0.00     0.033 A 
ATOM      4  C4  UNL d   1       5.268   5.965   5.849  0.00  0.00    -0.042 A 
ATOM      5  C5  UNL d   1       5.955   5.906   4.642  0.00  0.00     0.033 A 
ATOM      6  C6  UNL d   1       5.249   5.882   3.435  0.00  0.00    -0.057 A 
ENDROOT
BRANCH   1   7
ATOM      7  N   UNL d   1       3.205   5.800   2.171  0.00  0.00    -0.732 N 
ATOM      8  C   UNL d   1       3.196   4.530   1.476  0.00  0.00     0.284 C 
ATOM      9  H3  UNL d   1       2.317   6.296   2.139  0.00  0.00     0.395 HD
ENDBRANCH   1   7
TORSDOF 1
ENDMDL
