MODEL 1
REMARK minimizedAffinity 12.354414
REMARK minimizedRMSD -1
REMARK  1 active torsions:
REMARK  status: ('A' for Active; 'I' for Inactive)
REMARK    1  A    between atoms: N_2  and  C1_3 
ROOT
ATOM      1  C1  UNL d   1      -2.336  -3.524   0.830  0.00  0.00     0.143 A 
ATOM      2  C2  UNL d   1      -3.120  -4.670   0.661  0.00  0.00    -0.057 A 
ATOM      3  C3  UNL d   1      -2.748  -5.894   1.232  0.00  0.00     0.033 A 
ATOM      4  C4  UNL d   1      -1.567  -5.999   1.959  0.00  0.00    -0.042 A 
ATOM      5  C5  UNL d   1      -0.760  -4.878   2.119  0.00  0.00     0.033 A 
ATOM      6  C6  UNL d   1      -1.140  -3.657   1.552  0.00  0.00    -0.057 A 
ENDROOT
BRANCH   1   7
ATOM      7  N   UNL d   1      -2.601  -2.302   0.206  0.00  0.00    -0.732 N 
ATOM      8  C   UNL d   1      -1.958  -1.958  -1.044  0.00  0.00     0.284 C 
ATOM      9  H3  UNL d   1      -3.585  -2.048   0.251  0.00  0.00     0.395 HD
ENDBRANCH   1   7
TORSDOF 1
ENDMDL
