MODEL 1
REMARK minimizedAffinity 4.03032637
REMARK minimizedRMSD -1
REMARK  1 active torsions:
REMARK  status: ('A' for Active; 'I' for Inactive)
REMARK    1  A    between atoms: N_2  and  C1_3 
ROOT
ATOM      1  C1  UNL d   1       2.259  -0.644   2.693  0.00  0.00     0.143 A 
ATOM      2  C2  UNL d   1       1.367  -0.979   3.717  0.00  0.00    -0.057 A 
ATOM      3  C3  UNL d   1       0.192  -0.248   3.925  0.00  0.00     0.033 A 
ATOM      4  C4  UNL d   1      -0.100   0.853   3.126  0.00  0.00    -0.042 A 
ATOM      5  C5  UNL d   1       0.784   1.219   2.117  0.00  0.00     0.033 A 
ATOM      6  C6  UNL d   1       1.953   0.481   1.911  0.00  0.00    -0.057 A 
ENDROOT
BRANCH   1   7
ATOM      7  N   UNL d   1       3.492  -1.271   2.498  0.00  0.00    -0.732 N 
ATOM      8  C   UNL d   1       4.222  -1.096   1.261  0.00  0.00     0.284 C 
ATOM      9  H3  UNL d   1       4.075  -1.248   3.332  0.00  0.00     0.395 HD
ENDBRANCH   1   7
TORSDOF 1
ENDMDL
