MODEL 1
REMARK minimizedAffinity 10.1727743
REMARK minimizedRMSD -1
REMARK  1 active torsions:
REMARK  status: ('A' for Active; 'I' for Inactive)
REMARK    1  A    between atoms: N_2  and  C1_3 
ROOT
ATOM      1  C1  UNL d   1       2.997   3.821  -3.909  0.00  0.00     0.143 A 
ATOM      2  C2  UNL d   1       3.853   4.913  -4.085  0.00  0.00    -0.057 A 
ATOM      3  C3  UNL d   1       3.489   6.000  -4.889  0.00  0.00     0.033 A 
ATOM      4  C4  UNL d   1       2.268   6.000  -5.556  0.00  0.00    -0.042 A 
ATOM      5  C5  UNL d   1       1.412   4.914  -5.416  0.00  0.00     0.033 A 
ATOM      6  C6  UNL d   1       1.779   3.835  -4.606  0.00  0.00    -0.057 A 
ENDROOT
BRANCH   1   7
ATOM      7  N   UNL d   1       3.343   2.667  -3.202  0.00  0.00    -0.732 N 
ATOM      8  C   UNL d   1       3.817   2.753  -1.837  0.00  0.00     0.284 C 
ATOM      9  H3  UNL d   1       2.697   1.900  -3.370  0.00  0.00     0.395 HD
ENDBRANCH   1   7
TORSDOF 1
ENDMDL
