MODEL 1
REMARK minimizedAffinity 8.43873692
REMARK minimizedRMSD -1
REMARK  1 active torsions:
REMARK  status: ('A' for Active; 'I' for Inactive)
REMARK    1  A    between atoms: N_2  and  C1_3 
ROOT
ATOM      1  C1  UNL d   1      -2.007  -2.194  -1.426  0.00  0.00     0.143 A 
ATOM      2  C2  UNL d   1      -3.185  -2.080  -0.679  0.00  0.00    -0.057 A 
ATOM      3  C3  UNL d   1      -3.168  -2.154   0.719  0.00  0.00     0.033 A 
ATOM      4  C4  UNL d   1      -1.973  -2.373   1.395  0.00  0.00    -0.042 A 
ATOM      5  C5  UNL d   1      -0.794  -2.514   0.672  0.00  0.00     0.033 A 
ATOM      6  C6  UNL d   1      -0.816  -2.432  -0.723  0.00  0.00    -0.057 A 
ENDROOT
BRANCH   1   7
ATOM      7  N   UNL d   1      -1.972  -2.227  -2.822  0.00  0.00    -0.732 N 
ATOM      8  C   UNL d   1      -0.976  -3.016  -3.516  0.00  0.00     0.284 C 
ATOM      9  H3  UNL d   1      -2.901  -2.276  -3.233  0.00  0.00     0.395 HD
ENDBRANCH   1   7
TORSDOF 1
ENDMDL
