MODEL 1
REMARK minimizedAffinity 3.10685349
REMARK minimizedRMSD -1
REMARK  1 active torsions:
REMARK  status: ('A' for Active; 'I' for Inactive)
REMARK    1  A    between atoms: N_2  and  C1_3 
ROOT
ATOM      1  C1  UNL d   1       4.139   2.071   0.744  0.00  0.00     0.143 A 
ATOM      2  C2  UNL d   1       4.148   0.854   1.433  0.00  0.00    -0.057 A 
ATOM      3  C3  UNL d   1       5.076  -0.148   1.125  0.00  0.00     0.033 A 
ATOM      4  C4  UNL d   1       5.996   0.039   0.099  0.00  0.00    -0.042 A 
ATOM      5  C5  UNL d   1       5.989   1.231  -0.617  0.00  0.00     0.033 A 
ATOM      6  C6  UNL d   1       5.064   2.231  -0.300  0.00  0.00    -0.057 A 
ENDROOT
BRANCH   1   7
ATOM      7  N   UNL d   1       3.179   3.067   0.937  0.00  0.00    -0.732 N 
ATOM      8  C   UNL d   1       1.771   2.735   0.985  0.00  0.00     0.284 C 
ATOM      9  H3  UNL d   1       3.467   3.756   1.628  0.00  0.00     0.395 HD
ENDBRANCH   1   7
TORSDOF 1
ENDMDL
