MODEL 1
REMARK minimizedAffinity 6.85947037
REMARK minimizedRMSD -1
REMARK  1 active torsions:
REMARK  status: ('A' for Active; 'I' for Inactive)
REMARK    1  A    between atoms: N_2  and  C1_3 
ROOT
ATOM      1  C1  UNL d   1       4.435   0.847  -4.124  0.00  0.00     0.143 A 
ATOM      2  C2  UNL d   1       5.743   0.372  -4.273  0.00  0.00    -0.057 A 
ATOM      3  C3  UNL d   1       5.998  -0.898  -4.803  0.00  0.00     0.033 A 
ATOM      4  C4  UNL d   1       4.944  -1.730  -5.168  0.00  0.00    -0.042 A 
ATOM      5  C5  UNL d   1       3.636  -1.289  -5.005  0.00  0.00     0.033 A 
ATOM      6  C6  UNL d   1       3.388  -0.017  -4.481  0.00  0.00    -0.057 A 
ENDROOT
BRANCH   1   7
ATOM      7  N   UNL d   1       4.114   2.061  -3.512  0.00  0.00    -0.732 N 
ATOM      8  C   UNL d   1       3.799   2.114  -2.100  0.00  0.00     0.284 C 
ATOM      9  H3  UNL d   1       4.700   2.827  -3.836  0.00  0.00     0.395 HD
ENDBRANCH   1   7
TORSDOF 1
ENDMDL
