MODEL 1
REMARK minimizedAffinity 4.88266039
REMARK minimizedRMSD -1
REMARK  1 active torsions:
REMARK  status: ('A' for Active; 'I' for Inactive)
REMARK    1  A    between atoms: N_2  and  C1_3 
ROOT
ATOM      1  C1  UNL d   1       3.567   0.144   1.792  0.00  0.00     0.143 A 
ATOM      2  C2  UNL d   1       2.303   0.073   2.386  0.00  0.00    -0.057 A 
ATOM      3  C3  UNL d   1       1.363   1.098   2.218  0.00  0.00     0.033 A 
ATOM      4  C4  UNL d   1       1.684   2.228   1.474  0.00  0.00    -0.042 A 
ATOM      5  C5  UNL d   1       2.944   2.332   0.895  0.00  0.00     0.033 A 
ATOM      6  C6  UNL d   1       3.875   1.302   1.061  0.00  0.00    -0.057 A 
ENDROOT
BRANCH   1   7
ATOM      7  N   UNL d   1       4.579  -0.796   2.003  0.00  0.00    -0.732 N 
ATOM      8  C   UNL d   1       5.964  -0.455   1.757  0.00  0.00     0.284 C 
ATOM      9  H3  UNL d   1       4.430  -1.345   2.846  0.00  0.00     0.395 HD
ENDBRANCH   1   7
TORSDOF 1
ENDMDL
