MODEL 1
REMARK minimizedAffinity 12.5083961
REMARK minimizedRMSD -1
REMARK  1 active torsions:
REMARK  status: ('A' for Active; 'I' for Inactive)
REMARK    1  A    between atoms: N_2  and  C1_3 
ROOT
ATOM      1  C1  UNL d   1       2.731   3.768  -4.002  0.00  0.00     0.143 A 
ATOM      2  C2  UNL d   1       1.842   3.748  -5.082  0.00  0.00    -0.057 A 
ATOM      3  C3  UNL d   1       1.767   4.819  -5.981  0.00  0.00     0.033 A 
ATOM      4  C4  UNL d   1       2.562   5.945  -5.797  0.00  0.00    -0.042 A 
ATOM      5  C5  UNL d   1       3.435   5.998  -4.716  0.00  0.00     0.033 A 
ATOM      6  C6  UNL d   1       3.510   4.923  -3.826  0.00  0.00    -0.057 A 
ENDROOT
BRANCH   1   7
ATOM      7  N   UNL d   1       2.782   2.778  -3.018  0.00  0.00    -0.732 N 
ATOM      8  C   UNL d   1       3.961   2.618  -2.193  0.00  0.00     0.284 C 
ATOM      9  H3  UNL d   1       1.905   2.689  -2.510  0.00  0.00     0.395 HD
ENDBRANCH   1   7
TORSDOF 1
ENDMDL
