MODEL 1
REMARK minimizedAffinity 10.6059351
REMARK minimizedRMSD -1
REMARK  1 active torsions:
REMARK  status: ('A' for Active; 'I' for Inactive)
REMARK    1  A    between atoms: N_2  and  C1_3 
ROOT
ATOM      1  C1  UNL d   1       2.650   3.592  -4.061  0.00  0.00     0.143 A 
ATOM      2  C2  UNL d   1       3.004   4.901  -3.714  0.00  0.00    -0.057 A 
ATOM      3  C3  UNL d   1       2.574   5.994  -4.475  0.00  0.00     0.033 A 
ATOM      4  C4  UNL d   1       1.804   5.796  -5.616  0.00  0.00    -0.042 A 
ATOM      5  C5  UNL d   1       1.461   4.502  -5.994  0.00  0.00     0.033 A 
ATOM      6  C6  UNL d   1       1.888   3.414  -5.226  0.00  0.00    -0.057 A 
ENDROOT
BRANCH   1   7
ATOM      7  N   UNL d   1       3.128   2.457  -3.401  0.00  0.00    -0.732 N 
ATOM      8  C   UNL d   1       3.750   2.568  -2.099  0.00  0.00     0.284 C 
ATOM      9  H3  UNL d   1       2.503   1.660  -3.497  0.00  0.00     0.395 HD
ENDBRANCH   1   7
TORSDOF 1
ENDMDL
