MODEL 1
REMARK minimizedAffinity 12.4894257
REMARK minimizedRMSD -1
REMARK  1 active torsions:
REMARK  status: ('A' for Active; 'I' for Inactive)
REMARK    1  A    between atoms: N_2  and  C1_3 
ROOT
ATOM      1  C1  UNL d   1       3.381   1.648  -0.268  0.00  0.00     0.143 A 
ATOM      2  C2  UNL d   1       2.129   2.163   0.084  0.00  0.00    -0.057 A 
ATOM      3  C3  UNL d   1       1.317   1.519   1.025  0.00  0.00     0.033 A 
ATOM      4  C4  UNL d   1       1.732   0.328   1.611  0.00  0.00    -0.042 A 
ATOM      5  C5  UNL d   1       2.962  -0.216   1.258  0.00  0.00     0.033 A 
ATOM      6  C6  UNL d   1       3.771   0.436   0.322  0.00  0.00    -0.057 A 
ENDROOT
BRANCH   1   7
ATOM      7  N   UNL d   1       4.192   2.189  -1.269  0.00  0.00    -0.732 N 
ATOM      8  C   UNL d   1       3.633   2.554  -2.553  0.00  0.00     0.284 C 
ATOM      9  H3  UNL d   1       4.866   2.858  -0.904  0.00  0.00     0.395 HD
ENDBRANCH   1   7
TORSDOF 1
ENDMDL
