MODEL 1
REMARK minimizedAffinity 12.7351465
REMARK minimizedRMSD -1
REMARK  1 active torsions:
REMARK  status: ('A' for Active; 'I' for Inactive)
REMARK    1  A    between atoms: N_2  and  C1_3 
ROOT
ATOM      1  C1  UNL d   1       3.612   1.599  -2.839  0.00  0.00     0.143 A 
ATOM      2  C2  UNL d   1       4.818   1.530  -2.134  0.00  0.00    -0.057 A 
ATOM      3  C3  UNL d   1       5.995   1.086  -2.750  0.00  0.00     0.033 A 
ATOM      4  C4  UNL d   1       5.979   0.674  -4.078  0.00  0.00    -0.042 A 
ATOM      5  C5  UNL d   1       4.786   0.711  -4.791  0.00  0.00     0.033 A 
ATOM      6  C6  UNL d   1       3.616   1.162  -4.173  0.00  0.00    -0.057 A 
ENDROOT
BRANCH   1   7
ATOM      7  N   UNL d   1       2.388   1.939  -2.256  0.00  0.00    -0.732 N 
ATOM      8  C   UNL d   1       2.330   2.884  -1.162  0.00  0.00     0.284 C 
ATOM      9  H3  UNL d   1       1.649   2.054  -2.945  0.00  0.00     0.395 HD
ENDBRANCH   1   7
TORSDOF 1
ENDMDL
