MODEL 1
REMARK minimizedAffinity -1.5173198
REMARK minimizedRMSD -1
REMARK  1 active torsions:
REMARK  status: ('A' for Active; 'I' for Inactive)
REMARK    1  A    between atoms: N_2  and  C1_3 
ROOT
ATOM      1  C1  UNL d   1       3.780   4.196  -4.856  0.00  0.00     0.143 A 
ATOM      2  C2  UNL d   1       3.907   4.682  -3.550  0.00  0.00    -0.057 A 
ATOM      3  C3  UNL d   1       4.558   3.938  -2.558  0.00  0.00     0.033 A 
ATOM      4  C4  UNL d   1       5.070   2.678  -2.850  0.00  0.00    -0.042 A 
ATOM      5  C5  UNL d   1       4.933   2.165  -4.134  0.00  0.00     0.033 A 
ATOM      6  C6  UNL d   1       4.288   2.915  -5.122  0.00  0.00    -0.057 A 
ENDROOT
BRANCH   1   7
ATOM      7  N   UNL d   1       3.058   4.845  -5.860  0.00  0.00    -0.732 N 
ATOM      8  C   UNL d   1       1.612   4.792  -5.880  0.00  0.00     0.284 C 
ATOM      9  H3  UNL d   1       3.443   5.759  -6.088  0.00  0.00     0.395 HD
ENDBRANCH   1   7
TORSDOF 1
ENDMDL
