MODEL 1
REMARK minimizedAffinity 0.660165548
REMARK minimizedRMSD -1
REMARK  1 active torsions:
REMARK  status: ('A' for Active; 'I' for Inactive)
REMARK    1  A    between atoms: C3_4  and  O_7 
ROOT
ATOM      1  C   UNL d   1      -1.025  -3.203   0.731  0.00  0.00    -0.033 A 
ATOM      2  C1  UNL d   1      -1.614  -2.798   1.931  0.00  0.00     0.039 A 
ATOM      3  C2  UNL d   1      -1.715  -3.693   2.997  0.00  0.00    -0.080 A 
ATOM      4  C3  UNL d   1      -1.224  -4.988   2.852  0.00  0.00     0.150 A 
ATOM      5  C4  UNL d   1      -0.633  -5.396   1.661  0.00  0.00    -0.007 A 
ATOM      6  C5  UNL d   1      -0.534  -4.501   0.597  0.00  0.00     0.039 A 
ENDROOT
BRANCH   4   7
ATOM      7  O   UNL d   1      -1.305  -5.898   3.864  0.00  0.00    -0.526 OA
ATOM      8  H5  UNL d   1      -1.762  -5.484   4.614  0.00  0.00     0.418 HD
ENDBRANCH   4   7
TORSDOF 1
ENDMDL
