MODEL 1
REMARK minimizedAffinity 13.9008884
REMARK minimizedRMSD -1
REMARK  1 active torsions:
REMARK  status: ('A' for Active; 'I' for Inactive)
REMARK    1  A    between atoms: C3_4  and  O_7 
ROOT
ATOM      1  C   UNL d   1      -5.129   1.550   5.997  0.00  0.00    -0.033 A 
ATOM      2  C1  UNL d   1      -3.747   1.713   5.893  0.00  0.00     0.039 A 
ATOM      3  C2  UNL d   1      -2.973   0.741   5.255  0.00  0.00    -0.080 A 
ATOM      4  C3  UNL d   1      -3.594  -0.387   4.726  0.00  0.00     0.150 A 
ATOM      5  C4  UNL d   1      -4.971  -0.555   4.823  0.00  0.00    -0.007 A 
ATOM      6  C5  UNL d   1      -5.742   0.417   5.461  0.00  0.00     0.039 A 
ENDROOT
BRANCH   4   7
ATOM      7  O   UNL d   1      -2.880  -1.365   4.099  0.00  0.00    -0.526 OA
ATOM      8  H5  UNL d   1      -1.939  -1.128   4.133  0.00  0.00     0.418 HD
ENDBRANCH   4   7
TORSDOF 1
ENDMDL
