MODEL 1
REMARK minimizedAffinity 13.9773254
REMARK minimizedRMSD -1
REMARK  1 active torsions:
REMARK  status: ('A' for Active; 'I' for Inactive)
REMARK    1  A    between atoms: C3_4  and  O_7 
ROOT
ATOM      1  C   UNL d   1      -0.744  -3.790  -0.757  0.00  0.00    -0.033 A 
ATOM      2  C1  UNL d   1      -0.399  -3.125   0.421  0.00  0.00     0.039 A 
ATOM      3  C2  UNL d   1      -0.085  -3.853   1.570  0.00  0.00    -0.080 A 
ATOM      4  C3  UNL d   1      -0.118  -5.245   1.527  0.00  0.00     0.150 A 
ATOM      5  C4  UNL d   1      -0.457  -5.914   0.355  0.00  0.00    -0.007 A 
ATOM      6  C5  UNL d   1      -0.771  -5.184  -0.791  0.00  0.00     0.039 A 
ENDROOT
BRANCH   4   7
ATOM      7  O   UNL d   1       0.176  -5.998   2.624  0.00  0.00    -0.526 OA
ATOM      8  H5  UNL d   1       0.363  -5.401   3.367  0.00  0.00     0.418 HD
ENDBRANCH   4   7
TORSDOF 1
ENDMDL
