MODEL 1
REMARK minimizedAffinity 10.79708
REMARK minimizedRMSD -1
REMARK  1 active torsions:
REMARK  status: ('A' for Active; 'I' for Inactive)
REMARK    1  A    between atoms: C3_4  and  O_7 
ROOT
ATOM      1  C   UNL d   1      -1.610  -1.365  -1.764  0.00  0.00    -0.033 A 
ATOM      2  C1  UNL d   1      -1.176  -1.913  -0.556  0.00  0.00     0.039 A 
ATOM      3  C2  UNL d   1      -0.711  -3.228  -0.511  0.00  0.00    -0.080 A 
ATOM      4  C3  UNL d   1      -0.684  -3.984  -1.680  0.00  0.00     0.150 A 
ATOM      5  C4  UNL d   1      -1.112  -3.443  -2.888  0.00  0.00    -0.007 A 
ATOM      6  C5  UNL d   1      -1.577  -2.130  -2.931  0.00  0.00     0.039 A 
ENDROOT
BRANCH   4   7
ATOM      7  O   UNL d   1      -0.243  -5.274  -1.685  0.00  0.00    -0.526 OA
ATOM      8  H5  UNL d   1      -0.007  -5.522  -0.775  0.00  0.00     0.418 HD
ENDBRANCH   4   7
TORSDOF 1
ENDMDL
