MODEL 1
REMARK minimizedAffinity 10.4901762
REMARK minimizedRMSD -1
REMARK  1 active torsions:
REMARK  status: ('A' for Active; 'I' for Inactive)
REMARK    1  A    between atoms: C3_4  and  O_7 
ROOT
ATOM      1  C   UNL d   1      -1.924  -0.997  -1.416  0.00  0.00    -0.033 A 
ATOM      2  C1  UNL d   1      -1.895  -1.615  -0.164  0.00  0.00     0.039 A 
ATOM      3  C2  UNL d   1      -1.405  -2.916  -0.037  0.00  0.00    -0.080 A 
ATOM      4  C3  UNL d   1      -0.948  -3.587  -1.168  0.00  0.00     0.150 A 
ATOM      5  C4  UNL d   1      -0.970  -2.976  -2.417  0.00  0.00    -0.007 A 
ATOM      6  C5  UNL d   1      -1.461  -1.677  -2.542  0.00  0.00     0.039 A 
ENDROOT
BRANCH   4   7
ATOM      7  O   UNL d   1      -0.465  -4.860  -1.095  0.00  0.00    -0.526 OA
ATOM      8  H5  UNL d   1      -0.537  -5.164  -0.174  0.00  0.00     0.418 HD
ENDBRANCH   4   7
TORSDOF 1
ENDMDL
