MODEL 1
REMARK minimizedAffinity 15.1079168
REMARK minimizedRMSD -1
REMARK  1 active torsions:
REMARK  status: ('A' for Active; 'I' for Inactive)
REMARK    1  A    between atoms: C3_4  and  O_7 
ROOT
ATOM      1  C   UNL d   1      -1.394  -2.053  -0.119  0.00  0.00    -0.033 A 
ATOM      2  C1  UNL d   1      -2.655  -1.516   0.145  0.00  0.00     0.039 A 
ATOM      3  C2  UNL d   1      -3.384  -0.905  -0.878  0.00  0.00    -0.080 A 
ATOM      4  C3  UNL d   1      -2.841  -0.839  -2.158  0.00  0.00     0.150 A 
ATOM      5  C4  UNL d   1      -1.586  -1.375  -2.429  0.00  0.00    -0.007 A 
ATOM      6  C5  UNL d   1      -0.860  -1.984  -1.407  0.00  0.00     0.039 A 
ENDROOT
BRANCH   4   7
ATOM      7  O   UNL d   1      -3.512  -0.248  -3.187  0.00  0.00    -0.526 OA
ATOM      8  H5  UNL d   1      -4.352   0.103  -2.845  0.00  0.00     0.418 HD
ENDBRANCH   4   7
TORSDOF 1
ENDMDL
