MODEL 1
REMARK minimizedAffinity 13.0113173
REMARK minimizedRMSD -1
REMARK  1 active torsions:
REMARK  status: ('A' for Active; 'I' for Inactive)
REMARK    1  A    between atoms: C3_4  and  O_7 
ROOT
ATOM      1  C   UNL d   1      -2.300  -0.991  -1.492  0.00  0.00    -0.033 A 
ATOM      2  C1  UNL d   1      -1.201  -1.541  -2.154  0.00  0.00     0.039 A 
ATOM      3  C2  UNL d   1      -0.436  -2.532  -1.535  0.00  0.00    -0.080 A 
ATOM      4  C3  UNL d   1      -0.781  -2.964  -0.257  0.00  0.00     0.150 A 
ATOM      5  C4  UNL d   1      -1.877  -2.422   0.406  0.00  0.00    -0.007 A 
ATOM      6  C5  UNL d   1      -2.639  -1.432  -0.212  0.00  0.00     0.039 A 
ENDROOT
BRANCH   4   7
ATOM      7  O   UNL d   1      -0.062  -3.925   0.388  0.00  0.00    -0.526 OA
ATOM      8  H5  UNL d   1       0.682  -4.186  -0.180  0.00  0.00     0.418 HD
ENDBRANCH   4   7
TORSDOF 1
ENDMDL
