MODEL 1
REMARK minimizedAffinity 8.8874445
REMARK minimizedRMSD -1
REMARK  1 active torsions:
REMARK  status: ('A' for Active; 'I' for Inactive)
REMARK    1  A    between atoms: C3_4  and  O_7 
ROOT
ATOM      1  C   UNL d   1      -1.480  -1.471  -1.858  0.00  0.00    -0.033 A 
ATOM      2  C1  UNL d   1      -1.302  -1.937  -0.554  0.00  0.00     0.039 A 
ATOM      3  C2  UNL d   1      -0.922  -3.262  -0.330  0.00  0.00    -0.080 A 
ATOM      4  C3  UNL d   1      -0.722  -4.109  -1.416  0.00  0.00     0.150 A 
ATOM      5  C4  UNL d   1      -0.894  -3.650  -2.718  0.00  0.00    -0.007 A 
ATOM      6  C5  UNL d   1      -1.275  -2.327  -2.940  0.00  0.00     0.039 A 
ENDROOT
BRANCH   4   7
ATOM      7  O   UNL d   1      -0.355  -5.411  -1.247  0.00  0.00    -0.526 OA
ATOM      8  H5  UNL d   1      -0.302  -5.594  -0.294  0.00  0.00     0.418 HD
ENDBRANCH   4   7
TORSDOF 1
ENDMDL
