MODEL 1
REMARK minimizedAffinity 13.4313841
REMARK minimizedRMSD -1
REMARK  1 active torsions:
REMARK  status: ('A' for Active; 'I' for Inactive)
REMARK    1  A    between atoms: C3_4  and  O_7 
ROOT
ATOM      1  C   UNL d   1      -3.584   1.605  -5.328  0.00  0.00    -0.033 A 
ATOM      2  C1  UNL d   1      -3.235   2.778  -6.000  0.00  0.00     0.039 A 
ATOM      3  C2  UNL d   1      -2.011   3.396  -5.740  0.00  0.00    -0.080 A 
ATOM      4  C3  UNL d   1      -1.145   2.831  -4.808  0.00  0.00     0.150 A 
ATOM      5  C4  UNL d   1      -1.484   1.661  -4.137  0.00  0.00    -0.007 A 
ATOM      6  C5  UNL d   1      -2.708   1.046  -4.397  0.00  0.00     0.039 A 
ENDROOT
BRANCH   4   7
ATOM      7  O   UNL d   1       0.059   3.400  -4.517  0.00  0.00    -0.526 OA
ATOM      8  H5  UNL d   1       0.146   4.218  -5.035  0.00  0.00     0.418 HD
ENDBRANCH   4   7
TORSDOF 1
ENDMDL
