MODEL 1
REMARK minimizedAffinity -2.68652177
REMARK minimizedRMSD -1
REMARK  1 active torsions:
REMARK  status: ('A' for Active; 'I' for Inactive)
REMARK    1  A    between atoms: C1_2  and  C2_3 
ROOT
ATOM      1  C2  UNL d   1       0.204  -0.324  -0.359  0.00  0.00    -0.073 A 
ATOM      2  C3  UNL d   1       0.061  -1.673  -0.014  0.00  0.00    -0.002 A 
ATOM      3  C4  UNL d   1       0.939  -2.629  -0.527  0.00  0.00     0.004 A 
ATOM      4  C5  UNL d   1       1.972  -2.245  -1.383  0.00  0.00    -0.004 A 
ATOM      5  C6  UNL d   1       2.138  -0.901  -1.729  0.00  0.00    -0.075 A 
ATOM      6  C7  UNL d   1       3.243  -0.473  -2.650  0.00  0.00     0.076 C 
ATOM      7  C8  UNL d   1       1.251   0.052  -1.212  0.00  0.00     0.001 A 
ENDROOT
BRANCH   1   8
ATOM      8  C1  UNL d   1      -0.738   0.712   0.198  0.00  0.00     0.053 C 
ATOM      9  C   UNL d   1      -1.927   0.081   0.904  0.00  0.00     0.018 C 
ENDBRANCH   1   8
TORSDOF 1
ENDMDL
