MODEL 1
REMARK minimizedAffinity -5.60933924
REMARK minimizedRMSD -1
REMARK  1 active torsions:
REMARK  status: ('A' for Active; 'I' for Inactive)
REMARK    1  A    between atoms: C1_2  and  C2_3 
ROOT
ATOM      1  C2  UNL d   1      -0.401   0.424  -0.324  0.00  0.00    -0.073 A 
ATOM      2  C3  UNL d   1       0.228   1.356  -1.156  0.00  0.00    -0.002 A 
ATOM      3  C4  UNL d   1       1.304   0.972  -1.958  0.00  0.00     0.004 A 
ATOM      4  C5  UNL d   1       1.755  -0.347  -1.942  0.00  0.00    -0.004 A 
ATOM      5  C6  UNL d   1       1.131  -1.297  -1.126  0.00  0.00    -0.075 A 
ATOM      6  C7  UNL d   1       1.607  -2.719  -1.096  0.00  0.00     0.076 C 
ATOM      7  C8  UNL d   1       0.054  -0.902  -0.321  0.00  0.00     0.001 A 
ENDROOT
BRANCH   1   8
ATOM      8  C1  UNL d   1      -1.567   0.832   0.539  0.00  0.00     0.053 C 
ATOM      9  C   UNL d   1      -1.723  -0.071   1.752  0.00  0.00     0.018 C 
ENDBRANCH   1   8
TORSDOF 1
ENDMDL
