MODEL 1
REMARK minimizedAffinity -2.67383599
REMARK minimizedRMSD -1
REMARK  1 active torsions:
REMARK  status: ('A' for Active; 'I' for Inactive)
REMARK    1  A    between atoms: C1_2  and  C2_3 
ROOT
ATOM      1  C2  UNL d   1      -0.138  -0.043   0.318  0.00  0.00    -0.073 A 
ATOM      2  C3  UNL d   1       0.352   1.173  -0.172  0.00  0.00    -0.002 A 
ATOM      3  C4  UNL d   1       1.445   1.192  -1.040  0.00  0.00     0.004 A 
ATOM      4  C5  UNL d   1       2.053  -0.001  -1.431  0.00  0.00    -0.004 A 
ATOM      5  C6  UNL d   1       1.569  -1.226  -0.961  0.00  0.00    -0.075 A 
ATOM      6  C7  UNL d   1       2.213  -2.518  -1.370  0.00  0.00     0.076 C 
ATOM      7  C8  UNL d   1       0.473  -1.237  -0.088  0.00  0.00     0.001 A 
ENDROOT
BRANCH   1   8
ATOM      8  C1  UNL d   1      -1.322  -0.070   1.251  0.00  0.00     0.053 C 
ATOM      9  C   UNL d   1      -2.640  -0.135   0.496  0.00  0.00     0.018 C 
ENDBRANCH   1   8
TORSDOF 1
ENDMDL
