MODEL 1
REMARK minimizedAffinity -5.03516912
REMARK minimizedRMSD -1
REMARK  1 active torsions:
REMARK  status: ('A' for Active; 'I' for Inactive)
REMARK    1  A    between atoms: C1_2  and  C2_3 
ROOT
ATOM      1  C2  UNL d   1      -1.898   0.400   1.188  0.00  0.00    -0.073 A 
ATOM      2  C3  UNL d   1      -1.195   0.472   2.396  0.00  0.00    -0.002 A 
ATOM      3  C4  UNL d   1       0.144   0.867   2.410  0.00  0.00     0.004 A 
ATOM      4  C5  UNL d   1       0.790   1.200   1.219  0.00  0.00    -0.004 A 
ATOM      5  C6  UNL d   1       0.101   1.146   0.003  0.00  0.00    -0.075 A 
ATOM      6  C7  UNL d   1       0.782   1.499  -1.286  0.00  0.00     0.076 C 
ATOM      7  C8  UNL d   1      -1.242   0.745  -0.003  0.00  0.00     0.001 A 
ENDROOT
BRANCH   1   8
ATOM      8  C1  UNL d   1      -3.345  -0.020   1.168  0.00  0.00     0.053 C 
ATOM      9  C   UNL d   1      -4.282   1.153   1.406  0.00  0.00     0.018 C 
ENDBRANCH   1   8
TORSDOF 1
ENDMDL
