MODEL 1
REMARK minimizedAffinity -3.76770186
REMARK minimizedRMSD -1
REMARK  1 active torsions:
REMARK  status: ('A' for Active; 'I' for Inactive)
REMARK    1  A    between atoms: C1_2  and  C2_3 
ROOT
ATOM      1  C2  UNL d   1      -0.115   0.359   0.519  0.00  0.00    -0.073 A 
ATOM      2  C3  UNL d   1       0.034  -0.789   1.306  0.00  0.00    -0.002 A 
ATOM      3  C4  UNL d   1      -0.983  -1.184   2.176  0.00  0.00     0.004 A 
ATOM      4  C5  UNL d   1      -2.161  -0.442   2.262  0.00  0.00    -0.004 A 
ATOM      5  C6  UNL d   1      -2.334   0.701   1.475  0.00  0.00    -0.075 A 
ATOM      6  C7  UNL d   1      -3.594   1.512   1.558  0.00  0.00     0.076 C 
ATOM      7  C8  UNL d   1      -1.307   1.093   0.606  0.00  0.00     0.001 A 
ENDROOT
BRANCH   1   8
ATOM      8  C1  UNL d   1       0.977   0.786  -0.426  0.00  0.00     0.053 C 
ATOM      9  C   UNL d   1       0.495   1.830  -1.422  0.00  0.00     0.018 C 
ENDBRANCH   1   8
TORSDOF 1
ENDMDL
