MODEL 1
REMARK minimizedAffinity -2.99626923
REMARK minimizedRMSD -1
REMARK  1 active torsions:
REMARK  status: ('A' for Active; 'I' for Inactive)
REMARK    1  A    between atoms: C1_2  and  C2_3 
ROOT
ATOM      1  C2  UNL d   1       0.925   1.300  -0.666  0.00  0.00    -0.073 A 
ATOM      2  C3  UNL d   1      -0.361   0.768  -0.520  0.00  0.00    -0.002 A 
ATOM      3  C4  UNL d   1      -0.803  -0.250  -1.367  0.00  0.00     0.004 A 
ATOM      4  C5  UNL d   1       0.037  -0.750  -2.362  0.00  0.00    -0.004 A 
ATOM      5  C6  UNL d   1       1.330  -0.239  -2.516  0.00  0.00    -0.075 A 
ATOM      6  C7  UNL d   1       2.245  -0.764  -3.583  0.00  0.00     0.076 C 
ATOM      7  C8  UNL d   1       1.766   0.784  -1.663  0.00  0.00     0.001 A 
ENDROOT
BRANCH   1   8
ATOM      8  C1  UNL d   1       1.409   2.394   0.250  0.00  0.00     0.053 C 
ATOM      9  C   UNL d   1       1.303   1.999   1.715  0.00  0.00     0.018 C 
ENDBRANCH   1   8
TORSDOF 1
ENDMDL
