MODEL 1
REMARK minimizedAffinity -3.62421012
REMARK minimizedRMSD -1
REMARK  1 active torsions:
REMARK  status: ('A' for Active; 'I' for Inactive)
REMARK    1  A    between atoms: C1_2  and  C2_3 
ROOT
ATOM      1  C2  UNL d   1       0.893  -0.464  -1.481  0.00  0.00    -0.073 A 
ATOM      2  C3  UNL d   1       0.881  -1.844  -1.251  0.00  0.00    -0.002 A 
ATOM      3  C4  UNL d   1       0.087  -2.383  -0.237  0.00  0.00     0.004 A 
ATOM      4  C5  UNL d   1      -0.708  -1.549   0.550  0.00  0.00    -0.004 A 
ATOM      5  C6  UNL d   1      -0.719  -0.169   0.327  0.00  0.00    -0.075 A 
ATOM      6  C7  UNL d   1      -1.566   0.742   1.166  0.00  0.00     0.076 C 
ATOM      7  C8  UNL d   1       0.084   0.365  -0.691  0.00  0.00     0.001 A 
ENDROOT
BRANCH   1   8
ATOM      8  C1  UNL d   1       1.744   0.122  -2.578  0.00  0.00     0.053 C 
ATOM      9  C   UNL d   1       3.171   0.376  -2.118  0.00  0.00     0.018 C 
ENDBRANCH   1   8
TORSDOF 1
ENDMDL
