MODEL 1
REMARK minimizedAffinity -1.28160429
REMARK minimizedRMSD -1
REMARK  1 active torsions:
REMARK  status: ('A' for Active; 'I' for Inactive)
REMARK    1  A    between atoms: C1_2  and  C2_3 
ROOT
ATOM      1  C2  UNL d   1      -1.720   0.245   0.977  0.00  0.00    -0.073 A 
ATOM      2  C3  UNL d   1      -0.672   0.965   1.562  0.00  0.00    -0.002 A 
ATOM      3  C4  UNL d   1       0.587   0.991   0.961  0.00  0.00     0.004 A 
ATOM      4  C5  UNL d   1       0.810   0.306  -0.233  0.00  0.00    -0.004 A 
ATOM      5  C6  UNL d   1      -0.228  -0.410  -0.840  0.00  0.00    -0.075 A 
ATOM      6  C7  UNL d   1      -0.005  -1.155  -2.123  0.00  0.00     0.076 C 
ATOM      7  C8  UNL d   1      -1.489  -0.434  -0.228  0.00  0.00     0.001 A 
ENDROOT
BRANCH   1   8
ATOM      8  C1  UNL d   1      -3.082   0.219   1.619  0.00  0.00     0.053 C 
ATOM      9  C   UNL d   1      -3.265   1.353   2.615  0.00  0.00     0.018 C 
ENDBRANCH   1   8
TORSDOF 1
ENDMDL
