MODEL 1
REMARK minimizedAffinity -2.30589294
REMARK minimizedRMSD -1
REMARK  1 active torsions:
REMARK  status: ('A' for Active; 'I' for Inactive)
REMARK    1  A    between atoms: C1_2  and  C2_3 
ROOT
ATOM      1  C2  UNL d   1       1.826  -0.610  -1.258  0.00  0.00    -0.073 A 
ATOM      2  C3  UNL d   1       2.127   0.688  -1.685  0.00  0.00    -0.002 A 
ATOM      3  C4  UNL d   1       1.414   1.779  -1.185  0.00  0.00     0.004 A 
ATOM      4  C5  UNL d   1       0.399   1.583  -0.248  0.00  0.00    -0.004 A 
ATOM      5  C6  UNL d   1       0.091   0.295   0.200  0.00  0.00    -0.075 A 
ATOM      6  C7  UNL d   1      -0.999   0.067   1.206  0.00  0.00     0.076 C 
ATOM      7  C8  UNL d   1       0.810  -0.795  -0.309  0.00  0.00     0.001 A 
ENDROOT
BRANCH   1   8
ATOM      8  C1  UNL d   1       2.598  -1.789  -1.790  0.00  0.00     0.053 C 
ATOM      9  C   UNL d   1       1.986  -3.113  -1.359  0.00  0.00     0.018 C 
ENDBRANCH   1   8
TORSDOF 1
ENDMDL
