MODEL 1
REMARK minimizedAffinity -1.70433295
REMARK minimizedRMSD -1
REMARK  1 active torsions:
REMARK  status: ('A' for Active; 'I' for Inactive)
REMARK    1  A    between atoms: C1_2  and  C2_3 
ROOT
ATOM      1  C2  UNL d   1      -0.683   0.149  -0.156  0.00  0.00    -0.073 A 
ATOM      2  C3  UNL d   1      -0.016  -0.215   1.019  0.00  0.00    -0.002 A 
ATOM      3  C4  UNL d   1      -0.685  -0.199   2.244  0.00  0.00     0.004 A 
ATOM      4  C5  UNL d   1      -2.028   0.173   2.305  0.00  0.00    -0.004 A 
ATOM      5  C6  UNL d   1      -2.715   0.529   1.140  0.00  0.00    -0.075 A 
ATOM      6  C7  UNL d   1      -4.159   0.934   1.190  0.00  0.00     0.076 C 
ATOM      7  C8  UNL d   1      -2.036   0.513  -0.085  0.00  0.00     0.001 A 
ENDROOT
BRANCH   1   8
ATOM      8  C1  UNL d   1       0.033   0.128  -1.481  0.00  0.00     0.053 C 
ATOM      9  C   UNL d   1       0.704  -1.211  -1.745  0.00  0.00     0.018 C 
ENDBRANCH   1   8
TORSDOF 1
ENDMDL
