MODEL 1
REMARK minimizedAffinity -0.935583234
REMARK minimizedRMSD -1
REMARK  1 active torsions:
REMARK  status: ('A' for Active; 'I' for Inactive)
REMARK    1  A    between atoms: C1_2  and  C2_3 
ROOT
ATOM      1  C2  UNL d   1      -0.553  -0.109   0.511  0.00  0.00    -0.073 A 
ATOM      2  C3  UNL d   1      -0.408  -1.476   0.249  0.00  0.00    -0.002 A 
ATOM      3  C4  UNL d   1       0.561  -1.923  -0.651  0.00  0.00     0.004 A 
ATOM      4  C5  UNL d   1       1.398  -1.009  -1.291  0.00  0.00    -0.004 A 
ATOM      5  C6  UNL d   1       1.277   0.360  -1.032  0.00  0.00    -0.075 A 
ATOM      6  C7  UNL d   1       2.169   1.355  -1.714  0.00  0.00     0.076 C 
ATOM      7  C8  UNL d   1       0.300   0.800  -0.130  0.00  0.00     0.001 A 
ENDROOT
BRANCH   1   8
ATOM      8  C1  UNL d   1      -1.594   0.377   1.487  0.00  0.00     0.053 C 
ATOM      9  C   UNL d   1      -2.989   0.365   0.884  0.00  0.00     0.018 C 
ENDBRANCH   1   8
TORSDOF 1
ENDMDL
