MODEL 1
REMARK minimizedAffinity -4.14615965
REMARK minimizedRMSD -1
REMARK  1 active torsions:
REMARK  status: ('A' for Active; 'I' for Inactive)
REMARK    1  A    between atoms: C1_2  and  C2_3 
ROOT
ATOM      1  C2  UNL d   1       0.210   1.252  -0.903  0.00  0.00    -0.073 A 
ATOM      2  C3  UNL d   1      -0.981   1.976  -1.026  0.00  0.00    -0.002 A 
ATOM      3  C4  UNL d   1      -2.076   1.674  -0.215  0.00  0.00     0.004 A 
ATOM      4  C5  UNL d   1      -1.989   0.652   0.731  0.00  0.00    -0.004 A 
ATOM      5  C6  UNL d   1      -0.803  -0.075   0.876  0.00  0.00    -0.075 A 
ATOM      6  C7  UNL d   1      -0.693  -1.179   1.887  0.00  0.00     0.076 C 
ATOM      7  C8  UNL d   1       0.291   0.232   0.056  0.00  0.00     0.001 A 
ENDROOT
BRANCH   1   8
ATOM      8  C1  UNL d   1       1.397   1.579  -1.772  0.00  0.00     0.053 C 
ATOM      9  C   UNL d   1       2.196   0.337  -2.136  0.00  0.00     0.018 C 
ENDBRANCH   1   8
TORSDOF 1
ENDMDL
