MODEL 1
REMARK minimizedAffinity -5.25637865
REMARK minimizedRMSD -1
REMARK  1 active torsions:
REMARK  status: ('A' for Active; 'I' for Inactive)
REMARK    1  A    between atoms: C1_2  and  C2_3 
ROOT
ATOM      1  C2  UNL d   1       0.790   0.089  -1.140  0.00  0.00    -0.073 A 
ATOM      2  C3  UNL d   1      -0.256  -0.585  -0.500  0.00  0.00    -0.002 A 
ATOM      3  C4  UNL d   1      -0.612  -0.254   0.808  0.00  0.00     0.004 A 
ATOM      4  C5  UNL d   1       0.069   0.758   1.486  0.00  0.00    -0.004 A 
ATOM      5  C6  UNL d   1       1.109   1.451   0.858  0.00  0.00    -0.075 A 
ATOM      6  C7  UNL d   1       1.852   2.541   1.574  0.00  0.00     0.076 C 
ATOM      7  C8  UNL d   1       1.462   1.111  -0.454  0.00  0.00     0.001 A 
ENDROOT
BRANCH   1   8
ATOM      8  C1  UNL d   1       1.173  -0.261  -2.555  0.00  0.00     0.053 C 
ATOM      9  C   UNL d   1       2.564   0.241  -2.910  0.00  0.00     0.018 C 
ENDBRANCH   1   8
TORSDOF 1
ENDMDL
