MODEL 1
REMARK minimizedAffinity -3.25383568
REMARK minimizedRMSD -1
REMARK  1 active torsions:
REMARK  status: ('A' for Active; 'I' for Inactive)
REMARK    1  A    between atoms: C1_2  and  C2_3 
ROOT
ATOM      1  C2  UNL d   1       1.577  -0.301  -1.206  0.00  0.00    -0.073 A 
ATOM      2  C3  UNL d   1       1.962   1.022  -1.451  0.00  0.00    -0.002 A 
ATOM      3  C4  UNL d   1       1.222   2.080  -0.922  0.00  0.00     0.004 A 
ATOM      4  C5  UNL d   1       0.096   1.828  -0.139  0.00  0.00    -0.004 A 
ATOM      5  C6  UNL d   1      -0.297   0.512   0.127  0.00  0.00    -0.075 A 
ATOM      6  C7  UNL d   1      -1.507   0.223   0.966  0.00  0.00     0.076 C 
ATOM      7  C8  UNL d   1       0.449  -0.545  -0.410  0.00  0.00     0.001 A 
ENDROOT
BRANCH   1   8
ATOM      8  C1  UNL d   1       2.377  -1.447  -1.770  0.00  0.00     0.053 C 
ATOM      9  C   UNL d   1       1.890  -2.791  -1.252  0.00  0.00     0.018 C 
ENDBRANCH   1   8
TORSDOF 1
ENDMDL
