MODEL 1
REMARK minimizedAffinity -1.69979239
REMARK minimizedRMSD -1
REMARK  0 active torsions:
REMARK  status: ('A' for Active; 'I' for Inactive)
ROOT
ATOM      1  C   UNL d   1      -5.993  -2.320  -2.438  0.00  0.00     0.078 C 
ATOM      2  C1  UNL d   1      -5.876  -3.598  -1.663  0.00  0.00    -0.077 A 
ATOM      3  C2  UNL d   1      -5.983  -3.608  -0.267  0.00  0.00    -0.001 A 
ATOM      4  C3  UNL d   1      -5.862  -4.804   0.442  0.00  0.00     0.003 A 
ATOM      5  C4  UNL d   1      -5.634  -5.999  -0.236  0.00  0.00    -0.005 A 
ATOM      6  C5  UNL d   1      -5.525  -6.000  -1.625  0.00  0.00     0.003 A 
ATOM      7  C6  UNL d   1      -5.645  -4.805  -2.336  0.00  0.00    -0.001 A 
ENDROOT
TORSDOF 0
ENDMDL
