MODEL 1
REMARK minimizedAffinity 4.80294132
REMARK minimizedRMSD -1
REMARK  0 active torsions:
REMARK  status: ('A' for Active; 'I' for Inactive)
ROOT
ATOM      1  C   UNL d   1      -5.630  -2.283  -1.932  0.00  0.00     0.078 C 
ATOM      2  C1  UNL d   1      -5.389  -3.573  -1.206  0.00  0.00    -0.077 A 
ATOM      3  C2  UNL d   1      -4.893  -3.581   0.103  0.00  0.00    -0.001 A 
ATOM      4  C3  UNL d   1      -4.664  -4.790   0.763  0.00  0.00     0.003 A 
ATOM      5  C4  UNL d   1      -4.927  -5.998   0.121  0.00  0.00    -0.005 A 
ATOM      6  C5  UNL d   1      -5.419  -6.000  -1.182  0.00  0.00     0.003 A 
ATOM      7  C6  UNL d   1      -5.648  -4.792  -1.844  0.00  0.00    -0.001 A 
ENDROOT
TORSDOF 0
ENDMDL
