MODEL 1
REMARK minimizedAffinity 0.148122355
REMARK minimizedRMSD -1
REMARK  0 active torsions:
REMARK  status: ('A' for Active; 'I' for Inactive)
ROOT
ATOM      1  C   UNL d   1       4.546   0.067   1.765  0.00  0.00     0.078 C 
ATOM      2  C1  UNL d   1       3.131   0.373   2.158  0.00  0.00    -0.077 A 
ATOM      3  C2  UNL d   1       2.474   1.507   1.665  0.00  0.00    -0.001 A 
ATOM      4  C3  UNL d   1       1.160   1.784   2.046  0.00  0.00     0.003 A 
ATOM      5  C4  UNL d   1       0.492   0.932   2.923  0.00  0.00    -0.005 A 
ATOM      6  C5  UNL d   1       1.138  -0.198   3.421  0.00  0.00     0.003 A 
ATOM      7  C6  UNL d   1       2.452  -0.476   3.041  0.00  0.00    -0.001 A 
ENDROOT
TORSDOF 0
ENDMDL
