MODEL 1
REMARK minimizedAffinity -2.17599773
REMARK minimizedRMSD -1
REMARK  0 active torsions:
REMARK  status: ('A' for Active; 'I' for Inactive)
ROOT
ATOM      1  C   UNL d   1      -5.997  -2.300  -2.635  0.00  0.00     0.078 C 
ATOM      2  C1  UNL d   1      -5.963  -3.565  -1.830  0.00  0.00    -0.077 A 
ATOM      3  C2  UNL d   1      -5.898  -3.529  -0.432  0.00  0.00    -0.001 A 
ATOM      4  C3  UNL d   1      -5.858  -4.714   0.304  0.00  0.00     0.003 A 
ATOM      5  C4  UNL d   1      -5.881  -5.944  -0.350  0.00  0.00    -0.005 A 
ATOM      6  C5  UNL d   1      -5.943  -5.990  -1.741  0.00  0.00     0.003 A 
ATOM      7  C6  UNL d   1      -5.983  -4.806  -2.478  0.00  0.00    -0.001 A 
ENDROOT
TORSDOF 0
ENDMDL
