MODEL 1
REMARK minimizedAffinity 5.19579506
REMARK minimizedRMSD -1
REMARK  0 active torsions:
REMARK  status: ('A' for Active; 'I' for Inactive)
ROOT
ATOM      1  C   UNL d   1       3.215   5.637  -3.823  0.00  0.00     0.078 C 
ATOM      2  C1  UNL d   1       3.938   4.552  -4.563  0.00  0.00    -0.077 A 
ATOM      3  C2  UNL d   1       5.336   4.474  -4.545  0.00  0.00    -0.001 A 
ATOM      4  C3  UNL d   1       5.996   3.464  -5.247  0.00  0.00     0.003 A 
ATOM      5  C4  UNL d   1       5.267   2.525  -5.973  0.00  0.00    -0.005 A 
ATOM      6  C5  UNL d   1       3.875   2.596  -6.000  0.00  0.00     0.003 A 
ATOM      7  C6  UNL d   1       3.213   3.605  -5.298  0.00  0.00    -0.001 A 
ENDROOT
TORSDOF 0
ENDMDL
