MODEL 1
REMARK minimizedAffinity -4.5854845
REMARK minimizedRMSD -1
REMARK  0 active torsions:
REMARK  status: ('A' for Active; 'I' for Inactive)
ROOT
ATOM      1  C   UNL d   1      -4.874  -5.988   1.847  0.00  0.00     0.078 C 
ATOM      2  C1  UNL d   1      -5.218  -5.040   0.738  0.00  0.00    -0.077 A 
ATOM      3  C2  UNL d   1      -5.318  -3.663   0.971  0.00  0.00    -0.001 A 
ATOM      4  C3  UNL d   1      -5.649  -2.793  -0.069  0.00  0.00     0.003 A 
ATOM      5  C4  UNL d   1      -5.883  -3.290  -1.349  0.00  0.00    -0.005 A 
ATOM      6  C5  UNL d   1      -5.788  -4.659  -1.591  0.00  0.00     0.003 A 
ATOM      7  C6  UNL d   1      -5.458  -5.531  -0.552  0.00  0.00    -0.001 A 
ENDROOT
TORSDOF 0
ENDMDL
