MODEL 1
REMARK minimizedAffinity 0.123845093
REMARK minimizedRMSD -1
REMARK  0 active torsions:
REMARK  status: ('A' for Active; 'I' for Inactive)
ROOT
ATOM      1  C   UNL d   1       1.042  -1.366  -3.087  0.00  0.00     0.078 C 
ATOM      2  C1  UNL d   1       1.229  -0.054  -2.385  0.00  0.00    -0.077 A 
ATOM      3  C2  UNL d   1       0.314   0.384  -1.420  0.00  0.00    -0.001 A 
ATOM      4  C3  UNL d   1       0.495   1.611  -0.781  0.00  0.00     0.003 A 
ATOM      5  C4  UNL d   1       1.590   2.411  -1.100  0.00  0.00    -0.005 A 
ATOM      6  C5  UNL d   1       2.505   1.985  -2.061  0.00  0.00     0.003 A 
ATOM      7  C6  UNL d   1       2.325   0.758  -2.701  0.00  0.00    -0.001 A 
ENDROOT
TORSDOF 0
ENDMDL
