MODEL 1
REMARK minimizedAffinity 3.79344606
REMARK minimizedRMSD -1
REMARK  0 active torsions:
REMARK  status: ('A' for Active; 'I' for Inactive)
ROOT
ATOM      1  C   UNL d   1       6.000   3.735  -4.877  0.00  0.00     0.078 C 
ATOM      2  C1  UNL d   1       4.556   4.014  -5.171  0.00  0.00    -0.077 A 
ATOM      3  C2  UNL d   1       3.990   5.262  -4.882  0.00  0.00    -0.001 A 
ATOM      4  C3  UNL d   1       2.642   5.504  -5.152  0.00  0.00     0.003 A 
ATOM      5  C4  UNL d   1       1.849   4.504  -5.711  0.00  0.00    -0.005 A 
ATOM      6  C5  UNL d   1       2.404   3.259  -6.000  0.00  0.00     0.003 A 
ATOM      7  C6  UNL d   1       3.751   3.014  -5.730  0.00  0.00    -0.001 A 
ENDROOT
TORSDOF 0
ENDMDL
