MODEL 1
REMARK minimizedAffinity 1.78954315
REMARK minimizedRMSD -1
REMARK  0 active torsions:
REMARK  status: ('A' for Active; 'I' for Inactive)
ROOT
ATOM      1  C   UNL d   1       0.062  -0.390   4.180  0.00  0.00     0.078 C 
ATOM      2  C1  UNL d   1       0.621   0.860   3.566  0.00  0.00    -0.077 A 
ATOM      3  C2  UNL d   1       0.032   2.107   3.808  0.00  0.00    -0.001 A 
ATOM      4  C3  UNL d   1       0.557   3.260   3.223  0.00  0.00     0.003 A 
ATOM      5  C4  UNL d   1       1.672   3.178   2.391  0.00  0.00    -0.005 A 
ATOM      6  C5  UNL d   1       2.263   1.941   2.143  0.00  0.00     0.003 A 
ATOM      7  C6  UNL d   1       1.740   0.786   2.727  0.00  0.00    -0.001 A 
ENDROOT
TORSDOF 0
ENDMDL
