MODEL 1
REMARK minimizedAffinity 0.573367357
REMARK minimizedRMSD -1
REMARK  0 active torsions:
REMARK  status: ('A' for Active; 'I' for Inactive)
ROOT
ATOM      1  C   UNL d   1       1.940   3.069   4.214  0.00  0.00     0.078 C 
ATOM      2  C1  UNL d   1       1.028   1.995   3.700  0.00  0.00    -0.077 A 
ATOM      3  C2  UNL d   1      -0.309   2.272   3.389  0.00  0.00    -0.001 A 
ATOM      4  C3  UNL d   1      -1.149   1.261   2.921  0.00  0.00     0.003 A 
ATOM      5  C4  UNL d   1      -0.661  -0.035   2.760  0.00  0.00    -0.005 A 
ATOM      6  C5  UNL d   1       0.667  -0.321   3.069  0.00  0.00     0.003 A 
ATOM      7  C6  UNL d   1       1.508   0.690   3.537  0.00  0.00    -0.001 A 
ENDROOT
TORSDOF 0
ENDMDL
