MODEL 1
REMARK minimizedAffinity 5.7021122
REMARK minimizedRMSD -1
REMARK  0 active torsions:
REMARK  status: ('A' for Active; 'I' for Inactive)
ROOT
ATOM      1  C   UNL d   1       5.943   3.917  -4.474  0.00  0.00     0.078 C 
ATOM      2  C1  UNL d   1       4.501   4.017  -4.873  0.00  0.00    -0.077 A 
ATOM      3  C2  UNL d   1       3.890   3.008  -5.627  0.00  0.00    -0.001 A 
ATOM      4  C3  UNL d   1       2.549   3.120  -6.000  0.00  0.00     0.003 A 
ATOM      5  C4  UNL d   1       1.809   4.239  -5.624  0.00  0.00    -0.005 A 
ATOM      6  C5  UNL d   1       2.410   5.249  -4.876  0.00  0.00     0.003 A 
ATOM      7  C6  UNL d   1       3.750   5.140  -4.503  0.00  0.00    -0.001 A 
ENDROOT
TORSDOF 0
ENDMDL
