MODEL 1
REMARK minimizedAffinity 5.985641
REMARK minimizedRMSD -1
REMARK  0 active torsions:
REMARK  status: ('A' for Active; 'I' for Inactive)
ROOT
ATOM      1  C   UNL d   1       1.605   2.840  -1.027  0.00  0.00     0.078 C 
ATOM      2  C1  UNL d   1       2.311   3.467  -2.192  0.00  0.00    -0.077 A 
ATOM      3  C2  UNL d   1       3.244   2.743  -2.945  0.00  0.00    -0.001 A 
ATOM      4  C3  UNL d   1       3.900   3.343  -4.021  0.00  0.00     0.003 A 
ATOM      5  C4  UNL d   1       3.631   4.669  -4.353  0.00  0.00    -0.005 A 
ATOM      6  C5  UNL d   1       2.706   5.398  -3.609  0.00  0.00     0.003 A 
ATOM      7  C6  UNL d   1       2.049   4.800  -2.533  0.00  0.00    -0.001 A 
ENDROOT
TORSDOF 0
ENDMDL
