MODEL 1
REMARK minimizedAffinity 10.1370068
REMARK minimizedRMSD -1
REMARK  0 active torsions:
REMARK  status: ('A' for Active; 'I' for Inactive)
ROOT
ATOM      1  C   UNL d   1       2.119   3.100  -0.636  0.00  0.00     0.078 C 
ATOM      2  C1  UNL d   1       2.829   3.547  -1.879  0.00  0.00    -0.077 A 
ATOM      3  C2  UNL d   1       4.085   3.029  -2.218  0.00  0.00    -0.001 A 
ATOM      4  C3  UNL d   1       4.738   3.462  -3.373  0.00  0.00     0.003 A 
ATOM      5  C4  UNL d   1       4.145   4.416  -4.197  0.00  0.00    -0.005 A 
ATOM      6  C5  UNL d   1       2.897   4.939  -3.866  0.00  0.00     0.003 A 
ATOM      7  C6  UNL d   1       2.241   4.508  -2.712  0.00  0.00    -0.001 A 
ENDROOT
TORSDOF 0
ENDMDL
