MODEL 1
REMARK minimizedAffinity 3.72123837
REMARK minimizedRMSD -1
REMARK  0 active torsions:
REMARK  status: ('A' for Active; 'I' for Inactive)
ROOT
ATOM      1  C   UNL d   1      -3.942   3.540   2.394  0.00  0.00     0.078 C 
ATOM      2  C1  UNL d   1      -2.993   2.390   2.228  0.00  0.00    -0.077 A 
ATOM      3  C2  UNL d   1      -3.452   1.128   1.830  0.00  0.00    -0.001 A 
ATOM      4  C3  UNL d   1      -2.559   0.065   1.689  0.00  0.00     0.003 A 
ATOM      5  C4  UNL d   1      -1.202   0.252   1.945  0.00  0.00    -0.005 A 
ATOM      6  C5  UNL d   1      -0.737   1.504   2.344  0.00  0.00     0.003 A 
ATOM      7  C6  UNL d   1      -1.628   2.568   2.485  0.00  0.00    -0.001 A 
ENDROOT
TORSDOF 0
ENDMDL
