MODEL 1
REMARK minimizedAffinity -0.853914857
REMARK minimizedRMSD -1
REMARK  0 active torsions:
REMARK  status: ('A' for Active; 'I' for Inactive)
ROOT
ATOM      1  C   UNL d   1      -5.977  -5.970  -1.875  0.00  0.00     0.078 C 
ATOM      2  C1  UNL d   1      -5.992  -4.496  -2.150  0.00  0.00    -0.077 A 
ATOM      3  C2  UNL d   1      -5.990  -4.008  -3.462  0.00  0.00    -0.001 A 
ATOM      4  C3  UNL d   1      -5.995  -2.633  -3.704  0.00  0.00     0.003 A 
ATOM      5  C4  UNL d   1      -6.000  -1.735  -2.638  0.00  0.00    -0.005 A 
ATOM      6  C5  UNL d   1      -6.000  -2.212  -1.329  0.00  0.00     0.003 A 
ATOM      7  C6  UNL d   1      -5.995  -3.586  -1.085  0.00  0.00    -0.001 A 
ENDROOT
TORSDOF 0
ENDMDL
