MODEL 1
REMARK minimizedAffinity 0.919855535
REMARK minimizedRMSD -1
REMARK  0 active torsions:
REMARK  status: ('A' for Active; 'I' for Inactive)
ROOT
ATOM      1  C   UNL d   1      -5.249  -5.301   2.604  0.00  0.00     0.078 C 
ATOM      2  C1  UNL d   1      -5.495  -4.979   1.160  0.00  0.00    -0.077 A 
ATOM      3  C2  UNL d   1      -5.763  -3.667   0.750  0.00  0.00    -0.001 A 
ATOM      4  C3  UNL d   1      -6.000  -3.383  -0.596  0.00  0.00     0.003 A 
ATOM      5  C4  UNL d   1      -5.973  -4.405  -1.542  0.00  0.00    -0.005 A 
ATOM      6  C5  UNL d   1      -5.709  -5.714  -1.143  0.00  0.00     0.003 A 
ATOM      7  C6  UNL d   1      -5.472  -6.000   0.202  0.00  0.00    -0.001 A 
ENDROOT
TORSDOF 0
ENDMDL
