MODEL 1
REMARK minimizedAffinity 8.40964699
REMARK minimizedRMSD -1
REMARK  0 active torsions:
REMARK  status: ('A' for Active; 'I' for Inactive)
ROOT
ATOM      1  C   UNL d   1       1.923   3.113  -1.810  0.00  0.00     0.078 C 
ATOM      2  C1  UNL d   1       1.519   1.700  -2.111  0.00  0.00    -0.077 A 
ATOM      3  C2  UNL d   1       0.394   1.128  -1.505  0.00  0.00    -0.001 A 
ATOM      4  C3  UNL d   1       0.036  -0.192  -1.787  0.00  0.00     0.003 A 
ATOM      5  C4  UNL d   1       0.798  -0.950  -2.674  0.00  0.00    -0.005 A 
ATOM      6  C5  UNL d   1       1.920  -0.389  -3.279  0.00  0.00     0.003 A 
ATOM      7  C6  UNL d   1       2.280   0.930  -2.999  0.00  0.00    -0.001 A 
ENDROOT
TORSDOF 0
ENDMDL
