MODEL 1
REMARK minimizedAffinity -2.91785836
REMARK minimizedRMSD -1
REMARK  0 active torsions:
REMARK  status: ('A' for Active; 'I' for Inactive)
ROOT
ATOM      1  N1  IND d   1       0.915  -0.008   2.085  0.00  0.00    -0.196 N 
ATOM      2  C2  IND d   1      -0.041   0.481   2.931  0.00  0.00     0.054 A 
ATOM      3  C3  IND d   1      -1.185   0.728   2.256  0.00  0.00    -0.031 A 
ATOM      4  C4  IND d   1      -1.745   0.309  -0.222  0.00  0.00     0.051 A 
ATOM      5  C5  IND d   1      -1.182  -0.092  -1.401  0.00  0.00    -0.031 A 
ATOM      6  C6  IND d   1       0.135  -0.496  -1.479  0.00  0.00     0.015 A 
ATOM      7  C7  IND d   1       0.938  -0.525  -0.374  0.00  0.00    -0.016 A 
ATOM      8  C8  IND d   1       0.371  -0.112   0.823  0.00  0.00    -0.047 A 
ATOM      9  C9  IND d   1      -0.952   0.339   0.901  0.00  0.00    -0.096 A 
ATOM     10  HN1 IND d   1       1.720  -0.215   2.303  0.00  0.00     0.298 HD
ENDROOT
TORSDOF 0
ENDMDL
