MODEL 1
REMARK minimizedAffinity -2.18486571
REMARK minimizedRMSD -1
REMARK  0 active torsions:
REMARK  status: ('A' for Active; 'I' for Inactive)
ROOT
ATOM      1  N1  IND d   1       1.628  -1.386  -0.183  0.00  0.00    -0.196 N 
ATOM      2  C2  IND d   1       2.417  -1.315   0.931  0.00  0.00     0.054 A 
ATOM      3  C3  IND d   1       1.747  -0.722   1.945  0.00  0.00    -0.031 A 
ATOM      4  C4  IND d   1      -0.686   0.117   2.027  0.00  0.00     0.051 A 
ATOM      5  C5  IND d   1      -1.789   0.300   1.242  0.00  0.00    -0.031 A 
ATOM      6  C6  IND d   1      -1.811  -0.080  -0.085  0.00  0.00     0.015 A 
ATOM      7  C7  IND d   1      -0.730  -0.669  -0.675  0.00  0.00    -0.016 A 
ATOM      8  C8  IND d   1       0.395  -0.851   0.118  0.00  0.00    -0.047 A 
ATOM      9  C9  IND d   1       0.438  -0.429   1.453  0.00  0.00    -0.096 A 
ATOM     10  HN1 IND d   1       1.863  -1.710  -0.944  0.00  0.00     0.298 HD
ENDROOT
TORSDOF 0
ENDMDL
