MODEL 1
REMARK minimizedAffinity -3.39007592
REMARK minimizedRMSD -1
REMARK  0 active torsions:
REMARK  status: ('A' for Active; 'I' for Inactive)
ROOT
ATOM      1  N1  IND d   1      -1.633  -1.482  -3.988  0.00  0.00    -0.196 N 
ATOM      2  C2  IND d   1      -2.041  -1.362  -5.287  0.00  0.00     0.054 A 
ATOM      3  C3  IND d   1      -1.137  -0.653  -6.000  0.00  0.00    -0.031 A 
ATOM      4  C4  IND d   1       1.129   0.319  -5.261  0.00  0.00     0.051 A 
ATOM      5  C5  IND d   1       1.918   0.496  -4.159  0.00  0.00    -0.031 A 
ATOM      6  C6  IND d   1       1.557   0.010  -2.919  0.00  0.00     0.015 A 
ATOM      7  C7  IND d   1       0.394  -0.684  -2.736  0.00  0.00    -0.016 A 
ATOM      8  C8  IND d   1      -0.412  -0.859  -3.852  0.00  0.00    -0.047 A 
ATOM      9  C9  IND d   1      -0.072  -0.331  -5.104  0.00  0.00    -0.096 A 
ATOM     10  HN1 IND d   1      -2.066  -1.881  -3.361  0.00  0.00     0.298 HD
ENDROOT
TORSDOF 0
ENDMDL
