MODEL 1
REMARK minimizedAffinity -1.14654517
REMARK minimizedRMSD -1
REMARK  0 active torsions:
REMARK  status: ('A' for Active; 'I' for Inactive)
ROOT
ATOM      1  N1  IND d   1      -0.953  -0.337  -1.626  0.00  0.00    -0.196 N 
ATOM      2  C2  IND d   1      -0.095  -0.650  -0.609  0.00  0.00     0.054 A 
ATOM      3  C3  IND d   1       1.184  -0.622  -1.046  0.00  0.00    -0.031 A 
ATOM      4  C4  IND d   1       2.106   0.011  -3.365  0.00  0.00     0.051 A 
ATOM      5  C5  IND d   1       1.706   0.334  -4.632  0.00  0.00    -0.031 A 
ATOM      6  C6  IND d   1       0.373   0.456  -4.967  0.00  0.00     0.015 A 
ATOM      7  C7  IND d   1      -0.614   0.269  -4.042  0.00  0.00    -0.016 A 
ATOM      8  C8  IND d   1      -0.212  -0.067  -2.756  0.00  0.00    -0.047 A 
ATOM      9  C9  IND d   1       1.137  -0.233  -2.420  0.00  0.00    -0.096 A 
ATOM     10  HN1 IND d   1      -1.810  -0.312  -1.570  0.00  0.00     0.298 HD
ENDROOT
TORSDOF 0
ENDMDL
