MODEL 1
REMARK minimizedAffinity -4.14036322
REMARK minimizedRMSD -1
REMARK  0 active torsions:
REMARK  status: ('A' for Active; 'I' for Inactive)
ROOT
ATOM      1  N1  IND d   1       1.268  -0.522  -0.526  0.00  0.00    -0.196 N 
ATOM      2  C2  IND d   1       0.683  -1.017  -1.658  0.00  0.00     0.054 A 
ATOM      3  C3  IND d   1      -0.659  -0.874  -1.595  0.00  0.00    -0.031 A 
ATOM      4  C4  IND d   1      -2.102   0.237   0.225  0.00  0.00     0.051 A 
ATOM      5  C5  IND d   1      -2.022   0.803   1.466  0.00  0.00    -0.031 A 
ATOM      6  C6  IND d   1      -0.817   0.962   2.119  0.00  0.00     0.015 A 
ATOM      7  C7  IND d   1       0.360   0.569   1.547  0.00  0.00    -0.016 A 
ATOM      8  C8  IND d   1       0.282  -0.012   0.289  0.00  0.00    -0.047 A 
ATOM      9  C9  IND d   1      -0.942  -0.215  -0.360  0.00  0.00    -0.096 A 
ATOM     10  HN1 IND d   1       2.111  -0.528  -0.353  0.00  0.00     0.298 HD
ENDROOT
TORSDOF 0
ENDMDL
