MODEL 1
REMARK minimizedAffinity -3.51759171
REMARK minimizedRMSD -1
REMARK  0 active torsions:
REMARK  status: ('A' for Active; 'I' for Inactive)
ROOT
ATOM      1  N1  IND d   1       1.898  -0.818   2.015  0.00  0.00    -0.196 N 
ATOM      2  C2  IND d   1       1.911  -0.737   3.380  0.00  0.00     0.054 A 
ATOM      3  C3  IND d   1       0.735  -0.247   3.833  0.00  0.00    -0.031 A 
ATOM      4  C4  IND d   1      -1.385   0.395   2.521  0.00  0.00     0.051 A 
ATOM      5  C5  IND d   1      -1.865   0.528   1.248  0.00  0.00    -0.031 A 
ATOM      6  C6  IND d   1      -1.101   0.210   0.144  0.00  0.00     0.015 A 
ATOM      7  C7  IND d   1       0.173  -0.266   0.272  0.00  0.00    -0.016 A 
ATOM      8  C8  IND d   1       0.667  -0.395   1.563  0.00  0.00    -0.047 A 
ATOM      9  C9  IND d   1      -0.089  -0.034   2.686  0.00  0.00    -0.096 A 
ATOM     10  HN1 IND d   1       2.549  -1.087   1.522  0.00  0.00     0.298 HD
ENDROOT
TORSDOF 0
ENDMDL
