MODEL 1
REMARK minimizedAffinity -0.956102788
REMARK minimizedRMSD -1
REMARK  0 active torsions:
REMARK  status: ('A' for Active; 'I' for Inactive)
ROOT
ATOM      1  N1  IND d   1       0.058   1.169  -3.132  0.00  0.00    -0.196 N 
ATOM      2  C2  IND d   1       0.533   0.257  -4.033  0.00  0.00     0.054 A 
ATOM      3  C3  IND d   1       0.945  -0.862  -3.396  0.00  0.00    -0.031 A 
ATOM      4  C4  IND d   1       0.835  -1.454  -0.893  0.00  0.00     0.051 A 
ATOM      5  C5  IND d   1       0.515  -0.925   0.326  0.00  0.00    -0.031 A 
ATOM      6  C6  IND d   1       0.012   0.353   0.457  0.00  0.00     0.015 A 
ATOM      7  C7  IND d   1      -0.199   1.150  -0.632  0.00  0.00    -0.016 A 
ATOM      8  C8  IND d   1       0.132   0.620  -1.871  0.00  0.00    -0.047 A 
ATOM      9  C9  IND d   1       0.682  -0.662  -2.006  0.00  0.00    -0.096 A 
ATOM     10  HN1 IND d   1      -0.238   1.954  -3.321  0.00  0.00     0.298 HD
ENDROOT
TORSDOF 0
ENDMDL
