MODEL 1
REMARK minimizedAffinity -3.02193093
REMARK minimizedRMSD -1
REMARK  0 active torsions:
REMARK  status: ('A' for Active; 'I' for Inactive)
ROOT
ATOM      1  N1  IND d   1       1.521  -0.479   2.079  0.00  0.00    -0.196 N 
ATOM      2  C2  IND d   1       1.403  -0.063   3.375  0.00  0.00     0.054 A 
ATOM      3  C3  IND d   1       0.230   0.584   3.557  0.00  0.00    -0.031 A 
ATOM      4  C4  IND d   1      -1.692   0.986   1.892  0.00  0.00     0.051 A 
ATOM      5  C5  IND d   1      -2.030   0.823   0.578  0.00  0.00    -0.031 A 
ATOM      6  C6  IND d   1      -1.186   0.203  -0.321  0.00  0.00     0.015 A 
ATOM      7  C7  IND d   1       0.028  -0.290   0.066  0.00  0.00    -0.016 A 
ATOM      8  C8  IND d   1       0.378  -0.120   1.398  0.00  0.00    -0.047 A 
ATOM      9  C9  IND d   1      -0.456   0.547   2.305  0.00  0.00    -0.096 A 
ATOM     10  HN1 IND d   1       2.195  -0.895   1.744  0.00  0.00     0.298 HD
ENDROOT
TORSDOF 0
ENDMDL
