MODEL 1
REMARK minimizedAffinity -2.63711667
REMARK minimizedRMSD -1
REMARK  0 active torsions:
REMARK  status: ('A' for Active; 'I' for Inactive)
ROOT
ATOM      1  N1  IND d   1       1.738  -0.817   2.099  0.00  0.00    -0.196 N 
ATOM      2  C2  IND d   1       1.656  -0.811   3.464  0.00  0.00     0.054 A 
ATOM      3  C3  IND d   1       0.467  -0.305   3.861  0.00  0.00    -0.031 A 
ATOM      4  C4  IND d   1      -1.533   0.480   2.442  0.00  0.00     0.051 A 
ATOM      5  C5  IND d   1      -1.916   0.698   1.149  0.00  0.00    -0.031 A 
ATOM      6  C6  IND d   1      -1.085   0.414   0.084  0.00  0.00     0.015 A 
ATOM      7  C7  IND d   1       0.161  -0.112   0.274  0.00  0.00    -0.016 A 
ATOM      8  C8  IND d   1       0.557  -0.328   1.587  0.00  0.00    -0.047 A 
ATOM      9  C9  IND d   1      -0.266  -0.002   2.673  0.00  0.00    -0.096 A 
ATOM     10  HN1 IND d   1       2.414  -1.082   1.639  0.00  0.00     0.298 HD
ENDROOT
TORSDOF 0
ENDMDL
