MODEL 1
REMARK minimizedAffinity 4.23918819
REMARK minimizedRMSD -1
REMARK  0 active torsions:
REMARK  status: ('A' for Active; 'I' for Inactive)
ROOT
ATOM      1  C   UNL d   1       1.757  -2.241  -1.462  0.00  0.00    -0.002 A 
ATOM      2  C1  UNL d   1       0.958  -2.408  -2.584  0.00  0.00     0.010 A 
ATOM      3  C2  UNL d   1      -0.419  -2.599  -2.453  0.00  0.00     0.041 A 
ATOM      4  C3  UNL d   1      -0.985  -2.618  -1.163  0.00  0.00    -0.075 A 
ATOM      5  S   UNL d   1      -2.647  -2.836  -0.760  0.00  0.00     0.015 SA
ATOM      6  C4  UNL d   1      -2.335  -2.712   0.911  0.00  0.00     0.022 A 
ATOM      7  C5  UNL d   1      -1.000  -2.509   1.173  0.00  0.00     0.026 A 
ATOM      8  C6  UNL d   1      -0.200  -2.451  -0.018  0.00  0.00    -0.082 A 
ATOM      9  C7  UNL d   1       1.193  -2.260  -0.184  0.00  0.00     0.045 A 
ENDROOT
TORSDOF 0
ENDMDL
