MODEL 1
REMARK minimizedAffinity 4.22494411
REMARK minimizedRMSD -1
REMARK  0 active torsions:
REMARK  status: ('A' for Active; 'I' for Inactive)
ROOT
ATOM      1  C   UNL d   1       4.857   3.150  -2.034  0.00  0.00     0.077 C 
ATOM      2  C1  UNL d   1       4.818   2.572  -3.417  0.00  0.00    -0.074 A 
ATOM      3  C2  UNL d   1       5.996   2.222  -4.084  0.00  0.00    -0.005 A 
ATOM      4  C3  UNL d   1       5.944   1.677  -5.367  0.00  0.00     0.006 A 
ATOM      5  C4  UNL d   1       4.714   1.476  -5.995  0.00  0.00    -0.005 A 
ATOM      6  C5  UNL d   1       3.525   1.819  -5.343  0.00  0.00    -0.074 A 
ATOM      7  C6  UNL d   1       2.194   1.600  -6.000  0.00  0.00     0.077 C 
ATOM      8  C7  UNL d   1       3.586   2.360  -4.052  0.00  0.00    -0.001 A 
ENDROOT
TORSDOF 0
ENDMDL
