MODEL 1
REMARK minimizedAffinity -0.543477774
REMARK minimizedRMSD -1
REMARK  0 active torsions:
REMARK  status: ('A' for Active; 'I' for Inactive)
ROOT
ATOM      1  C   UNL d   1      -2.475   5.994  -5.967  0.00  0.00     0.077 C 
ATOM      2  C1  UNL d   1      -2.048   4.556  -5.971  0.00  0.00    -0.074 A 
ATOM      3  C2  UNL d   1      -2.993   3.525  -5.983  0.00  0.00    -0.005 A 
ATOM      4  C3  UNL d   1      -2.580   2.193  -5.997  0.00  0.00     0.006 A 
ATOM      5  C4  UNL d   1      -1.220   1.879  -5.999  0.00  0.00    -0.005 A 
ATOM      6  C5  UNL d   1      -0.261   2.896  -5.988  0.00  0.00    -0.074 A 
ATOM      7  C6  UNL d   1       1.204   2.576  -6.000  0.00  0.00     0.077 C 
ATOM      8  C7  UNL d   1      -0.684   4.233  -5.981  0.00  0.00    -0.001 A 
ENDROOT
TORSDOF 0
ENDMDL
