MODEL 1
REMARK minimizedAffinity -3.58209372
REMARK minimizedRMSD -1
REMARK  0 active torsions:
REMARK  status: ('A' for Active; 'I' for Inactive)
ROOT
ATOM      1  C   UNL d   1       0.923   2.248  -5.998  0.00  0.00     0.077 C 
ATOM      2  C1  UNL d   1      -0.084   3.359  -5.991  0.00  0.00    -0.074 A 
ATOM      3  C2  UNL d   1       0.322   4.697  -5.997  0.00  0.00    -0.005 A 
ATOM      4  C3  UNL d   1      -0.626   5.720  -6.000  0.00  0.00     0.006 A 
ATOM      5  C4  UNL d   1      -1.988   5.416  -5.997  0.00  0.00    -0.005 A 
ATOM      6  C5  UNL d   1      -2.413   4.084  -5.993  0.00  0.00    -0.074 A 
ATOM      7  C6  UNL d   1      -3.873   3.739  -6.000  0.00  0.00     0.077 C 
ATOM      8  C7  UNL d   1      -1.454   3.061  -5.996  0.00  0.00    -0.001 A 
ENDROOT
TORSDOF 0
ENDMDL
