MODEL 1
REMARK minimizedAffinity -0.795736551
REMARK minimizedRMSD -1
REMARK  0 active torsions:
REMARK  status: ('A' for Active; 'I' for Inactive)
ROOT
ATOM      1  C   UNL d   1       1.631   1.889  -6.000  0.00  0.00     0.077 C 
ATOM      2  C1  UNL d   1       0.532   2.910  -5.991  0.00  0.00    -0.074 A 
ATOM      3  C2  UNL d   1       0.821   4.278  -5.998  0.00  0.00    -0.005 A 
ATOM      4  C3  UNL d   1      -0.212   5.215  -6.000  0.00  0.00     0.006 A 
ATOM      5  C4  UNL d   1      -1.542   4.794  -5.995  0.00  0.00    -0.005 A 
ATOM      6  C5  UNL d   1      -1.851   3.430  -5.989  0.00  0.00    -0.074 A 
ATOM      7  C6  UNL d   1      -3.275   2.961  -5.994  0.00  0.00     0.077 C 
ATOM      8  C7  UNL d   1      -0.807   2.495  -5.994  0.00  0.00    -0.001 A 
ENDROOT
TORSDOF 0
ENDMDL
