MODEL 1
REMARK minimizedAffinity -2.17578053
REMARK minimizedRMSD -1
REMARK  0 active torsions:
REMARK  status: ('A' for Active; 'I' for Inactive)
ROOT
ATOM      1  C   UNL d   1      -0.388   2.361  -5.992  0.00  0.00     0.077 C 
ATOM      2  C1  UNL d   1      -1.252   3.587  -5.986  0.00  0.00    -0.074 A 
ATOM      3  C2  UNL d   1      -0.685   4.865  -5.995  0.00  0.00    -0.005 A 
ATOM      4  C3  UNL d   1      -1.501   5.996  -6.000  0.00  0.00     0.006 A 
ATOM      5  C4  UNL d   1      -2.890   5.861  -5.996  0.00  0.00    -0.005 A 
ATOM      6  C5  UNL d   1      -3.475   4.590  -5.988  0.00  0.00    -0.074 A 
ATOM      7  C6  UNL d   1      -4.966   4.427  -5.993  0.00  0.00     0.077 C 
ATOM      8  C7  UNL d   1      -2.648   3.459  -5.990  0.00  0.00    -0.001 A 
ENDROOT
TORSDOF 0
ENDMDL
