MODEL 1
REMARK minimizedAffinity -2.61704159
REMARK minimizedRMSD -1
REMARK  0 active torsions:
REMARK  status: ('A' for Active; 'I' for Inactive)
ROOT
ATOM      1  C   UNL d   1      -5.000   5.971  -5.911  0.00  0.00     0.077 C 
ATOM      2  C1  UNL d   1      -3.705   5.215  -5.934  0.00  0.00    -0.074 A 
ATOM      3  C2  UNL d   1      -3.689   3.817  -5.954  0.00  0.00    -0.005 A 
ATOM      4  C3  UNL d   1      -2.476   3.128  -5.985  0.00  0.00     0.006 A 
ATOM      5  C4  UNL d   1      -1.270   3.829  -5.996  0.00  0.00    -0.005 A 
ATOM      6  C5  UNL d   1      -1.266   5.227  -5.977  0.00  0.00    -0.074 A 
ATOM      7  C6  UNL d   1       0.021   5.996  -5.998  0.00  0.00     0.077 C 
ATOM      8  C7  UNL d   1      -2.489   5.912  -5.953  0.00  0.00    -0.001 A 
ENDROOT
TORSDOF 0
ENDMDL
