MODEL 1
REMARK minimizedAffinity -2.27321315
REMARK minimizedRMSD -1
REMARK  0 active torsions:
REMARK  status: ('A' for Active; 'I' for Inactive)
ROOT
ATOM      1  C   UNL d   1      -3.773   3.376  -5.993  0.00  0.00     0.077 C 
ATOM      2  C1  UNL d   1      -2.366   3.894  -6.000  0.00  0.00    -0.074 A 
ATOM      3  C2  UNL d   1      -2.106   5.269  -5.992  0.00  0.00    -0.005 A 
ATOM      4  C3  UNL d   1      -0.792   5.736  -5.989  0.00  0.00     0.006 A 
ATOM      5  C4  UNL d   1       0.274   4.836  -5.993  0.00  0.00    -0.005 A 
ATOM      6  C5  UNL d   1       0.034   3.458  -5.999  0.00  0.00    -0.074 A 
ATOM      7  C6  UNL d   1       1.168   2.476  -5.994  0.00  0.00     0.077 C 
ATOM      8  C7  UNL d   1      -1.290   2.996  -5.996  0.00  0.00    -0.001 A 
ENDROOT
TORSDOF 0
ENDMDL
