MODEL 1
REMARK minimizedAffinity -1.89908576
REMARK minimizedRMSD -1
REMARK  0 active torsions:
REMARK  status: ('A' for Active; 'I' for Inactive)
ROOT
ATOM      1  C   UNL d   1       0.517   2.357  -5.998  0.00  0.00     0.077 C 
ATOM      2  C1  UNL d   1      -0.413   3.534  -5.990  0.00  0.00    -0.074 A 
ATOM      3  C2  UNL d   1       0.083   4.842  -5.997  0.00  0.00    -0.005 A 
ATOM      4  C3  UNL d   1      -0.793   5.927  -5.999  0.00  0.00     0.006 A 
ATOM      5  C4  UNL d   1      -2.173   5.716  -5.994  0.00  0.00    -0.005 A 
ATOM      6  C5  UNL d   1      -2.687   4.415  -5.988  0.00  0.00    -0.074 A 
ATOM      7  C6  UNL d   1      -4.167   4.171  -5.993  0.00  0.00     0.077 C 
ATOM      8  C7  UNL d   1      -1.800   3.330  -5.993  0.00  0.00    -0.001 A 
ENDROOT
TORSDOF 0
ENDMDL
