MODEL 1
REMARK minimizedAffinity -1.56398976
REMARK minimizedRMSD -1
REMARK  0 active torsions:
REMARK  status: ('A' for Active; 'I' for Inactive)
ROOT
ATOM      1  C   UNL d   1      -3.818   3.739  -5.983  0.00  0.00     0.077 C 
ATOM      2  C1  UNL d   1      -2.336   3.969  -5.996  0.00  0.00    -0.074 A 
ATOM      3  C2  UNL d   1      -1.810   5.265  -5.997  0.00  0.00    -0.005 A 
ATOM      4  C3  UNL d   1      -0.429   5.463  -5.999  0.00  0.00     0.006 A 
ATOM      5  C4  UNL d   1       0.438   4.370  -6.000  0.00  0.00    -0.005 A 
ATOM      6  C5  UNL d   1      -0.070   3.067  -5.998  0.00  0.00    -0.074 A 
ATOM      7  C6  UNL d   1       0.848   1.881  -5.989  0.00  0.00     0.077 C 
ATOM      8  C7  UNL d   1      -1.458   2.876  -5.989  0.00  0.00    -0.001 A 
ENDROOT
TORSDOF 0
ENDMDL
