MODEL 1
REMARK minimizedAffinity 8.63219452
REMARK minimizedRMSD -1
REMARK  0 active torsions:
REMARK  status: ('A' for Active; 'I' for Inactive)
ROOT
ATOM      1  C   UNL d   1      -0.613  -0.604  -0.889  0.00  0.00     0.077 C 
ATOM      2  C1  UNL d   1      -1.021  -1.977  -1.337  0.00  0.00    -0.074 A 
ATOM      3  C2  UNL d   1      -0.321  -2.641  -2.348  0.00  0.00    -0.005 A 
ATOM      4  C3  UNL d   1      -0.706  -3.921  -2.747  0.00  0.00     0.006 A 
ATOM      5  C4  UNL d   1      -1.794  -4.548  -2.140  0.00  0.00    -0.005 A 
ATOM      6  C5  UNL d   1      -2.506  -3.900  -1.126  0.00  0.00    -0.074 A 
ATOM      7  C6  UNL d   1      -3.672  -4.564  -0.455  0.00  0.00     0.077 C 
ATOM      8  C7  UNL d   1      -2.109  -2.617  -0.726  0.00  0.00    -0.001 A 
ENDROOT
TORSDOF 0
ENDMDL
