MODEL 1
REMARK minimizedAffinity -3.09987664
REMARK minimizedRMSD -1
REMARK  0 active torsions:
REMARK  status: ('A' for Active; 'I' for Inactive)
ROOT
ATOM      1  C   UNL d   1      -4.235   4.155  -5.999  0.00  0.00     0.077 C 
ATOM      2  C1  UNL d   1      -2.753   4.383  -6.000  0.00  0.00    -0.074 A 
ATOM      3  C2  UNL d   1      -2.224   5.678  -5.983  0.00  0.00    -0.005 A 
ATOM      4  C3  UNL d   1      -0.844   5.874  -5.974  0.00  0.00     0.006 A 
ATOM      5  C4  UNL d   1       0.022   4.779  -5.982  0.00  0.00    -0.005 A 
ATOM      6  C5  UNL d   1      -0.488   3.477  -5.998  0.00  0.00    -0.074 A 
ATOM      7  C6  UNL d   1       0.428   2.289  -5.997  0.00  0.00     0.077 C 
ATOM      8  C7  UNL d   1      -1.877   3.288  -6.000  0.00  0.00    -0.001 A 
ENDROOT
TORSDOF 0
ENDMDL
