MODEL 1
REMARK minimizedAffinity -0.751004577
REMARK minimizedRMSD -1
REMARK  0 active torsions:
REMARK  status: ('A' for Active; 'I' for Inactive)
ROOT
ATOM      1  C   UNL d   1      -4.584   4.410  -5.975  0.00  0.00     0.077 C 
ATOM      2  C1  UNL d   1      -3.093   4.574  -5.989  0.00  0.00    -0.074 A 
ATOM      3  C2  UNL d   1      -2.510   5.845  -5.993  0.00  0.00    -0.005 A 
ATOM      4  C3  UNL d   1      -1.122   5.982  -5.996  0.00  0.00     0.006 A 
ATOM      5  C4  UNL d   1      -0.304   4.851  -5.995  0.00  0.00    -0.005 A 
ATOM      6  C5  UNL d   1      -0.870   3.572  -5.990  0.00  0.00    -0.074 A 
ATOM      7  C6  UNL d   1      -0.006   2.346  -5.979  0.00  0.00     0.077 C 
ATOM      8  C7  UNL d   1      -2.265   3.443  -5.980  0.00  0.00    -0.001 A 
ENDROOT
TORSDOF 0
ENDMDL
