MODEL 1
REMARK minimizedAffinity -0.627416134
REMARK minimizedRMSD -1
REMARK  0 active torsions:
REMARK  status: ('A' for Active; 'I' for Inactive)
ROOT
ATOM      1  C   UNL d   1      -5.076   3.310  -5.972  0.00  0.00     0.077 C 
ATOM      2  C1  UNL d   1      -3.739   3.988  -5.988  0.00  0.00    -0.074 A 
ATOM      3  C2  UNL d   1      -3.640   5.383  -5.991  0.00  0.00    -0.005 A 
ATOM      4  C3  UNL d   1      -2.389   6.000  -5.996  0.00  0.00     0.006 A 
ATOM      5  C4  UNL d   1      -1.225   5.229  -5.999  0.00  0.00    -0.005 A 
ATOM      6  C5  UNL d   1      -1.305   3.833  -5.996  0.00  0.00    -0.074 A 
ATOM      7  C6  UNL d   1      -0.064   2.989  -5.990  0.00  0.00     0.077 C 
ATOM      8  C7  UNL d   1      -2.565   3.221  -5.984  0.00  0.00    -0.001 A 
ENDROOT
TORSDOF 0
ENDMDL
