MODEL 1
REMARK minimizedAffinity 1.55223596
REMARK minimizedRMSD -1
REMARK  0 active torsions:
REMARK  status: ('A' for Active; 'I' for Inactive)
ROOT
ATOM      1  C   UNL d   1       5.921  -5.101   6.000  0.00  0.00     0.077 C 
ATOM      2  C1  UNL d   1       5.681  -3.915   5.114  0.00  0.00    -0.074 A 
ATOM      3  C2  UNL d   1       5.185  -4.076   3.816  0.00  0.00    -0.005 A 
ATOM      4  C3  UNL d   1       4.957  -2.962   3.007  0.00  0.00     0.006 A 
ATOM      5  C4  UNL d   1       5.223  -1.679   3.487  0.00  0.00    -0.005 A 
ATOM      6  C5  UNL d   1       5.718  -1.499   4.782  0.00  0.00    -0.074 A 
ATOM      7  C6  UNL d   1       6.000  -0.126   5.316  0.00  0.00     0.077 C 
ATOM      8  C7  UNL d   1       5.938  -2.622   5.591  0.00  0.00    -0.001 A 
ENDROOT
TORSDOF 0
ENDMDL
