MODEL 1
REMARK minimizedAffinity 0.63304162
REMARK minimizedRMSD -1
REMARK  0 active torsions:
REMARK  status: ('A' for Active; 'I' for Inactive)
ROOT
ATOM      1  C   UNL d   1      -5.999  -0.734   1.307  0.00  0.00     0.077 C 
ATOM      2  C1  UNL d   1      -5.938  -1.864   0.323  0.00  0.00    -0.074 A 
ATOM      3  C2  UNL d   1      -5.999  -1.623  -1.053  0.00  0.00    -0.005 A 
ATOM      4  C3  UNL d   1      -5.931  -2.683  -1.957  0.00  0.00     0.006 A 
ATOM      5  C4  UNL d   1      -5.801  -3.993  -1.494  0.00  0.00    -0.005 A 
ATOM      6  C5  UNL d   1      -5.737  -4.254  -0.121  0.00  0.00    -0.074 A 
ATOM      7  C6  UNL d   1      -5.587  -5.655   0.392  0.00  0.00     0.077 C 
ATOM      8  C7  UNL d   1      -5.799  -3.182   0.780  0.00  0.00    -0.001 A 
ENDROOT
TORSDOF 0
ENDMDL
