MODEL 1
REMARK minimizedAffinity 15.0850945
REMARK minimizedRMSD -1
REMARK  0 active torsions:
REMARK  status: ('A' for Active; 'I' for Inactive)
ROOT
ATOM      1  C   UNL d   1       5.999   3.422  -5.018  0.00  0.00     0.077 C 
ATOM      2  C1  UNL d   1       4.875   3.945  -4.174  0.00  0.00    -0.074 A 
ATOM      3  C2  UNL d   1       4.379   5.240  -4.360  0.00  0.00    -0.005 A 
ATOM      4  C3  UNL d   1       3.327   5.709  -3.574  0.00  0.00     0.006 A 
ATOM      5  C4  UNL d   1       2.761   4.891  -2.595  0.00  0.00    -0.005 A 
ATOM      6  C5  UNL d   1       3.243   3.593  -2.396  0.00  0.00    -0.074 A 
ATOM      7  C6  UNL d   1       2.639   2.697  -1.356  0.00  0.00     0.077 C 
ATOM      8  C7  UNL d   1       4.296   3.126  -3.194  0.00  0.00    -0.001 A 
ENDROOT
TORSDOF 0
ENDMDL
