MODEL 1
REMARK minimizedAffinity -0.269444972
REMARK minimizedRMSD -1
REMARK  0 active torsions:
REMARK  status: ('A' for Active; 'I' for Inactive)
ROOT
ATOM      1  C   UNL d   1      -6.000  -1.514  -3.627  0.00  0.00     0.077 C 
ATOM      2  C1  UNL d   1      -5.310  -2.562  -4.449  0.00  0.00    -0.074 A 
ATOM      3  C2  UNL d   1      -5.986  -3.715  -4.860  0.00  0.00    -0.005 A 
ATOM      4  C3  UNL d   1      -5.334  -4.676  -5.631  0.00  0.00     0.006 A 
ATOM      5  C4  UNL d   1      -4.000  -4.495  -6.000  0.00  0.00    -0.005 A 
ATOM      6  C5  UNL d   1      -3.307  -3.348  -5.599  0.00  0.00    -0.074 A 
ATOM      7  C6  UNL d   1      -1.877  -3.133  -5.994  0.00  0.00     0.077 C 
ATOM      8  C7  UNL d   1      -3.972  -2.383  -4.830  0.00  0.00    -0.001 A 
ENDROOT
TORSDOF 0
ENDMDL
