MODEL 1
REMARK minimizedAffinity 12.6930676
REMARK minimizedRMSD -1
REMARK  0 active torsions:
REMARK  status: ('A' for Active; 'I' for Inactive)
ROOT
ATOM      1  C   UNL d   1      -4.998  -1.798   0.601  0.00  0.00     0.077 C 
ATOM      2  C1  UNL d   1      -4.618  -3.245   0.501  0.00  0.00    -0.074 A 
ATOM      3  C2  UNL d   1      -4.699  -3.927  -0.717  0.00  0.00    -0.005 A 
ATOM      4  C3  UNL d   1      -4.332  -5.270  -0.796  0.00  0.00     0.006 A 
ATOM      5  C4  UNL d   1      -3.882  -5.944   0.339  0.00  0.00    -0.005 A 
ATOM      6  C5  UNL d   1      -3.794  -5.279   1.566  0.00  0.00    -0.074 A 
ATOM      7  C6  UNL d   1      -3.302  -5.985   2.794  0.00  0.00     0.077 C 
ATOM      8  C7  UNL d   1      -4.157  -3.927   1.636  0.00  0.00    -0.001 A 
ENDROOT
TORSDOF 0
ENDMDL
