MODEL 1
REMARK minimizedAffinity 9.46336651
REMARK minimizedRMSD -1
REMARK  0 active torsions:
REMARK  status: ('A' for Active; 'I' for Inactive)
ROOT
ATOM      1  C   UNL d   1      -5.999  -2.634  -3.300  0.00  0.00     0.077 C 
ATOM      2  C1  UNL d   1      -5.235  -3.527  -4.231  0.00  0.00    -0.074 A 
ATOM      3  C2  UNL d   1      -5.785  -4.730  -4.687  0.00  0.00    -0.005 A 
ATOM      4  C3  UNL d   1      -5.066  -5.545  -5.561  0.00  0.00     0.006 A 
ATOM      5  C4  UNL d   1      -3.792  -5.167  -5.987  0.00  0.00    -0.005 A 
ATOM      6  C5  UNL d   1      -3.226  -3.968  -5.543  0.00  0.00    -0.074 A 
ATOM      7  C6  UNL d   1      -1.862  -3.542  -5.999  0.00  0.00     0.077 C 
ATOM      8  C7  UNL d   1      -3.958  -3.151  -4.670  0.00  0.00    -0.001 A 
ENDROOT
TORSDOF 0
ENDMDL
