MODEL 1
REMARK minimizedAffinity 11.6602812
REMARK minimizedRMSD -1
REMARK  0 active torsions:
REMARK  status: ('A' for Active; 'I' for Inactive)
ROOT
ATOM      1  C   UNL d   1       0.786   1.957  -1.584  0.00  0.00     0.077 C 
ATOM      2  C1  UNL d   1       0.785   1.010  -2.747  0.00  0.00    -0.074 A 
ATOM      3  C2  UNL d   1       1.707  -0.040  -2.820  0.00  0.00    -0.005 A 
ATOM      4  C3  UNL d   1       1.688  -0.918  -3.903  0.00  0.00     0.006 A 
ATOM      5  C4  UNL d   1       0.749  -0.757  -4.923  0.00  0.00    -0.005 A 
ATOM      6  C5  UNL d   1      -0.181   0.286  -4.866  0.00  0.00    -0.074 A 
ATOM      7  C6  UNL d   1      -1.203   0.468  -5.949  0.00  0.00     0.077 C 
ATOM      8  C7  UNL d   1      -0.160   1.161  -3.771  0.00  0.00    -0.001 A 
ENDROOT
TORSDOF 0
ENDMDL
