MODEL 1
REMARK minimizedAffinity 12.7189894
REMARK minimizedRMSD -1
REMARK  0 active torsions:
REMARK  status: ('A' for Active; 'I' for Inactive)
ROOT
ATOM      1  C   UNL d   1      -1.086  -1.181  -5.197  0.00  0.00     0.077 C 
ATOM      2  C1  UNL d   1      -0.014  -0.762  -4.236  0.00  0.00    -0.074 A 
ATOM      3  C2  UNL d   1       1.335  -1.011  -4.511  0.00  0.00    -0.005 A 
ATOM      4  C3  UNL d   1       2.322  -0.607  -3.612  0.00  0.00     0.006 A 
ATOM      5  C4  UNL d   1       1.971   0.049  -2.431  0.00  0.00    -0.005 A 
ATOM      6  C5  UNL d   1       0.628   0.308  -2.140  0.00  0.00    -0.074 A 
ATOM      7  C6  UNL d   1       0.235   1.020  -0.880  0.00  0.00     0.077 C 
ATOM      8  C7  UNL d   1      -0.357  -0.095  -3.052  0.00  0.00    -0.001 A 
ENDROOT
TORSDOF 0
ENDMDL
