MODEL 1
REMARK minimizedAffinity 14.7810335
REMARK minimizedRMSD -1
REMARK  0 active torsions:
REMARK  status: ('A' for Active; 'I' for Inactive)
ROOT
ATOM      1  C   UNL d   1       1.103   2.689  -1.522  0.00  0.00     0.077 C 
ATOM      2  C1  UNL d   1       1.546   1.494  -2.313  0.00  0.00    -0.074 A 
ATOM      3  C2  UNL d   1       2.872   1.052  -2.266  0.00  0.00    -0.005 A 
ATOM      4  C3  UNL d   1       3.266  -0.067  -2.999  0.00  0.00     0.006 A 
ATOM      5  C4  UNL d   1       2.341  -0.754  -3.786  0.00  0.00    -0.005 A 
ATOM      6  C5  UNL d   1       1.010  -0.326  -3.845  0.00  0.00    -0.074 A 
ATOM      7  C6  UNL d   1       0.000  -1.059  -4.678  0.00  0.00     0.077 C 
ATOM      8  C7  UNL d   1       0.620   0.795  -3.100  0.00  0.00    -0.001 A 
ENDROOT
TORSDOF 0
ENDMDL
