MODEL 1
REMARK minimizedAffinity 9.09149361
REMARK minimizedRMSD -1
REMARK  0 active torsions:
REMARK  status: ('A' for Active; 'I' for Inactive)
ROOT
ATOM      1  C   UNL d   1      -0.035   1.183   1.000  0.00  0.00     0.077 C 
ATOM      2  C1  UNL d   1       1.003   1.288  -0.078  0.00  0.00    -0.074 A 
ATOM      3  C2  UNL d   1       2.029   2.235   0.002  0.00  0.00    -0.005 A 
ATOM      4  C3  UNL d   1       2.993   2.314  -1.003  0.00  0.00     0.006 A 
ATOM      5  C4  UNL d   1       2.939   1.450  -2.097  0.00  0.00    -0.005 A 
ATOM      6  C5  UNL d   1       1.921   0.496  -2.194  0.00  0.00    -0.074 A 
ATOM      7  C6  UNL d   1       1.855  -0.447  -3.358  0.00  0.00     0.077 C 
ATOM      8  C7  UNL d   1       0.961   0.418  -1.176  0.00  0.00    -0.001 A 
ENDROOT
TORSDOF 0
ENDMDL
