MODEL 1
REMARK minimizedAffinity 5.1884079
REMARK minimizedRMSD -1
REMARK  0 active torsions:
REMARK  status: ('A' for Active; 'I' for Inactive)
ROOT
ATOM      1  C   UNL d   1      -1.041   0.413  -5.311  0.00  0.00     0.077 C 
ATOM      2  C1  UNL d   1      -0.209   0.142  -4.092  0.00  0.00    -0.074 A 
ATOM      3  C2  UNL d   1       0.164  -1.162  -3.752  0.00  0.00    -0.005 A 
ATOM      4  C3  UNL d   1       0.945  -1.397  -2.621  0.00  0.00     0.006 A 
ATOM      5  C4  UNL d   1       1.361  -0.332  -1.820  0.00  0.00    -0.005 A 
ATOM      6  C5  UNL d   1       0.999   0.979  -2.145  0.00  0.00    -0.074 A 
ATOM      7  C6  UNL d   1       1.445   2.135  -1.301  0.00  0.00     0.077 C 
ATOM      8  C7  UNL d   1       0.219   1.208  -3.288  0.00  0.00    -0.001 A 
ENDROOT
TORSDOF 0
ENDMDL
