MODEL 1
REMARK minimizedAffinity 11.908103
REMARK minimizedRMSD -1
REMARK  0 active torsions:
REMARK  status: ('A' for Active; 'I' for Inactive)
ROOT
ATOM      1  C   UNL d   1      -5.980  -0.955  -4.498  0.00  0.00     0.077 C 
ATOM      2  C1  UNL d   1      -5.979  -1.996  -3.418  0.00  0.00    -0.074 A 
ATOM      3  C2  UNL d   1      -5.991  -1.630  -2.068  0.00  0.00    -0.005 A 
ATOM      4  C3  UNL d   1      -6.000  -2.608  -1.074  0.00  0.00     0.006 A 
ATOM      5  C4  UNL d   1      -5.996  -3.960  -1.419  0.00  0.00    -0.005 A 
ATOM      6  C5  UNL d   1      -5.985  -4.345  -2.763  0.00  0.00    -0.074 A 
ATOM      7  C6  UNL d   1      -5.992  -5.794  -3.152  0.00  0.00     0.077 C 
ATOM      8  C7  UNL d   1      -5.984  -3.356  -3.756  0.00  0.00    -0.001 A 
ENDROOT
TORSDOF 0
ENDMDL
