MODEL 1
REMARK minimizedAffinity 15.7004519
REMARK minimizedRMSD -1
REMARK  0 active torsions:
REMARK  status: ('A' for Active; 'I' for Inactive)
ROOT
ATOM      1  C   UNL d   1      -1.558  -3.845  -5.995  0.00  0.00     0.077 C 
ATOM      2  C1  UNL d   1      -1.213  -2.418  -5.690  0.00  0.00    -0.074 A 
ATOM      3  C2  UNL d   1      -2.100  -1.382  -5.999  0.00  0.00    -0.005 A 
ATOM      4  C3  UNL d   1      -1.769  -0.060  -5.701  0.00  0.00     0.006 A 
ATOM      5  C4  UNL d   1      -0.550   0.239  -5.092  0.00  0.00    -0.005 A 
ATOM      6  C5  UNL d   1       0.350  -0.784  -4.774  0.00  0.00    -0.074 A 
ATOM      7  C6  UNL d   1       1.660  -0.482  -4.110  0.00  0.00     0.077 C 
ATOM      8  C7  UNL d   1       0.007  -2.111  -5.071  0.00  0.00    -0.001 A 
ENDROOT
TORSDOF 0
ENDMDL
