MODEL 1
REMARK minimizedAffinity 9.35575294
REMARK minimizedRMSD -1
REMARK  0 active torsions:
REMARK  status: ('A' for Active; 'I' for Inactive)
ROOT
ATOM      1  C   UNL d   1       2.063   2.985  -1.124  0.00  0.00     0.077 C 
ATOM      2  C1  UNL d   1       1.779   1.591  -1.600  0.00  0.00    -0.074 A 
ATOM      3  C2  UNL d   1       0.813   0.799  -0.971  0.00  0.00    -0.005 A 
ATOM      4  C3  UNL d   1       0.553  -0.492  -1.431  0.00  0.00     0.006 A 
ATOM      5  C4  UNL d   1       1.255  -1.003  -2.523  0.00  0.00    -0.005 A 
ATOM      6  C5  UNL d   1       2.224  -0.225  -3.166  0.00  0.00    -0.074 A 
ATOM      7  C6  UNL d   1       2.980  -0.756  -4.347  0.00  0.00     0.077 C 
ATOM      8  C7  UNL d   1       2.474   1.073  -2.702  0.00  0.00    -0.001 A 
ENDROOT
TORSDOF 0
ENDMDL
