MODEL 1
REMARK minimizedAffinity 11.3217058
REMARK minimizedRMSD -1
REMARK  0 active torsions:
REMARK  status: ('A' for Active; 'I' for Inactive)
ROOT
ATOM      1  C   UNL d   1       4.515   2.599  -5.688  0.00  0.00     0.077 C 
ATOM      2  C1  UNL d   1       4.027   3.427  -4.537  0.00  0.00    -0.074 A 
ATOM      3  C2  UNL d   1       4.119   4.822  -4.565  0.00  0.00    -0.005 A 
ATOM      4  C3  UNL d   1       3.652   5.580  -3.491  0.00  0.00     0.006 A 
ATOM      5  C4  UNL d   1       3.089   4.951  -2.380  0.00  0.00    -0.005 A 
ATOM      6  C5  UNL d   1       2.988   3.557  -2.334  0.00  0.00    -0.074 A 
ATOM      7  C6  UNL d   1       2.376   2.866  -1.152  0.00  0.00     0.077 C 
ATOM      8  C7  UNL d   1       3.453   2.803  -3.420  0.00  0.00    -0.001 A 
ENDROOT
TORSDOF 0
ENDMDL
