MODEL 1
REMARK minimizedAffinity 7.72445345
REMARK minimizedRMSD -1
REMARK  0 active torsions:
REMARK  status: ('A' for Active; 'I' for Inactive)
ROOT
ATOM      1  C   UNL d   1      -2.250   1.689   2.147  0.00  0.00     0.077 C 
ATOM      2  C1  UNL d   1      -1.351   0.783   2.935  0.00  0.00    -0.074 A 
ATOM      3  C2  UNL d   1      -1.879  -0.245   3.722  0.00  0.00    -0.005 A 
ATOM      4  C3  UNL d   1      -1.029  -1.086   4.442  0.00  0.00     0.006 A 
ATOM      5  C4  UNL d   1       0.353  -0.907   4.382  0.00  0.00    -0.005 A 
ATOM      6  C5  UNL d   1       0.898   0.116   3.599  0.00  0.00    -0.074 A 
ATOM      7  C6  UNL d   1       2.383   0.316   3.516  0.00  0.00     0.077 C 
ATOM      8  C7  UNL d   1       0.039   0.952   2.874  0.00  0.00    -0.001 A 
ENDROOT
TORSDOF 0
ENDMDL
