MODEL 1
REMARK minimizedAffinity 9.3361721
REMARK minimizedRMSD -1
REMARK  0 active torsions:
REMARK  status: ('A' for Active; 'I' for Inactive)
ROOT
ATOM      1  C   UNL d   1      -1.662  -0.014  -5.984  0.00  0.00     0.077 C 
ATOM      2  C1  UNL d   1      -1.720  -1.512  -5.995  0.00  0.00    -0.074 A 
ATOM      3  C2  UNL d   1      -0.548  -2.277  -5.996  0.00  0.00    -0.005 A 
ATOM      4  C3  UNL d   1      -0.618  -3.670  -5.997  0.00  0.00     0.006 A 
ATOM      5  C4  UNL d   1      -1.856  -4.312  -5.997  0.00  0.00    -0.005 A 
ATOM      6  C5  UNL d   1      -3.038  -3.564  -5.995  0.00  0.00    -0.074 A 
ATOM      7  C6  UNL d   1      -4.378  -4.238  -5.984  0.00  0.00     0.077 C 
ATOM      8  C7  UNL d   1      -2.961  -2.165  -5.987  0.00  0.00    -0.001 A 
ENDROOT
TORSDOF 0
ENDMDL
