MODEL 1
REMARK minimizedAffinity 2.05944777
REMARK minimizedRMSD -1
REMARK  0 active torsions:
REMARK  status: ('A' for Active; 'I' for Inactive)
ROOT
ATOM      1  C   UNL d   1       1.005   4.093  -5.535  0.00  0.00     0.020 A 
ATOM      2  C1  UNL d   1       0.715   4.098  -4.171  0.00  0.00     0.020 A 
ATOM      3  C2  UNL d   1       1.602   4.692  -3.271  0.00  0.00     0.034 A 
ATOM      4  C3  UNL d   1       2.783   5.283  -3.733  0.00  0.00     0.017 A 
ATOM      5  C4  UNL d   1       3.074   5.277  -5.102  0.00  0.00     0.017 A 
ATOM      6  C5  UNL d   1       2.183   4.681  -5.999  0.00  0.00     0.034 A 
ATOM      7 Cl   UNL d   1       4.512   5.986  -5.747  0.00  0.00    -0.070 Cl
ATOM      8 Cl1  UNL d   1       3.834   5.999  -2.563  0.00  0.00    -0.070 Cl
ENDROOT
TORSDOF 0
ENDMDL
