MODEL 1
REMARK minimizedAffinity 6.00101948
REMARK minimizedRMSD -1
REMARK  0 active torsions:
REMARK  status: ('A' for Active; 'I' for Inactive)
ROOT
ATOM      1  C   UNL d   1       0.408   4.416  -5.991  0.00  0.00     0.020 A 
ATOM      2  C1  UNL d   1       0.862   5.734  -5.983  0.00  0.00     0.020 A 
ATOM      3  C2  UNL d   1       2.233   6.000  -5.980  0.00  0.00     0.034 A 
ATOM      4  C3  UNL d   1       3.154   4.946  -5.985  0.00  0.00     0.017 A 
ATOM      5  C4  UNL d   1       2.697   3.623  -5.993  0.00  0.00     0.017 A 
ATOM      6  C5  UNL d   1       1.323   3.363  -5.996  0.00  0.00     0.034 A 
ATOM      7 Cl   UNL d   1       3.773   2.271  -5.999  0.00  0.00    -0.070 Cl
ATOM      8 Cl1  UNL d   1       4.835   5.348  -5.982  0.00  0.00    -0.070 Cl
ENDROOT
TORSDOF 0
ENDMDL
