MODEL 1
REMARK minimizedAffinity 10.5566988
REMARK minimizedRMSD -1
REMARK  0 active torsions:
REMARK  status: ('A' for Active; 'I' for Inactive)
ROOT
ATOM      1  C   UNL d   1      -1.926  -2.268  -2.539  0.00  0.00     0.020 A 
ATOM      2  C1  UNL d   1      -2.635  -1.265  -1.880  0.00  0.00     0.020 A 
ATOM      3  C2  UNL d   1      -2.345  -0.966  -0.547  0.00  0.00     0.034 A 
ATOM      4  C3  UNL d   1      -1.345  -1.672   0.131  0.00  0.00     0.017 A 
ATOM      5  C4  UNL d   1      -0.634  -2.679  -0.531  0.00  0.00     0.017 A 
ATOM      6  C5  UNL d   1      -0.928  -2.974  -1.866  0.00  0.00     0.034 A 
ATOM      7 Cl   UNL d   1       0.614  -3.593   0.239  0.00  0.00    -0.070 Cl
ATOM      8 Cl1  UNL d   1      -1.040  -1.250   1.779  0.00  0.00    -0.070 Cl
ENDROOT
TORSDOF 0
ENDMDL
