MODEL 1
REMARK minimizedAffinity 4.75120592
REMARK minimizedRMSD -1
REMARK  0 active torsions:
REMARK  status: ('A' for Active; 'I' for Inactive)
ROOT
ATOM      1  C   UNL d   1      -2.614  -1.852  -1.922  0.00  0.00     0.020 A 
ATOM      2  C1  UNL d   1      -1.550  -1.315  -2.646  0.00  0.00     0.020 A 
ATOM      3  C2  UNL d   1      -0.341  -1.037  -2.006  0.00  0.00     0.034 A 
ATOM      4  C3  UNL d   1      -0.192  -1.296  -0.638  0.00  0.00     0.017 A 
ATOM      5  C4  UNL d   1      -1.260  -1.836   0.087  0.00  0.00     0.017 A 
ATOM      6  C5  UNL d   1      -2.469  -2.113  -0.559  0.00  0.00     0.034 A 
ATOM      7 Cl   UNL d   1      -1.152  -2.184   1.776  0.00  0.00    -0.070 Cl
ATOM      8 Cl1  UNL d   1       1.332  -0.929   0.088  0.00  0.00    -0.070 Cl
ENDROOT
TORSDOF 0
ENDMDL
