MODEL 1
REMARK minimizedAffinity 7.01527739
REMARK minimizedRMSD -1
REMARK  0 active torsions:
REMARK  status: ('A' for Active; 'I' for Inactive)
ROOT
ATOM      1  C   UNL d   1       4.169  -0.761   1.152  0.00  0.00     0.020 A 
ATOM      2  C1  UNL d   1       2.999  -0.306   0.546  0.00  0.00     0.020 A 
ATOM      3  C2  UNL d   1       1.875  -0.020   1.324  0.00  0.00     0.034 A 
ATOM      4  C3  UNL d   1       1.919  -0.189   2.713  0.00  0.00     0.017 A 
ATOM      5  C4  UNL d   1       3.094  -0.647   3.320  0.00  0.00     0.017 A 
ATOM      6  C5  UNL d   1       4.216  -0.931   2.536  0.00  0.00     0.034 A 
ATOM      7 Cl   UNL d   1       3.224  -0.880   5.028  0.00  0.00    -0.070 Cl
ATOM      8 Cl1  UNL d   1       0.492   0.184   3.613  0.00  0.00    -0.070 Cl
ENDROOT
TORSDOF 0
ENDMDL
