MODEL 1
REMARK minimizedAffinity 7.01058769
REMARK minimizedRMSD -1
REMARK  0 active torsions:
REMARK  status: ('A' for Active; 'I' for Inactive)
ROOT
ATOM      1  C   UNL d   1      -2.646  -3.747  -6.000  0.00  0.00     0.020 A 
ATOM      2  C1  UNL d   1      -4.031  -3.597  -5.954  0.00  0.00     0.020 A 
ATOM      3  C2  UNL d   1      -4.674  -3.422  -4.727  0.00  0.00     0.034 A 
ATOM      4  C3  UNL d   1      -3.932  -3.397  -3.540  0.00  0.00     0.017 A 
ATOM      5  C4  UNL d   1      -2.541  -3.547  -3.588  0.00  0.00     0.017 A 
ATOM      6  C5  UNL d   1      -1.903  -3.722  -4.819  0.00  0.00     0.034 A 
ATOM      7 Cl   UNL d   1      -1.558  -3.527  -2.166  0.00  0.00    -0.070 Cl
ATOM      8 Cl1  UNL d   1      -4.792  -3.176  -2.058  0.00  0.00    -0.070 Cl
ENDROOT
TORSDOF 0
ENDMDL
