MODEL 1
REMARK minimizedAffinity -2.63643122
REMARK minimizedRMSD -1
REMARK  0 active torsions:
REMARK  status: ('A' for Active; 'I' for Inactive)
ROOT
ATOM      1  C   UNL d   1      -3.745  -3.686  -1.124  0.00  0.00     0.020 A 
ATOM      2  C1  UNL d   1      -3.095  -2.527  -0.702  0.00  0.00     0.020 A 
ATOM      3  C2  UNL d   1      -2.324  -1.791  -1.603  0.00  0.00     0.034 A 
ATOM      4  C3  UNL d   1      -2.199  -2.214  -2.932  0.00  0.00     0.017 A 
ATOM      5  C4  UNL d   1      -2.851  -3.377  -3.355  0.00  0.00     0.017 A 
ATOM      6  C5  UNL d   1      -3.623  -4.110  -2.448  0.00  0.00     0.034 A 
ATOM      7 Cl   UNL d   1      -2.745  -3.961  -4.978  0.00  0.00    -0.070 Cl
ATOM      8 Cl1  UNL d   1      -1.229  -1.255  -3.992  0.00  0.00    -0.070 Cl
ENDROOT
TORSDOF 0
ENDMDL
