MODEL 1
REMARK minimizedAffinity 18.3571758
REMARK minimizedRMSD -1
REMARK  0 active torsions:
REMARK  status: ('A' for Active; 'I' for Inactive)
ROOT
ATOM      1  C   UNL d   1      -2.669  -3.762  -5.999  0.00  0.00     0.020 A 
ATOM      2  C1  UNL d   1      -2.673  -2.368  -5.997  0.00  0.00     0.020 A 
ATOM      3  C2  UNL d   1      -1.466  -1.666  -5.997  0.00  0.00     0.034 A 
ATOM      4  C3  UNL d   1      -0.250  -2.359  -5.997  0.00  0.00     0.017 A 
ATOM      5  C4  UNL d   1      -0.247  -3.758  -5.999  0.00  0.00     0.017 A 
ATOM      6  C5  UNL d   1      -1.458  -4.456  -5.999  0.00  0.00     0.034 A 
ATOM      7 Cl   UNL d   1       1.214  -4.682  -6.000  0.00  0.00    -0.070 Cl
ATOM      8 Cl1  UNL d   1       1.205  -1.427  -5.997  0.00  0.00    -0.070 Cl
ENDROOT
TORSDOF 0
ENDMDL
