MODEL 1
REMARK minimizedAffinity 6.27155828
REMARK minimizedRMSD -1
REMARK  0 active torsions:
REMARK  status: ('A' for Active; 'I' for Inactive)
ROOT
ATOM      1  C   UNL d   1       0.926   5.255  -3.449  0.00  0.00     0.020 A 
ATOM      2  C1  UNL d   1       0.839   3.863  -3.449  0.00  0.00     0.020 A 
ATOM      3  C2  UNL d   1       1.705   3.109  -4.244  0.00  0.00     0.034 A 
ATOM      4  C3  UNL d   1       2.662   3.746  -5.042  0.00  0.00     0.017 A 
ATOM      5  C4  UNL d   1       2.749   5.143  -5.041  0.00  0.00     0.017 A 
ATOM      6  C5  UNL d   1       1.880   5.893  -4.244  0.00  0.00     0.034 A 
ATOM      7 Cl   UNL d   1       3.905   6.000  -5.999  0.00  0.00    -0.070 Cl
ATOM      8 Cl1  UNL d   1       3.701   2.751  -6.000  0.00  0.00    -0.070 Cl
ENDROOT
TORSDOF 0
ENDMDL
