MODEL 1
REMARK minimizedAffinity 1.89314342
REMARK minimizedRMSD -1
REMARK  0 active torsions:
REMARK  status: ('A' for Active; 'I' for Inactive)
ROOT
ATOM      1  C   UNL d   1      -5.559  -5.135  -1.113  0.00  0.00     0.020 A 
ATOM      2  C1  UNL d   1      -5.722  -4.148  -0.142  0.00  0.00     0.020 A 
ATOM      3  C2  UNL d   1      -4.711  -3.210   0.077  0.00  0.00     0.034 A 
ATOM      4  C3  UNL d   1      -3.532  -3.258  -0.675  0.00  0.00     0.017 A 
ATOM      5  C4  UNL d   1      -3.369  -4.249  -1.650  0.00  0.00     0.017 A 
ATOM      6  C5  UNL d   1      -4.384  -5.186  -1.865  0.00  0.00     0.034 A 
ATOM      7 Cl   UNL d   1      -1.942  -4.372  -2.618  0.00  0.00    -0.070 Cl
ATOM      8 Cl1  UNL d   1      -2.323  -2.066  -0.351  0.00  0.00    -0.070 Cl
ENDROOT
TORSDOF 0
ENDMDL
