MODEL 1
REMARK minimizedAffinity 6.82695198
REMARK minimizedRMSD -1
REMARK  0 active torsions:
REMARK  status: ('A' for Active; 'I' for Inactive)
ROOT
ATOM      1  C   UNL d   1      -2.492  -2.666  -1.806  0.00  0.00     0.020 A 
ATOM      2  C1  UNL d   1      -3.319  -2.245  -0.765  0.00  0.00     0.020 A 
ATOM      3  C2  UNL d   1      -2.784  -2.031   0.507  0.00  0.00     0.034 A 
ATOM      4  C3  UNL d   1      -1.420  -2.239   0.742  0.00  0.00     0.017 A 
ATOM      5  C4  UNL d   1      -0.592  -2.662  -0.304  0.00  0.00     0.017 A 
ATOM      6  C5  UNL d   1      -1.132  -2.875  -1.576  0.00  0.00     0.034 A 
ATOM      7 Cl   UNL d   1       1.101  -2.940  -0.091  0.00  0.00    -0.070 Cl
ATOM      8 Cl1  UNL d   1      -0.828  -1.955   2.340  0.00  0.00    -0.070 Cl
ENDROOT
TORSDOF 0
ENDMDL
