MODEL 1
REMARK minimizedAffinity 7.41375351
REMARK minimizedRMSD -1
REMARK  0 active torsions:
REMARK  status: ('A' for Active; 'I' for Inactive)
ROOT
ATOM      1  C   UNL d   1      -0.052  -2.703   0.441  0.00  0.00     0.020 A 
ATOM      2  C1  UNL d   1      -0.104  -4.092   0.559  0.00  0.00     0.020 A 
ATOM      3  C2  UNL d   1      -0.840  -4.678   1.591  0.00  0.00     0.034 A 
ATOM      4  C3  UNL d   1      -1.528  -3.875   2.508  0.00  0.00     0.017 A 
ATOM      5  C4  UNL d   1      -1.475  -2.482   2.389  0.00  0.00     0.017 A 
ATOM      6  C5  UNL d   1      -0.736  -1.900   1.354  0.00  0.00     0.034 A 
ATOM      7 Cl   UNL d   1      -2.298  -1.426   3.483  0.00  0.00    -0.070 Cl
ATOM      8 Cl1  UNL d   1      -2.420  -4.667   3.759  0.00  0.00    -0.070 Cl
ENDROOT
TORSDOF 0
ENDMDL
