MODEL 1
REMARK minimizedAffinity 4.58432865
REMARK minimizedRMSD -1
REMARK  0 active torsions:
REMARK  status: ('A' for Active; 'I' for Inactive)
ROOT
ATOM      1  C   UNL d   1       1.027   5.430  -5.999  0.00  0.00     0.020 A 
ATOM      2  C1  UNL d   1       0.753   4.124  -5.595  0.00  0.00     0.020 A 
ATOM      3  C2  UNL d   1       1.734   3.375  -4.941  0.00  0.00     0.034 A 
ATOM      4  C3  UNL d   1       2.994   3.932  -4.689  0.00  0.00     0.017 A 
ATOM      5  C4  UNL d   1       3.267   5.243  -5.096  0.00  0.00     0.017 A 
ATOM      6  C5  UNL d   1       2.282   5.988  -5.750  0.00  0.00     0.034 A 
ATOM      7 Cl   UNL d   1       4.797   5.998  -4.821  0.00  0.00    -0.070 Cl
ATOM      8 Cl1  UNL d   1       4.159   2.949  -3.876  0.00  0.00    -0.070 Cl
ENDROOT
TORSDOF 0
ENDMDL
