MODEL 1
REMARK minimizedAffinity 11.0764894
REMARK minimizedRMSD -1
REMARK  0 active torsions:
REMARK  status: ('A' for Active; 'I' for Inactive)
ROOT
ATOM      1  C   UNL d   1       0.687   1.067   3.069  0.00  0.00     0.020 A 
ATOM      2  C1  UNL d   1       1.326   0.783   1.862  0.00  0.00     0.020 A 
ATOM      3  C2  UNL d   1       0.868  -0.263   1.059  0.00  0.00     0.034 A 
ATOM      4  C3  UNL d   1      -0.233  -1.029   1.460  0.00  0.00     0.017 A 
ATOM      5  C4  UNL d   1      -0.874  -0.743   2.671  0.00  0.00     0.017 A 
ATOM      6  C5  UNL d   1      -0.410   0.305   3.472  0.00  0.00     0.034 A 
ATOM      7 Cl   UNL d   1      -2.238  -1.644   3.233  0.00  0.00    -0.070 Cl
ATOM      8 Cl1  UNL d   1      -0.746  -2.307   0.416  0.00  0.00    -0.070 Cl
ENDROOT
TORSDOF 0
ENDMDL
