MODEL 1
REMARK minimizedAffinity 20.6004581
REMARK minimizedRMSD -1
REMARK  0 active torsions:
REMARK  status: ('A' for Active; 'I' for Inactive)
ROOT
ATOM      1  C   UNL d   1      -0.981  -0.974   2.995  0.00  0.00     0.020 A 
ATOM      2  C1  UNL d   1      -0.840  -2.239   2.426  0.00  0.00     0.020 A 
ATOM      3  C2  UNL d   1      -1.783  -3.234   2.694  0.00  0.00     0.034 A 
ATOM      4  C3  UNL d   1      -2.870  -2.966   3.534  0.00  0.00     0.017 A 
ATOM      5  C4  UNL d   1      -3.010  -1.696   4.105  0.00  0.00     0.017 A 
ATOM      6  C5  UNL d   1      -2.064  -0.703   3.833  0.00  0.00     0.034 A 
ATOM      7 Cl   UNL d   1      -4.325  -1.290   5.151  0.00  0.00    -0.070 Cl
ATOM      8 Cl1  UNL d   1      -3.997  -4.244   3.822  0.00  0.00    -0.070 Cl
ENDROOT
TORSDOF 0
ENDMDL
