MODEL 1
REMARK minimizedAffinity 4.56502581
REMARK minimizedRMSD -1
REMARK  0 active torsions:
REMARK  status: ('A' for Active; 'I' for Inactive)
ROOT
ATOM      1  C   UNL d   1      -3.382  -2.111  -1.319  0.00  0.00     0.020 A 
ATOM      2  C1  UNL d   1      -4.478  -2.715  -1.934  0.00  0.00     0.020 A 
ATOM      3  C2  UNL d   1      -4.403  -3.100  -3.274  0.00  0.00     0.034 A 
ATOM      4  C3  UNL d   1      -3.229  -2.882  -4.004  0.00  0.00     0.017 A 
ATOM      5  C4  UNL d   1      -2.129  -2.276  -3.386  0.00  0.00     0.017 A 
ATOM      6  C5  UNL d   1      -2.210  -1.893  -2.044  0.00  0.00     0.034 A 
ATOM      7 Cl   UNL d   1      -0.646  -1.975  -4.222  0.00  0.00    -0.070 Cl
ATOM      8 Cl1  UNL d   1      -3.206  -3.384  -5.657  0.00  0.00    -0.070 Cl
ENDROOT
TORSDOF 0
ENDMDL
