MODEL 1
REMARK minimizedAffinity 0.415412843
REMARK minimizedRMSD -1
REMARK  0 active torsions:
REMARK  status: ('A' for Active; 'I' for Inactive)
ROOT
ATOM      1  C   UNL d   1       3.012   5.425  -5.687  0.00  0.00     0.020 A 
ATOM      2  C1  UNL d   1       3.328   6.000  -4.457  0.00  0.00     0.020 A 
ATOM      3  C2  UNL d   1       4.111   5.297  -3.538  0.00  0.00     0.034 A 
ATOM      4  C3  UNL d   1       4.581   4.016  -3.849  0.00  0.00     0.017 A 
ATOM      5  C4  UNL d   1       4.263   3.440  -5.084  0.00  0.00     0.017 A 
ATOM      6  C5  UNL d   1       3.478   4.148  -6.000  0.00  0.00     0.034 A 
ATOM      7 Cl   UNL d   1       4.805   1.863  -5.538  0.00  0.00    -0.070 Cl
ATOM      8 Cl1  UNL d   1       5.544   3.205  -2.666  0.00  0.00    -0.070 Cl
ENDROOT
TORSDOF 0
ENDMDL
