MODEL 1
REMARK minimizedAffinity 13.2444668
REMARK minimizedRMSD -1
REMARK  0 active torsions:
REMARK  status: ('A' for Active; 'I' for Inactive)
ROOT
ATOM      1  C   UNL d   1       1.108   1.257   2.290  0.00  0.00     0.020 A 
ATOM      2  C1  UNL d   1       1.078   2.548   1.763  0.00  0.00     0.020 A 
ATOM      3  C2  UNL d   1       2.113   2.988   0.934  0.00  0.00     0.034 A 
ATOM      4  C3  UNL d   1       3.181   2.136   0.630  0.00  0.00     0.017 A 
ATOM      5  C4  UNL d   1       3.210   0.841   1.159  0.00  0.00     0.017 A 
ATOM      6  C5  UNL d   1       2.171   0.406   1.988  0.00  0.00     0.034 A 
ATOM      7 Cl   UNL d   1       4.494  -0.268   0.828  0.00  0.00    -0.070 Cl
ATOM      8 Cl1  UNL d   1       4.426   2.746  -0.402  0.00  0.00    -0.070 Cl
ENDROOT
TORSDOF 0
ENDMDL
