MODEL 1
REMARK minimizedAffinity -4.91124964
REMARK minimizedRMSD -1
REMARK  2 active torsions:
REMARK  status: ('A' for Active; 'I' for Inactive)
REMARK    1  A    between atoms: C1_2  and  C2_3 
REMARK    2  A    between atoms: C2_3  and  C3_4 
ROOT
ATOM      1  C3  UNL d   1      -1.038  -0.363  -0.976  0.00  0.00    -0.075 A 
ATOM      2  C4  UNL d   1      -1.812   0.733  -1.386  0.00  0.00     0.002 A 
ATOM      3  C5  UNL d   1      -2.597   0.654  -2.536  0.00  0.00     0.002 A 
ATOM      4  C6  UNL d   1      -2.611  -0.514  -3.295  0.00  0.00    -0.004 A 
ATOM      5  C7  UNL d   1      -1.834  -1.603  -2.906  0.00  0.00     0.002 A 
ATOM      6  C8  UNL d   1      -1.050  -1.528  -1.753  0.00  0.00     0.002 A 
ENDROOT
BRANCH   1   7
ATOM      7  C2  UNL d   1      -0.209  -0.294   0.284  0.00  0.00     0.056 C 
BRANCH   7   8
ATOM      8  C1  UNL d   1       0.895   0.768   0.248  0.00  0.00     0.007 C 
ATOM      9  C   UNL d   1       2.282   0.201   0.519  0.00  0.00     0.009 C 
ENDBRANCH   7   8
ENDBRANCH   1   7
TORSDOF 2
ENDMDL
