MODEL 1
REMARK minimizedAffinity -3.70726418
REMARK minimizedRMSD -1
REMARK  2 active torsions:
REMARK  status: ('A' for Active; 'I' for Inactive)
REMARK    1  A    between atoms: C1_2  and  C2_3 
REMARK    2  A    between atoms: C2_3  and  C3_4 
ROOT
ATOM      1  C3  UNL d   1       0.341  -0.515   0.420  0.00  0.00    -0.075 A 
ATOM      2  C4  UNL d   1       1.742  -0.468   0.463  0.00  0.00     0.002 A 
ATOM      3  C5  UNL d   1       2.460  -1.403   1.209  0.00  0.00     0.002 A 
ATOM      4  C6  UNL d   1       1.788  -2.389   1.928  0.00  0.00    -0.004 A 
ATOM      5  C7  UNL d   1       0.396  -2.435   1.906  0.00  0.00     0.002 A 
ATOM      6  C8  UNL d   1      -0.325  -1.504   1.157  0.00  0.00     0.002 A 
ENDROOT
BRANCH   1   7
ATOM      7  C2  UNL d   1      -0.440   0.476  -0.409  0.00  0.00     0.056 C 
BRANCH   7   8
ATOM      8  C1  UNL d   1      -1.855   0.010  -0.768  0.00  0.00     0.007 C 
ATOM      9  C   UNL d   1      -2.135   0.040  -2.265  0.00  0.00     0.009 C 
ENDBRANCH   7   8
ENDBRANCH   1   7
TORSDOF 2
ENDMDL
