MODEL 1
REMARK minimizedAffinity -5.46623564
REMARK minimizedRMSD -1
REMARK  2 active torsions:
REMARK  status: ('A' for Active; 'I' for Inactive)
REMARK    1  A    between atoms: C1_2  and  C2_3 
REMARK    2  A    between atoms: C2_3  and  C3_4 
ROOT
ATOM      1  C3  UNL d   1       0.962   0.274   0.636  0.00  0.00    -0.075 A 
ATOM      2  C4  UNL d   1       0.978  -0.854   1.470  0.00  0.00     0.002 A 
ATOM      3  C5  UNL d   1       2.187  -1.430   1.859  0.00  0.00     0.002 A 
ATOM      4  C6  UNL d   1       3.393  -0.894   1.414  0.00  0.00    -0.004 A 
ATOM      5  C7  UNL d   1       3.389   0.216   0.572  0.00  0.00     0.002 A 
ATOM      6  C8  UNL d   1       2.181   0.798   0.184  0.00  0.00     0.002 A 
ENDROOT
BRANCH   1   7
ATOM      7  C2  UNL d   1      -0.342   0.921   0.235  0.00  0.00     0.056 C 
BRANCH   7   8
ATOM      8  C1  UNL d   1      -1.459  -0.077  -0.090  0.00  0.00     0.007 C 
ATOM      9  C   UNL d   1      -2.177   0.231  -1.397  0.00  0.00     0.009 C 
ENDBRANCH   7   8
ENDBRANCH   1   7
TORSDOF 2
ENDMDL
