MODEL 1
REMARK minimizedAffinity -3.55030322
REMARK minimizedRMSD -1
REMARK  2 active torsions:
REMARK  status: ('A' for Active; 'I' for Inactive)
REMARK    1  A    between atoms: C1_2  and  C2_3 
REMARK    2  A    between atoms: C2_3  and  C3_4 
ROOT
ATOM      1  C3  UNL d   1       0.152   0.142  -0.080  0.00  0.00    -0.075 A 
ATOM      2  C4  UNL d   1       0.693   1.224   0.630  0.00  0.00     0.002 A 
ATOM      3  C5  UNL d   1       2.018   1.194   1.065  0.00  0.00     0.002 A 
ATOM      4  C6  UNL d   1       2.815   0.081   0.806  0.00  0.00    -0.004 A 
ATOM      5  C7  UNL d   1       2.284  -1.006   0.116  0.00  0.00     0.002 A 
ATOM      6  C8  UNL d   1       0.959  -0.978  -0.325  0.00  0.00     0.002 A 
ENDROOT
BRANCH   1   7
ATOM      7  C2  UNL d   1      -1.272   0.180  -0.580  0.00  0.00     0.056 C 
BRANCH   7   8
ATOM      8  C1  UNL d   1      -1.465  -0.454  -1.962  0.00  0.00     0.007 C 
ATOM      9  C   UNL d   1      -2.472   0.291  -2.829  0.00  0.00     0.009 C 
ENDBRANCH   7   8
ENDBRANCH   1   7
TORSDOF 2
ENDMDL
