MODEL 1
REMARK minimizedAffinity -2.1986866
REMARK minimizedRMSD -1
REMARK  2 active torsions:
REMARK  status: ('A' for Active; 'I' for Inactive)
REMARK    1  A    between atoms: C1_2  and  C2_3 
REMARK    2  A    between atoms: C2_3  and  C3_4 
ROOT
ATOM      1  C3  UNL d   1      -0.375   0.075  -0.338  0.00  0.00    -0.075 A 
ATOM      2  C4  UNL d   1       0.067  -1.243  -0.154  0.00  0.00     0.002 A 
ATOM      3  C5  UNL d   1       1.196  -1.510   0.621  0.00  0.00     0.002 A 
ATOM      4  C6  UNL d   1       1.901  -0.464   1.214  0.00  0.00    -0.004 A 
ATOM      5  C7  UNL d   1       1.480   0.850   1.024  0.00  0.00     0.002 A 
ATOM      6  C8  UNL d   1       0.348   1.120   0.252  0.00  0.00     0.002 A 
ENDROOT
BRANCH   1   7
ATOM      7  C2  UNL d   1      -1.613   0.368  -1.152  0.00  0.00     0.056 C 
BRANCH   7   8
ATOM      8  C1  UNL d   1      -1.691  -0.410  -2.470  0.00  0.00     0.007 C 
ATOM      9  C   UNL d   1      -2.560   0.272  -3.519  0.00  0.00     0.009 C 
ENDBRANCH   7   8
ENDBRANCH   1   7
TORSDOF 2
ENDMDL
