MODEL 1
REMARK minimizedAffinity -2.46319509
REMARK minimizedRMSD -1
REMARK  0 active torsions:
REMARK  status: ('A' for Active; 'I' for Inactive)
ROOT
ATOM      1  C1  BNZ d   1       1.752  -5.240  -3.525  0.00  0.00     0.000 A 
ATOM      2  C2  BNZ d   1       1.231  -5.930  -4.587  0.00  0.00     0.000 A 
ATOM      3  C3  BNZ d   1      -0.099  -5.847  -4.892  0.00  0.00     0.000 A 
ATOM      4  C4  BNZ d   1      -0.913  -5.107  -4.112  0.00  0.00     0.000 A 
ATOM      5  C5  BNZ d   1      -0.405  -4.412  -3.032  0.00  0.00     0.000 A 
ATOM      6  C6  BNZ d   1       0.941  -4.467  -2.752  0.00  0.00     0.000 A 
ENDROOT
TORSDOF 0
ENDMDL
