MODEL 1
REMARK minimizedAffinity -3.28021765
REMARK minimizedRMSD -1
REMARK  0 active torsions:
REMARK  status: ('A' for Active; 'I' for Inactive)
ROOT
ATOM      1  C1  BNZ d   1      -1.142  -2.582   4.304  0.00  0.00     0.000 A 
ATOM      2  C2  BNZ d   1       0.068  -1.947   4.393  0.00  0.00     0.000 A 
ATOM      3  C3  BNZ d   1       0.300  -0.784   3.714  0.00  0.00     0.000 A 
ATOM      4  C4  BNZ d   1      -0.662  -0.279   2.916  0.00  0.00     0.000 A 
ATOM      5  C5  BNZ d   1      -1.884  -0.912   2.807  0.00  0.00     0.000 A 
ATOM      6  C6  BNZ d   1      -2.128  -2.062   3.523  0.00  0.00     0.000 A 
ENDROOT
TORSDOF 0
ENDMDL
