MODEL 1
REMARK minimizedAffinity 6.1768856
REMARK minimizedRMSD -1
REMARK  0 active torsions:
REMARK  status: ('A' for Active; 'I' for Inactive)
ROOT
ATOM      1  C1  BNZ d   1      -0.810  -1.488  -5.621  0.00  0.00     0.000 A 
ATOM      2  C2  BNZ d   1       0.359  -0.883  -5.999  0.00  0.00     0.000 A 
ATOM      3  C3  BNZ d   1       0.593   0.432  -5.706  0.00  0.00     0.000 A 
ATOM      4  C4  BNZ d   1      -0.357   1.149  -5.072  0.00  0.00     0.000 A 
ATOM      5  C5  BNZ d   1      -1.545   0.555  -4.693  0.00  0.00     0.000 A 
ATOM      6  C6  BNZ d   1      -1.761  -0.778  -4.955  0.00  0.00     0.000 A 
ENDROOT
TORSDOF 0
ENDMDL
