MODEL 1
REMARK minimizedAffinity -0.392067134
REMARK minimizedRMSD -1
REMARK  0 active torsions:
REMARK  status: ('A' for Active; 'I' for Inactive)
ROOT
ATOM      1  C1  BNZ d   1      -1.649  -0.513  -5.800  0.00  0.00     0.000 A 
ATOM      2  C2  BNZ d   1      -2.268   0.110  -4.750  0.00  0.00     0.000 A 
ATOM      3  C3  BNZ d   1      -1.552   0.863  -3.861  0.00  0.00     0.000 A 
ATOM      4  C4  BNZ d   1      -0.214   0.958  -4.000  0.00  0.00     0.000 A 
ATOM      5  C5  BNZ d   1       0.426   0.328  -5.049  0.00  0.00     0.000 A 
ATOM      6  C6  BNZ d   1      -0.303  -0.397  -5.963  0.00  0.00     0.000 A 
ENDROOT
TORSDOF 0
ENDMDL
