MODEL 1
REMARK minimizedAffinity 2.8575542
REMARK minimizedRMSD -1
REMARK  0 active torsions:
REMARK  status: ('A' for Active; 'I' for Inactive)
ROOT
ATOM      1  C1  BNZ d   1      -1.896   3.984  -0.335  0.00  0.00     0.000 A 
ATOM      2  C2  BNZ d   1      -1.592   3.996   1.000  0.00  0.00     0.000 A 
ATOM      3  C3  BNZ d   1      -0.857   5.014   1.541  0.00  0.00     0.000 A 
ATOM      4  C4  BNZ d   1      -0.393   5.995   0.741  0.00  0.00     0.000 A 
ATOM      5  C5  BNZ d   1      -0.683   5.992  -0.609  0.00  0.00     0.000 A 
ATOM      6  C6  BNZ d   1      -1.456   4.987  -1.143  0.00  0.00     0.000 A 
ENDROOT
TORSDOF 0
ENDMDL
