MODEL 1
REMARK minimizedAffinity 1.25556469
REMARK minimizedRMSD -1
REMARK  0 active torsions:
REMARK  status: ('A' for Active; 'I' for Inactive)
ROOT
ATOM      1  C1  BNZ d   1      -0.010  -0.456   2.523  0.00  0.00     0.000 A 
ATOM      2  C2  BNZ d   1       1.194  -0.496   3.174  0.00  0.00     0.000 A 
ATOM      3  C3  BNZ d   1       1.563  -1.595   3.898  0.00  0.00     0.000 A 
ATOM      4  C4  BNZ d   1       0.712  -2.636   4.003  0.00  0.00     0.000 A 
ATOM      5  C5  BNZ d   1      -0.510  -2.607   3.360  0.00  0.00     0.000 A 
ATOM      6  C6  BNZ d   1      -0.861  -1.515   2.601  0.00  0.00     0.000 A 
ENDROOT
TORSDOF 0
ENDMDL
