MODEL 1
REMARK minimizedAffinity 0.572013795
REMARK minimizedRMSD -1
REMARK  0 active torsions:
REMARK  status: ('A' for Active; 'I' for Inactive)
ROOT
ATOM      1  C1  BNZ d   1       1.390  -5.998  -2.584  0.00  0.00     0.000 A 
ATOM      2  C2  BNZ d   1       0.303  -5.181  -2.741  0.00  0.00     0.000 A 
ATOM      3  C3  BNZ d   1       0.197  -4.358  -3.827  0.00  0.00     0.000 A 
ATOM      4  C4  BNZ d   1       1.195  -4.324  -4.734  0.00  0.00     0.000 A 
ATOM      5  C5  BNZ d   1       2.302  -5.135  -4.585  0.00  0.00     0.000 A 
ATOM      6  C6  BNZ d   1       2.388  -5.991  -3.510  0.00  0.00     0.000 A 
ENDROOT
TORSDOF 0
ENDMDL
