MODEL 1
REMARK minimizedAffinity -5.27172995
REMARK minimizedRMSD -1
REMARK  0 active torsions:
REMARK  status: ('A' for Active; 'I' for Inactive)
ROOT
ATOM      1  C1  BNZ d   1       0.367  -5.920  -3.961  0.00  0.00     0.000 A 
ATOM      2  C2  BNZ d   1       0.198  -5.724  -2.616  0.00  0.00     0.000 A 
ATOM      3  C3  BNZ d   1       0.009  -4.468  -2.111  0.00  0.00     0.000 A 
ATOM      4  C4  BNZ d   1       0.029  -3.408  -2.944  0.00  0.00     0.000 A 
ATOM      5  C5  BNZ d   1       0.207  -3.589  -4.301  0.00  0.00     0.000 A 
ATOM      6  C6  BNZ d   1       0.358  -4.858  -4.811  0.00  0.00     0.000 A 
ENDROOT
TORSDOF 0
ENDMDL
