MODEL 1
REMARK minimizedAffinity 4.19051218
REMARK minimizedRMSD -1
REMARK  0 active torsions:
REMARK  status: ('A' for Active; 'I' for Inactive)
ROOT
ATOM      1  C1  BNZ d   1       2.079   0.267   1.859  0.00  0.00     0.000 A 
ATOM      2  C2  BNZ d   1       2.745   1.303   1.259  0.00  0.00     0.000 A 
ATOM      3  C3  BNZ d   1       2.135   2.511   1.069  0.00  0.00     0.000 A 
ATOM      4  C4  BNZ d   1       0.848   2.670   1.441  0.00  0.00     0.000 A 
ATOM      5  C5  BNZ d   1       0.160   1.633   2.039  0.00  0.00     0.000 A 
ATOM      6  C6  BNZ d   1       0.790   0.430   2.264  0.00  0.00     0.000 A 
ENDROOT
TORSDOF 0
ENDMDL
