MODEL 1
REMARK minimizedAffinity 4.79555941
REMARK minimizedRMSD -1
REMARK  1 active torsions:
REMARK  status: ('A' for Active; 'I' for Inactive)
REMARK    1  A    between atoms: C1_2  and  C2_3 
ROOT
ATOM      1  C2  UNL d   1      -4.913   2.614   1.477  0.00  0.00    -0.076 A 
ATOM      2  C3  UNL d   1      -4.975   2.036   2.757  0.00  0.00     0.004 A 
ATOM      3  C4  UNL d   1      -5.513   2.737   3.835  0.00  0.00    -0.003 A 
ATOM      4  C5  UNL d   1      -5.998   4.027   3.650  0.00  0.00     0.000 A 
ATOM      5  C6  UNL d   1      -5.960   4.609   2.384  0.00  0.00     0.000 A 
ATOM      6  C7  UNL d   1      -5.436   3.910   1.283  0.00  0.00    -0.073 A 
ATOM      7  C8  UNL d   1      -5.414   4.589  -0.059  0.00  0.00     0.078 C 
ENDROOT
BRANCH   1   8
ATOM      8  C1  UNL d   1      -4.294   1.816   0.351  0.00  0.00     0.053 C 
ATOM      9  C   UNL d   1      -3.482   0.632   0.854  0.00  0.00     0.018 C 
ENDBRANCH   1   8
TORSDOF 1
ENDMDL
