MODEL 1
REMARK minimizedAffinity 10.7194023
REMARK minimizedRMSD -1
REMARK  1 active torsions:
REMARK  status: ('A' for Active; 'I' for Inactive)
REMARK    1  A    between atoms: C1_2  and  C2_3 
ROOT
ATOM      1  C2  UNL d   1      -3.580   5.900   1.692  0.00  0.00    -0.076 A 
ATOM      2  C3  UNL d   1      -3.594   6.000   3.094  0.00  0.00     0.004 A 
ATOM      3  C4  UNL d   1      -4.792   5.952   3.804  0.00  0.00    -0.003 A 
ATOM      4  C5  UNL d   1      -5.996   5.804   3.124  0.00  0.00     0.000 A 
ATOM      5  C6  UNL d   1      -5.999   5.686   1.735  0.00  0.00     0.000 A 
ATOM      6  C7  UNL d   1      -4.798   5.716   1.005  0.00  0.00    -0.073 A 
ATOM      7  C8  UNL d   1      -4.861   5.590  -0.493  0.00  0.00     0.078 C 
ENDROOT
BRANCH   1   8
ATOM      8  C1  UNL d   1      -2.252   5.986   0.973  0.00  0.00     0.053 C 
ATOM      9  C   UNL d   1      -1.071   5.995   1.930  0.00  0.00     0.018 C 
ENDBRANCH   1   8
TORSDOF 1
ENDMDL
