MODEL 1
REMARK minimizedAffinity 17.9077263
REMARK minimizedRMSD -1
REMARK  1 active torsions:
REMARK  status: ('A' for Active; 'I' for Inactive)
REMARK    1  A    between atoms: C1_2  and  C2_3 
ROOT
ATOM      1  C2  UNL d   1      -4.908   4.864   3.262  0.00  0.00    -0.076 A 
ATOM      2  C3  UNL d   1      -4.804   5.983   4.106  0.00  0.00     0.004 A 
ATOM      3  C4  UNL d   1      -5.291   5.944   5.412  0.00  0.00    -0.003 A 
ATOM      4  C5  UNL d   1      -5.889   4.786   5.895  0.00  0.00     0.000 A 
ATOM      5  C6  UNL d   1      -5.985   3.660   5.077  0.00  0.00     0.000 A 
ATOM      6  C7  UNL d   1      -5.485   3.677   3.764  0.00  0.00    -0.073 A 
ATOM      7  C8  UNL d   1      -5.620   2.437   2.923  0.00  0.00     0.078 C 
ENDROOT
BRANCH   1   8
ATOM      8  C1  UNL d   1      -4.387   4.973   1.847  0.00  0.00     0.053 C 
ATOM      9  C   UNL d   1      -5.359   5.689   0.922  0.00  0.00     0.018 C 
ENDBRANCH   1   8
TORSDOF 1
ENDMDL
