MODEL 1
REMARK minimizedAffinity 0.148408338
REMARK minimizedRMSD -1
REMARK  1 active torsions:
REMARK  status: ('A' for Active; 'I' for Inactive)
REMARK    1  A    between atoms: C1_2  and  C2_3 
ROOT
ATOM      1  C2  UNL d   1      -4.883   5.975   3.553  0.00  0.00    -0.076 A 
ATOM      2  C3  UNL d   1      -5.478   5.952   2.280  0.00  0.00     0.004 A 
ATOM      3  C4  UNL d   1      -4.699   5.955   1.124  0.00  0.00    -0.003 A 
ATOM      4  C5  UNL d   1      -3.313   5.979   1.222  0.00  0.00     0.000 A 
ATOM      5  C6  UNL d   1      -2.705   5.984   2.477  0.00  0.00     0.000 A 
ATOM      6  C7  UNL d   1      -3.475   5.966   3.653  0.00  0.00    -0.073 A 
ATOM      7  C8  UNL d   1      -2.767   5.978   4.980  0.00  0.00     0.078 C 
ENDROOT
BRANCH   1   8
ATOM      8  C1  UNL d   1      -5.778   5.998   4.771  0.00  0.00     0.053 C 
ATOM      9  C   UNL d   1      -5.998   4.613   5.359  0.00  0.00     0.018 C 
ENDBRANCH   1   8
TORSDOF 1
ENDMDL
