MODEL 1
REMARK minimizedAffinity 0.480808944
REMARK minimizedRMSD -1
REMARK  1 active torsions:
REMARK  status: ('A' for Active; 'I' for Inactive)
REMARK    1  A    between atoms: C1_2  and  C2_3 
ROOT
ATOM      1  C2  UNL d   1       0.560  -2.688  -1.151  0.00  0.00    -0.076 A 
ATOM      2  C3  UNL d   1      -0.673  -3.034  -1.729  0.00  0.00     0.004 A 
ATOM      3  C4  UNL d   1      -0.995  -4.365  -1.991  0.00  0.00    -0.003 A 
ATOM      4  C5  UNL d   1      -0.089  -5.371  -1.677  0.00  0.00     0.000 A 
ATOM      5  C6  UNL d   1       1.133  -5.048  -1.087  0.00  0.00     0.000 A 
ATOM      6  C7  UNL d   1       1.466  -3.713  -0.802  0.00  0.00    -0.073 A 
ATOM      7  C8  UNL d   1       2.799  -3.421  -0.170  0.00  0.00     0.078 C 
ENDROOT
BRANCH   1   8
ATOM      8  C1  UNL d   1       0.865  -1.226  -0.916  0.00  0.00     0.053 C 
ATOM      9  C   UNL d   1       1.968  -0.707  -1.826  0.00  0.00     0.018 C 
ENDBRANCH   1   8
TORSDOF 1
ENDMDL
