MODEL 1
REMARK minimizedAffinity -0.954980314
REMARK minimizedRMSD -1
REMARK  0 active torsions:
REMARK  status: ('A' for Active; 'I' for Inactive)
ROOT
ATOM      1  C   UNL d   1      -2.610   0.327  -1.147  0.00  0.00    -0.002 A 
ATOM      2  C1  UNL d   1      -2.239  -0.014  -2.440  0.00  0.00     0.010 A 
ATOM      3  C2  UNL d   1      -2.327   0.921  -3.473  0.00  0.00     0.041 A 
ATOM      4  C3  UNL d   1      -2.796   2.217  -3.182  0.00  0.00    -0.075 A 
ATOM      5  S   UNL d   1      -2.987   3.526  -4.287  0.00  0.00     0.015 SA
ATOM      6  C4  UNL d   1      -3.564   4.569  -3.069  0.00  0.00     0.022 A 
ATOM      7  C5  UNL d   1      -3.617   3.949  -1.842  0.00  0.00     0.026 A 
ATOM      8  C6  UNL d   1      -3.174   2.584  -1.887  0.00  0.00    -0.082 A 
ATOM      9  C7  UNL d   1      -3.075   1.613  -0.861  0.00  0.00     0.045 A 
ENDROOT
TORSDOF 0
ENDMDL
