MODEL 1
REMARK minimizedAffinity 4.57208824
REMARK minimizedRMSD -1
REMARK  0 active torsions:
REMARK  status: ('A' for Active; 'I' for Inactive)
ROOT
ATOM      1  C   UNL d   1      -3.681   2.797  -3.641  0.00  0.00    -0.002 A 
ATOM      2  C1  UNL d   1      -2.841   2.840  -2.538  0.00  0.00     0.010 A 
ATOM      3  C2  UNL d   1      -1.634   3.539  -2.591  0.00  0.00     0.041 A 
ATOM      4  C3  UNL d   1      -1.282   4.201  -3.784  0.00  0.00    -0.075 A 
ATOM      5  S   UNL d   1       0.147   5.119  -4.081  0.00  0.00     0.015 SA
ATOM      6  C4  UNL d   1      -0.324   5.476  -5.679  0.00  0.00     0.022 A 
ATOM      7  C5  UNL d   1      -1.540   4.916  -5.996  0.00  0.00     0.026 A 
ATOM      8  C6  UNL d   1      -2.112   4.172  -4.909  0.00  0.00    -0.082 A 
ATOM      9  C7  UNL d   1      -3.329   3.455  -4.823  0.00  0.00     0.045 A 
ENDROOT
TORSDOF 0
ENDMDL
