MODEL 1
REMARK minimizedAffinity -0.450188458
REMARK minimizedRMSD -1
REMARK  0 active torsions:
REMARK  status: ('A' for Active; 'I' for Inactive)
ROOT
ATOM      1  C   UNL d   1      -3.989   0.546  -3.364  0.00  0.00    -0.002 A 
ATOM      2  C1  UNL d   1      -2.780   0.264  -2.744  0.00  0.00     0.010 A 
ATOM      3  C2  UNL d   1      -1.821   1.264  -2.570  0.00  0.00     0.041 A 
ATOM      4  C3  UNL d   1      -2.102   2.565  -3.032  0.00  0.00    -0.075 A 
ATOM      5  S   UNL d   1      -1.079   3.949  -2.926  0.00  0.00     0.015 SA
ATOM      6  C4  UNL d   1      -2.223   4.947  -3.700  0.00  0.00     0.022 A 
ATOM      7  C5  UNL d   1      -3.364   4.258  -4.039  0.00  0.00     0.026 A 
ATOM      8  C6  UNL d   1      -3.313   2.874  -3.658  0.00  0.00    -0.082 A 
ATOM      9  C7  UNL d   1      -4.264   1.838  -3.821  0.00  0.00     0.045 A 
ENDROOT
TORSDOF 0
ENDMDL
