MODEL 1
REMARK minimizedAffinity 6.84438372
REMARK minimizedRMSD -1
REMARK  0 active torsions:
REMARK  status: ('A' for Active; 'I' for Inactive)
ROOT
ATOM      1  C   UNL d   1      -2.952   2.017  -1.094  0.00  0.00    -0.002 A 
ATOM      2  C1  UNL d   1      -2.849   1.207  -2.216  0.00  0.00     0.010 A 
ATOM      3  C2  UNL d   1      -2.975   1.748  -3.497  0.00  0.00     0.041 A 
ATOM      4  C3  UNL d   1      -3.207   3.131  -3.633  0.00  0.00    -0.075 A 
ATOM      5  S   UNL d   1      -3.394   4.014  -5.101  0.00  0.00     0.015 SA
ATOM      6  C4  UNL d   1      -3.614   5.488  -4.274  0.00  0.00     0.022 A 
ATOM      7  C5  UNL d   1      -3.550   5.328  -2.910  0.00  0.00     0.026 A 
ATOM      8  C6  UNL d   1      -3.313   3.967  -2.518  0.00  0.00    -0.082 A 
ATOM      9  C7  UNL d   1      -3.182   3.388  -1.233  0.00  0.00     0.045 A 
ENDROOT
TORSDOF 0
ENDMDL
