MODEL 1
REMARK minimizedAffinity 7.01938248
REMARK minimizedRMSD -1
REMARK  0 active torsions:
REMARK  status: ('A' for Active; 'I' for Inactive)
ROOT
ATOM      1  C   UNL d   1      -3.378   2.778  -0.954  0.00  0.00    -0.002 A 
ATOM      2  C1  UNL d   1      -3.262   1.885  -2.010  0.00  0.00     0.010 A 
ATOM      3  C2  UNL d   1      -2.867   2.327  -3.275  0.00  0.00     0.041 A 
ATOM      4  C3  UNL d   1      -2.586   3.695  -3.461  0.00  0.00    -0.075 A 
ATOM      5  S   UNL d   1      -2.086   4.464  -4.921  0.00  0.00     0.015 SA
ATOM      6  C4  UNL d   1      -2.012   5.996  -4.177  0.00  0.00     0.022 A 
ATOM      7  C5  UNL d   1      -2.359   5.940  -2.848  0.00  0.00     0.026 A 
ATOM      8  C6  UNL d   1      -2.695   4.614  -2.413  0.00  0.00    -0.082 A 
ATOM      9  C7  UNL d   1      -3.098   4.134  -1.143  0.00  0.00     0.045 A 
ENDROOT
TORSDOF 0
ENDMDL
