MODEL 1
REMARK minimizedAffinity -2.27720046
REMARK minimizedRMSD -1
REMARK  0 active torsions:
REMARK  status: ('A' for Active; 'I' for Inactive)
ROOT
ATOM      1  C   UNL d   1      -1.214   4.850  -5.650  0.00  0.00    -0.002 A 
ATOM      2  C1  UNL d   1       0.022   4.428  -5.181  0.00  0.00     0.010 A 
ATOM      3  C2  UNL d   1       0.114   3.626  -4.042  0.00  0.00     0.041 A 
ATOM      4  C3  UNL d   1      -1.069   3.250  -3.376  0.00  0.00    -0.075 A 
ATOM      5  S   UNL d   1      -1.201   2.272  -1.963  0.00  0.00     0.015 SA
ATOM      6  C4  UNL d   1      -2.901   2.390  -1.948  0.00  0.00     0.022 A 
ATOM      7  C5  UNL d   1      -3.374   3.154  -2.989  0.00  0.00     0.026 A 
ATOM      8  C6  UNL d   1      -2.326   3.662  -3.830  0.00  0.00    -0.082 A 
ATOM      9  C7  UNL d   1      -2.385   4.475  -4.987  0.00  0.00     0.045 A 
ENDROOT
TORSDOF 0
ENDMDL
