MODEL 1
REMARK minimizedAffinity -0.584151268
REMARK minimizedRMSD -1
REMARK  0 active torsions:
REMARK  status: ('A' for Active; 'I' for Inactive)
ROOT
ATOM      1  C   UNL d   1       1.423  -1.901   0.298  0.00  0.00     0.078 C 
ATOM      2  C1  UNL d   1       0.104  -2.432  -0.178  0.00  0.00    -0.077 A 
ATOM      3  C2  UNL d   1       0.041  -3.500  -1.081  0.00  0.00    -0.001 A 
ATOM      4  C3  UNL d   1      -1.194  -3.978  -1.524  0.00  0.00     0.003 A 
ATOM      5  C4  UNL d   1      -2.374  -3.393  -1.069  0.00  0.00    -0.005 A 
ATOM      6  C5  UNL d   1      -2.321  -2.328  -0.172  0.00  0.00     0.003 A 
ATOM      7  C6  UNL d   1      -1.087  -1.849   0.271  0.00  0.00    -0.001 A 
ENDROOT
TORSDOF 0
ENDMDL
