MODEL 1
REMARK minimizedAffinity -1.70047057
REMARK minimizedRMSD -1
REMARK  0 active torsions:
REMARK  status: ('A' for Active; 'I' for Inactive)
ROOT
ATOM      1  C   UNL d   1       0.919  -6.000  -2.305  0.00  0.00     0.078 C 
ATOM      2  C1  UNL d   1      -0.355  -5.313  -1.913  0.00  0.00    -0.077 A 
ATOM      3  C2  UNL d   1      -1.576  -6.000  -1.920  0.00  0.00    -0.001 A 
ATOM      4  C3  UNL d   1      -2.756  -5.346  -1.562  0.00  0.00     0.003 A 
ATOM      5  C4  UNL d   1      -2.727  -4.002  -1.196  0.00  0.00    -0.005 A 
ATOM      6  C5  UNL d   1      -1.518  -3.310  -1.188  0.00  0.00     0.003 A 
ATOM      7  C6  UNL d   1      -0.337  -3.962  -1.545  0.00  0.00    -0.001 A 
ENDROOT
TORSDOF 0
ENDMDL
