MODEL 1
REMARK minimizedAffinity 7.55570745
REMARK minimizedRMSD -1
REMARK  0 active torsions:
REMARK  status: ('A' for Active; 'I' for Inactive)
ROOT
ATOM      1  C   UNL d   1      -4.553  -1.261  -1.760  0.00  0.00     0.078 C 
ATOM      2  C1  UNL d   1      -3.323  -1.821  -1.110  0.00  0.00    -0.077 A 
ATOM      3  C2  UNL d   1      -2.764  -1.212   0.020  0.00  0.00    -0.001 A 
ATOM      4  C3  UNL d   1      -1.613  -1.739   0.609  0.00  0.00     0.003 A 
ATOM      5  C4  UNL d   1      -1.011  -2.876   0.074  0.00  0.00    -0.005 A 
ATOM      6  C5  UNL d   1      -1.559  -3.487  -1.052  0.00  0.00     0.003 A 
ATOM      7  C6  UNL d   1      -2.710  -2.962  -1.642  0.00  0.00    -0.001 A 
ENDROOT
TORSDOF 0
ENDMDL
