MODEL 1
REMARK minimizedAffinity 1.83023798
REMARK minimizedRMSD -1
REMARK  0 active torsions:
REMARK  status: ('A' for Active; 'I' for Inactive)
ROOT
ATOM      1  C   UNL d   1       4.503   5.424   3.745  0.00  0.00     0.078 C 
ATOM      2  C1  UNL d   1       4.052   4.173   3.051  0.00  0.00    -0.077 A 
ATOM      3  C2  UNL d   1       2.691   3.894   2.880  0.00  0.00    -0.001 A 
ATOM      4  C3  UNL d   1       2.286   2.721   2.241  0.00  0.00     0.003 A 
ATOM      5  C4  UNL d   1       3.236   1.818   1.768  0.00  0.00    -0.005 A 
ATOM      6  C5  UNL d   1       4.593   2.087   1.936  0.00  0.00     0.003 A 
ATOM      7  C6  UNL d   1       5.000   3.259   2.575  0.00  0.00    -0.001 A 
ENDROOT
TORSDOF 0
ENDMDL
