MODEL 1
REMARK minimizedAffinity 6.15509129
REMARK minimizedRMSD -1
REMARK  0 active torsions:
REMARK  status: ('A' for Active; 'I' for Inactive)
ROOT
ATOM      1  C   UNL d   1       1.913   1.125   1.305  0.00  0.00     0.078 C 
ATOM      2  C1  UNL d   1       2.881   2.133   1.851  0.00  0.00    -0.077 A 
ATOM      3  C2  UNL d   1       2.484   3.453   2.100  0.00  0.00    -0.001 A 
ATOM      4  C3  UNL d   1       3.397   4.382   2.599  0.00  0.00     0.003 A 
ATOM      5  C4  UNL d   1       4.714   4.003   2.852  0.00  0.00    -0.005 A 
ATOM      6  C5  UNL d   1       5.119   2.693   2.606  0.00  0.00     0.003 A 
ATOM      7  C6  UNL d   1       4.206   1.762   2.107  0.00  0.00    -0.001 A 
ENDROOT
TORSDOF 0
ENDMDL
