MODEL 1
REMARK minimizedAffinity 4.28764057
REMARK minimizedRMSD -1
REMARK  0 active torsions:
REMARK  status: ('A' for Active; 'I' for Inactive)
ROOT
ATOM      1  C   UNL d   1       2.520  -1.169  -0.660  0.00  0.00     0.078 C 
ATOM      2  C1  UNL d   1       2.140  -0.129   0.351  0.00  0.00    -0.077 A 
ATOM      3  C2  UNL d   1       3.116   0.639   0.998  0.00  0.00    -0.001 A 
ATOM      4  C3  UNL d   1       2.749   1.597   1.943  0.00  0.00     0.003 A 
ATOM      5  C4  UNL d   1       1.405   1.796   2.252  0.00  0.00    -0.005 A 
ATOM      6  C5  UNL d   1       0.426   1.036   1.615  0.00  0.00     0.003 A 
ATOM      7  C6  UNL d   1       0.792   0.077   0.669  0.00  0.00    -0.001 A 
ENDROOT
TORSDOF 0
ENDMDL
