MODEL 1
REMARK minimizedAffinity 7.11097527
REMARK minimizedRMSD -1
REMARK  0 active torsions:
REMARK  status: ('A' for Active; 'I' for Inactive)
ROOT
ATOM      1  C   UNL d   1      -5.531   3.888  -3.904  0.00  0.00     0.078 C 
ATOM      2  C1  UNL d   1      -5.532   2.908  -2.769  0.00  0.00    -0.077 A 
ATOM      3  C2  UNL d   1      -5.059   3.272  -1.502  0.00  0.00    -0.001 A 
ATOM      4  C3  UNL d   1      -5.057   2.347  -0.457  0.00  0.00     0.003 A 
ATOM      5  C4  UNL d   1      -5.526   1.052  -0.668  0.00  0.00    -0.005 A 
ATOM      6  C5  UNL d   1      -5.997   0.680  -1.925  0.00  0.00     0.003 A 
ATOM      7  C6  UNL d   1      -6.000   1.604  -2.972  0.00  0.00    -0.001 A 
ENDROOT
TORSDOF 0
ENDMDL
