MODEL 1
REMARK minimizedAffinity 6.03087568
REMARK minimizedRMSD -1
REMARK  0 active torsions:
REMARK  status: ('A' for Active; 'I' for Inactive)
ROOT
ATOM      1  C   UNL d   1       4.330   5.611   3.571  0.00  0.00     0.078 C 
ATOM      2  C1  UNL d   1       3.924   4.285   3.001  0.00  0.00    -0.077 A 
ATOM      3  C2  UNL d   1       2.574   3.963   2.815  0.00  0.00    -0.001 A 
ATOM      4  C3  UNL d   1       2.209   2.721   2.293  0.00  0.00     0.003 A 
ATOM      5  C4  UNL d   1       3.189   1.790   1.953  0.00  0.00    -0.005 A 
ATOM      6  C5  UNL d   1       4.535   2.101   2.137  0.00  0.00     0.003 A 
ATOM      7  C6  UNL d   1       4.901   3.342   2.659  0.00  0.00    -0.001 A 
ENDROOT
TORSDOF 0
ENDMDL
