MODEL 1
REMARK minimizedAffinity 7.21569729
REMARK minimizedRMSD -1
REMARK  0 active torsions:
REMARK  status: ('A' for Active; 'I' for Inactive)
ROOT
ATOM      1  C   UNL d   1      -3.033  -2.932  -1.615  0.00  0.00     0.078 C 
ATOM      2  C1  UNL d   1      -1.861  -3.866  -1.559  0.00  0.00    -0.077 A 
ATOM      3  C2  UNL d   1      -0.710  -3.538  -0.833  0.00  0.00    -0.001 A 
ATOM      4  C3  UNL d   1       0.377  -4.413  -0.798  0.00  0.00     0.003 A 
ATOM      5  C4  UNL d   1       0.323  -5.622  -1.488  0.00  0.00    -0.005 A 
ATOM      6  C5  UNL d   1      -0.817  -5.957  -2.215  0.00  0.00     0.003 A 
ATOM      7  C6  UNL d   1      -1.905  -5.083  -2.251  0.00  0.00    -0.001 A 
ENDROOT
TORSDOF 0
ENDMDL
