MODEL 1
REMARK minimizedAffinity 7.12633228
REMARK minimizedRMSD -1
REMARK  0 active torsions:
REMARK  status: ('A' for Active; 'I' for Inactive)
ROOT
ATOM      1  C   UNL d   1      -3.352  -2.541  -2.224  0.00  0.00     0.078 C 
ATOM      2  C1  UNL d   1      -2.834  -3.753  -1.509  0.00  0.00    -0.077 A 
ATOM      3  C2  UNL d   1      -3.709  -4.658  -0.897  0.00  0.00    -0.001 A 
ATOM      4  C3  UNL d   1      -3.212  -5.777  -0.226  0.00  0.00     0.003 A 
ATOM      5  C4  UNL d   1      -1.838  -6.000  -0.160  0.00  0.00    -0.005 A 
ATOM      6  C5  UNL d   1      -0.959  -5.103  -0.765  0.00  0.00     0.003 A 
ATOM      7  C6  UNL d   1      -1.455  -3.984  -1.436  0.00  0.00    -0.001 A 
ENDROOT
TORSDOF 0
ENDMDL
