MODEL 1
REMARK minimizedAffinity 5.3091464
REMARK minimizedRMSD -1
REMARK  0 active torsions:
REMARK  status: ('A' for Active; 'I' for Inactive)
ROOT
ATOM      1  C   UNL d   1      -5.573  -3.172   3.465  0.00  0.00     0.078 C 
ATOM      2  C1  UNL d   1      -4.498  -2.276   2.925  0.00  0.00    -0.077 A 
ATOM      3  C2  UNL d   1      -3.230  -2.234   3.516  0.00  0.00    -0.001 A 
ATOM      4  C3  UNL d   1      -2.242  -1.389   3.009  0.00  0.00     0.003 A 
ATOM      5  C4  UNL d   1      -2.512  -0.578   1.908  0.00  0.00    -0.005 A 
ATOM      6  C5  UNL d   1      -3.772  -0.611   1.314  0.00  0.00     0.003 A 
ATOM      7  C6  UNL d   1      -4.761  -1.456   1.820  0.00  0.00    -0.001 A 
ENDROOT
TORSDOF 0
ENDMDL
