MODEL 1
REMARK minimizedAffinity 0.815442502
REMARK minimizedRMSD -1
REMARK  0 active torsions:
REMARK  status: ('A' for Active; 'I' for Inactive)
ROOT
ATOM      1  C   UNL d   1       2.043  -2.304  -0.113  0.00  0.00     0.078 C 
ATOM      2  C1  UNL d   1       1.142  -3.392  -0.616  0.00  0.00    -0.077 A 
ATOM      3  C2  UNL d   1      -0.251  -3.259  -0.557  0.00  0.00    -0.001 A 
ATOM      4  C3  UNL d   1      -1.077  -4.284  -1.020  0.00  0.00     0.003 A 
ATOM      5  C4  UNL d   1      -0.521  -5.450  -1.544  0.00  0.00    -0.005 A 
ATOM      6  C5  UNL d   1       0.864  -5.591  -1.604  0.00  0.00     0.003 A 
ATOM      7  C6  UNL d   1       1.692  -4.567  -1.142  0.00  0.00    -0.001 A 
ENDROOT
TORSDOF 0
ENDMDL
