MODEL 1
REMARK minimizedAffinity 0.466339082
REMARK minimizedRMSD -1
REMARK  0 active torsions:
REMARK  status: ('A' for Active; 'I' for Inactive)
ROOT
ATOM      1  C   UNL d   1       3.325   1.080  -3.085  0.00  0.00     0.078 C 
ATOM      2  C1  UNL d   1       2.299   1.465  -4.108  0.00  0.00    -0.077 A 
ATOM      3  C2  UNL d   1       2.501   2.562  -4.955  0.00  0.00    -0.001 A 
ATOM      4  C3  UNL d   1       1.533   2.915  -5.896  0.00  0.00     0.003 A 
ATOM      5  C4  UNL d   1       0.354   2.178  -5.998  0.00  0.00    -0.005 A 
ATOM      6  C5  UNL d   1       0.143   1.087  -5.158  0.00  0.00     0.003 A 
ATOM      7  C6  UNL d   1       1.111   0.732  -4.217  0.00  0.00    -0.001 A 
ENDROOT
TORSDOF 0
ENDMDL
