MODEL 1
REMARK minimizedAffinity 6.2604332
REMARK minimizedRMSD -1
REMARK  0 active torsions:
REMARK  status: ('A' for Active; 'I' for Inactive)
ROOT
ATOM      1  C   UNL d   1      -1.393   1.488  -6.000  0.00  0.00     0.078 C 
ATOM      2  C1  UNL d   1      -0.011   1.356  -5.432  0.00  0.00    -0.077 A 
ATOM      3  C2  UNL d   1       0.276   0.403  -4.448  0.00  0.00    -0.001 A 
ATOM      4  C3  UNL d   1       1.564   0.298  -3.921  0.00  0.00     0.003 A 
ATOM      5  C4  UNL d   1       2.576   1.144  -4.372  0.00  0.00    -0.005 A 
ATOM      6  C5  UNL d   1       2.299   2.097  -5.350  0.00  0.00     0.003 A 
ATOM      7  C6  UNL d   1       1.011   2.204  -5.878  0.00  0.00    -0.001 A 
ENDROOT
TORSDOF 0
ENDMDL
