MODEL 1
REMARK minimizedAffinity 7.48717737
REMARK minimizedRMSD -1
REMARK  0 active torsions:
REMARK  status: ('A' for Active; 'I' for Inactive)
ROOT
ATOM      1  C   UNL d   1       5.295   1.863   2.049  0.00  0.00     0.078 C 
ATOM      2  C1  UNL d   1       4.054   2.646   2.361  0.00  0.00    -0.077 A 
ATOM      3  C2  UNL d   1       4.122   4.007   2.683  0.00  0.00    -0.001 A 
ATOM      4  C3  UNL d   1       2.960   4.721   2.981  0.00  0.00     0.003 A 
ATOM      5  C4  UNL d   1       1.722   4.082   2.960  0.00  0.00    -0.005 A 
ATOM      6  C5  UNL d   1       1.645   2.727   2.643  0.00  0.00     0.003 A 
ATOM      7  C6  UNL d   1       2.806   2.012   2.345  0.00  0.00    -0.001 A 
ENDROOT
TORSDOF 0
ENDMDL
