MODEL 1
REMARK minimizedAffinity 6.58896732
REMARK minimizedRMSD -1
REMARK  0 active torsions:
REMARK  status: ('A' for Active; 'I' for Inactive)
ROOT
ATOM      1  C   UNL d   1       0.143  -5.281  -0.736  0.00  0.00     0.078 C 
ATOM      2  C1  UNL d   1      -0.934  -4.241  -0.659  0.00  0.00    -0.077 A 
ATOM      3  C2  UNL d   1      -0.840  -3.170   0.239  0.00  0.00    -0.001 A 
ATOM      4  C3  UNL d   1      -1.855  -2.215   0.306  0.00  0.00     0.003 A 
ATOM      5  C4  UNL d   1      -2.972  -2.321  -0.520  0.00  0.00    -0.005 A 
ATOM      6  C5  UNL d   1      -3.076  -3.384  -1.415  0.00  0.00     0.003 A 
ATOM      7  C6  UNL d   1      -2.062  -4.340  -1.484  0.00  0.00    -0.001 A 
ENDROOT
TORSDOF 0
ENDMDL
