MODEL 1
REMARK minimizedAffinity -1.93758583
REMARK minimizedRMSD -1
REMARK  0 active torsions:
REMARK  status: ('A' for Active; 'I' for Inactive)
ROOT
ATOM      1  C1  BNZ d   1       0.536   1.708  -1.836  0.00  0.00     0.000 A 
ATOM      2  C2  BNZ d   1       1.123   1.020  -0.808  0.00  0.00     0.000 A 
ATOM      3  C3  BNZ d   1       0.363   0.386   0.134  0.00  0.00     0.000 A 
ATOM      4  C4  BNZ d   1      -0.981   0.475   0.071  0.00  0.00     0.000 A 
ATOM      5  C5  BNZ d   1      -1.588   1.173  -0.954  0.00  0.00     0.000 A 
ATOM      6  C6  BNZ d   1      -0.820   1.777  -1.923  0.00  0.00     0.000 A 
ENDROOT
TORSDOF 0
ENDMDL
