MODEL 1
REMARK minimizedAffinity -1.84119821
REMARK minimizedRMSD -1
REMARK  0 active torsions:
REMARK  status: ('A' for Active; 'I' for Inactive)
ROOT
ATOM      1  C1  BNZ d   1       0.438   1.251  -2.196  0.00  0.00     0.000 A 
ATOM      2  C2  BNZ d   1       0.586   2.478  -2.787  0.00  0.00     0.000 A 
ATOM      3  C3  BNZ d   1      -0.502   3.255  -3.067  0.00  0.00     0.000 A 
ATOM      4  C4  BNZ d   1      -1.738   2.789  -2.795  0.00  0.00     0.000 A 
ATOM      5  C5  BNZ d   1      -1.904   1.551  -2.208  0.00  0.00     0.000 A 
ATOM      6  C6  BNZ d   1      -0.805   0.787  -1.891  0.00  0.00     0.000 A 
ENDROOT
TORSDOF 0
ENDMDL
