MODEL 1
REMARK minimizedAffinity -1.59624708
REMARK minimizedRMSD -1
REMARK  0 active torsions:
REMARK  status: ('A' for Active; 'I' for Inactive)
ROOT
ATOM      1  C1  BNZ d   1      -1.685   0.208  -0.239  0.00  0.00     0.000 A 
ATOM      2  C2  BNZ d   1      -1.365   0.021   1.080  0.00  0.00     0.000 A 
ATOM      3  C3  BNZ d   1      -0.100  -0.340   1.449  0.00  0.00     0.000 A 
ATOM      4  C4  BNZ d   1       0.833  -0.552   0.498  0.00  0.00     0.000 A 
ATOM      5  C5  BNZ d   1       0.524  -0.377  -0.836  0.00  0.00     0.000 A 
ATOM      6  C6  BNZ d   1      -0.741   0.025  -1.201  0.00  0.00     0.000 A 
ENDROOT
TORSDOF 0
ENDMDL
