MODEL 1
REMARK minimizedAffinity -4.65881443
REMARK minimizedRMSD -1
REMARK  0 active torsions:
REMARK  status: ('A' for Active; 'I' for Inactive)
ROOT
ATOM      1  C1  BNZ d   1       1.971  -0.152   2.025  0.00  0.00     0.000 A 
ATOM      2  C2  BNZ d   1       1.410   0.270   0.849  0.00  0.00     0.000 A 
ATOM      3  C3  BNZ d   1       0.066   0.144   0.631  0.00  0.00     0.000 A 
ATOM      4  C4  BNZ d   1      -0.706  -0.439   1.570  0.00  0.00     0.000 A 
ATOM      5  C5  BNZ d   1      -0.153  -0.878   2.756  0.00  0.00     0.000 A 
ATOM      6  C6  BNZ d   1       1.193  -0.715   2.989  0.00  0.00     0.000 A 
ENDROOT
TORSDOF 0
ENDMDL
