MODEL 1
REMARK minimizedAffinity -4.8376441
REMARK minimizedRMSD -1
REMARK  0 active torsions:
REMARK  status: ('A' for Active; 'I' for Inactive)
ROOT
ATOM      1  C1  BNZ d   1       1.085  -0.324   0.281  0.00  0.00     0.000 A 
ATOM      2  C2  BNZ d   1       1.685  -0.694   1.455  0.00  0.00     0.000 A 
ATOM      3  C3  BNZ d   1       0.966  -0.767   2.616  0.00  0.00     0.000 A 
ATOM      4  C4  BNZ d   1      -0.340  -0.432   2.609  0.00  0.00     0.000 A 
ATOM      5  C5  BNZ d   1      -0.957  -0.048   1.435  0.00  0.00     0.000 A 
ATOM      6  C6  BNZ d   1      -0.240  -0.013   0.261  0.00  0.00     0.000 A 
ENDROOT
TORSDOF 0
ENDMDL
