MODEL 1
REMARK minimizedAffinity -4.3317976
REMARK minimizedRMSD -1
REMARK  0 active torsions:
REMARK  status: ('A' for Active; 'I' for Inactive)
ROOT
ATOM      1  C1  BNZ d   1      -0.994  -0.078   1.702  0.00  0.00     0.000 A 
ATOM      2  C2  BNZ d   1      -0.004  -0.242   2.634  0.00  0.00     0.000 A 
ATOM      3  C3  BNZ d   1       1.305  -0.347   2.253  0.00  0.00     0.000 A 
ATOM      4  C4  BNZ d   1       1.618  -0.329   0.942  0.00  0.00     0.000 A 
ATOM      5  C5  BNZ d   1       0.630  -0.174  -0.010  0.00  0.00     0.000 A 
ATOM      6  C6  BNZ d   1      -0.682  -0.029   0.378  0.00  0.00     0.000 A 
ENDROOT
TORSDOF 0
ENDMDL
