MODEL 1
REMARK minimizedAffinity -1.69571745
REMARK minimizedRMSD -1
REMARK  0 active torsions:
REMARK  status: ('A' for Active; 'I' for Inactive)
ROOT
ATOM      1  C1  BNZ d   1      -0.279   2.949  -2.948  0.00  0.00     0.000 A 
ATOM      2  C2  BNZ d   1       0.898   2.317  -2.646  0.00  0.00     0.000 A 
ATOM      3  C3  BNZ d   1       0.900   1.119  -1.988  0.00  0.00     0.000 A 
ATOM      4  C4  BNZ d   1      -0.271   0.575  -1.598  0.00  0.00     0.000 A 
ATOM      5  C5  BNZ d   1      -1.465   1.204  -1.886  0.00  0.00     0.000 A 
ATOM      6  C6  BNZ d   1      -1.466   2.391  -2.583  0.00  0.00     0.000 A 
ENDROOT
TORSDOF 0
ENDMDL
