MODEL 1
REMARK minimizedAffinity -3.7931776
REMARK minimizedRMSD -1
REMARK  0 active torsions:
REMARK  status: ('A' for Active; 'I' for Inactive)
ROOT
ATOM      1  C1  BNZ d   1       0.744   0.095  -0.160  0.00  0.00     0.000 A 
ATOM      2  C2  BNZ d   1       1.515  -0.398   0.859  0.00  0.00     0.000 A 
ATOM      3  C3  BNZ d   1       0.971  -0.655   2.087  0.00  0.00     0.000 A 
ATOM      4  C4  BNZ d   1      -0.331  -0.380   2.306  0.00  0.00     0.000 A 
ATOM      5  C5  BNZ d   1      -1.119   0.126   1.291  0.00  0.00     0.000 A 
ATOM      6  C6  BNZ d   1      -0.577   0.347   0.045  0.00  0.00     0.000 A 
ENDROOT
TORSDOF 0
ENDMDL
