MODEL 1
REMARK minimizedAffinity -3.78547049
REMARK minimizedRMSD -1
REMARK  0 active torsions:
REMARK  status: ('A' for Active; 'I' for Inactive)
ROOT
ATOM      1  C1  BNZ d   1      -1.025   0.160   1.051  0.00  0.00     0.000 A 
ATOM      2  C2  BNZ d   1      -0.093  -0.196   1.990  0.00  0.00     0.000 A 
ATOM      3  C3  BNZ d   1       1.177  -0.541   1.620  0.00  0.00     0.000 A 
ATOM      4  C4  BNZ d   1       1.501  -0.569   0.311  0.00  0.00     0.000 A 
ATOM      5  C5  BNZ d   1       0.571  -0.222  -0.648  0.00  0.00     0.000 A 
ATOM      6  C6  BNZ d   1      -0.695   0.163  -0.269  0.00  0.00     0.000 A 
ENDROOT
TORSDOF 0
ENDMDL
