MODEL 1
REMARK minimizedAffinity -3.71195078
REMARK minimizedRMSD -1
REMARK  0 active torsions:
REMARK  status: ('A' for Active; 'I' for Inactive)
ROOT
ATOM      1  C1  BNZ d   1       0.483  -0.173   0.965  0.00  0.00     0.000 A 
ATOM      2  C2  BNZ d   1      -0.492   0.286   0.120  0.00  0.00     0.000 A 
ATOM      3  C3  BNZ d   1      -0.397   0.093  -1.230  0.00  0.00     0.000 A 
ATOM      4  C4  BNZ d   1       0.691  -0.523  -1.736  0.00  0.00     0.000 A 
ATOM      5  C5  BNZ d   1       1.687  -0.983  -0.899  0.00  0.00     0.000 A 
ATOM      6  C6  BNZ d   1       1.569  -0.822   0.463  0.00  0.00     0.000 A 
ENDROOT
TORSDOF 0
ENDMDL
