MODEL 1
REMARK minimizedAffinity -4.65987587
REMARK minimizedRMSD -1
REMARK  0 active torsions:
REMARK  status: ('A' for Active; 'I' for Inactive)
ROOT
ATOM      1  C1  BNZ d   1       1.702  -0.401   2.251  0.00  0.00     0.000 A 
ATOM      2  C2  BNZ d   1       1.166   0.218   1.153  0.00  0.00     0.000 A 
ATOM      3  C3  BNZ d   1      -0.186   0.362   1.022  0.00  0.00     0.000 A 
ATOM      4  C4  BNZ d   1      -1.002  -0.148   1.967  0.00  0.00     0.000 A 
ATOM      5  C5  BNZ d   1      -0.478  -0.783   3.075  0.00  0.00     0.000 A 
ATOM      6  C6  BNZ d   1       0.886  -0.892   3.223  0.00  0.00     0.000 A 
ENDROOT
TORSDOF 0
ENDMDL
