MODEL 1
REMARK minimizedAffinity -4.58807802
REMARK minimizedRMSD -1
REMARK  0 active torsions:
REMARK  status: ('A' for Active; 'I' for Inactive)
ROOT
ATOM      1  O1  BZF d   1       2.566   0.606   0.487  0.00  0.00    -0.204 OA
ATOM      2  C2  BZF d   1       3.033   1.894   0.668  0.00  0.00     0.174 A 
ATOM      3  C3  BZF d   1       2.030   2.788   0.545  0.00  0.00    -0.012 A 
ATOM      4  C3A BZF d   1       0.848   2.004   0.362  0.00  0.00    -0.107 A 
ATOM      5  C4  BZF d   1      -0.471   2.318   0.198  0.00  0.00     0.055 A 
ATOM      6  C5  BZF d   1      -1.365   1.320  -0.029  0.00  0.00    -0.016 A 
ATOM      7  C6  BZF d   1      -0.975  -0.001  -0.103  0.00  0.00     0.022 A 
ATOM      8  C7  BZF d   1       0.321  -0.362   0.058  0.00  0.00     0.029 A 
ATOM      9  C7A BZF d   1       1.222   0.641   0.321  0.00  0.00     0.058 A 
ENDROOT
TORSDOF 0
ENDMDL
