MODEL 1
REMARK minimizedAffinity -2.78978181
REMARK minimizedRMSD -1
REMARK  0 active torsions:
REMARK  status: ('A' for Active; 'I' for Inactive)
ROOT
ATOM      1  O1  BZF d   1       2.876   1.898   0.578  0.00  0.00    -0.204 OA
ATOM      2  C2  BZF d   1       2.634   3.255   0.674  0.00  0.00     0.174 A 
ATOM      3  C3  BZF d   1       1.310   3.508   0.662  0.00  0.00    -0.012 A 
ATOM      4  C3A BZF d   1       0.682   2.222   0.645  0.00  0.00    -0.107 A 
ATOM      5  C4  BZF d   1      -0.621   1.813   0.643  0.00  0.00     0.055 A 
ATOM      6  C5  BZF d   1      -0.897   0.486   0.551  0.00  0.00    -0.016 A 
ATOM      7  C6  BZF d   1       0.104  -0.458   0.453  0.00  0.00     0.022 A 
ATOM      8  C7  BZF d   1       1.411  -0.102   0.456  0.00  0.00     0.029 A 
ATOM      9  C7A BZF d   1       1.694   1.236   0.583  0.00  0.00     0.058 A 
ENDROOT
TORSDOF 0
ENDMDL
