MODEL 1
REMARK minimizedAffinity 5.45373058
REMARK minimizedRMSD -1
REMARK  0 active torsions:
REMARK  status: ('A' for Active; 'I' for Inactive)
ROOT
ATOM      1  O1  BZF d   1      -1.543   3.148  -0.079  0.00  0.00    -0.204 OA
ATOM      2  C2  BZF d   1      -0.649   3.207   0.972  0.00  0.00     0.174 A 
ATOM      3  C3  BZF d   1      -0.282   1.968   1.358  0.00  0.00    -0.012 A 
ATOM      4  C3A BZF d   1      -0.918   1.082   0.433  0.00  0.00    -0.107 A 
ATOM      5  C4  BZF d   1      -0.924  -0.276   0.286  0.00  0.00     0.055 A 
ATOM      6  C5  BZF d   1      -1.708  -0.833  -0.675  0.00  0.00    -0.016 A 
ATOM      7  C6  BZF d   1      -2.502  -0.064  -1.500  0.00  0.00     0.022 A 
ATOM      8  C7  BZF d   1      -2.526   1.287  -1.395  0.00  0.00     0.029 A 
ATOM      9  C7A BZF d   1      -1.709   1.855  -0.448  0.00  0.00     0.058 A 
ENDROOT
TORSDOF 0
ENDMDL
