MODEL 1
REMARK minimizedAffinity -5.77521372
REMARK minimizedRMSD -1
REMARK  0 active torsions:
REMARK  status: ('A' for Active; 'I' for Inactive)
ROOT
ATOM      1  O1  BZF d   1       1.821  -0.064   0.600  0.00  0.00    -0.204 OA
ATOM      2  C2  BZF d   1       0.960  -1.129   0.779  0.00  0.00     0.174 A 
ATOM      3  C3  BZF d   1      -0.323  -0.737   0.638  0.00  0.00    -0.012 A 
ATOM      4  C3A BZF d   1      -0.255   0.642   0.262  0.00  0.00    -0.107 A 
ATOM      5  C4  BZF d   1      -1.200   1.581  -0.036  0.00  0.00     0.055 A 
ATOM      6  C5  BZF d   1      -0.807   2.856  -0.293  0.00  0.00    -0.016 A 
ATOM      7  C6  BZF d   1       0.521   3.227  -0.256  0.00  0.00     0.022 A 
ATOM      8  C7  BZF d   1       1.496   2.330   0.030  0.00  0.00     0.029 A 
ATOM      9  C7A BZF d   1       1.104   1.033   0.258  0.00  0.00     0.058 A 
ENDROOT
TORSDOF 0
ENDMDL
