MODEL 1
REMARK minimizedAffinity -0.178500891
REMARK minimizedRMSD -1
REMARK  0 active torsions:
REMARK  status: ('A' for Active; 'I' for Inactive)
ROOT
ATOM      1  O1  BZF d   1      -0.075  -2.313  -2.539  0.00  0.00    -0.204 OA
ATOM      2  C2  BZF d   1      -1.149  -3.143  -2.281  0.00  0.00     0.174 A 
ATOM      3  C3  BZF d   1      -1.709  -2.844  -1.091  0.00  0.00    -0.012 A 
ATOM      4  C3A BZF d   1      -0.994  -1.700  -0.615  0.00  0.00    -0.107 A 
ATOM      5  C4  BZF d   1      -1.096  -0.929   0.507  0.00  0.00     0.055 A 
ATOM      6  C5  BZF d   1      -0.198   0.071   0.706  0.00  0.00    -0.016 A 
ATOM      7  C6  BZF d   1       0.817   0.325  -0.194  0.00  0.00     0.022 A 
ATOM      8  C7  BZF d   1       0.956  -0.410  -1.324  0.00  0.00     0.029 A 
ATOM      9  C7A BZF d   1       0.030  -1.400  -1.544  0.00  0.00     0.058 A 
ENDROOT
TORSDOF 0
ENDMDL
