MODEL 1
REMARK minimizedAffinity -5.95415497
REMARK minimizedRMSD -1
REMARK  0 active torsions:
REMARK  status: ('A' for Active; 'I' for Inactive)
ROOT
ATOM      1  O1  BZF d   1       1.311  -0.341   0.392  0.00  0.00    -0.204 OA
ATOM      2  C2  BZF d   1       0.016  -0.696   0.717  0.00  0.00     0.174 A 
ATOM      3  C3  BZF d   1      -0.755   0.399   0.873  0.00  0.00    -0.012 A 
ATOM      4  C3A BZF d   1       0.089   1.505   0.539  0.00  0.00    -0.107 A 
ATOM      5  C4  BZF d   1      -0.109   2.855   0.488  0.00  0.00     0.055 A 
ATOM      6  C5  BZF d   1       0.942   3.666   0.196  0.00  0.00    -0.016 A 
ATOM      7  C6  BZF d   1       2.203   3.161  -0.045  0.00  0.00     0.022 A 
ATOM      8  C7  BZF d   1       2.447   1.829  -0.010  0.00  0.00     0.029 A 
ATOM      9  C7A BZF d   1       1.380   1.004   0.252  0.00  0.00     0.058 A 
ENDROOT
TORSDOF 0
ENDMDL
