MODEL 1
REMARK minimizedAffinity -5.48981428
REMARK minimizedRMSD -1
REMARK  0 active torsions:
REMARK  status: ('A' for Active; 'I' for Inactive)
ROOT
ATOM      1  O1  BZF d   1       0.577  -1.079   0.400  0.00  0.00    -0.204 OA
ATOM      2  C2  BZF d   1      -0.788  -1.289   0.425  0.00  0.00     0.174 A 
ATOM      3  C3  BZF d   1      -1.451  -0.117   0.500  0.00  0.00    -0.012 A 
ATOM      4  C3A BZF d   1      -0.439   0.893   0.430  0.00  0.00    -0.107 A 
ATOM      5  C4  BZF d   1      -0.473   2.258   0.439  0.00  0.00     0.055 A 
ATOM      6  C5  BZF d   1       0.698   2.947   0.431  0.00  0.00    -0.016 A 
ATOM      7  C6  BZF d   1       1.919   2.305   0.417  0.00  0.00     0.022 A 
ATOM      8  C7  BZF d   1       2.003   0.952   0.402  0.00  0.00     0.029 A 
ATOM      9  C7A BZF d   1       0.821   0.253   0.378  0.00  0.00     0.058 A 
ENDROOT
TORSDOF 0
ENDMDL
