MODEL 1
REMARK minimizedAffinity -4.81715155
REMARK minimizedRMSD -1
REMARK  0 active torsions:
REMARK  status: ('A' for Active; 'I' for Inactive)
ROOT
ATOM      1  O1  BZF d   1       1.465  -0.865   0.243  0.00  0.00    -0.204 OA
ATOM      2  C2  BZF d   1       0.157  -1.178  -0.072  0.00  0.00     0.174 A 
ATOM      3  C3  BZF d   1      -0.559  -0.060  -0.309  0.00  0.00    -0.012 A 
ATOM      4  C3A BZF d   1       0.381   1.015  -0.220  0.00  0.00    -0.107 A 
ATOM      5  C4  BZF d   1       0.277   2.368  -0.373  0.00  0.00     0.055 A 
ATOM      6  C5  BZF d   1       1.370   3.144  -0.147  0.00  0.00    -0.016 A 
ATOM      7  C6  BZF d   1       2.579   2.602   0.237  0.00  0.00     0.022 A 
ATOM      8  C7  BZF d   1       2.732   1.265   0.397  0.00  0.00     0.029 A 
ATOM      9  C7A BZF d   1       1.638   0.475   0.137  0.00  0.00     0.058 A 
ENDROOT
TORSDOF 0
ENDMDL
