MODEL 1
REMARK minimizedAffinity -6.3467412
REMARK minimizedRMSD -1
REMARK  0 active torsions:
REMARK  status: ('A' for Active; 'I' for Inactive)
ROOT
ATOM      1  O1  BZF d   1       0.794  -0.920   0.279  0.00  0.00    -0.204 OA
ATOM      2  C2  BZF d   1      -0.546  -1.236   0.170  0.00  0.00     0.174 A 
ATOM      3  C3  BZF d   1      -1.299  -0.118   0.119  0.00  0.00    -0.012 A 
ATOM      4  C3A BZF d   1      -0.364   0.965   0.109  0.00  0.00    -0.107 A 
ATOM      5  C4  BZF d   1      -0.501   2.322   0.051  0.00  0.00     0.055 A 
ATOM      6  C5  BZF d   1       0.609   3.102   0.132  0.00  0.00    -0.016 A 
ATOM      7  C6  BZF d   1       1.869   2.558   0.278  0.00  0.00     0.022 A 
ATOM      8  C7  BZF d   1       2.055   1.217   0.336  0.00  0.00     0.029 A 
ATOM      9  C7A BZF d   1       0.938   0.426   0.220  0.00  0.00     0.058 A 
ENDROOT
TORSDOF 0
ENDMDL
