MODEL 1
REMARK minimizedAffinity -4.72807741
REMARK minimizedRMSD -1
REMARK  0 active torsions:
REMARK  status: ('A' for Active; 'I' for Inactive)
ROOT
ATOM      1  O1  BZF d   1       2.764   1.261   1.249  0.00  0.00    -0.204 OA
ATOM      2  C2  BZF d   1       3.092   2.577   1.511  0.00  0.00     0.174 A 
ATOM      3  C3  BZF d   1       2.046   3.390   1.259  0.00  0.00    -0.012 A 
ATOM      4  C3A BZF d   1       0.970   2.518   0.900  0.00  0.00    -0.107 A 
ATOM      5  C4  BZF d   1      -0.335   2.730   0.554  0.00  0.00     0.055 A 
ATOM      6  C5  BZF d   1      -1.102   1.669   0.190  0.00  0.00    -0.016 A 
ATOM      7  C6  BZF d   1      -0.596   0.386   0.155  0.00  0.00     0.022 A 
ATOM      8  C7  BZF d   1       0.690   0.126   0.494  0.00  0.00     0.029 A 
ATOM      9  C7A BZF d   1       1.458   1.191   0.895  0.00  0.00     0.058 A 
ENDROOT
TORSDOF 0
ENDMDL
