MODEL 1
REMARK minimizedAffinity -1.30869377
REMARK minimizedRMSD -1
REMARK  0 active torsions:
REMARK  status: ('A' for Active; 'I' for Inactive)
ROOT
ATOM      1  O1  BZF d   1       1.210   0.314   0.203  0.00  0.00    -0.204 OA
ATOM      2  C2  BZF d   1       1.137  -1.059   0.071  0.00  0.00     0.174 A 
ATOM      3  C3  BZF d   1      -0.134  -1.486   0.217  0.00  0.00    -0.012 A 
ATOM      4  C3A BZF d   1      -0.917  -0.298   0.364  0.00  0.00    -0.107 A 
ATOM      5  C4  BZF d   1      -2.252  -0.067   0.530  0.00  0.00     0.055 A 
ATOM      6  C5  BZF d   1      -2.685   1.208   0.716  0.00  0.00    -0.016 A 
ATOM      7  C6  BZF d   1      -1.810   2.274   0.746  0.00  0.00     0.022 A 
ATOM      8  C7  BZF d   1      -0.476   2.095   0.582  0.00  0.00     0.029 A 
ATOM      9  C7A BZF d   1      -0.040   0.812   0.361  0.00  0.00     0.058 A 
ENDROOT
TORSDOF 0
ENDMDL
