MODEL 1
REMARK minimizedAffinity -4.62757254
REMARK minimizedRMSD -1
REMARK  0 active torsions:
REMARK  status: ('A' for Active; 'I' for Inactive)
ROOT
ATOM      1  O1  BZF d   1       1.062  -0.858   0.406  0.00  0.00    -0.204 OA
ATOM      2  C2  BZF d   1      -0.209  -1.392   0.496  0.00  0.00     0.174 A 
ATOM      3  C3  BZF d   1      -1.111  -0.432   0.787  0.00  0.00    -0.012 A 
ATOM      4  C3A BZF d   1      -0.369   0.792   0.795  0.00  0.00    -0.107 A 
ATOM      5  C4  BZF d   1      -0.713   2.096   1.006  0.00  0.00     0.055 A 
ATOM      6  C5  BZF d   1       0.263   3.043   1.016  0.00  0.00    -0.016 A 
ATOM      7  C6  BZF d   1       1.590   2.720   0.824  0.00  0.00     0.022 A 
ATOM      8  C7  BZF d   1       1.979   1.440   0.605  0.00  0.00     0.029 A 
ATOM      9  C7A BZF d   1       0.992   0.485   0.562  0.00  0.00     0.058 A 
ENDROOT
TORSDOF 0
ENDMDL
