MODEL 1
REMARK minimizedAffinity -5.56291914
REMARK minimizedRMSD -1
REMARK  0 active torsions:
REMARK  status: ('A' for Active; 'I' for Inactive)
ROOT
ATOM      1  O1  BZF d   1       1.106  -0.473  -0.127  0.00  0.00    -0.204 OA
ATOM      2  C2  BZF d   1      -0.199  -0.924  -0.079  0.00  0.00     0.174 A 
ATOM      3  C3  BZF d   1      -1.061   0.111  -0.015  0.00  0.00    -0.012 A 
ATOM      4  C3A BZF d   1      -0.249   1.284  -0.116  0.00  0.00    -0.107 A 
ATOM      5  C4  BZF d   1      -0.528   2.621  -0.129  0.00  0.00     0.055 A 
ATOM      6  C5  BZF d   1       0.500   3.510  -0.166  0.00  0.00    -0.016 A 
ATOM      7  C6  BZF d   1       1.816   3.098  -0.185  0.00  0.00     0.022 A 
ATOM      8  C7  BZF d   1       2.142   1.782  -0.178  0.00  0.00     0.029 A 
ATOM      9  C7A BZF d   1       1.106   0.881  -0.174  0.00  0.00     0.058 A 
ENDROOT
TORSDOF 0
ENDMDL
