MODEL 1
REMARK minimizedAffinity -3.87927485
REMARK minimizedRMSD -1
REMARK  0 active torsions:
REMARK  status: ('A' for Active; 'I' for Inactive)
ROOT
ATOM      1  O1  BZF d   1      -1.784  -1.934  -2.457  0.00  0.00    -0.204 OA
ATOM      2  C2  BZF d   1      -1.166  -3.168  -2.391  0.00  0.00     0.174 A 
ATOM      3  C3  BZF d   1      -0.251  -3.192  -1.401  0.00  0.00    -0.012 A 
ATOM      4  C3A BZF d   1      -0.366  -1.923  -0.751  0.00  0.00    -0.107 A 
ATOM      5  C4  BZF d   1       0.267  -1.354   0.317  0.00  0.00     0.055 A 
ATOM      6  C5  BZF d   1      -0.026  -0.070   0.652  0.00  0.00    -0.016 A 
ATOM      7  C6  BZF d   1      -0.943   0.675  -0.062  0.00  0.00     0.022 A 
ATOM      8  C7  BZF d   1      -1.600   0.152  -1.125  0.00  0.00     0.029 A 
ATOM      9  C7A BZF d   1      -1.330  -1.156  -1.446  0.00  0.00     0.058 A 
ENDROOT
TORSDOF 0
ENDMDL
