MODEL 1
REMARK minimizedAffinity -4.96510506
REMARK minimizedRMSD -1
REMARK  0 active torsions:
REMARK  status: ('A' for Active; 'I' for Inactive)
ROOT
ATOM      1  O1  BZF d   1       2.269   3.337   0.934  0.00  0.00    -0.204 OA
ATOM      2  C2  BZF d   1       1.184   4.179   0.786  0.00  0.00     0.174 A 
ATOM      3  C3  BZF d   1       0.064   3.475   0.522  0.00  0.00    -0.012 A 
ATOM      4  C3A BZF d   1       0.458   2.101   0.596  0.00  0.00    -0.107 A 
ATOM      5  C4  BZF d   1      -0.214   0.922   0.443  0.00  0.00     0.055 A 
ATOM      6  C5  BZF d   1       0.478  -0.246   0.505  0.00  0.00    -0.016 A 
ATOM      7  C6  BZF d   1       1.841  -0.272   0.713  0.00  0.00     0.022 A 
ATOM      8  C7  BZF d   1       2.551   0.872   0.875  0.00  0.00     0.029 A 
ATOM      9  C7A BZF d   1       1.849   2.052   0.845  0.00  0.00     0.058 A 
ENDROOT
TORSDOF 0
ENDMDL
