MODEL 1
REMARK minimizedAffinity -6.8247714
REMARK minimizedRMSD -1
REMARK  0 active torsions:
REMARK  status: ('A' for Active; 'I' for Inactive)
ROOT
ATOM      1  O1  BZF d   1       0.700   0.169  -0.061  0.00  0.00    -0.204 OA
ATOM      2  C2  BZF d   1       1.915  -0.436   0.194  0.00  0.00     0.174 A 
ATOM      3  C3  BZF d   1       2.889   0.486   0.332  0.00  0.00    -0.012 A 
ATOM      4  C3A BZF d   1       2.226   1.751   0.243  0.00  0.00    -0.107 A 
ATOM      5  C4  BZF d   1       2.656   3.044   0.322  0.00  0.00     0.055 A 
ATOM      6  C5  BZF d   1       1.765   4.050   0.121  0.00  0.00    -0.016 A 
ATOM      7  C6  BZF d   1       0.439   3.799  -0.165  0.00  0.00     0.022 A 
ATOM      8  C7  BZF d   1      -0.036   2.532  -0.248  0.00  0.00     0.029 A 
ATOM      9  C7A BZF d   1       0.855   1.514  -0.013  0.00  0.00     0.058 A 
ENDROOT
TORSDOF 0
ENDMDL
