MODEL 1
REMARK minimizedAffinity 1.71779871
REMARK minimizedRMSD -1
REMARK  1 active torsions:
REMARK  status: ('A' for Active; 'I' for Inactive)
REMARK    1  A    between atoms: C1_2  and  C2_3 
ROOT
ATOM      1  C2  UNL d   1      -0.506   4.942  -1.704  0.00  0.00    -0.073 A 
ATOM      2  C3  UNL d   1      -1.432   3.923  -1.454  0.00  0.00    -0.002 A 
ATOM      3  C4  UNL d   1      -1.167   2.950  -0.490  0.00  0.00     0.004 A 
ATOM      4  C5  UNL d   1       0.022   2.990   0.239  0.00  0.00    -0.004 A 
ATOM      5  C6  UNL d   1       0.954   4.007   0.012  0.00  0.00    -0.075 A 
ATOM      6  C7  UNL d   1       2.239   4.063   0.786  0.00  0.00     0.076 C 
ATOM      7  C8  UNL d   1       0.682   4.979  -0.960  0.00  0.00     0.001 A 
ENDROOT
BRANCH   1   8
ATOM      8  C1  UNL d   1      -0.791   5.999  -2.740  0.00  0.00     0.053 C 
ATOM      9  C   UNL d   1       0.245   6.000  -3.853  0.00  0.00     0.018 C 
ENDBRANCH   1   8
TORSDOF 1
ENDMDL
