MODEL 1
REMARK minimizedAffinity 10.6203566
REMARK minimizedRMSD -1
REMARK  1 active torsions:
REMARK  status: ('A' for Active; 'I' for Inactive)
REMARK    1  A    between atoms: C1_2  and  C2_3 
ROOT
ATOM      1  C2  UNL d   1      -5.720   1.577  -4.714  0.00  0.00    -0.073 A 
ATOM      2  C3  UNL d   1      -5.786   2.972  -4.805  0.00  0.00    -0.002 A 
ATOM      3  C4  UNL d   1      -5.928   3.748  -3.654  0.00  0.00     0.004 A 
ATOM      4  C5  UNL d   1      -5.999   3.138  -2.401  0.00  0.00    -0.004 A 
ATOM      5  C6  UNL d   1      -5.923   1.746  -2.289  0.00  0.00    -0.075 A 
ATOM      6  C7  UNL d   1      -6.000   1.075  -0.949  0.00  0.00     0.076 C 
ATOM      7  C8  UNL d   1      -5.783   0.974  -3.450  0.00  0.00     0.001 A 
ENDROOT
BRANCH   1   8
ATOM      8  C1  UNL d   1      -5.559   0.736  -5.954  0.00  0.00     0.053 C 
ATOM      9  C   UNL d   1      -4.209   0.038  -5.999  0.00  0.00     0.018 C 
ENDBRANCH   1   8
TORSDOF 1
ENDMDL
