MODEL 1
REMARK minimizedAffinity 11.5888596
REMARK minimizedRMSD -1
REMARK  1 active torsions:
REMARK  status: ('A' for Active; 'I' for Inactive)
REMARK    1  A    between atoms: C1_2  and  C2_3 
ROOT
ATOM      1  C2  UNL d   1       3.429  -3.824  -0.615  0.00  0.00    -0.073 A 
ATOM      2  C3  UNL d   1       3.367  -2.542  -0.059  0.00  0.00    -0.002 A 
ATOM      3  C4  UNL d   1       2.135  -1.911   0.121  0.00  0.00     0.004 A 
ATOM      4  C5  UNL d   1       0.955  -2.557  -0.246  0.00  0.00    -0.004 A 
ATOM      5  C6  UNL d   1       0.996  -3.844  -0.792  0.00  0.00    -0.075 A 
ATOM      6  C7  UNL d   1      -0.264  -4.552  -1.194  0.00  0.00     0.076 C 
ATOM      7  C8  UNL d   1       2.237  -4.470  -0.972  0.00  0.00     0.001 A 
ENDROOT
BRANCH   1   8
ATOM      8  C1  UNL d   1       4.756  -4.512  -0.805  0.00  0.00     0.053 C 
ATOM      9  C   UNL d   1       4.921  -5.701   0.129  0.00  0.00     0.018 C 
ENDBRANCH   1   8
TORSDOF 1
ENDMDL
