MODEL 1
REMARK minimizedAffinity -5.66722345
REMARK minimizedRMSD -1
REMARK  0 active torsions:
REMARK  status: ('A' for Active; 'I' for Inactive)
ROOT
ATOM      1  C   UNL d   1       0.851  -0.843  -1.077  0.00  0.00     0.077 C 
ATOM      2  C1  UNL d   1       0.018   0.070  -0.227  0.00  0.00    -0.074 A 
ATOM      3  C2  UNL d   1      -0.583  -0.391   0.948  0.00  0.00    -0.005 A 
ATOM      4  C3  UNL d   1      -1.347   0.472   1.733  0.00  0.00     0.006 A 
ATOM      5  C4  UNL d   1      -1.518   1.803   1.351  0.00  0.00    -0.005 A 
ATOM      6  C5  UNL d   1      -0.924   2.283   0.180  0.00  0.00    -0.074 A 
ATOM      7  C6  UNL d   1      -1.089   3.713  -0.240  0.00  0.00     0.077 C 
ATOM      8  C7  UNL d   1      -0.152   1.411  -0.600  0.00  0.00    -0.001 A 
ENDROOT
TORSDOF 0
ENDMDL
