MODEL 1
REMARK minimizedAffinity -3.08354926
REMARK minimizedRMSD -1
REMARK  0 active torsions:
REMARK  status: ('A' for Active; 'I' for Inactive)
ROOT
ATOM      1  C   UNL d   1      -0.441   3.518   0.521  0.00  0.00     0.077 C 
ATOM      2  C1  UNL d   1      -0.468   2.045   0.800  0.00  0.00    -0.074 A 
ATOM      3  C2  UNL d   1      -1.149   1.536   1.911  0.00  0.00    -0.005 A 
ATOM      4  C3  UNL d   1      -1.173   0.163   2.153  0.00  0.00     0.006 A 
ATOM      5  C4  UNL d   1      -0.518  -0.714   1.288  0.00  0.00    -0.005 A 
ATOM      6  C5  UNL d   1       0.167  -0.224   0.172  0.00  0.00    -0.074 A 
ATOM      7  C6  UNL d   1       0.868  -1.154  -0.773  0.00  0.00     0.077 C 
ATOM      8  C7  UNL d   1       0.181   1.156  -0.068  0.00  0.00    -0.001 A 
ENDROOT
TORSDOF 0
ENDMDL
