MODEL 1
REMARK minimizedAffinity -5.1286993
REMARK minimizedRMSD -1
REMARK  0 active torsions:
REMARK  status: ('A' for Active; 'I' for Inactive)
ROOT
ATOM      1  C   UNL d   1       0.780  -1.122  -0.883  0.00  0.00     0.077 C 
ATOM      2  C1  UNL d   1       0.164  -0.279   0.193  0.00  0.00    -0.074 A 
ATOM      3  C2  UNL d   1       0.098  -0.734   1.514  0.00  0.00    -0.005 A 
ATOM      4  C3  UNL d   1      -0.469   0.065   2.506  0.00  0.00     0.006 A 
ATOM      5  C4  UNL d   1      -0.976   1.325   2.189  0.00  0.00    -0.005 A 
ATOM      6  C5  UNL d   1      -0.919   1.798   0.874  0.00  0.00    -0.074 A 
ATOM      7  C6  UNL d   1      -1.451   3.155   0.518  0.00  0.00     0.077 C 
ATOM      8  C7  UNL d   1      -0.341   0.992  -0.116  0.00  0.00    -0.001 A 
ENDROOT
TORSDOF 0
ENDMDL
