MODEL 1
REMARK minimizedAffinity -5.12629652
REMARK minimizedRMSD -1
REMARK  0 active torsions:
REMARK  status: ('A' for Active; 'I' for Inactive)
ROOT
ATOM      1  C   UNL d   1      -0.790   3.904   0.148  0.00  0.00     0.077 C 
ATOM      2  C1  UNL d   1      -1.080   2.499   0.585  0.00  0.00    -0.074 A 
ATOM      3  C2  UNL d   1      -2.318   2.161   1.142  0.00  0.00    -0.005 A 
ATOM      4  C3  UNL d   1      -2.577   0.848   1.535  0.00  0.00     0.006 A 
ATOM      5  C4  UNL d   1      -1.603  -0.138   1.377  0.00  0.00    -0.005 A 
ATOM      6  C5  UNL d   1      -0.360   0.181   0.821  0.00  0.00    -0.074 A 
ATOM      7  C6  UNL d   1       0.695  -0.869   0.635  0.00  0.00     0.077 C 
ATOM      8  C7  UNL d   1      -0.109   1.501   0.422  0.00  0.00    -0.001 A 
ENDROOT
TORSDOF 0
ENDMDL
