MODEL 1
REMARK minimizedAffinity -5.21114635
REMARK minimizedRMSD -1
REMARK  0 active torsions:
REMARK  status: ('A' for Active; 'I' for Inactive)
ROOT
ATOM      1  C   UNL d   1      -0.681   3.532   0.598  0.00  0.00     0.077 C 
ATOM      2  C1  UNL d   1      -0.585   2.060   0.873  0.00  0.00    -0.074 A 
ATOM      3  C2  UNL d   1      -1.272   1.484   1.946  0.00  0.00    -0.005 A 
ATOM      4  C3  UNL d   1      -1.180   0.112   2.184  0.00  0.00     0.006 A 
ATOM      5  C4  UNL d   1      -0.402  -0.695   1.354  0.00  0.00    -0.005 A 
ATOM      6  C5  UNL d   1       0.292  -0.136   0.275  0.00  0.00    -0.074 A 
ATOM      7  C6  UNL d   1       1.125  -0.990  -0.633  0.00  0.00     0.077 C 
ATOM      8  C7  UNL d   1       0.189   1.242   0.039  0.00  0.00    -0.001 A 
ENDROOT
TORSDOF 0
ENDMDL
