MODEL 1
REMARK minimizedAffinity -5.09089851
REMARK minimizedRMSD -1
REMARK  0 active torsions:
REMARK  status: ('A' for Active; 'I' for Inactive)
ROOT
ATOM      1  C   UNL d   1       0.278  -1.082  -0.457  0.00  0.00     0.077 C 
ATOM      2  C1  UNL d   1      -0.409   0.013   0.303  0.00  0.00    -0.074 A 
ATOM      3  C2  UNL d   1      -1.142  -0.265   1.461  0.00  0.00    -0.005 A 
ATOM      4  C3  UNL d   1      -1.767   0.765   2.163  0.00  0.00     0.006 A 
ATOM      5  C4  UNL d   1      -1.666   2.083   1.714  0.00  0.00    -0.005 A 
ATOM      6  C5  UNL d   1      -0.936   2.381   0.559  0.00  0.00    -0.074 A 
ATOM      7  C6  UNL d   1      -0.810   3.793   0.068  0.00  0.00     0.077 C 
ATOM      8  C7  UNL d   1      -0.305   1.341  -0.137  0.00  0.00    -0.001 A 
ENDROOT
TORSDOF 0
ENDMDL
