MODEL 1
REMARK minimizedAffinity -5.59771538
REMARK minimizedRMSD -1
REMARK  0 active torsions:
REMARK  status: ('A' for Active; 'I' for Inactive)
ROOT
ATOM      1  C   UNL d   1      -0.696   3.705  -1.338  0.00  0.00     0.077 C 
ATOM      2  C1  UNL d   1      -1.008   2.699  -0.270  0.00  0.00    -0.074 A 
ATOM      3  C2  UNL d   1      -2.048   2.916   0.640  0.00  0.00    -0.005 A 
ATOM      4  C3  UNL d   1      -2.332   1.967   1.622  0.00  0.00     0.006 A 
ATOM      5  C4  UNL d   1      -1.581   0.793   1.704  0.00  0.00    -0.005 A 
ATOM      6  C5  UNL d   1      -0.539   0.559   0.802  0.00  0.00    -0.074 A 
ATOM      7  C6  UNL d   1       0.272  -0.701   0.870  0.00  0.00     0.077 C 
ATOM      8  C7  UNL d   1      -0.263   1.514  -0.186  0.00  0.00    -0.001 A 
ENDROOT
TORSDOF 0
ENDMDL
