MODEL 1
REMARK minimizedAffinity -4.97192669
REMARK minimizedRMSD -1
REMARK  0 active torsions:
REMARK  status: ('A' for Active; 'I' for Inactive)
ROOT
ATOM      1  C   UNL d   1      -0.367  -0.707   0.061  0.00  0.00     0.077 C 
ATOM      2  C1  UNL d   1      -0.837   0.657   0.474  0.00  0.00    -0.074 A 
ATOM      3  C2  UNL d   1      -1.162   0.932   1.806  0.00  0.00    -0.005 A 
ATOM      4  C3  UNL d   1      -1.588   2.207   2.176  0.00  0.00     0.006 A 
ATOM      5  C4  UNL d   1      -1.694   3.218   1.220  0.00  0.00    -0.005 A 
ATOM      6  C5  UNL d   1      -1.373   2.962  -0.116  0.00  0.00    -0.074 A 
ATOM      7  C6  UNL d   1      -1.472   4.040  -1.155  0.00  0.00     0.077 C 
ATOM      8  C7  UNL d   1      -0.938   1.680  -0.480  0.00  0.00    -0.001 A 
ENDROOT
TORSDOF 0
ENDMDL
