MODEL 1
REMARK minimizedAffinity -5.34809351
REMARK minimizedRMSD -1
REMARK  0 active torsions:
REMARK  status: ('A' for Active; 'I' for Inactive)
ROOT
ATOM      1  C   UNL d   1      -0.317  -0.505   1.124  0.00  0.00     0.077 C 
ATOM      2  C1  UNL d   1      -0.791   0.906   0.937  0.00  0.00    -0.074 A 
ATOM      3  C2  UNL d   1      -1.406   1.601   1.983  0.00  0.00    -0.005 A 
ATOM      4  C3  UNL d   1      -1.834   2.916   1.798  0.00  0.00     0.006 A 
ATOM      5  C4  UNL d   1      -1.652   3.547   0.567  0.00  0.00    -0.005 A 
ATOM      6  C5  UNL d   1      -1.038   2.868  -0.490  0.00  0.00    -0.074 A 
ATOM      7  C6  UNL d   1      -0.825   3.535  -1.817  0.00  0.00     0.077 C 
ATOM      8  C7  UNL d   1      -0.605   1.549  -0.294  0.00  0.00    -0.001 A 
ENDROOT
TORSDOF 0
ENDMDL
