MODEL 1
REMARK minimizedAffinity -6.03759098
REMARK minimizedRMSD -1
REMARK  0 active torsions:
REMARK  status: ('A' for Active; 'I' for Inactive)
ROOT
ATOM      1  C   UNL d   1       1.004  -1.094  -0.282  0.00  0.00     0.077 C 
ATOM      2  C1  UNL d   1       0.138  -0.016   0.299  0.00  0.00    -0.074 A 
ATOM      3  C2  UNL d   1      -0.479  -0.182   1.543  0.00  0.00    -0.005 A 
ATOM      4  C3  UNL d   1      -1.274   0.834   2.074  0.00  0.00     0.006 A 
ATOM      5  C4  UNL d   1      -1.459   2.023   1.369  0.00  0.00    -0.005 A 
ATOM      6  C5  UNL d   1      -0.849   2.207   0.124  0.00  0.00    -0.074 A 
ATOM      7  C6  UNL d   1      -1.030   3.483  -0.643  0.00  0.00     0.077 C 
ATOM      8  C7  UNL d   1      -0.046   1.185  -0.400  0.00  0.00    -0.001 A 
ENDROOT
TORSDOF 0
ENDMDL
