MODEL 1
REMARK minimizedAffinity -3.90497899
REMARK minimizedRMSD -1
REMARK  0 active torsions:
REMARK  status: ('A' for Active; 'I' for Inactive)
ROOT
ATOM      1  C   UNL d   1       0.632  -0.894  -0.731  0.00  0.00     0.077 C 
ATOM      2  C1  UNL d   1      -0.008   0.122   0.169  0.00  0.00    -0.074 A 
ATOM      3  C2  UNL d   1      -0.463  -0.232   1.443  0.00  0.00    -0.005 A 
ATOM      4  C3  UNL d   1      -1.047   0.725   2.273  0.00  0.00     0.006 A 
ATOM      5  C4  UNL d   1      -1.182   2.044   1.837  0.00  0.00    -0.005 A 
ATOM      6  C5  UNL d   1      -0.732   2.417   0.566  0.00  0.00    -0.074 A 
ATOM      7  C6  UNL d   1      -0.860   3.832   0.087  0.00  0.00     0.077 C 
ATOM      8  C7  UNL d   1      -0.140   1.450  -0.258  0.00  0.00    -0.001 A 
ENDROOT
TORSDOF 0
ENDMDL
