MODEL 1
REMARK minimizedAffinity -6.14725542
REMARK minimizedRMSD -1
REMARK  0 active torsions:
REMARK  status: ('A' for Active; 'I' for Inactive)
ROOT
ATOM      1  C   UNL d   1       0.764  -0.975  -0.672  0.00  0.00     0.077 C 
ATOM      2  C1  UNL d   1      -0.011   0.053   0.099  0.00  0.00    -0.074 A 
ATOM      3  C2  UNL d   1      -0.510  -0.231   1.374  0.00  0.00    -0.005 A 
ATOM      4  C3  UNL d   1      -1.220   0.737   2.083  0.00  0.00     0.006 A 
ATOM      5  C4  UNL d   1      -1.439   1.997   1.525  0.00  0.00    -0.005 A 
ATOM      6  C5  UNL d   1      -0.947   2.300   0.251  0.00  0.00    -0.074 A 
ATOM      7  C6  UNL d   1      -1.164   3.652  -0.360  0.00  0.00     0.077 C 
ATOM      8  C7  UNL d   1      -0.228   1.323  -0.452  0.00  0.00    -0.001 A 
ENDROOT
TORSDOF 0
ENDMDL
