MODEL 1
REMARK minimizedAffinity -5.99685717
REMARK minimizedRMSD -1
REMARK  0 active torsions:
REMARK  status: ('A' for Active; 'I' for Inactive)
ROOT
ATOM      1  C   UNL d   1      -0.654   3.821   0.574  0.00  0.00     0.077 C 
ATOM      2  C1  UNL d   1      -0.459   2.351   0.800  0.00  0.00    -0.074 A 
ATOM      3  C2  UNL d   1      -0.755   1.768   2.037  0.00  0.00    -0.005 A 
ATOM      4  C3  UNL d   1      -0.578   0.398   2.229  0.00  0.00     0.006 A 
ATOM      5  C4  UNL d   1      -0.104  -0.402   1.189  0.00  0.00    -0.005 A 
ATOM      6  C5  UNL d   1       0.196   0.163  -0.055  0.00  0.00    -0.074 A 
ATOM      7  C6  UNL d   1       0.696  -0.685  -1.187  0.00  0.00     0.077 C 
ATOM      8  C7  UNL d   1       0.008   1.539  -0.243  0.00  0.00    -0.001 A 
ENDROOT
TORSDOF 0
ENDMDL
