MODEL 1
REMARK minimizedAffinity -3.08734918
REMARK minimizedRMSD -1
REMARK  0 active torsions:
REMARK  status: ('A' for Active; 'I' for Inactive)
ROOT
ATOM      1  C   UNL d   1      -2.277   1.903   0.970  0.00  0.00     0.077 C 
ATOM      2  C1  UNL d   1      -1.258   0.820   0.774  0.00  0.00    -0.074 A 
ATOM      3  C2  UNL d   1      -0.757   0.099   1.863  0.00  0.00    -0.005 A 
ATOM      4  C3  UNL d   1       0.183  -0.912   1.663  0.00  0.00     0.006 A 
ATOM      5  C4  UNL d   1       0.630  -1.212   0.376  0.00  0.00    -0.005 A 
ATOM      6  C5  UNL d   1       0.139  -0.503  -0.724  0.00  0.00    -0.074 A 
ATOM      7  C6  UNL d   1       0.602  -0.819  -2.116  0.00  0.00     0.077 C 
ATOM      8  C7  UNL d   1      -0.810   0.507  -0.517  0.00  0.00    -0.001 A 
ENDROOT
TORSDOF 0
ENDMDL
