MODEL 1
REMARK minimizedAffinity -5.12372971
REMARK minimizedRMSD -1
REMARK  0 active torsions:
REMARK  status: ('A' for Active; 'I' for Inactive)
ROOT
ATOM      1  C   UNL d   1       0.278  -0.869  -0.015  0.00  0.00     0.077 C 
ATOM      2  C1  UNL d   1      -0.404   0.444   0.233  0.00  0.00    -0.074 A 
ATOM      3  C2  UNL d   1      -1.271   0.610   1.317  0.00  0.00    -0.005 A 
ATOM      4  C3  UNL d   1      -1.891   1.839   1.540  0.00  0.00     0.006 A 
ATOM      5  C4  UNL d   1      -1.651   2.913   0.682  0.00  0.00    -0.005 A 
ATOM      6  C5  UNL d   1      -0.787   2.766  -0.407  0.00  0.00    -0.074 A 
ATOM      7  C6  UNL d   1      -0.510   3.913  -1.333  0.00  0.00     0.077 C 
ATOM      8  C7  UNL d   1      -0.162   1.530  -0.620  0.00  0.00    -0.001 A 
ENDROOT
TORSDOF 0
ENDMDL
