MODEL 1
REMARK minimizedAffinity -5.23080873
REMARK minimizedRMSD -1
REMARK  0 active torsions:
REMARK  status: ('A' for Active; 'I' for Inactive)
ROOT
ATOM      1  C   UNL d   1      -1.072   3.314  -0.236  0.00  0.00     0.077 C 
ATOM      2  C1  UNL d   1      -1.038   1.940   0.365  0.00  0.00    -0.074 A 
ATOM      3  C2  UNL d   1      -1.681   1.669   1.577  0.00  0.00    -0.005 A 
ATOM      4  C3  UNL d   1      -1.648   0.385   2.119  0.00  0.00     0.006 A 
ATOM      5  C4  UNL d   1      -0.972  -0.641   1.456  0.00  0.00    -0.005 A 
ATOM      6  C5  UNL d   1      -0.324  -0.389   0.243  0.00  0.00    -0.074 A 
ATOM      7  C6  UNL d   1       0.399  -1.481  -0.488  0.00  0.00     0.077 C 
ATOM      8  C7  UNL d   1      -0.367   0.903  -0.299  0.00  0.00    -0.001 A 
ENDROOT
TORSDOF 0
ENDMDL
