MODEL 1
REMARK minimizedAffinity 1.71410716
REMARK minimizedRMSD -1
REMARK  0 active torsions:
REMARK  status: ('A' for Active; 'I' for Inactive)
ROOT
ATOM      1  C   UNL d   1      -4.454   5.986  -2.748  0.00  0.00     0.077 C 
ATOM      2  C1  UNL d   1      -2.961   5.998  -2.899  0.00  0.00    -0.074 A 
ATOM      3  C2  UNL d   1      -2.126   5.998  -1.777  0.00  0.00    -0.005 A 
ATOM      4  C3  UNL d   1      -0.740   5.999  -1.933  0.00  0.00     0.006 A 
ATOM      5  C4  UNL d   1      -0.176   6.000  -3.209  0.00  0.00    -0.005 A 
ATOM      6  C5  UNL d   1      -0.996   5.998  -4.342  0.00  0.00    -0.074 A 
ATOM      7  C6  UNL d   1      -0.406   5.989  -5.722  0.00  0.00     0.077 C 
ATOM      8  C7  UNL d   1      -2.387   5.990  -4.178  0.00  0.00    -0.001 A 
ENDROOT
TORSDOF 0
ENDMDL
