MODEL 1
REMARK minimizedAffinity -0.0330788493
REMARK minimizedRMSD -1
REMARK  0 active torsions:
REMARK  status: ('A' for Active; 'I' for Inactive)
ROOT
ATOM      1  C   UNL d   1      -2.915   5.996  -1.975  0.00  0.00     0.077 C 
ATOM      2  C1  UNL d   1      -2.172   5.988  -3.278  0.00  0.00    -0.074 A 
ATOM      3  C2  UNL d   1      -2.858   5.998  -4.497  0.00  0.00    -0.005 A 
ATOM      4  C3  UNL d   1      -2.153   6.000  -5.700  0.00  0.00     0.006 A 
ATOM      5  C4  UNL d   1      -0.758   5.992  -5.698  0.00  0.00    -0.005 A 
ATOM      6  C5  UNL d   1      -0.055   5.983  -4.489  0.00  0.00    -0.074 A 
ATOM      7  C6  UNL d   1       1.445   5.984  -4.468  0.00  0.00     0.077 C 
ATOM      8  C7  UNL d   1      -0.770   5.988  -3.283  0.00  0.00    -0.001 A 
ENDROOT
TORSDOF 0
ENDMDL
