MODEL 1
REMARK minimizedAffinity 0.212467372
REMARK minimizedRMSD -1
REMARK  0 active torsions:
REMARK  status: ('A' for Active; 'I' for Inactive)
ROOT
ATOM      1  C   UNL d   1       1.726   5.806  -5.958  0.00  0.00     0.077 C 
ATOM      2  C1  UNL d   1       0.848   5.863  -4.743  0.00  0.00    -0.074 A 
ATOM      3  C2  UNL d   1       1.400   5.903  -3.458  0.00  0.00    -0.005 A 
ATOM      4  C3  UNL d   1       0.571   5.966  -2.338  0.00  0.00     0.006 A 
ATOM      5  C4  UNL d   1      -0.816   5.990  -2.491  0.00  0.00    -0.005 A 
ATOM      6  C5  UNL d   1      -1.386   5.952  -3.767  0.00  0.00    -0.074 A 
ATOM      7  C6  UNL d   1      -2.874   5.987  -3.950  0.00  0.00     0.077 C 
ATOM      8  C7  UNL d   1      -0.546   5.896  -4.888  0.00  0.00    -0.001 A 
ENDROOT
TORSDOF 0
ENDMDL
