MODEL 1
REMARK minimizedAffinity 5.53402567
REMARK minimizedRMSD -1
REMARK  0 active torsions:
REMARK  status: ('A' for Active; 'I' for Inactive)
ROOT
ATOM      1  C   UNL d   1       0.031  -1.752   1.146  0.00  0.00     0.077 C 
ATOM      2  C1  UNL d   1       0.445  -0.366   0.750  0.00  0.00    -0.074 A 
ATOM      3  C2  UNL d   1       0.643   0.628   1.713  0.00  0.00    -0.005 A 
ATOM      4  C3  UNL d   1       1.038   1.910   1.330  0.00  0.00     0.006 A 
ATOM      5  C4  UNL d   1       1.237   2.210  -0.018  0.00  0.00    -0.005 A 
ATOM      6  C5  UNL d   1       1.045   1.228  -0.995  0.00  0.00    -0.074 A 
ATOM      7  C6  UNL d   1       1.265   1.532  -2.448  0.00  0.00     0.077 C 
ATOM      8  C7  UNL d   1       0.656  -0.059  -0.602  0.00  0.00    -0.001 A 
ENDROOT
TORSDOF 0
ENDMDL
