MODEL 1
REMARK minimizedAffinity -3.31782699
REMARK minimizedRMSD -1
REMARK  0 active torsions:
REMARK  status: ('A' for Active; 'I' for Inactive)
ROOT
ATOM      1  C   UNL d   1      -0.021   5.994  -5.878  0.00  0.00     0.077 C 
ATOM      2  C1  UNL d   1      -0.627   5.987  -4.507  0.00  0.00    -0.074 A 
ATOM      3  C2  UNL d   1       0.180   5.996  -3.364  0.00  0.00    -0.005 A 
ATOM      4  C3  UNL d   1      -0.398   6.000  -2.095  0.00  0.00     0.006 A 
ATOM      5  C4  UNL d   1      -1.786   5.995  -1.955  0.00  0.00    -0.005 A 
ATOM      6  C5  UNL d   1      -2.609   5.987  -3.086  0.00  0.00    -0.074 A 
ATOM      7  C6  UNL d   1      -4.103   5.991  -2.953  0.00  0.00     0.077 C 
ATOM      8  C7  UNL d   1      -2.021   5.990  -4.358  0.00  0.00    -0.001 A 
ENDROOT
TORSDOF 0
ENDMDL
