MODEL 1
REMARK minimizedAffinity 4.2317214
REMARK minimizedRMSD -1
REMARK  0 active torsions:
REMARK  status: ('A' for Active; 'I' for Inactive)
ROOT
ATOM      1  C   UNL d   1      -0.737  -0.112   2.747  0.00  0.00     0.077 C 
ATOM      2  C1  UNL d   1       0.086   0.317   1.569  0.00  0.00    -0.074 A 
ATOM      3  C2  UNL d   1      -0.406   0.198   0.266  0.00  0.00    -0.005 A 
ATOM      4  C3  UNL d   1       0.367   0.611  -0.819  0.00  0.00     0.006 A 
ATOM      5  C4  UNL d   1       1.639   1.146  -0.611  0.00  0.00    -0.005 A 
ATOM      6  C5  UNL d   1       2.148   1.274   0.685  0.00  0.00    -0.074 A 
ATOM      7  C6  UNL d   1       3.509   1.857   0.926  0.00  0.00     0.077 C 
ATOM      8  C7  UNL d   1       1.362   0.864   1.770  0.00  0.00    -0.001 A 
ENDROOT
TORSDOF 0
ENDMDL
