MODEL 1
REMARK minimizedAffinity -2.3186276
REMARK minimizedRMSD -1
REMARK  0 active torsions:
REMARK  status: ('A' for Active; 'I' for Inactive)
ROOT
ATOM      1  C   UNL d   1       3.700   1.119   2.480  0.00  0.00     0.077 C 
ATOM      2  C1  UNL d   1       2.482   1.481   1.683  0.00  0.00    -0.074 A 
ATOM      3  C2  UNL d   1       2.421   2.682   0.968  0.00  0.00    -0.005 A 
ATOM      4  C3  UNL d   1       1.286   3.000   0.224  0.00  0.00     0.006 A 
ATOM      5  C4  UNL d   1       0.201   2.123   0.186  0.00  0.00    -0.005 A 
ATOM      6  C5  UNL d   1       0.244   0.918   0.894  0.00  0.00    -0.074 A 
ATOM      7  C6  UNL d   1      -0.909  -0.041   0.857  0.00  0.00     0.077 C 
ATOM      8  C7  UNL d   1       1.391   0.602   1.634  0.00  0.00    -0.001 A 
ENDROOT
TORSDOF 0
ENDMDL
