MODEL 1
REMARK minimizedAffinity -0.00819753576
REMARK minimizedRMSD -1
REMARK  0 active torsions:
REMARK  status: ('A' for Active; 'I' for Inactive)
ROOT
ATOM      1  C   UNL d   1       1.549   2.077   1.716  0.00  0.00     0.077 C 
ATOM      2  C1  UNL d   1       0.461   1.069   1.491  0.00  0.00    -0.074 A 
ATOM      3  C2  UNL d   1       0.312   0.437   0.252  0.00  0.00    -0.005 A 
ATOM      4  C3  UNL d   1      -0.699  -0.505   0.061  0.00  0.00     0.006 A 
ATOM      5  C4  UNL d   1      -1.570  -0.823   1.103  0.00  0.00    -0.005 A 
ATOM      6  C5  UNL d   1      -1.436  -0.202   2.349  0.00  0.00    -0.074 A 
ATOM      7  C6  UNL d   1      -2.357  -0.540   3.483  0.00  0.00     0.077 C 
ATOM      8  C7  UNL d   1      -0.413   0.738   2.536  0.00  0.00    -0.001 A 
ENDROOT
TORSDOF 0
ENDMDL
