MODEL 1
REMARK minimizedAffinity -2.36753297
REMARK minimizedRMSD -1
REMARK  0 active torsions:
REMARK  status: ('A' for Active; 'I' for Inactive)
ROOT
ATOM      1  C   UNL d   1      -1.680   6.000  -2.286  0.00  0.00     0.077 C 
ATOM      2  C1  UNL d   1      -0.895   5.991  -3.564  0.00  0.00    -0.074 A 
ATOM      3  C2  UNL d   1      -1.542   5.994  -4.805  0.00  0.00    -0.005 A 
ATOM      4  C3  UNL d   1      -0.798   5.996  -5.985  0.00  0.00     0.006 A 
ATOM      5  C4  UNL d   1       0.596   5.994  -5.937  0.00  0.00    -0.005 A 
ATOM      6  C5  UNL d   1       1.260   5.991  -4.706  0.00  0.00    -0.074 A 
ATOM      7  C6  UNL d   1       2.758   5.999  -4.637  0.00  0.00     0.077 C 
ATOM      8  C7  UNL d   1       0.506   5.997  -3.524  0.00  0.00    -0.001 A 
ENDROOT
TORSDOF 0
ENDMDL
