MODEL 1
REMARK minimizedAffinity 1.20811617
REMARK minimizedRMSD -1
REMARK  0 active torsions:
REMARK  status: ('A' for Active; 'I' for Inactive)
ROOT
ATOM      1  C   UNL d   1       1.179   0.024  -2.405  0.00  0.00     0.077 C 
ATOM      2  C1  UNL d   1       1.182   0.447  -0.966  0.00  0.00    -0.074 A 
ATOM      3  C2  UNL d   1       0.610  -0.361   0.022  0.00  0.00    -0.005 A 
ATOM      4  C3  UNL d   1       0.628   0.041   1.357  0.00  0.00     0.006 A 
ATOM      5  C4  UNL d   1       1.219   1.253   1.718  0.00  0.00    -0.005 A 
ATOM      6  C5  UNL d   1       1.797   2.074   0.744  0.00  0.00    -0.074 A 
ATOM      7  C6  UNL d   1       2.445   3.374   1.116  0.00  0.00     0.077 C 
ATOM      8  C7  UNL d   1       1.780   1.659  -0.595  0.00  0.00    -0.001 A 
ENDROOT
TORSDOF 0
ENDMDL
