MODEL 1
REMARK minimizedAffinity -4.24375248
REMARK minimizedRMSD -1
REMARK  0 active torsions:
REMARK  status: ('A' for Active; 'I' for Inactive)
ROOT
ATOM      1  C   UNL d   1      -3.778   5.999  -1.768  0.00  0.00     0.077 C 
ATOM      2  C1  UNL d   1      -2.880   5.866  -2.962  0.00  0.00    -0.074 A 
ATOM      3  C2  UNL d   1      -3.398   5.918  -4.260  0.00  0.00    -0.005 A 
ATOM      4  C3  UNL d   1      -2.550   5.802  -5.361  0.00  0.00     0.006 A 
ATOM      5  C4  UNL d   1      -1.177   5.632  -5.176  0.00  0.00    -0.005 A 
ATOM      6  C5  UNL d   1      -0.641   5.578  -3.885  0.00  0.00    -0.074 A 
ATOM      7  C6  UNL d   1       0.833   5.406  -3.668  0.00  0.00     0.077 C 
ATOM      8  C7  UNL d   1      -1.499   5.703  -2.784  0.00  0.00    -0.001 A 
ENDROOT
TORSDOF 0
ENDMDL
