MODEL 1
REMARK minimizedAffinity -3.4318285
REMARK minimizedRMSD -1
REMARK  0 active torsions:
REMARK  status: ('A' for Active; 'I' for Inactive)
ROOT
ATOM      1  C   UNL d   1      -3.817   5.982  -3.717  0.00  0.00     0.077 C 
ATOM      2  C1  UNL d   1      -2.325   5.995  -3.562  0.00  0.00    -0.074 A 
ATOM      3  C2  UNL d   1      -1.734   5.993  -2.295  0.00  0.00    -0.005 A 
ATOM      4  C3  UNL d   1      -0.345   5.996  -2.167  0.00  0.00     0.006 A 
ATOM      5  C4  UNL d   1       0.465   5.999  -3.303  0.00  0.00    -0.005 A 
ATOM      6  C5  UNL d   1      -0.108   6.000  -4.579  0.00  0.00    -0.074 A 
ATOM      7  C6  UNL d   1       0.748   5.994  -5.810  0.00  0.00     0.077 C 
ATOM      8  C7  UNL d   1      -1.505   5.991  -4.699  0.00  0.00    -0.001 A 
ENDROOT
TORSDOF 0
ENDMDL
