MODEL 1
REMARK minimizedAffinity -0.636457622
REMARK minimizedRMSD -1
REMARK  0 active torsions:
REMARK  status: ('A' for Active; 'I' for Inactive)
ROOT
ATOM      1  C   UNL d   1      -3.420   5.996  -3.381  0.00  0.00     0.077 C 
ATOM      2  C1  UNL d   1      -1.944   5.999  -3.114  0.00  0.00    -0.074 A 
ATOM      3  C2  UNL d   1      -1.450   5.985  -1.806  0.00  0.00    -0.005 A 
ATOM      4  C3  UNL d   1      -0.075   5.978  -1.574  0.00  0.00     0.006 A 
ATOM      5  C4  UNL d   1       0.819   5.986  -2.646  0.00  0.00    -0.005 A 
ATOM      6  C5  UNL d   1       0.343   6.000  -3.961  0.00  0.00    -0.074 A 
ATOM      7  C6  UNL d   1       1.289   5.998  -5.124  0.00  0.00     0.077 C 
ATOM      8  C7  UNL d   1      -1.040   5.999  -4.186  0.00  0.00    -0.001 A 
ENDROOT
TORSDOF 0
ENDMDL
