MODEL 1
REMARK minimizedAffinity 0.534985781
REMARK minimizedRMSD -1
REMARK  0 active torsions:
REMARK  status: ('A' for Active; 'I' for Inactive)
ROOT
ATOM      1  C   UNL d   1      -3.411  -1.741  -1.996  0.00  0.00     0.077 C 
ATOM      2  C1  UNL d   1      -4.035  -2.916  -1.303  0.00  0.00    -0.074 A 
ATOM      3  C2  UNL d   1      -4.078  -4.172  -1.916  0.00  0.00    -0.005 A 
ATOM      4  C3  UNL d   1      -4.653  -5.258  -1.255  0.00  0.00     0.006 A 
ATOM      5  C4  UNL d   1      -5.190  -5.098   0.023  0.00  0.00    -0.005 A 
ATOM      6  C5  UNL d   1      -5.156  -3.850   0.652  0.00  0.00    -0.074 A 
ATOM      7  C6  UNL d   1      -5.720  -3.664   2.029  0.00  0.00     0.077 C 
ATOM      8  C7  UNL d   1      -4.570  -2.766  -0.016  0.00  0.00    -0.001 A 
ENDROOT
TORSDOF 0
ENDMDL
