MODEL 1
REMARK minimizedAffinity 1.76680326
REMARK minimizedRMSD -1
REMARK  0 active torsions:
REMARK  status: ('A' for Active; 'I' for Inactive)
ROOT
ATOM      1  C   UNL d   1      -0.861  -0.974   1.888  0.00  0.00     0.077 C 
ATOM      2  C1  UNL d   1       0.026  -0.005   1.165  0.00  0.00    -0.074 A 
ATOM      3  C2  UNL d   1       0.826   0.901   1.870  0.00  0.00    -0.005 A 
ATOM      4  C3  UNL d   1       1.653   1.790   1.185  0.00  0.00     0.006 A 
ATOM      5  C4  UNL d   1       1.688   1.784  -0.210  0.00  0.00    -0.005 A 
ATOM      6  C5  UNL d   1       0.896   0.886  -0.932  0.00  0.00    -0.074 A 
ATOM      7  C6  UNL d   1       0.930   0.859  -2.431  0.00  0.00     0.077 C 
ATOM      8  C7  UNL d   1       0.073  -0.010  -0.236  0.00  0.00    -0.001 A 
ENDROOT
TORSDOF 0
ENDMDL
