MODEL 1
REMARK minimizedAffinity 0.68662113
REMARK minimizedRMSD -1
REMARK  0 active torsions:
REMARK  status: ('A' for Active; 'I' for Inactive)
ROOT
ATOM      1  C   UNL d   1      -1.034   5.762  -3.583  0.00  0.00     0.077 C 
ATOM      2  C1  UNL d   1      -2.509   5.807  -3.318  0.00  0.00    -0.074 A 
ATOM      3  C2  UNL d   1      -3.422   5.970  -4.365  0.00  0.00    -0.005 A 
ATOM      4  C3  UNL d   1      -4.792   6.000  -4.105  0.00  0.00     0.006 A 
ATOM      5  C4  UNL d   1      -5.262   5.868  -2.797  0.00  0.00    -0.005 A 
ATOM      6  C5  UNL d   1      -4.364   5.703  -1.738  0.00  0.00    -0.074 A 
ATOM      7  C6  UNL d   1      -4.853   5.550  -0.328  0.00  0.00     0.077 C 
ATOM      8  C7  UNL d   1      -2.989   5.667  -2.009  0.00  0.00    -0.001 A 
ENDROOT
TORSDOF 0
ENDMDL
