MODEL 1
REMARK minimizedAffinity -0.710196257
REMARK minimizedRMSD -1
REMARK  0 active torsions:
REMARK  status: ('A' for Active; 'I' for Inactive)
ROOT
ATOM      1  C   UNL d   1       3.952   5.477  -4.109  0.00  0.00     0.077 C 
ATOM      2  C1  UNL d   1       2.492   5.642  -4.413  0.00  0.00    -0.074 A 
ATOM      3  C2  UNL d   1       2.032   5.680  -5.733  0.00  0.00    -0.005 A 
ATOM      4  C3  UNL d   1       0.671   5.824  -6.000  0.00  0.00     0.006 A 
ATOM      5  C4  UNL d   1      -0.243   5.931  -4.951  0.00  0.00    -0.005 A 
ATOM      6  C5  UNL d   1       0.198   5.895  -3.624  0.00  0.00    -0.074 A 
ATOM      7  C6  UNL d   1      -0.772   5.999  -2.485  0.00  0.00     0.077 C 
ATOM      8  C7  UNL d   1       1.567   5.742  -3.364  0.00  0.00    -0.001 A 
ENDROOT
TORSDOF 0
ENDMDL
