MODEL 1
REMARK minimizedAffinity 0.183428586
REMARK minimizedRMSD -1
REMARK  0 active torsions:
REMARK  status: ('A' for Active; 'I' for Inactive)
ROOT
ATOM      1  C   UNL d   1      -2.149   2.344   1.196  0.00  0.00     0.172 C 
ATOM      2  N   UNL d   1      -1.310   3.257   0.456  0.00  0.00    -0.070 N 
ATOM      3  C1  UNL d   1      -0.452   2.913  -0.554  0.00  0.00    -0.004 A 
ATOM      4  C2  UNL d   1       0.160   4.065  -0.999  0.00  0.00    -0.047 A 
ATOM      5  C3  UNL d   1      -0.346   5.138  -0.229  0.00  0.00    -0.047 A 
ATOM      6  C4  UNL d   1      -1.255   4.610   0.665  0.00  0.00    -0.004 A 
ENDROOT
TORSDOF 0
ENDMDL
