MODEL 1
REMARK minimizedAffinity 0.636268795
REMARK minimizedRMSD -1
REMARK  0 active torsions:
REMARK  status: ('A' for Active; 'I' for Inactive)
ROOT
ATOM      1  C   UNL d   1       2.378  -0.704  -0.115  0.00  0.00     0.172 C 
ATOM      2  N   UNL d   1       1.197  -0.445  -0.905  0.00  0.00    -0.070 N 
ATOM      3  C1  UNL d   1       0.461  -1.386  -1.573  0.00  0.00    -0.004 A 
ATOM      4  C2  UNL d   1      -0.580  -0.739  -2.203  0.00  0.00    -0.047 A 
ATOM      5  C3  UNL d   1      -0.465   0.639  -1.904  0.00  0.00    -0.047 A 
ATOM      6  C4  UNL d   1       0.644   0.794  -1.099  0.00  0.00    -0.004 A 
ENDROOT
TORSDOF 0
ENDMDL
