MODEL 1
REMARK minimizedAffinity 4.5080328
REMARK minimizedRMSD -1
REMARK  0 active torsions:
REMARK  status: ('A' for Active; 'I' for Inactive)
ROOT
ATOM      1  C   UNL d   1       5.011  -3.418   0.241  0.00  0.00     0.172 C 
ATOM      2  N   UNL d   1       3.646  -3.724  -0.117  0.00  0.00    -0.070 N 
ATOM      3  C1  UNL d   1       3.249  -4.725  -0.964  0.00  0.00    -0.004 A 
ATOM      4  C2  UNL d   1       1.874  -4.688  -1.044  0.00  0.00    -0.047 A 
ATOM      5  C3  UNL d   1       1.429  -3.629  -0.217  0.00  0.00    -0.047 A 
ATOM      6  C4  UNL d   1       2.547  -3.049   0.344  0.00  0.00    -0.004 A 
ENDROOT
TORSDOF 0
ENDMDL
