MODEL 1
REMARK minimizedAffinity 5.6454649
REMARK minimizedRMSD -1
REMARK  0 active torsions:
REMARK  status: ('A' for Active; 'I' for Inactive)
ROOT
ATOM      1  C   UNL d   1       1.462   0.308   1.497  0.00  0.00     0.172 C 
ATOM      2  N   UNL d   1       0.250   1.094   1.496  0.00  0.00    -0.070 N 
ATOM      3  C1  UNL d   1      -0.918   0.760   2.127  0.00  0.00    -0.004 A 
ATOM      4  C2  UNL d   1      -1.830   1.765   1.886  0.00  0.00    -0.047 A 
ATOM      5  C3  UNL d   1      -1.187   2.737   1.083  0.00  0.00    -0.047 A 
ATOM      6  C4  UNL d   1       0.100   2.296   0.856  0.00  0.00    -0.004 A 
ENDROOT
TORSDOF 0
ENDMDL
