MODEL 1
REMARK minimizedAffinity 1.56242359
REMARK minimizedRMSD -1
REMARK  0 active torsions:
REMARK  status: ('A' for Active; 'I' for Inactive)
ROOT
ATOM      1  C   UNL d   1       0.363   3.518  -1.203  0.00  0.00     0.172 C 
ATOM      2  N   UNL d   1      -0.456   3.216  -0.053  0.00  0.00    -0.070 N 
ATOM      3  C1  UNL d   1      -0.000   2.751   1.152  0.00  0.00    -0.004 A 
ATOM      4  C2  UNL d   1      -1.089   2.590   1.981  0.00  0.00    -0.047 A 
ATOM      5  C3  UNL d   1      -2.239   2.972   1.250  0.00  0.00    -0.047 A 
ATOM      6  C4  UNL d   1      -1.818   3.355  -0.006  0.00  0.00    -0.004 A 
ENDROOT
TORSDOF 0
ENDMDL
