MODEL 1
REMARK minimizedAffinity 7.57310963
REMARK minimizedRMSD -1
REMARK  0 active torsions:
REMARK  status: ('A' for Active; 'I' for Inactive)
ROOT
ATOM      1  C   UNL d   1      -5.998  -5.705   5.997  0.00  0.00     0.172 C 
ATOM      2  N   UNL d   1      -5.357  -4.411   5.979  0.00  0.00    -0.070 N 
ATOM      3  C1  UNL d   1      -5.999  -3.201   6.000  0.00  0.00    -0.004 A 
ATOM      4  C2  UNL d   1      -5.039  -2.213   5.972  0.00  0.00    -0.047 A 
ATOM      5  C3  UNL d   1      -3.776  -2.851   5.932  0.00  0.00    -0.047 A 
ATOM      6  C4  UNL d   1      -4.003  -4.211   5.937  0.00  0.00    -0.004 A 
ENDROOT
TORSDOF 0
ENDMDL
