MODEL 1
REMARK minimizedAffinity 5.43013906
REMARK minimizedRMSD -1
REMARK  0 active torsions:
REMARK  status: ('A' for Active; 'I' for Inactive)
ROOT
ATOM      1  C   UNL d   1      -2.637  -2.284   4.848  0.00  0.00     0.172 C 
ATOM      2  N   UNL d   1      -3.914  -2.828   5.244  0.00  0.00    -0.070 N 
ATOM      3  C1  UNL d   1      -4.272  -4.149   5.186  0.00  0.00    -0.004 A 
ATOM      4  C2  UNL d   1      -5.565  -4.257   5.651  0.00  0.00    -0.047 A 
ATOM      5  C3  UNL d   1      -5.999  -2.956   6.000  0.00  0.00    -0.047 A 
ATOM      6  C4  UNL d   1      -4.958  -2.091   5.737  0.00  0.00    -0.004 A 
ENDROOT
TORSDOF 0
ENDMDL
