MODEL 1
REMARK minimizedAffinity 1.72539783
REMARK minimizedRMSD -1
REMARK  0 active torsions:
REMARK  status: ('A' for Active; 'I' for Inactive)
ROOT
ATOM      1  C   UNL d   1       2.245  -4.196   0.373  0.00  0.00     0.172 C 
ATOM      2  N   UNL d   1       3.188  -3.102   0.355  0.00  0.00    -0.070 N 
ATOM      3  C1  UNL d   1       2.870  -1.777   0.212  0.00  0.00    -0.004 A 
ATOM      4  C2  UNL d   1       4.044  -1.056   0.246  0.00  0.00    -0.047 A 
ATOM      5  C3  UNL d   1       5.104  -1.979   0.414  0.00  0.00    -0.047 A 
ATOM      6  C4  UNL d   1       4.545  -3.238   0.478  0.00  0.00    -0.004 A 
ENDROOT
TORSDOF 0
ENDMDL
