MODEL 1
REMARK minimizedAffinity 2.61464119
REMARK minimizedRMSD -1
REMARK  0 active torsions:
REMARK  status: ('A' for Active; 'I' for Inactive)
ROOT
ATOM      1  C   UNL d   1       0.731   0.976  -1.665  0.00  0.00     0.172 C 
ATOM      2  N   UNL d   1       0.235   2.083  -0.882  0.00  0.00    -0.070 N 
ATOM      3  C1  UNL d   1       0.373   3.409  -1.197  0.00  0.00    -0.004 A 
ATOM      4  C2  UNL d   1      -0.233   4.144  -0.201  0.00  0.00    -0.047 A 
ATOM      5  C3  UNL d   1      -0.752   3.229   0.745  0.00  0.00    -0.047 A 
ATOM      6  C4  UNL d   1      -0.448   1.960   0.299  0.00  0.00    -0.004 A 
ENDROOT
TORSDOF 0
ENDMDL
