MODEL 1
REMARK minimizedAffinity 0.714212894
REMARK minimizedRMSD -1
REMARK  0 active torsions:
REMARK  status: ('A' for Active; 'I' for Inactive)
ROOT
ATOM      1  C   UNL d   1      -1.588   0.839   2.847  0.00  0.00     0.172 C 
ATOM      2  N   UNL d   1      -1.706   1.803   1.778  0.00  0.00    -0.070 N 
ATOM      3  C1  UNL d   1      -2.867   2.401   1.366  0.00  0.00    -0.004 A 
ATOM      4  C2  UNL d   1      -2.559   3.253   0.328  0.00  0.00    -0.047 A 
ATOM      5  C3  UNL d   1      -1.164   3.164   0.107  0.00  0.00    -0.047 A 
ATOM      6  C4  UNL d   1      -0.661   2.260   1.019  0.00  0.00    -0.004 A 
ENDROOT
TORSDOF 0
ENDMDL
