MODEL 1
REMARK minimizedAffinity 4.85021782
REMARK minimizedRMSD -1
REMARK  0 active torsions:
REMARK  status: ('A' for Active; 'I' for Inactive)
ROOT
ATOM      1  C   UNL d   1       0.392   0.266  -1.617  0.00  0.00     0.172 C 
ATOM      2  N   UNL d   1       0.090   1.599  -1.151  0.00  0.00    -0.070 N 
ATOM      3  C1  UNL d   1       0.283   2.755  -1.859  0.00  0.00    -0.004 A 
ATOM      4  C2  UNL d   1      -0.128   3.807  -1.070  0.00  0.00    -0.047 A 
ATOM      5  C3  UNL d   1      -0.584   3.265   0.155  0.00  0.00    -0.047 A 
ATOM      6  C4  UNL d   1      -0.437   1.896   0.078  0.00  0.00    -0.004 A 
ENDROOT
TORSDOF 0
ENDMDL
