MODEL 1
REMARK minimizedAffinity 3.77269578
REMARK minimizedRMSD -1
REMARK  0 active torsions:
REMARK  status: ('A' for Active; 'I' for Inactive)
ROOT
ATOM      1  C   UNL d   1      -1.104   2.018   1.933  0.00  0.00     0.172 C 
ATOM      2  N   UNL d   1      -0.652   2.366   0.606  0.00  0.00    -0.070 N 
ATOM      3  C1  UNL d   1      -0.382   1.481  -0.403  0.00  0.00    -0.004 A 
ATOM      4  C2  UNL d   1       0.020   2.206  -1.504  0.00  0.00    -0.047 A 
ATOM      5  C3  UNL d   1      -0.008   3.575  -1.144  0.00  0.00    -0.047 A 
ATOM      6  C4  UNL d   1      -0.428   3.645   0.168  0.00  0.00    -0.004 A 
ENDROOT
TORSDOF 0
ENDMDL
