MODEL 1
REMARK minimizedAffinity 4.97264338
REMARK minimizedRMSD -1
REMARK  0 active torsions:
REMARK  status: ('A' for Active; 'I' for Inactive)
ROOT
ATOM      1  C   UNL d   1      -1.621   2.119   2.382  0.00  0.00     0.172 C 
ATOM      2  N   UNL d   1      -0.913   3.347   2.107  0.00  0.00    -0.070 N 
ATOM      3  C1  UNL d   1      -1.401   4.405   1.388  0.00  0.00    -0.004 A 
ATOM      4  C2  UNL d   1      -0.425   5.378   1.353  0.00  0.00    -0.047 A 
ATOM      5  C3  UNL d   1       0.688   4.886   2.076  0.00  0.00    -0.047 A 
ATOM      6  C4  UNL d   1       0.359   3.627   2.531  0.00  0.00    -0.004 A 
ENDROOT
TORSDOF 0
ENDMDL
