MODEL 1
REMARK minimizedAffinity 3.88702774
REMARK minimizedRMSD -1
REMARK  0 active torsions:
REMARK  status: ('A' for Active; 'I' for Inactive)
ROOT
ATOM      1  C   UNL d   1      -3.625   0.394  -2.049  0.00  0.00     0.172 C 
ATOM      2  N   UNL d   1      -2.191   0.243  -1.966  0.00  0.00    -0.070 N 
ATOM      3  C1  UNL d   1      -1.489  -0.890  -2.280  0.00  0.00    -0.004 A 
ATOM      4  C2  UNL d   1      -0.152  -0.630  -2.070  0.00  0.00    -0.047 A 
ATOM      5  C3  UNL d   1      -0.047   0.706  -1.613  0.00  0.00    -0.047 A 
ATOM      6  C4  UNL d   1      -1.325   1.222  -1.559  0.00  0.00    -0.004 A 
ENDROOT
TORSDOF 0
ENDMDL
