MODEL 1
REMARK minimizedAffinity -0.266579926
REMARK minimizedRMSD -1
REMARK  0 active torsions:
REMARK  status: ('A' for Active; 'I' for Inactive)
ROOT
ATOM      1  C   UNL d   1      -0.101   2.588  -1.188  0.00  0.00     0.172 C 
ATOM      2  N   UNL d   1      -0.587   1.391  -1.833  0.00  0.00    -0.070 N 
ATOM      3  C1  UNL d   1       0.145   0.258  -2.071  0.00  0.00    -0.004 A 
ATOM      4  C2  UNL d   1      -0.677  -0.651  -2.701  0.00  0.00    -0.047 A 
ATOM      5  C3  UNL d   1      -1.947  -0.044  -2.847  0.00  0.00    -0.047 A 
ATOM      6  C4  UNL d   1      -1.863   1.220  -2.301  0.00  0.00    -0.004 A 
ENDROOT
TORSDOF 0
ENDMDL
