MODEL 1
REMARK minimizedAffinity 5.88372946
REMARK minimizedRMSD -1
REMARK  0 active torsions:
REMARK  status: ('A' for Active; 'I' for Inactive)
ROOT
ATOM      1  C   UNL d   1      -1.663  -0.656  -2.527  0.00  0.00     0.172 C 
ATOM      2  N   UNL d   1      -2.970  -0.260  -2.059  0.00  0.00    -0.070 N 
ATOM      3  C1  UNL d   1      -3.667   0.843  -2.475  0.00  0.00    -0.004 A 
ATOM      4  C2  UNL d   1      -4.865   0.867  -1.794  0.00  0.00    -0.047 A 
ATOM      5  C3  UNL d   1      -4.889  -0.260  -0.939  0.00  0.00    -0.047 A 
ATOM      6  C4  UNL d   1      -3.704  -0.941  -1.123  0.00  0.00    -0.004 A 
ENDROOT
TORSDOF 0
ENDMDL
