MODEL 1
REMARK minimizedAffinity -0.744209707
REMARK minimizedRMSD -1
REMARK  0 active torsions:
REMARK  status: ('A' for Active; 'I' for Inactive)
ROOT
ATOM      1  C   UNL d   1      -2.146   2.169   1.325  0.00  0.00     0.172 C 
ATOM      2  N   UNL d   1      -1.505   2.973   0.310  0.00  0.00    -0.070 N 
ATOM      3  C1  UNL d   1      -1.526   4.341   0.245  0.00  0.00    -0.004 A 
ATOM      4  C2  UNL d   1      -0.801   4.721  -0.864  0.00  0.00    -0.047 A 
ATOM      5  C3  UNL d   1      -0.330   3.541  -1.487  0.00  0.00    -0.047 A 
ATOM      6  C4  UNL d   1      -0.780   2.474  -0.739  0.00  0.00    -0.004 A 
ENDROOT
TORSDOF 0
ENDMDL
