MODEL 1
REMARK minimizedAffinity -2.62450314
REMARK minimizedRMSD -1
REMARK  0 active torsions:
REMARK  status: ('A' for Active; 'I' for Inactive)
ROOT
ATOM      1  C2' OXE d   1       0.904  -2.473  -0.323  0.00  0.00     0.078 C 
ATOM      2  C1' OXE d   1       2.755  -1.464  -2.177  0.00  0.00     0.078 C 
ATOM      3  C1  OXE d   1       1.930  -0.472  -1.396  0.00  0.00    -0.078 A 
ATOM      4  C2  OXE d   1       0.994  -0.976  -0.525  0.00  0.00    -0.078 A 
ATOM      5  C3  OXE d   1       0.244  -0.104   0.261  0.00  0.00     0.003 A 
ATOM      6  C4  OXE d   1       0.327   1.279   0.061  0.00  0.00    -0.002 A 
ATOM      7  C5  OXE d   1       1.245   1.811  -0.850  0.00  0.00    -0.002 A 
ATOM      8  C6  OXE d   1       2.083   0.953  -1.554  0.00  0.00     0.003 A 
ENDROOT
TORSDOF 0
ENDMDL
