MODEL 1
REMARK minimizedAffinity -2.61289954
REMARK minimizedRMSD -1
REMARK  0 active torsions:
REMARK  status: ('A' for Active; 'I' for Inactive)
ROOT
ATOM      1  C2' OXE d   1       1.169  -2.054  -0.680  0.00  0.00     0.078 C 
ATOM      2  C1' OXE d   1      -0.658  -0.726   0.986  0.00  0.00     0.078 C 
ATOM      3  C1  OXE d   1       0.242   0.116   0.117  0.00  0.00    -0.078 A 
ATOM      4  C2  OXE d   1       1.165  -0.541  -0.661  0.00  0.00    -0.078 A 
ATOM      5  C3  OXE d   1       1.983   0.185  -1.522  0.00  0.00     0.003 A 
ATOM      6  C4  OXE d   1       1.980   1.585  -1.491  0.00  0.00    -0.002 A 
ATOM      7  C5  OXE d   1       1.075   2.275  -0.677  0.00  0.00    -0.002 A 
ATOM      8  C6  OXE d   1       0.172   1.557   0.100  0.00  0.00     0.003 A 
ENDROOT
TORSDOF 0
ENDMDL
