MODEL 1
REMARK minimizedAffinity -3.88729072
REMARK minimizedRMSD -1
REMARK  0 active torsions:
REMARK  status: ('A' for Active; 'I' for Inactive)
ROOT
ATOM      1  C2' OXE d   1       0.752   2.134  -0.390  0.00  0.00     0.078 C 
ATOM      2  C1' OXE d   1      -0.623   0.162   1.059  0.00  0.00     0.078 C 
ATOM      3  C1  OXE d   1       0.461  -0.289   0.111  0.00  0.00    -0.078 A 
ATOM      4  C2  OXE d   1       1.097   0.680  -0.628  0.00  0.00    -0.078 A 
ATOM      5  C3  OXE d   1       2.141   0.324  -1.477  0.00  0.00     0.003 A 
ATOM      6  C4  OXE d   1       2.447  -1.024  -1.699  0.00  0.00    -0.002 A 
ATOM      7  C5  OXE d   1       1.784  -2.029  -0.985  0.00  0.00    -0.002 A 
ATOM      8  C6  OXE d   1       0.820  -1.676  -0.047  0.00  0.00     0.003 A 
ENDROOT
TORSDOF 0
ENDMDL
