MODEL 1
REMARK minimizedAffinity -5.57664537
REMARK minimizedRMSD -1
REMARK  0 active torsions:
REMARK  status: ('A' for Active; 'I' for Inactive)
ROOT
ATOM      1  C2' OXE d   1      -0.583  -1.163   0.993  0.00  0.00     0.078 C 
ATOM      2  C1' OXE d   1       0.308   1.425   0.370  0.00  0.00     0.078 C 
ATOM      3  C1  OXE d   1       0.705   0.302  -0.556  0.00  0.00    -0.078 A 
ATOM      4  C2  OXE d   1       0.304  -0.968  -0.218  0.00  0.00    -0.078 A 
ATOM      5  C3  OXE d   1       0.597  -2.032  -1.066  0.00  0.00     0.003 A 
ATOM      6  C4  OXE d   1       1.426  -1.844  -2.178  0.00  0.00    -0.002 A 
ATOM      7  C5  OXE d   1       1.878  -0.565  -2.519  0.00  0.00    -0.002 A 
ATOM      8  C6  OXE d   1       1.493   0.523  -1.744  0.00  0.00     0.003 A 
ENDROOT
TORSDOF 0
ENDMDL
