MODEL 1
REMARK minimizedAffinity -2.95203519
REMARK minimizedRMSD -1
REMARK  0 active torsions:
REMARK  status: ('A' for Active; 'I' for Inactive)
ROOT
ATOM      1  C2' OXE d   1       0.668   1.929  -0.145  0.00  0.00     0.078 C 
ATOM      2  C1' OXE d   1      -0.945  -0.015   1.081  0.00  0.00     0.078 C 
ATOM      3  C1  OXE d   1       0.186  -0.490   0.204  0.00  0.00    -0.078 A 
ATOM      4  C2  OXE d   1       0.941   0.467  -0.429  0.00  0.00    -0.078 A 
ATOM      5  C3  OXE d   1       2.031   0.084  -1.206  0.00  0.00     0.003 A 
ATOM      6  C4  OXE d   1       2.271  -1.269  -1.472  0.00  0.00    -0.002 A 
ATOM      7  C5  OXE d   1       1.490  -2.261  -0.869  0.00  0.00    -0.002 A 
ATOM      8  C6  OXE d   1       0.472  -1.890   0.003  0.00  0.00     0.003 A 
ENDROOT
TORSDOF 0
ENDMDL
