MODEL 1
REMARK minimizedAffinity 7.79925394
REMARK minimizedRMSD -1
REMARK  0 active torsions:
REMARK  status: ('A' for Active; 'I' for Inactive)
ROOT
ATOM      1  C2' OXE d   1      -2.241   4.071   5.458  0.00  0.00     0.078 C 
ATOM      2  C1' OXE d   1      -4.096   4.993   3.564  0.00  0.00     0.078 C 
ATOM      3  C1  OXE d   1      -3.550   3.597   3.392  0.00  0.00    -0.078 A 
ATOM      4  C2  OXE d   1      -2.608   3.171   4.297  0.00  0.00    -0.078 A 
ATOM      5  C3  OXE d   1      -2.112   1.873   4.217  0.00  0.00     0.003 A 
ATOM      6  C4  OXE d   1      -2.449   1.051   3.135  0.00  0.00    -0.002 A 
ATOM      7  C5  OXE d   1      -3.377   1.480   2.180  0.00  0.00    -0.002 A 
ATOM      8  C6  OXE d   1      -3.968   2.732   2.317  0.00  0.00     0.003 A 
ENDROOT
TORSDOF 0
ENDMDL
