MODEL 1
REMARK minimizedAffinity -1.13039148
REMARK minimizedRMSD -1
REMARK  0 active torsions:
REMARK  status: ('A' for Active; 'I' for Inactive)
ROOT
ATOM      1  C2' OXE d   1      -1.314   0.480   1.649  0.00  0.00     0.078 C 
ATOM      2  C1' OXE d   1      -0.164  -1.798   0.480  0.00  0.00     0.078 C 
ATOM      3  C1  OXE d   1       0.329  -0.448   0.022  0.00  0.00    -0.078 A 
ATOM      4  C2  OXE d   1      -0.273   0.662   0.566  0.00  0.00    -0.078 A 
ATOM      5  C3  OXE d   1       0.181   1.931   0.219  0.00  0.00     0.003 A 
ATOM      6  C4  OXE d   1       1.138   2.091  -0.791  0.00  0.00    -0.002 A 
ATOM      7  C5  OXE d   1       1.735   0.974  -1.386  0.00  0.00    -0.002 A 
ATOM      8  C6  OXE d   1       1.373  -0.299  -0.961  0.00  0.00     0.003 A 
ENDROOT
TORSDOF 0
ENDMDL
