MODEL 1
REMARK minimizedAffinity -0.931939304
REMARK minimizedRMSD -1
REMARK  0 active torsions:
REMARK  status: ('A' for Active; 'I' for Inactive)
ROOT
ATOM      1  C2' OXE d   1       0.020   0.183   0.981  0.00  0.00     0.078 C 
ATOM      2  C1' OXE d   1      -1.879  -0.726  -0.876  0.00  0.00     0.078 C 
ATOM      3  C1  OXE d   1      -2.372   0.093   0.290  0.00  0.00    -0.078 A 
ATOM      4  C2  OXE d   1      -1.442   0.495   1.219  0.00  0.00    -0.078 A 
ATOM      5  C3  OXE d   1      -1.835   1.299   2.285  0.00  0.00     0.003 A 
ATOM      6  C4  OXE d   1      -3.190   1.574   2.503  0.00  0.00    -0.002 A 
ATOM      7  C5  OXE d   1      -4.158   1.141   1.591  0.00  0.00    -0.002 A 
ATOM      8  C6  OXE d   1      -3.762   0.438   0.459  0.00  0.00     0.003 A 
ENDROOT
TORSDOF 0
ENDMDL
