MODEL 1
REMARK minimizedAffinity -3.01532793
REMARK minimizedRMSD -1
REMARK  0 active torsions:
REMARK  status: ('A' for Active; 'I' for Inactive)
ROOT
ATOM      1  C2' OXE d   1      -3.533   1.461   1.685  0.00  0.00     0.078 C 
ATOM      2  C1' OXE d   1      -2.379  -0.444   3.394  0.00  0.00     0.078 C 
ATOM      3  C1  OXE d   1      -1.638  -0.094   2.129  0.00  0.00    -0.078 A 
ATOM      4  C2  OXE d   1      -2.232   0.804   1.276  0.00  0.00    -0.078 A 
ATOM      5  C3  OXE d   1      -1.565   1.204   0.121  0.00  0.00     0.003 A 
ATOM      6  C4  OXE d   1      -0.367   0.584  -0.255  0.00  0.00    -0.002 A 
ATOM      7  C5  OXE d   1       0.236  -0.362   0.580  0.00  0.00    -0.002 A 
ATOM      8  C6  OXE d   1      -0.364  -0.681   1.793  0.00  0.00     0.003 A 
ENDROOT
TORSDOF 0
ENDMDL
