MODEL 1
REMARK minimizedAffinity -1.5241245
REMARK minimizedRMSD -1
REMARK  0 active torsions:
REMARK  status: ('A' for Active; 'I' for Inactive)
ROOT
ATOM      1  C2' OXE d   1      -1.942   2.217   3.317  0.00  0.00     0.078 C 
ATOM      2  C1' OXE d   1      -0.550   0.991   1.210  0.00  0.00     0.078 C 
ATOM      3  C1  OXE d   1      -1.998   0.618   1.407  0.00  0.00    -0.078 A 
ATOM      4  C2  OXE d   1      -2.658   1.188   2.469  0.00  0.00    -0.078 A 
ATOM      5  C3  OXE d   1      -4.011   0.921   2.663  0.00  0.00     0.003 A 
ATOM      6  C4  OXE d   1      -4.663  -0.039   1.881  0.00  0.00    -0.002 A 
ATOM      7  C5  OXE d   1      -3.998  -0.661   0.819  0.00  0.00    -0.002 A 
ATOM      8  C6  OXE d   1      -2.680  -0.313   0.543  0.00  0.00     0.003 A 
ENDROOT
TORSDOF 0
ENDMDL
