MODEL 1
REMARK minimizedAffinity -3.96833849
REMARK minimizedRMSD -1
REMARK  0 active torsions:
REMARK  status: ('A' for Active; 'I' for Inactive)
ROOT
ATOM      1  C2' OXE d   1       1.783  -2.218  -1.114  0.00  0.00     0.078 C 
ATOM      2  C1' OXE d   1       2.055   0.431  -2.004  0.00  0.00     0.078 C 
ATOM      3  C1  OXE d   1       1.129   0.171  -0.842  0.00  0.00    -0.078 A 
ATOM      4  C2  OXE d   1       0.966  -1.134  -0.443  0.00  0.00    -0.078 A 
ATOM      5  C3  OXE d   1       0.166  -1.424   0.658  0.00  0.00     0.003 A 
ATOM      6  C4  OXE d   1      -0.594  -0.418   1.267  0.00  0.00    -0.002 A 
ATOM      7  C5  OXE d   1      -0.473   0.912   0.851  0.00  0.00    -0.002 A 
ATOM      8  C6  OXE d   1       0.414   1.229  -0.172  0.00  0.00     0.003 A 
ENDROOT
TORSDOF 0
ENDMDL
