MODEL 1
REMARK minimizedAffinity -3.83700538
REMARK minimizedRMSD -1
REMARK  0 active torsions:
REMARK  status: ('A' for Active; 'I' for Inactive)
ROOT
ATOM      1  C2' OXE d   1      -0.428  -0.135   0.853  0.00  0.00     0.078 C 
ATOM      2  C1' OXE d   1       1.172   1.581  -0.689  0.00  0.00     0.078 C 
ATOM      3  C1  OXE d   1       1.365   0.095  -0.861  0.00  0.00    -0.078 A 
ATOM      4  C2  OXE d   1       0.610  -0.737  -0.069  0.00  0.00    -0.078 A 
ATOM      5  C3  OXE d   1       0.709  -2.116  -0.226  0.00  0.00     0.003 A 
ATOM      6  C4  OXE d   1       1.679  -2.665  -1.074  0.00  0.00    -0.002 A 
ATOM      7  C5  OXE d   1       2.485  -1.835  -1.861  0.00  0.00    -0.002 A 
ATOM      8  C6  OXE d   1       2.312  -0.457  -1.798  0.00  0.00     0.003 A 
ENDROOT
TORSDOF 0
ENDMDL
