MODEL 1
REMARK minimizedAffinity -3.86711335
REMARK minimizedRMSD -1
REMARK  0 active torsions:
REMARK  status: ('A' for Active; 'I' for Inactive)
ROOT
ATOM      1  C2' OXE d   1      -0.494  -0.124   0.197  0.00  0.00     0.078 C 
ATOM      2  C1' OXE d   1       1.244   1.643  -1.121  0.00  0.00     0.078 C 
ATOM      3  C1  OXE d   1       1.479   0.163  -1.296  0.00  0.00    -0.078 A 
ATOM      4  C2  OXE d   1       0.653  -0.694  -0.610  0.00  0.00    -0.078 A 
ATOM      5  C3  OXE d   1       0.792  -2.068  -0.779  0.00  0.00     0.003 A 
ATOM      6  C4  OXE d   1       1.861  -2.587  -1.519  0.00  0.00    -0.002 A 
ATOM      7  C5  OXE d   1       2.739  -1.731  -2.193  0.00  0.00    -0.002 A 
ATOM      8  C6  OXE d   1       2.537  -0.357  -2.127  0.00  0.00     0.003 A 
ENDROOT
TORSDOF 0
ENDMDL
