MODEL 1
REMARK minimizedAffinity -1.77459443
REMARK minimizedRMSD -1
REMARK  0 active torsions:
REMARK  status: ('A' for Active; 'I' for Inactive)
ROOT
ATOM      1  C2' OXE d   1       2.247   0.390  -1.854  0.00  0.00     0.078 C 
ATOM      2  C1' OXE d   1       2.047  -2.410  -1.860  0.00  0.00     0.078 C 
ATOM      3  C1  OXE d   1       1.165  -1.644  -0.906  0.00  0.00    -0.078 A 
ATOM      4  C2  OXE d   1       1.303  -0.277  -0.877  0.00  0.00    -0.078 A 
ATOM      5  C3  OXE d   1       0.475   0.482  -0.054  0.00  0.00     0.003 A 
ATOM      6  C4  OXE d   1      -0.387  -0.144   0.854  0.00  0.00    -0.002 A 
ATOM      7  C5  OXE d   1      -0.515  -1.537   0.869  0.00  0.00    -0.002 A 
ATOM      8  C6  OXE d   1       0.222  -2.298  -0.033  0.00  0.00     0.003 A 
ENDROOT
TORSDOF 0
ENDMDL
