MODEL 1
REMARK minimizedAffinity 0.264990658
REMARK minimizedRMSD -1
REMARK  0 active torsions:
REMARK  status: ('A' for Active; 'I' for Inactive)
ROOT
ATOM      1  C2' OXE d   1       3.096  -0.479  -1.671  0.00  0.00     0.078 C 
ATOM      2  C1' OXE d   1       1.474  -2.616  -0.842  0.00  0.00     0.078 C 
ATOM      3  C1  OXE d   1       1.052  -1.221  -0.455  0.00  0.00    -0.078 A 
ATOM      4  C2  OXE d   1       1.876  -0.185  -0.824  0.00  0.00    -0.078 A 
ATOM      5  C3  OXE d   1       1.506   1.126  -0.539  0.00  0.00     0.003 A 
ATOM      6  C4  OXE d   1       0.382   1.389   0.253  0.00  0.00    -0.002 A 
ATOM      7  C5  OXE d   1      -0.450   0.346   0.673  0.00  0.00    -0.002 A 
ATOM      8  C6  OXE d   1      -0.153  -0.958   0.293  0.00  0.00     0.003 A 
ENDROOT
TORSDOF 0
ENDMDL
