MODEL 1
REMARK minimizedAffinity 6.81122398
REMARK minimizedRMSD -1
REMARK  0 active torsions:
REMARK  status: ('A' for Active; 'I' for Inactive)
ROOT
ATOM      1  C2' OXE d   1      -4.501   0.439   2.387  0.00  0.00     0.078 C 
ATOM      2  C1' OXE d   1      -4.882  -1.127   4.686  0.00  0.00     0.078 C 
ATOM      3  C1  OXE d   1      -3.929   0.039   4.778  0.00  0.00    -0.078 A 
ATOM      4  C2  OXE d   1      -3.713   0.771   3.636  0.00  0.00    -0.078 A 
ATOM      5  C3  OXE d   1      -2.886   1.890   3.681  0.00  0.00     0.003 A 
ATOM      6  C4  OXE d   1      -2.153   2.184   4.837  0.00  0.00    -0.002 A 
ATOM      7  C5  OXE d   1      -2.328   1.426   6.000  0.00  0.00    -0.002 A 
ATOM      8  C6  OXE d   1      -3.242   0.379   6.000  0.00  0.00     0.003 A 
ENDROOT
TORSDOF 0
ENDMDL
