MODEL 1
REMARK minimizedAffinity -2.24913836
REMARK minimizedRMSD -1
REMARK  0 active torsions:
REMARK  status: ('A' for Active; 'I' for Inactive)
ROOT
ATOM      1  C2' OXE d   1      -1.058  -0.289   1.469  0.00  0.00     0.078 C 
ATOM      2  C1' OXE d   1       0.024  -2.755   0.675  0.00  0.00     0.078 C 
ATOM      3  C1  OXE d   1       0.514  -1.512  -0.027  0.00  0.00    -0.078 A 
ATOM      4  C2  OXE d   1      -0.055  -0.315   0.336  0.00  0.00    -0.078 A 
ATOM      5  C3  OXE d   1       0.399   0.867  -0.241  0.00  0.00     0.003 A 
ATOM      6  C4  OXE d   1       1.320   0.833  -1.295  0.00  0.00    -0.002 A 
ATOM      7  C5  OXE d   1       1.883  -0.379  -1.707  0.00  0.00    -0.002 A 
ATOM      8  C6  OXE d   1       1.523  -1.554  -1.056  0.00  0.00     0.003 A 
ENDROOT
TORSDOF 0
ENDMDL
