MODEL 1
REMARK minimizedAffinity -2.17413616
REMARK minimizedRMSD -1
REMARK  0 active torsions:
REMARK  status: ('A' for Active; 'I' for Inactive)
ROOT
ATOM      1  C   UNL d   1      -0.119   1.310   1.873  0.00  0.00     0.078 C 
ATOM      2  C1  UNL d   1      -0.451   0.377   0.748  0.00  0.00    -0.077 A 
ATOM      3  C2  UNL d   1       0.278  -0.801   0.548  0.00  0.00    -0.001 A 
ATOM      4  C3  UNL d   1      -0.036  -1.656  -0.510  0.00  0.00     0.003 A 
ATOM      5  C4  UNL d   1      -1.079  -1.341  -1.377  0.00  0.00    -0.005 A 
ATOM      6  C5  UNL d   1      -1.810  -0.170  -1.188  0.00  0.00     0.003 A 
ATOM      7  C6  UNL d   1      -1.497   0.686  -0.131  0.00  0.00    -0.001 A 
ENDROOT
TORSDOF 0
ENDMDL
