MODEL 1
REMARK minimizedAffinity -4.93116713
REMARK minimizedRMSD -1
REMARK  0 active torsions:
REMARK  status: ('A' for Active; 'I' for Inactive)
ROOT
ATOM      1  C   UNL d   1       3.500   0.717   0.758  0.00  0.00     0.078 C 
ATOM      2  C1  UNL d   1       2.001   0.716   0.795  0.00  0.00    -0.077 A 
ATOM      3  C2  UNL d   1       1.301   1.564   1.662  0.00  0.00    -0.001 A 
ATOM      4  C3  UNL d   1      -0.094   1.545   1.693  0.00  0.00     0.003 A 
ATOM      5  C4  UNL d   1      -0.801   0.680   0.861  0.00  0.00    -0.005 A 
ATOM      6  C5  UNL d   1      -0.113  -0.169  -0.004  0.00  0.00     0.003 A 
ATOM      7  C6  UNL d   1       1.282  -0.152  -0.036  0.00  0.00    -0.001 A 
ENDROOT
TORSDOF 0
ENDMDL
