MODEL 1
REMARK minimizedAffinity -3.46218228
REMARK minimizedRMSD -1
REMARK  0 active torsions:
REMARK  status: ('A' for Active; 'I' for Inactive)
ROOT
ATOM      1  C   UNL d   1       2.852   0.241  -0.265  0.00  0.00     0.078 C 
ATOM      2  C1  UNL d   1       1.462   0.315   0.293  0.00  0.00    -0.077 A 
ATOM      3  C2  UNL d   1       0.456  -0.546  -0.162  0.00  0.00    -0.001 A 
ATOM      4  C3  UNL d   1      -0.836  -0.460   0.360  0.00  0.00     0.003 A 
ATOM      5  C4  UNL d   1      -1.133   0.486   1.339  0.00  0.00    -0.005 A 
ATOM      6  C5  UNL d   1      -0.139   1.349   1.796  0.00  0.00     0.003 A 
ATOM      7  C6  UNL d   1       1.153   1.264   1.275  0.00  0.00    -0.001 A 
ENDROOT
TORSDOF 0
ENDMDL
