MODEL 1
REMARK minimizedAffinity -3.44832468
REMARK minimizedRMSD -1
REMARK  0 active torsions:
REMARK  status: ('A' for Active; 'I' for Inactive)
ROOT
ATOM      1  C   UNL d   1       1.012  -0.033  -0.054  0.00  0.00     0.078 C 
ATOM      2  C1  UNL d   1      -0.076  -0.717  -0.827  0.00  0.00    -0.077 A 
ATOM      3  C2  UNL d   1      -0.146  -0.610  -2.222  0.00  0.00    -0.001 A 
ATOM      4  C3  UNL d   1      -1.170  -1.245  -2.927  0.00  0.00     0.003 A 
ATOM      5  C4  UNL d   1      -2.132  -1.989  -2.247  0.00  0.00    -0.005 A 
ATOM      6  C5  UNL d   1      -2.071  -2.099  -0.859  0.00  0.00     0.003 A 
ATOM      7  C6  UNL d   1      -1.048  -1.465  -0.152  0.00  0.00    -0.001 A 
ENDROOT
TORSDOF 0
ENDMDL
