MODEL 1
REMARK minimizedAffinity 0.0392483957
REMARK minimizedRMSD -1
REMARK  0 active torsions:
REMARK  status: ('A' for Active; 'I' for Inactive)
ROOT
ATOM      1  C   UNL d   1      -0.953   0.892   1.652  0.00  0.00     0.078 C 
ATOM      2  C1  UNL d   1      -0.164   0.519   0.433  0.00  0.00    -0.077 A 
ATOM      3  C2  UNL d   1       1.173   0.116   0.535  0.00  0.00    -0.001 A 
ATOM      4  C3  UNL d   1       1.899  -0.219  -0.609  0.00  0.00     0.003 A 
ATOM      5  C4  UNL d   1       1.297  -0.153  -1.864  0.00  0.00    -0.005 A 
ATOM      6  C5  UNL d   1      -0.032   0.249  -1.976  0.00  0.00     0.003 A 
ATOM      7  C6  UNL d   1      -0.760   0.585  -0.833  0.00  0.00    -0.001 A 
ENDROOT
TORSDOF 0
ENDMDL
