MODEL 1
REMARK minimizedAffinity -3.97789407
REMARK minimizedRMSD -1
REMARK  0 active torsions:
REMARK  status: ('A' for Active; 'I' for Inactive)
ROOT
ATOM      1  C   UNL d   1       0.903  -1.810  -0.786  0.00  0.00     0.078 C 
ATOM      2  C1  UNL d   1      -0.311  -1.789  -1.667  0.00  0.00    -0.077 A 
ATOM      3  C2  UNL d   1      -1.573  -2.129  -1.164  0.00  0.00    -0.001 A 
ATOM      4  C3  UNL d   1      -2.693  -2.114  -1.997  0.00  0.00     0.003 A 
ATOM      5  C4  UNL d   1      -2.561  -1.762  -3.339  0.00  0.00    -0.005 A 
ATOM      6  C5  UNL d   1      -1.310  -1.425  -3.849  0.00  0.00     0.003 A 
ATOM      7  C6  UNL d   1      -0.189  -1.439  -3.017  0.00  0.00    -0.001 A 
ENDROOT
TORSDOF 0
ENDMDL
