MODEL 1
REMARK minimizedAffinity -0.655729592
REMARK minimizedRMSD -1
REMARK  0 active torsions:
REMARK  status: ('A' for Active; 'I' for Inactive)
ROOT
ATOM      1  C   UNL d   1      -2.310  -2.110  -2.770  0.00  0.00     0.078 C 
ATOM      2  C1  UNL d   1      -1.530  -1.428  -1.686  0.00  0.00    -0.077 A 
ATOM      3  C2  UNL d   1      -1.869  -0.140  -1.255  0.00  0.00    -0.001 A 
ATOM      4  C3  UNL d   1      -1.128   0.487  -0.252  0.00  0.00     0.003 A 
ATOM      5  C4  UNL d   1      -0.044  -0.167   0.329  0.00  0.00    -0.005 A 
ATOM      6  C5  UNL d   1       0.302  -1.449  -0.094  0.00  0.00     0.003 A 
ATOM      7  C6  UNL d   1      -0.437  -2.077  -1.098  0.00  0.00    -0.001 A 
ENDROOT
TORSDOF 0
ENDMDL
