MODEL 1
REMARK minimizedAffinity -2.70124817
REMARK minimizedRMSD -1
REMARK  0 active torsions:
REMARK  status: ('A' for Active; 'I' for Inactive)
ROOT
ATOM      1  C   UNL d   1      -1.012  -0.379  -0.807  0.00  0.00     0.078 C 
ATOM      2  C1  UNL d   1      -0.295   0.436   0.227  0.00  0.00    -0.077 A 
ATOM      3  C2  UNL d   1      -0.997   1.283   1.093  0.00  0.00    -0.001 A 
ATOM      4  C3  UNL d   1      -0.315   2.043   2.045  0.00  0.00     0.003 A 
ATOM      5  C4  UNL d   1       1.073   1.964   2.139  0.00  0.00    -0.005 A 
ATOM      6  C5  UNL d   1       1.781   1.126   1.281  0.00  0.00     0.003 A 
ATOM      7  C6  UNL d   1       1.101   0.365   0.328  0.00  0.00    -0.001 A 
ENDROOT
TORSDOF 0
ENDMDL
