MODEL 1
REMARK minimizedAffinity -1.66806924
REMARK minimizedRMSD -1
REMARK  0 active torsions:
REMARK  status: ('A' for Active; 'I' for Inactive)
ROOT
ATOM      1  C   UNL d   1      -0.011  -0.379   0.195  0.00  0.00     0.078 C 
ATOM      2  C1  UNL d   1      -0.919  -0.755  -0.938  0.00  0.00    -0.077 A 
ATOM      3  C2  UNL d   1      -2.014  -1.604  -0.733  0.00  0.00    -0.001 A 
ATOM      4  C3  UNL d   1      -2.845  -1.954  -1.798  0.00  0.00     0.003 A 
ATOM      5  C4  UNL d   1      -2.590  -1.461  -3.076  0.00  0.00    -0.005 A 
ATOM      6  C5  UNL d   1      -1.501  -0.618  -3.290  0.00  0.00     0.003 A 
ATOM      7  C6  UNL d   1      -0.669  -0.267  -2.226  0.00  0.00    -0.001 A 
ENDROOT
TORSDOF 0
ENDMDL
