MODEL 1
REMARK minimizedAffinity -1.88252544
REMARK minimizedRMSD -1
REMARK  0 active torsions:
REMARK  status: ('A' for Active; 'I' for Inactive)
ROOT
ATOM      1  C   UNL d   1      -1.173  -1.926  -1.236  0.00  0.00     0.078 C 
ATOM      2  C1  UNL d   1      -0.800  -0.867  -0.242  0.00  0.00    -0.077 A 
ATOM      3  C2  UNL d   1      -1.502  -0.729   0.962  0.00  0.00    -0.001 A 
ATOM      4  C3  UNL d   1      -1.151   0.267   1.874  0.00  0.00     0.003 A 
ATOM      5  C4  UNL d   1      -0.097   1.134   1.592  0.00  0.00    -0.005 A 
ATOM      6  C5  UNL d   1       0.606   1.005   0.395  0.00  0.00     0.003 A 
ATOM      7  C6  UNL d   1       0.256   0.010  -0.518  0.00  0.00    -0.001 A 
ENDROOT
TORSDOF 0
ENDMDL
