MODEL 1
REMARK minimizedAffinity -1.53801107
REMARK minimizedRMSD -1
REMARK  0 active torsions:
REMARK  status: ('A' for Active; 'I' for Inactive)
ROOT
ATOM      1  C   UNL d   1       1.864  -0.273  -0.122  0.00  0.00     0.078 C 
ATOM      2  C1  UNL d   1       0.622   0.034   0.661  0.00  0.00    -0.077 A 
ATOM      3  C2  UNL d   1      -0.566  -0.670   0.433  0.00  0.00    -0.001 A 
ATOM      4  C3  UNL d   1      -1.717  -0.367   1.162  0.00  0.00     0.003 A 
ATOM      5  C4  UNL d   1      -1.691   0.641   2.125  0.00  0.00    -0.005 A 
ATOM      6  C5  UNL d   1      -0.513   1.348   2.357  0.00  0.00     0.003 A 
ATOM      7  C6  UNL d   1       0.639   1.047   1.629  0.00  0.00    -0.001 A 
ENDROOT
TORSDOF 0
ENDMDL
