MODEL 1
REMARK minimizedAffinity -4.13822746
REMARK minimizedRMSD -1
REMARK  0 active torsions:
REMARK  status: ('A' for Active; 'I' for Inactive)
ROOT
ATOM      1  C   UNL d   1      -0.538  -1.195  -0.707  0.00  0.00     0.078 C 
ATOM      2  C1  UNL d   1       0.276  -0.257   0.133  0.00  0.00    -0.077 A 
ATOM      3  C2  UNL d   1       1.667  -0.181  -0.013  0.00  0.00    -0.001 A 
ATOM      4  C3  UNL d   1       2.414   0.690   0.781  0.00  0.00     0.003 A 
ATOM      5  C4  UNL d   1       1.779   1.491   1.729  0.00  0.00    -0.005 A 
ATOM      6  C5  UNL d   1       0.396   1.421   1.883  0.00  0.00     0.003 A 
ATOM      7  C6  UNL d   1      -0.353   0.550   1.089  0.00  0.00    -0.001 A 
ENDROOT
TORSDOF 0
ENDMDL
