MODEL 1
REMARK minimizedAffinity -2.3897543
REMARK minimizedRMSD -1
REMARK  0 active torsions:
REMARK  status: ('A' for Active; 'I' for Inactive)
ROOT
ATOM      1  C   UNL d   1      -3.633  -1.536  -1.473  0.00  0.00     0.078 C 
ATOM      2  C1  UNL d   1      -2.147  -1.659  -1.637  0.00  0.00    -0.077 A 
ATOM      3  C2  UNL d   1      -1.594  -2.233  -2.788  0.00  0.00    -0.001 A 
ATOM      4  C3  UNL d   1      -0.210  -2.350  -2.922  0.00  0.00     0.003 A 
ATOM      5  C4  UNL d   1       0.633  -1.897  -1.909  0.00  0.00    -0.005 A 
ATOM      6  C5  UNL d   1       0.091  -1.326  -0.759  0.00  0.00     0.003 A 
ATOM      7  C6  UNL d   1      -1.293  -1.208  -0.623  0.00  0.00    -0.001 A 
ENDROOT
TORSDOF 0
ENDMDL
