MODEL 1
REMARK minimizedAffinity -0.991392732
REMARK minimizedRMSD -1
REMARK  0 active torsions:
REMARK  status: ('A' for Active; 'I' for Inactive)
ROOT
ATOM      1  C   UNL d   1      -0.467  -1.104   0.671  0.00  0.00     0.078 C 
ATOM      2  C1  UNL d   1      -0.927  -1.429  -0.719  0.00  0.00    -0.077 A 
ATOM      3  C2  UNL d   1      -0.018  -1.489  -1.783  0.00  0.00    -0.001 A 
ATOM      4  C3  UNL d   1      -0.461  -1.783  -3.073  0.00  0.00     0.003 A 
ATOM      5  C4  UNL d   1      -1.814  -2.018  -3.312  0.00  0.00    -0.005 A 
ATOM      6  C5  UNL d   1      -2.726  -1.958  -2.260  0.00  0.00     0.003 A 
ATOM      7  C6  UNL d   1      -2.284  -1.665  -0.969  0.00  0.00    -0.001 A 
ENDROOT
TORSDOF 0
ENDMDL
