MODEL 1
REMARK minimizedAffinity 0.378792673
REMARK minimizedRMSD -1
REMARK  0 active torsions:
REMARK  status: ('A' for Active; 'I' for Inactive)
ROOT
ATOM      1  C   UNL d   1      -3.421  -2.159  -0.813  0.00  0.00     0.078 C 
ATOM      2  C1  UNL d   1      -2.079  -1.828  -1.394  0.00  0.00    -0.077 A 
ATOM      3  C2  UNL d   1      -1.927  -1.580  -2.764  0.00  0.00    -0.001 A 
ATOM      4  C3  UNL d   1      -0.670  -1.282  -3.293  0.00  0.00     0.003 A 
ATOM      5  C4  UNL d   1       0.445  -1.231  -2.459  0.00  0.00    -0.005 A 
ATOM      6  C5  UNL d   1       0.305  -1.479  -1.095  0.00  0.00     0.003 A 
ATOM      7  C6  UNL d   1      -0.951  -1.777  -0.565  0.00  0.00    -0.001 A 
ENDROOT
TORSDOF 0
ENDMDL
