MODEL 1
REMARK minimizedAffinity -5.17615414
REMARK minimizedRMSD -1
REMARK  0 active torsions:
REMARK  status: ('A' for Active; 'I' for Inactive)
ROOT
ATOM      1  C1  BNZ d   1      -1.535   3.465   2.258  0.00  0.00     0.000 A 
ATOM      2  C2  BNZ d   1      -1.566   3.948   0.977  0.00  0.00     0.000 A 
ATOM      3  C3  BNZ d   1      -1.001   3.244  -0.050  0.00  0.00     0.000 A 
ATOM      4  C4  BNZ d   1      -0.372   2.080   0.211  0.00  0.00     0.000 A 
ATOM      5  C5  BNZ d   1      -0.324   1.585   1.499  0.00  0.00     0.000 A 
ATOM      6  C6  BNZ d   1      -0.927   2.276   2.524  0.00  0.00     0.000 A 
ENDROOT
TORSDOF 0
ENDMDL
