MODEL 1
REMARK minimizedAffinity 3.5807538
REMARK minimizedRMSD -1
REMARK  0 active torsions:
REMARK  status: ('A' for Active; 'I' for Inactive)
ROOT
ATOM      1  C1  BNZ d   1      -1.383   4.479  -1.004  0.00  0.00     0.000 A 
ATOM      2  C2  BNZ d   1      -1.765   4.144   0.268  0.00  0.00     0.000 A 
ATOM      3  C3  BNZ d   1      -1.428   2.933   0.804  0.00  0.00     0.000 A 
ATOM      4  C4  BNZ d   1      -0.746   2.043   0.054  0.00  0.00     0.000 A 
ATOM      5  C5  BNZ d   1      -0.362   2.362  -1.233  0.00  0.00     0.000 A 
ATOM      6  C6  BNZ d   1      -0.669   3.598  -1.755  0.00  0.00     0.000 A 
ENDROOT
TORSDOF 0
ENDMDL
