MODEL 1
REMARK minimizedAffinity 0.558666587
REMARK minimizedRMSD -1
REMARK  0 active torsions:
REMARK  status: ('A' for Active; 'I' for Inactive)
ROOT
ATOM      1  C1  BNZ d   1       1.501   0.161  -0.241  0.00  0.00     0.000 A 
ATOM      2  C2  BNZ d   1       1.591   0.890   0.916  0.00  0.00     0.000 A 
ATOM      3  C3  BNZ d   1       0.579   1.726   1.297  0.00  0.00     0.000 A 
ATOM      4  C4  BNZ d   1      -0.502   1.863   0.503  0.00  0.00     0.000 A 
ATOM      5  C5  BNZ d   1      -0.604   1.142  -0.671  0.00  0.00     0.000 A 
ATOM      6  C6  BNZ d   1       0.399   0.273  -1.032  0.00  0.00     0.000 A 
ENDROOT
TORSDOF 0
ENDMDL
