MODEL 1
REMARK minimizedAffinity -0.597747624
REMARK minimizedRMSD -1
REMARK  0 active torsions:
REMARK  status: ('A' for Active; 'I' for Inactive)
ROOT
ATOM      1  C1  BNZ d   1      -0.751   2.785  -0.546  0.00  0.00     0.000 A 
ATOM      2  C2  BNZ d   1      -2.019   3.259  -0.337  0.00  0.00     0.000 A 
ATOM      3  C3  BNZ d   1      -2.376   3.795   0.868  0.00  0.00     0.000 A 
ATOM      4  C4  BNZ d   1      -1.478   3.820   1.875  0.00  0.00     0.000 A 
ATOM      5  C5  BNZ d   1      -0.199   3.337   1.683  0.00  0.00     0.000 A 
ATOM      6  C6  BNZ d   1       0.169   2.834   0.456  0.00  0.00     0.000 A 
ENDROOT
TORSDOF 0
ENDMDL
