MODEL 1
REMARK minimizedAffinity -2.31816006
REMARK minimizedRMSD -1
REMARK  0 active torsions:
REMARK  status: ('A' for Active; 'I' for Inactive)
ROOT
ATOM      1  C1  BNZ d   1      -1.388   2.552   2.476  0.00  0.00     0.000 A 
ATOM      2  C2  BNZ d   1      -2.227   3.279   1.674  0.00  0.00     0.000 A 
ATOM      3  C3  BNZ d   1      -1.727   4.152   0.748  0.00  0.00     0.000 A 
ATOM      4  C4  BNZ d   1      -0.393   4.326   0.653  0.00  0.00     0.000 A 
ATOM      5  C5  BNZ d   1       0.465   3.607   1.461  0.00  0.00     0.000 A 
ATOM      6  C6  BNZ d   1      -0.040   2.701   2.365  0.00  0.00     0.000 A 
ENDROOT
TORSDOF 0
ENDMDL
