MODEL 1
REMARK minimizedAffinity 0.852805734
REMARK minimizedRMSD -1
REMARK  0 active torsions:
REMARK  status: ('A' for Active; 'I' for Inactive)
ROOT
ATOM      1  C1  BNZ d   1       2.043  -1.109   0.085  0.00  0.00     0.000 A 
ATOM      2  C2  BNZ d   1       1.480  -0.795   1.293  0.00  0.00     0.000 A 
ATOM      3  C3  BNZ d   1       0.344  -0.037   1.360  0.00  0.00     0.000 A 
ATOM      4  C4  BNZ d   1      -0.204   0.438   0.223  0.00  0.00     0.000 A 
ATOM      5  C5  BNZ d   1       0.357   0.137  -1.002  0.00  0.00     0.000 A 
ATOM      6  C6  BNZ d   1       1.478  -0.658  -1.068  0.00  0.00     0.000 A 
ENDROOT
TORSDOF 0
ENDMDL
