MODEL 1
REMARK minimizedAffinity 7.19138718
REMARK minimizedRMSD -1
REMARK  1 active torsions:
REMARK  status: ('A' for Active; 'I' for Inactive)
REMARK    1  A    between atoms: C1_2  and  C2_3 
ROOT
ATOM      1  C2  UNL d   1       0.681   1.066   2.516  0.00  0.00    -0.073 A 
ATOM      2  C3  UNL d   1       1.391  -0.099   2.825  0.00  0.00    -0.002 A 
ATOM      3  C4  UNL d   1       1.522  -1.117   1.880  0.00  0.00     0.004 A 
ATOM      4  C5  UNL d   1       0.952  -0.978   0.615  0.00  0.00    -0.004 A 
ATOM      5  C6  UNL d   1       0.249   0.184   0.282  0.00  0.00    -0.075 A 
ATOM      6  C7  UNL d   1      -0.373   0.349  -1.074  0.00  0.00     0.076 C 
ATOM      7  C8  UNL d   1       0.119   1.201   1.238  0.00  0.00     0.001 A 
ENDROOT
BRANCH   1   8
ATOM      8  C1  UNL d   1       0.543   2.171   3.531  0.00  0.00     0.053 C 
ATOM      9  C   UNL d   1       1.617   3.234   3.367  0.00  0.00     0.018 C 
ENDBRANCH   1   8
TORSDOF 1
ENDMDL
