MODEL 1
REMARK minimizedAffinity 4.67783117
REMARK minimizedRMSD -1
REMARK  1 active torsions:
REMARK  status: ('A' for Active; 'I' for Inactive)
REMARK    1  A    between atoms: C1_2  and  C2_3 
ROOT
ATOM      1  C2  UNL d   1      -0.303   0.501   0.156  0.00  0.00    -0.073 A 
ATOM      2  C3  UNL d   1       0.412   0.254  -1.022  0.00  0.00    -0.002 A 
ATOM      3  C4  UNL d   1       1.607  -0.466  -0.982  0.00  0.00     0.004 A 
ATOM      4  C5  UNL d   1       2.095  -0.951   0.231  0.00  0.00    -0.004 A 
ATOM      5  C6  UNL d   1       1.389  -0.724   1.417  0.00  0.00    -0.075 A 
ATOM      6  C7  UNL d   1       1.901  -1.237   2.730  0.00  0.00     0.076 C 
ATOM      7  C8  UNL d   1       0.191   0.002   1.369  0.00  0.00     0.001 A 
ENDROOT
BRANCH   1   8
ATOM      8  C1  UNL d   1      -1.597   1.273   0.117  0.00  0.00     0.053 C 
ATOM      9  C   UNL d   1      -2.795   0.365  -0.109  0.00  0.00     0.018 C 
ENDBRANCH   1   8
TORSDOF 1
ENDMDL
