MODEL 1
REMARK minimizedAffinity 14.7981386
REMARK minimizedRMSD -1
REMARK  1 active torsions:
REMARK  status: ('A' for Active; 'I' for Inactive)
REMARK    1  A    between atoms: C1_2  and  C2_3 
ROOT
ATOM      1  C2  UNL d   1       1.072  -1.669   4.372  0.00  0.00    -0.073 A 
ATOM      2  C3  UNL d   1       2.309  -1.970   4.954  0.00  0.00    -0.002 A 
ATOM      3  C4  UNL d   1       3.477  -1.923   4.192  0.00  0.00     0.004 A 
ATOM      4  C5  UNL d   1       3.422  -1.568   2.844  0.00  0.00    -0.004 A 
ATOM      5  C6  UNL d   1       2.197  -1.252   2.247  0.00  0.00    -0.075 A 
ATOM      6  C7  UNL d   1       2.121  -0.871   0.798  0.00  0.00     0.076 C 
ATOM      7  C8  UNL d   1       1.028  -1.304   3.018  0.00  0.00     0.001 A 
ENDROOT
BRANCH   1   8
ATOM      8  C1  UNL d   1      -0.191  -1.712   5.192  0.00  0.00     0.053 C 
ATOM      9  C   UNL d   1      -1.362  -2.279   4.406  0.00  0.00     0.018 C 
ENDBRANCH   1   8
TORSDOF 1
ENDMDL
