MODEL 1
REMARK minimizedAffinity 2.50938535
REMARK minimizedRMSD -1
REMARK  1 active torsions:
REMARK  status: ('A' for Active; 'I' for Inactive)
REMARK    1  A    between atoms: C1_2  and  C2_3 
ROOT
ATOM      1  C2  UNL d   1       1.114  -4.847  -0.837  0.00  0.00    -0.073 A 
ATOM      2  C3  UNL d   1       1.666  -5.565   0.229  0.00  0.00    -0.002 A 
ATOM      3  C4  UNL d   1       3.016  -5.919   0.217  0.00  0.00     0.004 A 
ATOM      4  C5  UNL d   1       3.828  -5.554  -0.857  0.00  0.00    -0.004 A 
ATOM      5  C6  UNL d   1       3.297  -4.826  -1.926  0.00  0.00    -0.075 A 
ATOM      6  C7  UNL d   1       4.156  -4.426  -3.090  0.00  0.00     0.076 C 
ATOM      7  C8  UNL d   1       1.940  -4.476  -1.908  0.00  0.00     0.001 A 
ENDROOT
BRANCH   1   8
ATOM      8  C1  UNL d   1      -0.342  -4.458  -0.826  0.00  0.00     0.053 C 
ATOM      9  C   UNL d   1      -0.634  -3.378   0.205  0.00  0.00     0.018 C 
ENDBRANCH   1   8
TORSDOF 1
ENDMDL
