MODEL 1
REMARK minimizedAffinity -2.25354576
REMARK minimizedRMSD -1
REMARK  2 active torsions:
REMARK  status: ('A' for Active; 'I' for Inactive)
REMARK    1  A    between atoms: C2'_3  and  C1'_4 
REMARK    2  A    between atoms: C1'_4  and  C1_5 
ROOT
ATOM      1  C1  I4B d   1      -1.075  -0.580   0.314  0.00  0.00    -0.075 A 
ATOM      2  C2  I4B d   1       0.197  -0.290  -0.114  0.00  0.00     0.003 A 
ATOM      3  C3  I4B d   1       0.748   0.995   0.110  0.00  0.00     0.002 A 
ATOM      4  C4  I4B d   1      -0.019   1.968   0.717  0.00  0.00    -0.004 A 
ATOM      5  C5  I4B d   1      -1.300   1.665   1.170  0.00  0.00     0.002 A 
ATOM      6  C6  I4B d   1      -1.827   0.379   0.979  0.00  0.00     0.003 A 
ENDROOT
BRANCH   1   7
ATOM      7  C1' I4B d   1      -1.638  -1.937   0.032  0.00  0.00     0.060 C 
BRANCH   7   8
ATOM      8  C2' I4B d   1      -1.459  -2.785   1.275  0.00  0.00    -0.013 C 
ATOM      9  C4' I4B d   1      -0.266  -2.332   2.076  0.00  0.00     0.013 C 
ATOM     10  C3' I4B d   1      -2.719  -2.694   2.082  0.00  0.00     0.013 C 
ENDBRANCH   7   8
ENDBRANCH   1   7
TORSDOF 2
ENDMDL
