MODEL 1
REMARK minimizedAffinity -5.90471745
REMARK minimizedRMSD -1
REMARK  2 active torsions:
REMARK  status: ('A' for Active; 'I' for Inactive)
REMARK    1  A    between atoms: C2'_3  and  C1'_4 
REMARK    2  A    between atoms: C1'_4  and  C1_5 
ROOT
ATOM      1  C1  I4B d   1       0.897   1.329  -1.445  0.00  0.00    -0.075 A 
ATOM      2  C2  I4B d   1       2.199   1.249  -1.872  0.00  0.00     0.003 A 
ATOM      3  C3  I4B d   1       2.527   1.541  -3.219  0.00  0.00     0.002 A 
ATOM      4  C4  I4B d   1       1.521   1.857  -4.110  0.00  0.00    -0.004 A 
ATOM      5  C5  I4B d   1       0.205   1.960  -3.669  0.00  0.00     0.002 A 
ATOM      6  C6  I4B d   1      -0.108   1.706  -2.326  0.00  0.00     0.003 A 
ENDROOT
BRANCH   1   7
ATOM      7  C1' I4B d   1       0.582   0.982  -0.025  0.00  0.00     0.060 C 
BRANCH   7   8
ATOM      8  C2' I4B d   1      -0.221  -0.303  -0.025  0.00  0.00    -0.013 C 
ATOM      9  C4' I4B d   1       0.653  -1.492   0.277  0.00  0.00     0.013 C 
ATOM     10  C3' I4B d   1      -1.316  -0.164   0.990  0.00  0.00     0.013 C 
ENDBRANCH   7   8
ENDBRANCH   1   7
TORSDOF 2
ENDMDL
