MODEL 1
REMARK minimizedAffinity -4.69706869
REMARK minimizedRMSD -1
REMARK  2 active torsions:
REMARK  status: ('A' for Active; 'I' for Inactive)
REMARK    1  A    between atoms: C2'_3  and  C1'_4 
REMARK    2  A    between atoms: C1'_4  and  C1_5 
ROOT
ATOM      1  C1  I4B d   1       0.190   0.159  -0.046  0.00  0.00    -0.075 A 
ATOM      2  C2  I4B d   1      -0.943  -0.177   0.652  0.00  0.00     0.003 A 
ATOM      3  C3  I4B d   1      -1.179  -1.523   1.024  0.00  0.00     0.002 A 
ATOM      4  C4  I4B d   1      -0.287  -2.501   0.636  0.00  0.00    -0.004 A 
ATOM      5  C5  I4B d   1       0.873  -2.156  -0.052  0.00  0.00     0.002 A 
ATOM      6  C6  I4B d   1       1.120  -0.816  -0.384  0.00  0.00     0.003 A 
ENDROOT
BRANCH   1   7
ATOM      7  C1' I4B d   1       0.392   1.585  -0.450  0.00  0.00     0.060 C 
BRANCH   7   8
ATOM      8  C2' I4B d   1       0.769   1.605  -1.918  0.00  0.00    -0.013 C 
ATOM      9  C4' I4B d   1      -0.270   2.324  -2.738  0.00  0.00     0.013 C 
ATOM     10  C3' I4B d   1       2.109   2.265  -2.042  0.00  0.00     0.013 C 
ENDBRANCH   7   8
ENDBRANCH   1   7
TORSDOF 2
ENDMDL
