MODEL 1
REMARK minimizedAffinity -3.82670212
REMARK minimizedRMSD -1
REMARK  2 active torsions:
REMARK  status: ('A' for Active; 'I' for Inactive)
REMARK    1  A    between atoms: C2'_3  and  C1'_4 
REMARK    2  A    between atoms: C1'_4  and  C1_5 
ROOT
ATOM      1  C1  I4B d   1      -0.044   0.644   0.297  0.00  0.00    -0.075 A 
ATOM      2  C2  I4B d   1       0.735  -0.455   0.033  0.00  0.00     0.003 A 
ATOM      3  C3  I4B d   1       0.470  -1.688   0.677  0.00  0.00     0.002 A 
ATOM      4  C4  I4B d   1      -0.544  -1.763   1.610  0.00  0.00    -0.004 A 
ATOM      5  C5  I4B d   1      -1.347  -0.654   1.859  0.00  0.00     0.002 A 
ATOM      6  C6  I4B d   1      -1.104   0.554   1.190  0.00  0.00     0.003 A 
ENDROOT
BRANCH   1   7
ATOM      7  C1' I4B d   1       0.285   1.938  -0.377  0.00  0.00     0.060 C 
BRANCH   7   8
ATOM      8  C2' I4B d   1       0.384   1.678  -1.866  0.00  0.00    -0.013 C 
ATOM      9  C4' I4B d   1      -0.604   2.517  -2.633  0.00  0.00     0.013 C 
ATOM     10  C3' I4B d   1       1.791   1.970  -2.295  0.00  0.00     0.013 C 
ENDBRANCH   7   8
ENDBRANCH   1   7
TORSDOF 2
ENDMDL
