MODEL 1
REMARK minimizedAffinity -2.55280542
REMARK minimizedRMSD -1
REMARK  2 active torsions:
REMARK  status: ('A' for Active; 'I' for Inactive)
REMARK    1  A    between atoms: C2'_3  and  C1'_4 
REMARK    2  A    between atoms: C1'_4  and  C1_5 
ROOT
ATOM      1  C1  I4B d   1       0.332   0.110   0.138  0.00  0.00    -0.075 A 
ATOM      2  C2  I4B d   1      -0.941   0.451   0.524  0.00  0.00     0.003 A 
ATOM      3  C3  I4B d   1      -1.764  -0.496   1.180  0.00  0.00     0.002 A 
ATOM      4  C4  I4B d   1      -1.296  -1.779   1.383  0.00  0.00    -0.004 A 
ATOM      5  C5  I4B d   1       0.002  -2.115   1.011  0.00  0.00     0.002 A 
ATOM      6  C6  I4B d   1       0.826  -1.162   0.396  0.00  0.00     0.003 A 
ENDROOT
BRANCH   1   7
ATOM      7  C1' I4B d   1       1.162   1.125  -0.582  0.00  0.00     0.060 C 
BRANCH   7   8
ATOM      8  C2' I4B d   1       0.384   1.588  -1.796  0.00  0.00    -0.013 C 
ATOM      9  C4' I4B d   1       1.295   2.205  -2.825  0.00  0.00     0.013 C 
ATOM     10  C3' I4B d   1      -0.344   0.404  -2.359  0.00  0.00     0.013 C 
ENDBRANCH   7   8
ENDBRANCH   1   7
TORSDOF 2
ENDMDL
