MODEL 1
REMARK minimizedAffinity -0.405204684
REMARK minimizedRMSD -1
REMARK  2 active torsions:
REMARK  status: ('A' for Active; 'I' for Inactive)
REMARK    1  A    between atoms: C2'_3  and  C1'_4 
REMARK    2  A    between atoms: C1'_4  and  C1_5 
ROOT
ATOM      1  C1  I4B d   1       0.447   1.254   0.040  0.00  0.00    -0.075 A 
ATOM      2  C2  I4B d   1      -0.832   1.747   0.111  0.00  0.00     0.003 A 
ATOM      3  C3  I4B d   1      -1.920   0.873   0.350  0.00  0.00     0.002 A 
ATOM      4  C4  I4B d   1      -1.692  -0.483   0.462  0.00  0.00    -0.004 A 
ATOM      5  C5  I4B d   1      -0.392  -0.978   0.413  0.00  0.00     0.002 A 
ATOM      6  C6  I4B d   1       0.686  -0.104   0.213  0.00  0.00     0.003 A 
ENDROOT
BRANCH   1   7
ATOM      7  C1' I4B d   1       1.570   2.200  -0.247  0.00  0.00     0.060 C 
BRANCH   7   8
ATOM      8  C2' I4B d   1       2.188   1.802  -1.572  0.00  0.00    -0.013 C 
ATOM      9  C4' I4B d   1       1.355   2.287  -2.730  0.00  0.00     0.013 C 
ATOM     10  C3' I4B d   1       3.574   2.372  -1.626  0.00  0.00     0.013 C 
ENDBRANCH   7   8
ENDBRANCH   1   7
TORSDOF 2
ENDMDL
