MODEL 1
REMARK minimizedAffinity -5.00959349
REMARK minimizedRMSD -1
REMARK  2 active torsions:
REMARK  status: ('A' for Active; 'I' for Inactive)
REMARK    1  A    between atoms: C2'_3  and  C1'_4 
REMARK    2  A    between atoms: C1'_4  and  C1_5 
ROOT
ATOM      1  C1  I4B d   1      -0.006   0.215   0.223  0.00  0.00    -0.075 A 
ATOM      2  C2  I4B d   1       0.789  -0.902   0.154  0.00  0.00     0.003 A 
ATOM      3  C3  I4B d   1       0.264  -2.172   0.497  0.00  0.00     0.002 A 
ATOM      4  C4  I4B d   1      -1.037  -2.270   0.948  0.00  0.00    -0.004 A 
ATOM      5  C5  I4B d   1      -1.847  -1.140   0.995  0.00  0.00     0.002 A 
ATOM      6  C6  I4B d   1      -1.333   0.109   0.618  0.00  0.00     0.003 A 
ENDROOT
BRANCH   1   7
ATOM      7  C1' I4B d   1       0.590   1.545  -0.115  0.00  0.00     0.060 C 
BRANCH   7   8
ATOM      8  C2' I4B d   1       0.869   1.567  -1.604  0.00  0.00    -0.013 C 
ATOM      9  C4' I4B d   1      -0.102   2.463  -2.327  0.00  0.00     0.013 C 
ATOM     10  C3' I4B d   1       2.282   2.028  -1.804  0.00  0.00     0.013 C 
ENDBRANCH   7   8
ENDBRANCH   1   7
TORSDOF 2
ENDMDL
