MODEL 1
REMARK minimizedAffinity -5.39045286
REMARK minimizedRMSD -1
REMARK  2 active torsions:
REMARK  status: ('A' for Active; 'I' for Inactive)
REMARK    1  A    between atoms: C2'_3  and  C1'_4 
REMARK    2  A    between atoms: C1'_4  and  C1_5 
ROOT
ATOM      1  C1  I4B d   1      -1.276  -0.317   0.201  0.00  0.00    -0.075 A 
ATOM      2  C2  I4B d   1      -2.257  -0.008   1.110  0.00  0.00     0.003 A 
ATOM      3  C3  I4B d   1      -2.859  -1.029   1.885  0.00  0.00     0.002 A 
ATOM      4  C4  I4B d   1      -2.487  -2.343   1.684  0.00  0.00    -0.004 A 
ATOM      5  C5  I4B d   1      -1.476  -2.652   0.778  0.00  0.00     0.002 A 
ATOM      6  C6  I4B d   1      -0.858  -1.632   0.041  0.00  0.00     0.003 A 
ENDROOT
BRANCH   1   7
ATOM      7  C1' I4B d   1      -0.686   0.782  -0.624  0.00  0.00     0.060 C 
BRANCH   7   8
ATOM      8  C2' I4B d   1       0.746   0.406  -0.946  0.00  0.00    -0.013 C 
ATOM      9  C4' I4B d   1       1.341   1.345  -1.962  0.00  0.00     0.013 C 
ATOM     10  C3' I4B d   1       1.529   0.427   0.333  0.00  0.00     0.013 C 
ENDBRANCH   7   8
ENDBRANCH   1   7
TORSDOF 2
ENDMDL
