MODEL 1
REMARK minimizedAffinity -3.10296512
REMARK minimizedRMSD -1
REMARK  2 active torsions:
REMARK  status: ('A' for Active; 'I' for Inactive)
REMARK    1  A    between atoms: C2'_3  and  C1'_4 
REMARK    2  A    between atoms: C1'_4  and  C1_5 
ROOT
ATOM      1  C1  I4B d   1       0.175   0.032  -0.171  0.00  0.00    -0.075 A 
ATOM      2  C2  I4B d   1       1.022  -0.826   0.487  0.00  0.00     0.003 A 
ATOM      3  C3  I4B d   1       0.537  -2.055   0.994  0.00  0.00     0.002 A 
ATOM      4  C4  I4B d   1      -0.803  -2.363   0.867  0.00  0.00    -0.004 A 
ATOM      5  C5  I4B d   1      -1.654  -1.503   0.180  0.00  0.00     0.002 A 
ATOM      6  C6  I4B d   1      -1.160  -0.303  -0.354  0.00  0.00     0.003 A 
ENDROOT
BRANCH   1   7
ATOM      7  C1' I4B d   1       0.714   1.337  -0.666  0.00  0.00     0.060 C 
BRANCH   7   8
ATOM      8  C2' I4B d   1       1.001   1.192  -2.147  0.00  0.00    -0.013 C 
ATOM      9  C4' I4B d   1       0.140   2.120  -2.962  0.00  0.00     0.013 C 
ATOM     10  C3' I4B d   1       2.458   1.474  -2.365  0.00  0.00     0.013 C 
ENDBRANCH   7   8
ENDBRANCH   1   7
TORSDOF 2
ENDMDL
