MODEL 1
REMARK minimizedAffinity -3.57825971
REMARK minimizedRMSD -1
REMARK  2 active torsions:
REMARK  status: ('A' for Active; 'I' for Inactive)
REMARK    1  A    between atoms: C2'_3  and  C1'_4 
REMARK    2  A    between atoms: C1'_4  and  C1_5 
ROOT
ATOM      1  C1  I4B d   1       0.183   0.148   0.110  0.00  0.00    -0.075 A 
ATOM      2  C2  I4B d   1       0.736  -1.100   0.258  0.00  0.00     0.003 A 
ATOM      3  C3  I4B d   1      -0.062  -2.185   0.695  0.00  0.00     0.002 A 
ATOM      4  C4  I4B d   1      -1.386  -1.969   1.018  0.00  0.00    -0.004 A 
ATOM      5  C5  I4B d   1      -1.950  -0.708   0.846  0.00  0.00     0.002 A 
ATOM      6  C6  I4B d   1      -1.164   0.354   0.377  0.00  0.00     0.003 A 
ENDROOT
BRANCH   1   7
ATOM      7  C1' I4B d   1       1.062   1.279  -0.322  0.00  0.00     0.060 C 
BRANCH   7   8
ATOM      8  C2' I4B d   1       1.420   1.062  -1.778  0.00  0.00    -0.013 C 
ATOM      9  C4' I4B d   1       0.467   1.792  -2.688  0.00  0.00     0.013 C 
ATOM     10  C3' I4B d   1       2.829   1.531  -1.983  0.00  0.00     0.013 C 
ENDBRANCH   7   8
ENDBRANCH   1   7
TORSDOF 2
ENDMDL
