MODEL 1
REMARK minimizedAffinity -3.73953366
REMARK minimizedRMSD -1
REMARK  2 active torsions:
REMARK  status: ('A' for Active; 'I' for Inactive)
REMARK    1  A    between atoms: C2'_3  and  C1'_4 
REMARK    2  A    between atoms: C1'_4  and  C1_5 
ROOT
ATOM      1  C1  I4B d   1       0.325   0.556  -0.198  0.00  0.00    -0.075 A 
ATOM      2  C2  I4B d   1      -1.037   0.498  -0.033  0.00  0.00     0.003 A 
ATOM      3  C3  I4B d   1      -1.653  -0.702   0.395  0.00  0.00     0.002 A 
ATOM      4  C4  I4B d   1      -0.880  -1.828   0.598  0.00  0.00    -0.004 A 
ATOM      5  C5  I4B d   1       0.502  -1.761   0.453  0.00  0.00     0.002 A 
ATOM      6  C6  I4B d   1       1.111  -0.559   0.064  0.00  0.00     0.003 A 
ENDROOT
BRANCH   1   7
ATOM      7  C1' I4B d   1       0.939   1.830  -0.684  0.00  0.00     0.060 C 
BRANCH   7   8
ATOM      8  C2' I4B d   1       1.004   1.770  -2.196  0.00  0.00    -0.013 C 
ATOM      9  C4' I4B d   1      -0.168   2.479  -2.821  0.00  0.00     0.013 C 
ATOM     10  C3' I4B d   1       2.302   2.385  -2.628  0.00  0.00     0.013 C 
ENDBRANCH   7   8
ENDBRANCH   1   7
TORSDOF 2
ENDMDL
