MODEL 1
REMARK minimizedAffinity 8.41935539
REMARK minimizedRMSD -1
REMARK  0 active torsions:
REMARK  status: ('A' for Active; 'I' for Inactive)
ROOT
ATOM      1  O1  BZF d   1      -1.931  -0.083  -5.547  0.00  0.00    -0.204 OA
ATOM      2  C2  BZF d   1      -2.095  -1.431  -5.293  0.00  0.00     0.174 A 
ATOM      3  C3  BZF d   1      -3.335  -1.683  -4.828  0.00  0.00    -0.012 A 
ATOM      4  C3A BZF d   1      -4.017  -0.426  -4.875  0.00  0.00    -0.107 A 
ATOM      5  C4  BZF d   1      -5.286  -0.033  -4.556  0.00  0.00     0.055 A 
ATOM      6  C5  BZF d   1      -5.612   1.283  -4.648  0.00  0.00    -0.016 A 
ATOM      7  C6  BZF d   1      -4.696   2.232  -5.050  0.00  0.00     0.022 A 
ATOM      8  C7  BZF d   1      -3.427   1.890  -5.381  0.00  0.00     0.029 A 
ATOM      9  C7A BZF d   1      -3.103   0.557  -5.321  0.00  0.00     0.058 A 
ENDROOT
TORSDOF 0
ENDMDL
