MODEL 1
REMARK minimizedAffinity 5.88487053
REMARK minimizedRMSD -1
REMARK  0 active torsions:
REMARK  status: ('A' for Active; 'I' for Inactive)
ROOT
ATOM      1  O1  BZF d   1      -4.566   1.482  -6.000  0.00  0.00    -0.204 OA
ATOM      2  C2  BZF d   1      -4.535   0.101  -6.000  0.00  0.00     0.174 A 
ATOM      3  C3  BZF d   1      -3.926  -0.364  -4.890  0.00  0.00    -0.012 A 
ATOM      4  C3A BZF d   1      -3.636   0.797  -4.105  0.00  0.00    -0.107 A 
ATOM      5  C4  BZF d   1      -3.051   0.985  -2.886  0.00  0.00     0.055 A 
ATOM      6  C5  BZF d   1      -2.851   2.251  -2.437  0.00  0.00    -0.016 A 
ATOM      7  C6  BZF d   1      -3.221   3.352  -3.181  0.00  0.00     0.022 A 
ATOM      8  C7  BZF d   1      -3.810   3.217  -4.394  0.00  0.00     0.029 A 
ATOM      9  C7A BZF d   1      -4.042   1.938  -4.837  0.00  0.00     0.058 A 
ENDROOT
TORSDOF 0
ENDMDL
