MODEL 1
REMARK minimizedAffinity 5.74143696
REMARK minimizedRMSD -1
REMARK  0 active torsions:
REMARK  status: ('A' for Active; 'I' for Inactive)
ROOT
ATOM      1  O1  BZF d   1       1.613   3.688  -5.914  0.00  0.00    -0.204 OA
ATOM      2  C2  BZF d   1       0.869   4.851  -5.888  0.00  0.00     0.174 A 
ATOM      3  C3  BZF d   1       1.673   5.932  -5.821  0.00  0.00    -0.012 A 
ATOM      4  C3A BZF d   1       3.005   5.416  -5.897  0.00  0.00    -0.107 A 
ATOM      5  C4  BZF d   1       4.239   5.999  -5.897  0.00  0.00     0.055 A 
ATOM      6  C5  BZF d   1       5.344   5.208  -5.909  0.00  0.00    -0.016 A 
ATOM      7  C6  BZF d   1       5.251   3.832  -5.917  0.00  0.00     0.022 A 
ATOM      8  C7  BZF d   1       4.049   3.207  -5.924  0.00  0.00     0.029 A 
ATOM      9  C7A BZF d   1       2.930   4.004  -5.944  0.00  0.00     0.058 A 
ENDROOT
TORSDOF 0
ENDMDL
