MODEL 1
REMARK minimizedAffinity -4.74663067
REMARK minimizedRMSD -1
REMARK  0 active torsions:
REMARK  status: ('A' for Active; 'I' for Inactive)
ROOT
ATOM      1  O1  BZF d   1      -4.102  -1.581  -3.182  0.00  0.00    -0.204 OA
ATOM      2  C2  BZF d   1      -5.371  -1.682  -3.720  0.00  0.00     0.174 A 
ATOM      3  C3  BZF d   1      -5.564  -0.744  -4.670  0.00  0.00    -0.012 A 
ATOM      4  C3A BZF d   1      -4.307  -0.070  -4.794  0.00  0.00    -0.107 A 
ATOM      5  C4  BZF d   1      -3.863   0.950  -5.586  0.00  0.00     0.055 A 
ATOM      6  C5  BZF d   1      -2.601   1.422  -5.408  0.00  0.00    -0.016 A 
ATOM      7  C6  BZF d   1      -1.760   0.903  -4.446  0.00  0.00     0.022 A 
ATOM      8  C7  BZF d   1      -2.155  -0.112  -3.639  0.00  0.00     0.029 A 
ATOM      9  C7A BZF d   1      -3.418  -0.614  -3.839  0.00  0.00     0.058 A 
ENDROOT
TORSDOF 0
ENDMDL
