MODEL 1
REMARK minimizedAffinity 1.05387866
REMARK minimizedRMSD -1
REMARK  0 active torsions:
REMARK  status: ('A' for Active; 'I' for Inactive)
ROOT
ATOM      1  O1  BZF d   1      -3.132  -1.866  -3.925  0.00  0.00    -0.204 OA
ATOM      2  C2  BZF d   1      -2.241  -1.917  -4.979  0.00  0.00     0.174 A 
ATOM      3  C3  BZF d   1      -2.630  -1.096  -5.976  0.00  0.00    -0.012 A 
ATOM      4  C3A BZF d   1      -3.792  -0.425  -5.478  0.00  0.00    -0.107 A 
ATOM      5  C4  BZF d   1      -4.624   0.524  -5.999  0.00  0.00     0.055 A 
ATOM      6  C5  BZF d   1      -5.711   0.915  -5.284  0.00  0.00    -0.016 A 
ATOM      7  C6  BZF d   1      -6.000   0.374  -4.049  0.00  0.00     0.022 A 
ATOM      8  C7  BZF d   1      -5.202  -0.567  -3.488  0.00  0.00     0.029 A 
ATOM      9  C7A BZF d   1      -4.084  -0.940  -4.194  0.00  0.00     0.058 A 
ENDROOT
TORSDOF 0
ENDMDL
