MODEL 1
REMARK minimizedAffinity 2.71104169
REMARK minimizedRMSD -1
REMARK  0 active torsions:
REMARK  status: ('A' for Active; 'I' for Inactive)
ROOT
ATOM      1  O1  BZF d   1      -4.845   0.756  -6.000  0.00  0.00    -0.204 OA
ATOM      2  C2  BZF d   1      -5.997   0.952  -5.262  0.00  0.00     0.174 A 
ATOM      3  C3  BZF d   1      -5.873   0.417  -4.031  0.00  0.00    -0.012 A 
ATOM      4  C3A BZF d   1      -4.528  -0.067  -3.964  0.00  0.00    -0.107 A 
ATOM      5  C4  BZF d   1      -3.801  -0.688  -2.989  0.00  0.00     0.055 A 
ATOM      6  C5  BZF d   1      -2.535  -1.096  -3.268  0.00  0.00    -0.016 A 
ATOM      7  C6  BZF d   1      -1.968  -0.906  -4.511  0.00  0.00     0.022 A 
ATOM      8  C7  BZF d   1      -2.649  -0.290  -5.509  0.00  0.00     0.029 A 
ATOM      9  C7A BZF d   1      -3.916   0.153  -5.220  0.00  0.00     0.058 A 
ENDROOT
TORSDOF 0
ENDMDL
