MODEL 1
REMARK minimizedAffinity 2.08594203
REMARK minimizedRMSD -1
REMARK  0 active torsions:
REMARK  status: ('A' for Active; 'I' for Inactive)
ROOT
ATOM      1  O1  BZF d   1      -2.130   0.287  -5.230  0.00  0.00    -0.204 OA
ATOM      2  C2  BZF d   1      -2.391   1.441  -5.942  0.00  0.00     0.174 A 
ATOM      3  C3  BZF d   1      -3.717   1.680  -5.997  0.00  0.00    -0.012 A 
ATOM      4  C3A BZF d   1      -4.317   0.657  -5.195  0.00  0.00    -0.107 A 
ATOM      5  C4  BZF d   1      -5.606   0.370  -4.849  0.00  0.00     0.055 A 
ATOM      6  C5  BZF d   1      -5.861  -0.742  -4.112  0.00  0.00    -0.016 A 
ATOM      7  C6  BZF d   1      -4.852  -1.591  -3.707  0.00  0.00     0.022 A 
ATOM      8  C7  BZF d   1      -3.556  -1.345  -4.021  0.00  0.00     0.029 A 
ATOM      9  C7A BZF d   1      -3.293  -0.204  -4.738  0.00  0.00     0.058 A 
ENDROOT
TORSDOF 0
ENDMDL
