MODEL 1
REMARK minimizedAffinity 10.3866558
REMARK minimizedRMSD -1
REMARK  0 active torsions:
REMARK  status: ('A' for Active; 'I' for Inactive)
ROOT
ATOM      1  O1  BZF d   1      -2.396   0.057  -5.862  0.00  0.00    -0.204 OA
ATOM      2  C2  BZF d   1      -2.427  -1.173  -5.234  0.00  0.00     0.174 A 
ATOM      3  C3  BZF d   1      -3.567  -1.322  -4.529  0.00  0.00    -0.012 A 
ATOM      4  C3A BZF d   1      -4.336  -0.147  -4.805  0.00  0.00    -0.107 A 
ATOM      5  C4  BZF d   1      -5.571   0.282  -4.408  0.00  0.00     0.055 A 
ATOM      6  C5  BZF d   1      -6.000   1.511  -4.798  0.00  0.00    -0.016 A 
ATOM      7  C6  BZF d   1      -5.219   2.339  -5.578  0.00  0.00     0.022 A 
ATOM      8  C7  BZF d   1      -3.990   1.955  -6.000  0.00  0.00     0.029 A 
ATOM      9  C7A BZF d   1      -3.567   0.700  -5.636  0.00  0.00     0.058 A 
ENDROOT
TORSDOF 0
ENDMDL
