MODEL 1
REMARK minimizedAffinity -1.05742574
REMARK minimizedRMSD -1
REMARK  0 active torsions:
REMARK  status: ('A' for Active; 'I' for Inactive)
ROOT
ATOM      1  O1  BZF d   1       5.273  -2.649   2.280  0.00  0.00    -0.204 OA
ATOM      2  C2  BZF d   1       4.710  -3.709   1.596  0.00  0.00     0.174 A 
ATOM      3  C3  BZF d   1       4.521  -4.762   2.417  0.00  0.00    -0.012 A 
ATOM      4  C3A BZF d   1       4.910  -4.302   3.715  0.00  0.00    -0.107 A 
ATOM      5  C4  BZF d   1       4.935  -4.885   4.949  0.00  0.00     0.055 A 
ATOM      6  C5  BZF d   1       5.440  -4.187   6.000  0.00  0.00    -0.016 A 
ATOM      7  C6  BZF d   1       5.934  -2.908   5.851  0.00  0.00     0.022 A 
ATOM      8  C7  BZF d   1       5.927  -2.286   4.647  0.00  0.00     0.029 A 
ATOM      9  C7A BZF d   1       5.386  -2.976   3.590  0.00  0.00     0.058 A 
ENDROOT
TORSDOF 0
ENDMDL
