MODEL 1
REMARK minimizedAffinity 12.0417624
REMARK minimizedRMSD -1
REMARK  0 active torsions:
REMARK  status: ('A' for Active; 'I' for Inactive)
ROOT
ATOM      1  O1  BZF d   1      -0.774  -0.154   3.335  0.00  0.00    -0.204 OA
ATOM      2  C2  BZF d   1       0.182  -0.996   3.871  0.00  0.00     0.174 A 
ATOM      3  C3  BZF d   1       1.405  -0.432   3.808  0.00  0.00    -0.012 A 
ATOM      4  C3A BZF d   1       1.188   0.879   3.278  0.00  0.00    -0.107 A 
ATOM      5  C4  BZF d   1       2.018   1.927   2.996  0.00  0.00     0.055 A 
ATOM      6  C5  BZF d   1       1.500   3.042   2.418  0.00  0.00    -0.016 A 
ATOM      7  C6  BZF d   1       0.160   3.142   2.104  0.00  0.00     0.022 A 
ATOM      8  C7  BZF d   1      -0.702   2.131   2.369  0.00  0.00     0.029 A 
ATOM      9  C7A BZF d   1      -0.188   1.015   2.984  0.00  0.00     0.058 A 
ENDROOT
TORSDOF 0
ENDMDL
