MODEL 1
REMARK minimizedAffinity 7.43635035
REMARK minimizedRMSD -1
REMARK  0 active torsions:
REMARK  status: ('A' for Active; 'I' for Inactive)
ROOT
ATOM      1  O1  BZF d   1       0.475   2.144  -0.663  0.00  0.00    -0.204 OA
ATOM      2  C2  BZF d   1      -0.296   3.242  -0.334  0.00  0.00     0.174 A 
ATOM      3  C3  BZF d   1      -1.609   2.941  -0.402  0.00  0.00    -0.012 A 
ATOM      4  C3A BZF d   1      -1.660   1.545  -0.709  0.00  0.00    -0.107 A 
ATOM      5  C4  BZF d   1      -2.685   0.660  -0.890  0.00  0.00     0.055 A 
ATOM      6  C5  BZF d   1      -2.398  -0.618  -1.252  0.00  0.00    -0.016 A 
ATOM      7  C6  BZF d   1      -1.100  -1.044  -1.446  0.00  0.00     0.022 A 
ATOM      8  C7  BZF d   1      -0.050  -0.204  -1.273  0.00  0.00     0.029 A 
ATOM      9  C7A BZF d   1      -0.335   1.080  -0.876  0.00  0.00     0.058 A 
ENDROOT
TORSDOF 0
ENDMDL
