MODEL 1
REMARK minimizedAffinity 5.80201006
REMARK minimizedRMSD -1
REMARK  0 active torsions:
REMARK  status: ('A' for Active; 'I' for Inactive)
ROOT
ATOM      1  O1  BZF d   1      -2.762  -1.379  -3.100  0.00  0.00    -0.204 OA
ATOM      2  C2  BZF d   1      -3.338  -1.081  -1.881  0.00  0.00     0.174 A 
ATOM      3  C3  BZF d   1      -2.392  -0.820  -0.956  0.00  0.00    -0.012 A 
ATOM      4  C3A BZF d   1      -1.149  -0.872  -1.664  0.00  0.00    -0.107 A 
ATOM      5  C4  BZF d   1       0.151  -0.683  -1.293  0.00  0.00     0.055 A 
ATOM      6  C5  BZF d   1       1.135  -0.879  -2.209  0.00  0.00    -0.016 A 
ATOM      7  C6  BZF d   1       0.855  -1.270  -3.502  0.00  0.00     0.022 A 
ATOM      8  C7  BZF d   1      -0.420  -1.465  -3.918  0.00  0.00     0.029 A 
ATOM      9  C7A BZF d   1      -1.418  -1.235  -3.003  0.00  0.00     0.058 A 
ENDROOT
TORSDOF 0
ENDMDL
