MODEL 1
REMARK minimizedAffinity 12.8452787
REMARK minimizedRMSD -1
REMARK  0 active torsions:
REMARK  status: ('A' for Active; 'I' for Inactive)
ROOT
ATOM      1  O1  BZF d   1      -2.724  -2.128  -1.292  0.00  0.00    -0.204 OA
ATOM      2  C2  BZF d   1      -1.755  -1.996  -2.268  0.00  0.00     0.174 A 
ATOM      3  C3  BZF d   1      -1.725  -0.735  -2.745  0.00  0.00    -0.012 A 
ATOM      4  C3A BZF d   1      -2.676  -0.012  -1.957  0.00  0.00    -0.107 A 
ATOM      5  C4  BZF d   1      -3.087   1.291  -1.942  0.00  0.00     0.055 A 
ATOM      6  C5  BZF d   1      -4.086   1.658  -1.098  0.00  0.00    -0.016 A 
ATOM      7  C6  BZF d   1      -4.699   0.751  -0.259  0.00  0.00     0.022 A 
ATOM      8  C7  BZF d   1      -4.322  -0.551  -0.234  0.00  0.00     0.029 A 
ATOM      9  C7A BZF d   1      -3.290  -0.919  -1.063  0.00  0.00     0.058 A 
ENDROOT
TORSDOF 0
ENDMDL
