MODEL 1
REMARK minimizedAffinity 1.49116385
REMARK minimizedRMSD -1
REMARK  0 active torsions:
REMARK  status: ('A' for Active; 'I' for Inactive)
ROOT
ATOM      1  O1  BZF d   1       1.323   3.937  -0.009  0.00  0.00    -0.204 OA
ATOM      2  C2  BZF d   1       0.252   4.400  -0.748  0.00  0.00     0.174 A 
ATOM      3  C3  BZF d   1      -0.914   3.984  -0.214  0.00  0.00    -0.012 A 
ATOM      4  C3A BZF d   1      -0.553   3.290   0.984  0.00  0.00    -0.107 A 
ATOM      5  C4  BZF d   1      -1.274   2.661   1.958  0.00  0.00     0.055 A 
ATOM      6  C5  BZF d   1      -0.614   2.017   2.956  0.00  0.00    -0.016 A 
ATOM      7  C6  BZF d   1       0.764   1.978   3.009  0.00  0.00     0.022 A 
ATOM      8  C7  BZF d   1       1.522   2.592   2.068  0.00  0.00     0.029 A 
ATOM      9  C7A BZF d   1       0.858   3.271   1.075  0.00  0.00     0.058 A 
ENDROOT
TORSDOF 0
ENDMDL
