MODEL 1
REMARK minimizedAffinity 9.14315796
REMARK minimizedRMSD -1
REMARK  0 active torsions:
REMARK  status: ('A' for Active; 'I' for Inactive)
ROOT
ATOM      1  O1  BZF d   1       0.683   2.853   2.772  0.00  0.00    -0.204 OA
ATOM      2  C2  BZF d   1       0.270   1.619   3.236  0.00  0.00     0.174 A 
ATOM      3  C3  BZF d   1      -0.448   0.971   2.297  0.00  0.00    -0.012 A 
ATOM      4  C3A BZF d   1      -0.408   1.815   1.143  0.00  0.00    -0.107 A 
ATOM      5  C4  BZF d   1      -0.924   1.709  -0.117  0.00  0.00     0.055 A 
ATOM      6  C5  BZF d   1      -0.766   2.742  -0.985  0.00  0.00    -0.016 A 
ATOM      7  C6  BZF d   1      -0.103   3.897  -0.626  0.00  0.00     0.022 A 
ATOM      8  C7  BZF d   1       0.431   4.047   0.610  0.00  0.00     0.029 A 
ATOM      9  C7A BZF d   1       0.301   2.991   1.479  0.00  0.00     0.058 A 
ENDROOT
TORSDOF 0
ENDMDL
