MODEL 1
REMARK minimizedAffinity 9.72057915
REMARK minimizedRMSD -1
REMARK  0 active torsions:
REMARK  status: ('A' for Active; 'I' for Inactive)
ROOT
ATOM      1  O1  BZF d   1      -0.835   4.839  -2.070  0.00  0.00    -0.204 OA
ATOM      2  C2  BZF d   1      -0.778   6.000  -1.324  0.00  0.00     0.174 A 
ATOM      3  C3  BZF d   1      -0.709   5.719  -0.007  0.00  0.00    -0.012 A 
ATOM      4  C3A BZF d   1      -0.630   4.292   0.070  0.00  0.00    -0.107 A 
ATOM      5  C4  BZF d   1      -0.526   3.413   1.110  0.00  0.00     0.055 A 
ATOM      6  C5  BZF d   1      -0.545   2.079   0.850  0.00  0.00    -0.016 A 
ATOM      7  C6  BZF d   1      -0.673   1.591  -0.434  0.00  0.00     0.022 A 
ATOM      8  C7  BZF d   1      -0.775   2.424  -1.497  0.00  0.00     0.029 A 
ATOM      9  C7A BZF d   1      -0.722   3.773  -1.242  0.00  0.00     0.058 A 
ENDROOT
TORSDOF 0
ENDMDL
