MODEL 1
REMARK minimizedAffinity 3.84195399
REMARK minimizedRMSD -1
REMARK  0 active torsions:
REMARK  status: ('A' for Active; 'I' for Inactive)
ROOT
ATOM      1  O1  BZF d   1      -5.839  -5.022   5.999  0.00  0.00    -0.204 OA
ATOM      2  C2  BZF d   1      -4.878  -5.919   5.575  0.00  0.00     0.174 A 
ATOM      3  C3  BZF d   1      -3.837  -5.275   5.011  0.00  0.00    -0.012 A 
ATOM      4  C3A BZF d   1      -4.125  -3.882   5.170  0.00  0.00    -0.107 A 
ATOM      5  C4  BZF d   1      -3.459  -2.740   4.827  0.00  0.00     0.055 A 
ATOM      6  C5  BZF d   1      -4.048  -1.538   5.058  0.00  0.00    -0.016 A 
ATOM      7  C6  BZF d   1      -5.302  -1.440   5.625  0.00  0.00     0.022 A 
ATOM      8  C7  BZF d   1      -5.999  -2.545   5.987  0.00  0.00     0.029 A 
ATOM      9  C7A BZF d   1      -5.393  -3.761   5.784  0.00  0.00     0.058 A 
ENDROOT
TORSDOF 0
ENDMDL
