MODEL 1
REMARK minimizedAffinity 8.14658833
REMARK minimizedRMSD -1
REMARK  0 active torsions:
REMARK  status: ('A' for Active; 'I' for Inactive)
ROOT
ATOM      1  O1  BZF d   1       1.729   2.807  -0.113  0.00  0.00    -0.204 OA
ATOM      2  C2  BZF d   1       1.036   3.604  -1.003  0.00  0.00     0.174 A 
ATOM      3  C3  BZF d   1      -0.288   3.564  -0.751  0.00  0.00    -0.012 A 
ATOM      4  C3A BZF d   1      -0.423   2.760   0.424  0.00  0.00    -0.107 A 
ATOM      5  C4  BZF d   1      -1.494   2.366   1.174  0.00  0.00     0.055 A 
ATOM      6  C5  BZF d   1      -1.294   1.520   2.219  0.00  0.00    -0.016 A 
ATOM      7  C6  BZF d   1      -0.039   1.046   2.539  0.00  0.00     0.022 A 
ATOM      8  C7  BZF d   1       1.055   1.413   1.828  0.00  0.00     0.029 A 
ATOM      9  C7A BZF d   1       0.860   2.293   0.791  0.00  0.00     0.058 A 
ENDROOT
TORSDOF 0
ENDMDL
