MODEL 1
REMARK minimizedAffinity 6.7089262
REMARK minimizedRMSD -1
REMARK  0 active torsions:
REMARK  status: ('A' for Active; 'I' for Inactive)
ROOT
ATOM      1  O1  BZF d   1      -1.186   1.844   2.807  0.00  0.00    -0.204 OA
ATOM      2  C2  BZF d   1      -0.816   2.693   1.782  0.00  0.00     0.174 A 
ATOM      3  C3  BZF d   1       0.390   2.348   1.287  0.00  0.00    -0.012 A 
ATOM      4  C3A BZF d   1       0.758   1.157   1.988  0.00  0.00    -0.107 A 
ATOM      5  C4  BZF d   1       1.843   0.329   1.929  0.00  0.00     0.055 A 
ATOM      6  C5  BZF d   1       1.930  -0.709   2.801  0.00  0.00    -0.016 A 
ATOM      7  C6  BZF d   1       0.955  -0.946   3.748  0.00  0.00     0.022 A 
ATOM      8  C7  BZF d   1      -0.141  -0.155   3.843  0.00  0.00     0.029 A 
ATOM      9  C7A BZF d   1      -0.248   0.875   2.941  0.00  0.00     0.058 A 
ENDROOT
TORSDOF 0
ENDMDL
