MODEL 1
REMARK minimizedAffinity 13.9474182
REMARK minimizedRMSD -1
REMARK  3 active torsions:
REMARK  status: ('A' for Active; 'I' for Inactive)
REMARK    1  A    between atoms: C3'_2  and  C2'_3 
REMARK    2  A    between atoms: C2'_3  and  C1'_4 
REMARK    3  A    between atoms: C1'_4  and  C1_5 
ROOT
ATOM      1  C1  N4B d   1       0.691   0.940   3.508  0.00  0.00    -0.075 A 
ATOM      2  C2  N4B d   1       0.591   1.573   4.767  0.00  0.00     0.002 A 
ATOM      3  C3  N4B d   1      -0.269   2.630   4.937  0.00  0.00     0.002 A 
ATOM      4  C4  N4B d   1      -1.021   3.082   3.864  0.00  0.00    -0.004 A 
ATOM      5  C5  N4B d   1      -0.937   2.449   2.658  0.00  0.00     0.002 A 
ATOM      6  C6  N4B d   1      -0.080   1.383   2.473  0.00  0.00     0.002 A 
ENDROOT
BRANCH   1   7
ATOM      7  C1' N4B d   1       1.680  -0.164   3.251  0.00  0.00     0.057 C 
BRANCH   7   8
ATOM      8  C2' N4B d   1       0.997  -1.510   3.478  0.00  0.00     0.009 C 
BRANCH   8   9
ATOM      9  C3' N4B d   1       1.368  -2.116   4.821  0.00  0.00     0.004 C 
ATOM     10  C4' N4B d   1       2.814  -1.922   5.167  0.00  0.00     0.003 C 
ENDBRANCH   8   9
ENDBRANCH   7   8
ENDBRANCH   1   7
TORSDOF 3
ENDMDL
