MODEL 1
REMARK minimizedAffinity 6.4757266
REMARK minimizedRMSD -1
REMARK  3 active torsions:
REMARK  status: ('A' for Active; 'I' for Inactive)
REMARK    1  A    between atoms: C3'_2  and  C2'_3 
REMARK    2  A    between atoms: C2'_3  and  C1'_4 
REMARK    3  A    between atoms: C1'_4  and  C1_5 
ROOT
ATOM      1  C1  N4B d   1       0.140  -1.122   2.236  0.00  0.00    -0.075 A 
ATOM      2  C2  N4B d   1       0.429   0.126   2.829  0.00  0.00     0.002 A 
ATOM      3  C3  N4B d   1       1.204   0.186   3.961  0.00  0.00     0.002 A 
ATOM      4  C4  N4B d   1       1.684  -0.986   4.526  0.00  0.00    -0.004 A 
ATOM      5  C5  N4B d   1       1.421  -2.186   3.933  0.00  0.00     0.002 A 
ATOM      6  C6  N4B d   1       0.647  -2.261   2.793  0.00  0.00     0.002 A 
ENDROOT
BRANCH   1   7
ATOM      7  C1' N4B d   1      -0.774  -1.245   1.048  0.00  0.00     0.057 C 
BRANCH   7   8
ATOM      8  C2' N4B d   1      -0.016  -1.902  -0.102  0.00  0.00     0.009 C 
BRANCH   8   9
ATOM      9  C3' N4B d   1      -0.933  -2.250  -1.262  0.00  0.00     0.004 C 
ATOM     10  C4' N4B d   1      -0.533  -1.576  -2.540  0.00  0.00     0.003 C 
ENDBRANCH   8   9
ENDBRANCH   7   8
ENDBRANCH   1   7
TORSDOF 3
ENDMDL
