MODEL 1
REMARK minimizedAffinity 4.72317028
REMARK minimizedRMSD -1
REMARK  3 active torsions:
REMARK  status: ('A' for Active; 'I' for Inactive)
REMARK    1  A    between atoms: C3'_2  and  C2'_3 
REMARK    2  A    between atoms: C2'_3  and  C1'_4 
REMARK    3  A    between atoms: C1'_4  and  C1_5 
ROOT
ATOM      1  C1  N4B d   1      -1.175  -3.721  -3.300  0.00  0.00    -0.075 A 
ATOM      2  C2  N4B d   1      -1.497  -3.335  -4.620  0.00  0.00     0.002 A 
ATOM      3  C3  N4B d   1      -1.787  -4.291  -5.563  0.00  0.00     0.002 A 
ATOM      4  C4  N4B d   1      -1.743  -5.633  -5.216  0.00  0.00    -0.004 A 
ATOM      5  C5  N4B d   1      -1.457  -5.996  -3.933  0.00  0.00     0.002 A 
ATOM      6  C6  N4B d   1      -1.167  -5.046  -2.974  0.00  0.00     0.002 A 
ENDROOT
BRANCH   1   7
ATOM      7  C1' N4B d   1      -0.767  -2.718  -2.257  0.00  0.00     0.057 C 
BRANCH   7   8
ATOM      8  C2' N4B d   1      -1.186  -1.323  -2.712  0.00  0.00     0.009 C 
BRANCH   8   9
ATOM      9  C3' N4B d   1       0.006  -0.478  -3.125  0.00  0.00     0.004 C 
ATOM     10  C4' N4B d   1       0.436  -0.731  -4.539  0.00  0.00     0.003 C 
ENDBRANCH   8   9
ENDBRANCH   7   8
ENDBRANCH   1   7
TORSDOF 3
ENDMDL
