MODEL 1
REMARK minimizedAffinity 8.33490086
REMARK minimizedRMSD -1
REMARK  3 active torsions:
REMARK  status: ('A' for Active; 'I' for Inactive)
REMARK    1  A    between atoms: C3'_2  and  C2'_3 
REMARK    2  A    between atoms: C2'_3  and  C1'_4 
REMARK    3  A    between atoms: C1'_4  and  C1_5 
ROOT
ATOM      1  C1  N4B d   1      -2.676  -0.526   1.015  0.00  0.00    -0.075 A 
ATOM      2  C2  N4B d   1      -2.826   0.730   1.642  0.00  0.00     0.002 A 
ATOM      3  C3  N4B d   1      -3.648   1.681   1.088  0.00  0.00     0.002 A 
ATOM      4  C4  N4B d   1      -4.313   1.405  -0.097  0.00  0.00    -0.004 A 
ATOM      5  C5  N4B d   1      -4.182   0.181  -0.683  0.00  0.00     0.002 A 
ATOM      6  C6  N4B d   1      -3.362  -0.785  -0.136  0.00  0.00     0.002 A 
ENDROOT
BRANCH   1   7
ATOM      7  C1' N4B d   1      -1.721  -1.565   1.536  0.00  0.00     0.057 C 
BRANCH   7   8
ATOM      8  C2' N4B d   1      -0.296  -1.031   1.438  0.00  0.00     0.009 C 
BRANCH   8   9
ATOM      9  C3' N4B d   1       0.653  -1.768   2.367  0.00  0.00     0.004 C 
ATOM     10  C4' N4B d   1       1.423  -0.845   3.263  0.00  0.00     0.003 C 
ENDBRANCH   8   9
ENDBRANCH   7   8
ENDBRANCH   1   7
TORSDOF 3
ENDMDL
