MODEL 1
REMARK minimizedAffinity 7.9655304
REMARK minimizedRMSD -1
REMARK  3 active torsions:
REMARK  status: ('A' for Active; 'I' for Inactive)
REMARK    1  A    between atoms: C3'_2  and  C2'_3 
REMARK    2  A    between atoms: C2'_3  and  C1'_4 
REMARK    3  A    between atoms: C1'_4  and  C1_5 
ROOT
ATOM      1  C1  N4B d   1      -2.092  -3.711  -3.326  0.00  0.00    -0.075 A 
ATOM      2  C2  N4B d   1      -1.985  -5.093  -3.056  0.00  0.00     0.002 A 
ATOM      3  C3  N4B d   1      -2.027  -5.999  -4.087  0.00  0.00     0.002 A 
ATOM      4  C4  N4B d   1      -2.195  -5.550  -5.388  0.00  0.00    -0.004 A 
ATOM      5  C5  N4B d   1      -2.273  -4.212  -5.644  0.00  0.00     0.002 A 
ATOM      6  C6  N4B d   1      -2.227  -3.290  -4.618  0.00  0.00     0.002 A 
ENDROOT
BRANCH   1   7
ATOM      7  C1' N4B d   1      -2.137  -2.687  -2.225  0.00  0.00     0.057 C 
BRANCH   7   8
ATOM      8  C2' N4B d   1      -3.055  -1.543  -2.642  0.00  0.00     0.009 C 
BRANCH   8   9
ATOM      9  C3' N4B d   1      -3.856  -1.001  -1.470  0.00  0.00     0.004 C 
ATOM     10  C4' N4B d   1      -4.844   0.050  -1.878  0.00  0.00     0.003 C 
ENDBRANCH   8   9
ENDBRANCH   7   8
ENDBRANCH   1   7
TORSDOF 3
ENDMDL
