MODEL 1
REMARK minimizedAffinity 2.62557125
REMARK minimizedRMSD -1
REMARK  0 active torsions:
REMARK  status: ('A' for Active; 'I' for Inactive)
ROOT
ATOM      1  C   UNL d   1      -2.724   2.550  -5.938  0.00  0.00     0.172 C 
ATOM      2  N   UNL d   1      -3.878   3.418  -5.954  0.00  0.00    -0.070 N 
ATOM      3  C1  UNL d   1      -3.847   4.786  -5.930  0.00  0.00    -0.004 A 
ATOM      4  C2  UNL d   1      -5.149   5.238  -5.958  0.00  0.00    -0.047 A 
ATOM      5  C3  UNL d   1      -5.991   4.101  -5.999  0.00  0.00    -0.047 A 
ATOM      6  C4  UNL d   1      -5.178   2.987  -5.995  0.00  0.00    -0.004 A 
ENDROOT
TORSDOF 0
ENDMDL
