MODEL 1
REMARK minimizedAffinity 6.78885031
REMARK minimizedRMSD -1
REMARK  0 active torsions:
REMARK  status: ('A' for Active; 'I' for Inactive)
ROOT
ATOM      1  C   UNL d   1       4.098  -3.377  -0.653  0.00  0.00     0.172 C 
ATOM      2  N   UNL d   1       2.820  -2.842  -1.060  0.00  0.00    -0.070 N 
ATOM      3  C1  UNL d   1       2.528  -1.515  -1.232  0.00  0.00    -0.004 A 
ATOM      4  C2  UNL d   1       1.210  -1.420  -1.622  0.00  0.00    -0.047 A 
ATOM      5  C3  UNL d   1       0.691  -2.735  -1.687  0.00  0.00    -0.047 A 
ATOM      6  C4  UNL d   1       1.709  -3.595  -1.334  0.00  0.00    -0.004 A 
ENDROOT
TORSDOF 0
ENDMDL
