MODEL 1
REMARK minimizedAffinity 8.12859344
REMARK minimizedRMSD -1
REMARK  0 active torsions:
REMARK  status: ('A' for Active; 'I' for Inactive)
ROOT
ATOM      1  C   UNL d   1       5.641  -5.238  -2.553  0.00  0.00     0.172 C 
ATOM      2  N   UNL d   1       4.375  -5.035  -1.889  0.00  0.00    -0.070 N 
ATOM      3  C1  UNL d   1       3.945  -3.860  -1.332  0.00  0.00    -0.004 A 
ATOM      4  C2  UNL d   1       2.692  -4.077  -0.802  0.00  0.00    -0.047 A 
ATOM      5  C3  UNL d   1       2.357  -5.430  -1.049  0.00  0.00    -0.047 A 
ATOM      6  C4  UNL d   1       3.416  -5.999  -1.723  0.00  0.00    -0.004 A 
ENDROOT
TORSDOF 0
ENDMDL
