MODEL 1
REMARK minimizedAffinity 4.89862013
REMARK minimizedRMSD -1
REMARK  0 active torsions:
REMARK  status: ('A' for Active; 'I' for Inactive)
ROOT
ATOM      1  C   UNL d   1       2.644   2.261   2.495  0.00  0.00     0.172 C 
ATOM      2  N   UNL d   1       2.946   2.316   3.906  0.00  0.00    -0.070 N 
ATOM      3  C1  UNL d   1       3.204   3.454   4.623  0.00  0.00    -0.004 A 
ATOM      4  C2  UNL d   1       3.444   3.085   5.929  0.00  0.00    -0.047 A 
ATOM      5  C3  UNL d   1       3.328   1.676   5.999  0.00  0.00    -0.047 A 
ATOM      6  C4  UNL d   1       3.019   1.226   4.733  0.00  0.00    -0.004 A 
ENDROOT
TORSDOF 0
ENDMDL
