MODEL 1
REMARK minimizedAffinity 0.0943792909
REMARK minimizedRMSD -1
REMARK  0 active torsions:
REMARK  status: ('A' for Active; 'I' for Inactive)
ROOT
ATOM      1  C   UNL d   1       2.883   2.899   5.684  0.00  0.00     0.172 C 
ATOM      2  N   UNL d   1       2.443   2.141   4.537  0.00  0.00    -0.070 N 
ATOM      3  C1  UNL d   1       2.556   2.532   3.230  0.00  0.00    -0.004 A 
ATOM      4  C2  UNL d   1       2.021   1.535   2.443  0.00  0.00    -0.047 A 
ATOM      5  C3  UNL d   1       1.570   0.510   3.308  0.00  0.00    -0.047 A 
ATOM      6  C4  UNL d   1       1.843   0.911   4.598  0.00  0.00    -0.004 A 
ENDROOT
TORSDOF 0
ENDMDL
