MODEL 1
REMARK minimizedAffinity 0.912378609
REMARK minimizedRMSD -1
REMARK  0 active torsions:
REMARK  status: ('A' for Active; 'I' for Inactive)
ROOT
ATOM      1  C   UNL d   1       1.150   1.400  -2.964  0.00  0.00     0.172 C 
ATOM      2  N   UNL d   1       1.691   0.404  -2.069  0.00  0.00    -0.070 N 
ATOM      3  C1  UNL d   1       1.236  -0.880  -1.934  0.00  0.00    -0.004 A 
ATOM      4  C2  UNL d   1       2.014  -1.506  -0.984  0.00  0.00    -0.047 A 
ATOM      5  C3  UNL d   1       2.970  -0.565  -0.532  0.00  0.00    -0.047 A 
ATOM      6  C4  UNL d   1       2.747   0.609  -1.220  0.00  0.00    -0.004 A 
ENDROOT
TORSDOF 0
ENDMDL
