MODEL 1
REMARK minimizedAffinity 8.29552746
REMARK minimizedRMSD -1
REMARK  0 active torsions:
REMARK  status: ('A' for Active; 'I' for Inactive)
ROOT
ATOM      1  C   UNL d   1       1.754   2.462  -2.027  0.00  0.00     0.172 C 
ATOM      2  N   UNL d   1       2.328   1.296  -1.398  0.00  0.00    -0.070 N 
ATOM      3  C1  UNL d   1       3.478   1.275  -0.655  0.00  0.00    -0.004 A 
ATOM      4  C2  UNL d   1       3.684  -0.021  -0.233  0.00  0.00    -0.047 A 
ATOM      5  C3  UNL d   1       2.621  -0.805  -0.739  0.00  0.00    -0.047 A 
ATOM      6  C4  UNL d   1       1.796   0.035  -1.457  0.00  0.00    -0.004 A 
ENDROOT
TORSDOF 0
ENDMDL
