MODEL 1
REMARK minimizedAffinity 5.22579384
REMARK minimizedRMSD -1
REMARK  0 active torsions:
REMARK  status: ('A' for Active; 'I' for Inactive)
ROOT
ATOM      1  C   UNL d   1       3.343  -0.082   0.030  0.00  0.00     0.172 C 
ATOM      2  N   UNL d   1       3.279   1.098   0.861  0.00  0.00    -0.070 N 
ATOM      3  C1  UNL d   1       4.074   2.205   0.737  0.00  0.00    -0.004 A 
ATOM      4  C2  UNL d   1       3.700   3.104   1.713  0.00  0.00    -0.047 A 
ATOM      5  C3  UNL d   1       2.645   2.516   2.449  0.00  0.00    -0.047 A 
ATOM      6  C4  UNL d   1       2.404   1.274   1.900  0.00  0.00    -0.004 A 
ENDROOT
TORSDOF 0
ENDMDL
