MODEL 1
REMARK minimizedAffinity 5.11055517
REMARK minimizedRMSD -1
REMARK  0 active torsions:
REMARK  status: ('A' for Active; 'I' for Inactive)
ROOT
ATOM      1  C   UNL d   1       1.909   1.833   1.618  0.00  0.00     0.172 C 
ATOM      2  N   UNL d   1       0.503   1.859   1.948  0.00  0.00    -0.070 N 
ATOM      3  C1  UNL d   1      -0.305   0.762   2.086  0.00  0.00    -0.004 A 
ATOM      4  C2  UNL d   1      -1.570   1.207   2.403  0.00  0.00    -0.047 A 
ATOM      5  C3  UNL d   1      -1.521   2.621   2.457  0.00  0.00    -0.047 A 
ATOM      6  C4  UNL d   1      -0.226   2.998   2.171  0.00  0.00    -0.004 A 
ENDROOT
TORSDOF 0
ENDMDL
