MODEL 1
REMARK minimizedAffinity 10.6136532
REMARK minimizedRMSD -1
REMARK  0 active torsions:
REMARK  status: ('A' for Active; 'I' for Inactive)
ROOT
ATOM      1  C   UNL d   1       1.398   1.430   2.130  0.00  0.00     0.172 C 
ATOM      2  N   UNL d   1       2.351   1.559   1.052  0.00  0.00    -0.070 N 
ATOM      3  C1  UNL d   1       3.143   2.650   0.813  0.00  0.00    -0.004 A 
ATOM      4  C2  UNL d   1       3.908   2.380  -0.301  0.00  0.00    -0.047 A 
ATOM      5  C3  UNL d   1       3.562   1.082  -0.747  0.00  0.00    -0.047 A 
ATOM      6  C4  UNL d   1       2.596   0.597   0.109  0.00  0.00    -0.004 A 
ENDROOT
TORSDOF 0
ENDMDL
