MODEL 1
REMARK minimizedAffinity 1.78781164
REMARK minimizedRMSD -1
REMARK  0 active torsions:
REMARK  status: ('A' for Active; 'I' for Inactive)
ROOT
ATOM      1  C   UNL d   1      -0.958  -3.444  -2.209  0.00  0.00     0.172 C 
ATOM      2  N   UNL d   1       0.243  -2.657  -2.061  0.00  0.00    -0.070 N 
ATOM      3  C1  UNL d   1       0.980  -2.533  -0.914  0.00  0.00    -0.004 A 
ATOM      4  C2  UNL d   1       2.045  -1.700  -1.184  0.00  0.00    -0.047 A 
ATOM      5  C3  UNL d   1       1.943  -1.309  -2.540  0.00  0.00    -0.047 A 
ATOM      6  C4  UNL d   1       0.819  -1.915  -3.059  0.00  0.00    -0.004 A 
ENDROOT
TORSDOF 0
ENDMDL
