MODEL 1
REMARK minimizedAffinity 2.52056813
REMARK minimizedRMSD -1
REMARK  0 active torsions:
REMARK  status: ('A' for Active; 'I' for Inactive)
ROOT
ATOM      1  C   UNL d   1      -0.819  -3.748  -2.042  0.00  0.00     0.172 C 
ATOM      2  N   UNL d   1       0.224  -2.843  -1.622  0.00  0.00    -0.070 N 
ATOM      3  C1  UNL d   1       0.676  -1.761  -2.330  0.00  0.00    -0.004 A 
ATOM      4  C2  UNL d   1       1.670  -1.158  -1.591  0.00  0.00    -0.047 A 
ATOM      5  C3  UNL d   1       1.822  -1.903  -0.398  0.00  0.00    -0.047 A 
ATOM      6  C4  UNL d   1       0.915  -2.941  -0.443  0.00  0.00    -0.004 A 
ENDROOT
TORSDOF 0
ENDMDL
