MODEL 1
REMARK minimizedAffinity 7.78522015
REMARK minimizedRMSD -1
REMARK  0 active torsions:
REMARK  status: ('A' for Active; 'I' for Inactive)
ROOT
ATOM      1  C   UNL d   1       3.900   1.063  -0.903  0.00  0.00     0.172 C 
ATOM      2  N   UNL d   1       2.737   0.786  -1.712  0.00  0.00    -0.070 N 
ATOM      3  C1  UNL d   1       1.952   1.724  -2.328  0.00  0.00    -0.004 A 
ATOM      4  C2  UNL d   1       0.949   1.059  -3.000  0.00  0.00    -0.047 A 
ATOM      5  C3  UNL d   1       1.138  -0.326  -2.780  0.00  0.00    -0.047 A 
ATOM      6  C4  UNL d   1       2.251  -0.466  -1.980  0.00  0.00    -0.004 A 
ENDROOT
TORSDOF 0
ENDMDL
