MODEL 1
REMARK minimizedAffinity 3.88216877
REMARK minimizedRMSD -1
REMARK  0 active torsions:
REMARK  status: ('A' for Active; 'I' for Inactive)
ROOT
ATOM      1  C   UNL d   1       3.936   0.475   0.385  0.00  0.00     0.172 C 
ATOM      2  N   UNL d   1       3.130   1.388   1.162  0.00  0.00    -0.070 N 
ATOM      3  C1  UNL d   1       1.939   1.086   1.766  0.00  0.00    -0.004 A 
ATOM      4  C2  UNL d   1       1.491   2.222   2.405  0.00  0.00    -0.047 A 
ATOM      5  C3  UNL d   1       2.445   3.241   2.177  0.00  0.00    -0.047 A 
ATOM      6  C4  UNL d   1       3.449   2.698   1.404  0.00  0.00    -0.004 A 
ENDROOT
TORSDOF 0
ENDMDL
