MODEL 1
REMARK minimizedAffinity 6.83166552
REMARK minimizedRMSD -1
REMARK  0 active torsions:
REMARK  status: ('A' for Active; 'I' for Inactive)
ROOT
ATOM      1  C   UNL d   1       0.617  -2.071  -1.904  0.00  0.00     0.172 C 
ATOM      2  N   UNL d   1      -0.510  -2.959  -2.069  0.00  0.00    -0.070 N 
ATOM      3  C1  UNL d   1      -1.804  -2.573  -2.295  0.00  0.00    -0.004 A 
ATOM      4  C2  UNL d   1      -2.573  -3.713  -2.394  0.00  0.00    -0.047 A 
ATOM      5  C3  UNL d   1      -1.711  -4.822  -2.220  0.00  0.00    -0.047 A 
ATOM      6  C4  UNL d   1      -0.440  -4.326  -2.021  0.00  0.00    -0.004 A 
ENDROOT
TORSDOF 0
ENDMDL
