MODEL 1
REMARK minimizedAffinity 12.3070202
REMARK minimizedRMSD -1
REMARK  0 active torsions:
REMARK  status: ('A' for Active; 'I' for Inactive)
ROOT
ATOM      1  C   UNL d   1       3.518   1.313  -0.474  0.00  0.00     0.172 C 
ATOM      2  N   UNL d   1       2.598   1.226  -1.585  0.00  0.00    -0.070 N 
ATOM      3  C1  UNL d   1       2.091   2.287  -2.286  0.00  0.00    -0.004 A 
ATOM      4  C2  UNL d   1       1.256   1.787  -3.262  0.00  0.00    -0.047 A 
ATOM      5  C3  UNL d   1       1.262   0.377  -3.143  0.00  0.00    -0.047 A 
ATOM      6  C4  UNL d   1       2.101   0.056  -2.096  0.00  0.00    -0.004 A 
ENDROOT
TORSDOF 0
ENDMDL
