MODEL 1
REMARK minimizedAffinity -4.55574083
REMARK minimizedRMSD -1
REMARK  0 active torsions:
REMARK  status: ('A' for Active; 'I' for Inactive)
ROOT
ATOM      1  C   UNL d   1      -2.569  -2.609   1.614  0.00  0.00     0.077 C 
ATOM      2  C1  UNL d   1      -1.799  -1.381   1.228  0.00  0.00    -0.074 A 
ATOM      3  C2  UNL d   1      -2.407  -0.121   1.228  0.00  0.00    -0.005 A 
ATOM      4  C3  UNL d   1      -1.675   1.013   0.876  0.00  0.00     0.006 A 
ATOM      5  C4  UNL d   1      -0.330   0.899   0.522  0.00  0.00    -0.005 A 
ATOM      6  C5  UNL d   1       0.295  -0.352   0.517  0.00  0.00    -0.074 A 
ATOM      7  C6  UNL d   1       1.742  -0.490   0.148  0.00  0.00     0.077 C 
ATOM      8  C7  UNL d   1      -0.445  -1.486   0.878  0.00  0.00    -0.001 A 
ENDROOT
TORSDOF 0
ENDMDL
