MODEL 1
REMARK minimizedAffinity -5.28672075
REMARK minimizedRMSD -1
REMARK  0 active torsions:
REMARK  status: ('A' for Active; 'I' for Inactive)
ROOT
ATOM      1  C   UNL d   1       2.365  -1.158   0.264  0.00  0.00     0.077 C 
ATOM      2  C1  UNL d   1       0.951  -0.660   0.260  0.00  0.00    -0.074 A 
ATOM      3  C2  UNL d   1       0.647   0.637  -0.168  0.00  0.00    -0.005 A 
ATOM      4  C3  UNL d   1      -0.675   1.083  -0.176  0.00  0.00     0.006 A 
ATOM      5  C4  UNL d   1      -1.704   0.239   0.244  0.00  0.00    -0.005 A 
ATOM      6  C5  UNL d   1      -1.419  -1.061   0.674  0.00  0.00    -0.074 A 
ATOM      7  C6  UNL d   1      -2.514  -1.984   1.119  0.00  0.00     0.077 C 
ATOM      8  C7  UNL d   1      -0.089  -1.504   0.672  0.00  0.00    -0.001 A 
ENDROOT
TORSDOF 0
ENDMDL
