MODEL 1
REMARK minimizedAffinity -3.61776209
REMARK minimizedRMSD -1
REMARK  0 active torsions:
REMARK  status: ('A' for Active; 'I' for Inactive)
ROOT
ATOM      1  C   UNL d   1      -2.477   0.006   2.356  0.00  0.00     0.077 C 
ATOM      2  C1  UNL d   1      -1.351  -0.452   1.477  0.00  0.00    -0.074 A 
ATOM      3  C2  UNL d   1      -0.818  -1.738   1.605  0.00  0.00    -0.005 A 
ATOM      4  C3  UNL d   1       0.223  -2.154   0.774  0.00  0.00     0.006 A 
ATOM      5  C4  UNL d   1       0.740  -1.288  -0.191  0.00  0.00    -0.005 A 
ATOM      6  C5  UNL d   1       0.218   0.002  -0.333  0.00  0.00    -0.074 A 
ATOM      7  C6  UNL d   1       0.756   0.941  -1.372  0.00  0.00     0.077 C 
ATOM      8  C7  UNL d   1      -0.832   0.409   0.500  0.00  0.00    -0.001 A 
ENDROOT
TORSDOF 0
ENDMDL
