MODEL 1
REMARK minimizedAffinity -3.22516799
REMARK minimizedRMSD -1
REMARK  0 active torsions:
REMARK  status: ('A' for Active; 'I' for Inactive)
ROOT
ATOM      1  C   UNL d   1       0.829   1.641  -2.183  0.00  0.00     0.077 C 
ATOM      2  C1  UNL d   1       0.492   0.787  -0.997  0.00  0.00    -0.074 A 
ATOM      3  C2  UNL d   1      -0.435   1.216  -0.041  0.00  0.00    -0.005 A 
ATOM      4  C3  UNL d   1      -0.745   0.406   1.051  0.00  0.00     0.006 A 
ATOM      5  C4  UNL d   1      -0.132  -0.839   1.199  0.00  0.00    -0.005 A 
ATOM      6  C5  UNL d   1       0.796  -1.285   0.253  0.00  0.00    -0.074 A 
ATOM      7  C6  UNL d   1       1.456  -2.625   0.392  0.00  0.00     0.077 C 
ATOM      8  C7  UNL d   1       1.097  -0.469  -0.845  0.00  0.00    -0.001 A 
ENDROOT
TORSDOF 0
ENDMDL
