MODEL 1
REMARK minimizedAffinity -3.43390679
REMARK minimizedRMSD -1
REMARK  0 active torsions:
REMARK  status: ('A' for Active; 'I' for Inactive)
ROOT
ATOM      1  C   UNL d   1      -2.277  -2.288   1.873  0.00  0.00     0.077 C 
ATOM      2  C1  UNL d   1      -1.228  -1.439   1.218  0.00  0.00    -0.074 A 
ATOM      3  C2  UNL d   1      -0.109  -2.019   0.612  0.00  0.00    -0.005 A 
ATOM      4  C3  UNL d   1       0.853  -1.217  -0.001  0.00  0.00     0.006 A 
ATOM      5  C4  UNL d   1       0.707   0.171  -0.015  0.00  0.00    -0.005 A 
ATOM      6  C5  UNL d   1      -0.406   0.769   0.585  0.00  0.00    -0.074 A 
ATOM      7  C6  UNL d   1      -0.584   2.258   0.572  0.00  0.00     0.077 C 
ATOM      8  C7  UNL d   1      -1.372  -0.044   1.194  0.00  0.00    -0.001 A 
ENDROOT
TORSDOF 0
ENDMDL
