MODEL 1
REMARK minimizedAffinity -3.11959481
REMARK minimizedRMSD -1
REMARK  0 active torsions:
REMARK  status: ('A' for Active; 'I' for Inactive)
ROOT
ATOM      1  C   UNL d   1       3.810  -0.753   1.107  0.00  0.00     0.077 C 
ATOM      2  C1  UNL d   1       2.379  -0.740   0.656  0.00  0.00    -0.074 A 
ATOM      3  C2  UNL d   1       1.860  -1.782  -0.119  0.00  0.00    -0.005 A 
ATOM      4  C3  UNL d   1       0.526  -1.761  -0.523  0.00  0.00     0.006 A 
ATOM      5  C4  UNL d   1      -0.302  -0.699  -0.158  0.00  0.00    -0.005 A 
ATOM      6  C5  UNL d   1       0.199   0.352   0.617  0.00  0.00    -0.074 A 
ATOM      7  C6  UNL d   1      -0.680   1.496   1.027  0.00  0.00     0.077 C 
ATOM      8  C7  UNL d   1       1.539   0.320   1.025  0.00  0.00    -0.001 A 
ENDROOT
TORSDOF 0
ENDMDL
