MODEL 1
REMARK minimizedAffinity -4.29620028
REMARK minimizedRMSD -1
REMARK  0 active torsions:
REMARK  status: ('A' for Active; 'I' for Inactive)
ROOT
ATOM      1  C   UNL d   1      -0.758  -2.398   1.357  0.00  0.00     0.077 C 
ATOM      2  C1  UNL d   1      -0.400  -1.101   0.694  0.00  0.00    -0.074 A 
ATOM      3  C2  UNL d   1       0.611  -1.043  -0.271  0.00  0.00    -0.005 A 
ATOM      4  C3  UNL d   1       0.927   0.169  -0.886  0.00  0.00     0.006 A 
ATOM      5  C4  UNL d   1       0.236   1.332  -0.544  0.00  0.00    -0.005 A 
ATOM      6  C5  UNL d   1      -0.779   1.292   0.418  0.00  0.00    -0.074 A 
ATOM      7  C6  UNL d   1      -1.538   2.531   0.790  0.00  0.00     0.077 C 
ATOM      8  C7  UNL d   1      -1.095   0.070   1.027  0.00  0.00    -0.001 A 
ENDROOT
TORSDOF 0
ENDMDL
