MODEL 1
REMARK minimizedAffinity -0.685863674
REMARK minimizedRMSD -1
REMARK  0 active torsions:
REMARK  status: ('A' for Active; 'I' for Inactive)
ROOT
ATOM      1  C   UNL d   1      -2.981   0.838   1.899  0.00  0.00     0.077 C 
ATOM      2  C1  UNL d   1      -1.726   0.508   1.149  0.00  0.00    -0.074 A 
ATOM      3  C2  UNL d   1      -0.834   1.513   0.762  0.00  0.00    -0.005 A 
ATOM      4  C3  UNL d   1       0.335   1.190   0.073  0.00  0.00     0.006 A 
ATOM      5  C4  UNL d   1       0.623  -0.140  -0.236  0.00  0.00    -0.005 A 
ATOM      6  C5  UNL d   1      -0.257  -1.159   0.143  0.00  0.00    -0.074 A 
ATOM      7  C6  UNL d   1       0.043  -2.594  -0.173  0.00  0.00     0.077 C 
ATOM      8  C7  UNL d   1      -1.425  -0.827   0.841  0.00  0.00    -0.001 A 
ENDROOT
TORSDOF 0
ENDMDL
