MODEL 1
REMARK minimizedAffinity -0.224669635
REMARK minimizedRMSD -1
REMARK  0 active torsions:
REMARK  status: ('A' for Active; 'I' for Inactive)
ROOT
ATOM      1  C   UNL d   1       1.520   2.056  -1.867  0.00  0.00     0.077 C 
ATOM      2  C1  UNL d   1       0.871   1.163  -0.852  0.00  0.00    -0.074 A 
ATOM      3  C2  UNL d   1      -0.178   1.627  -0.053  0.00  0.00    -0.005 A 
ATOM      4  C3  UNL d   1      -0.778   0.782   0.881  0.00  0.00     0.006 A 
ATOM      5  C4  UNL d   1      -0.336  -0.533   1.024  0.00  0.00    -0.005 A 
ATOM      6  C5  UNL d   1       0.712  -1.016   0.233  0.00  0.00    -0.074 A 
ATOM      7  C6  UNL d   1       1.193  -2.430   0.367  0.00  0.00     0.077 C 
ATOM      8  C7  UNL d   1       1.305  -0.163  -0.708  0.00  0.00    -0.001 A 
ENDROOT
TORSDOF 0
ENDMDL
