MODEL 1
REMARK minimizedAffinity -4.23576355
REMARK minimizedRMSD -1
REMARK  0 active torsions:
REMARK  status: ('A' for Active; 'I' for Inactive)
ROOT
ATOM      1  C   UNL d   1       0.717   1.431  -1.018  0.00  0.00     0.077 C 
ATOM      2  C1  UNL d   1       0.217   0.343  -0.115  0.00  0.00    -0.074 A 
ATOM      3  C2  UNL d   1       0.802  -0.927  -0.127  0.00  0.00    -0.005 A 
ATOM      4  C3  UNL d   1       0.333  -1.926   0.726  0.00  0.00     0.006 A 
ATOM      5  C4  UNL d   1      -0.725  -1.666   1.598  0.00  0.00    -0.005 A 
ATOM      6  C5  UNL d   1      -1.322  -0.401   1.625  0.00  0.00    -0.074 A 
ATOM      7  C6  UNL d   1      -2.453  -0.102   2.563  0.00  0.00     0.077 C 
ATOM      8  C7  UNL d   1      -0.840   0.599   0.770  0.00  0.00    -0.001 A 
ENDROOT
TORSDOF 0
ENDMDL
