MODEL 1
REMARK minimizedAffinity -3.07652783
REMARK minimizedRMSD -1
REMARK  0 active torsions:
REMARK  status: ('A' for Active; 'I' for Inactive)
ROOT
ATOM      1  C   UNL d   1       1.541   2.065  -2.608  0.00  0.00     0.077 C 
ATOM      2  C1  UNL d   1       0.809   1.566  -1.397  0.00  0.00    -0.074 A 
ATOM      3  C2  UNL d   1       0.014   2.426  -0.633  0.00  0.00    -0.005 A 
ATOM      4  C3  UNL d   1      -0.668   1.945   0.485  0.00  0.00     0.006 A 
ATOM      5  C4  UNL d   1      -0.562   0.602   0.849  0.00  0.00    -0.005 A 
ATOM      6  C5  UNL d   1       0.227  -0.273   0.096  0.00  0.00    -0.074 A 
ATOM      7  C6  UNL d   1       0.344  -1.721   0.467  0.00  0.00     0.077 C 
ATOM      8  C7  UNL d   1       0.904   0.216  -1.030  0.00  0.00    -0.001 A 
ENDROOT
TORSDOF 0
ENDMDL
