MODEL 1
REMARK minimizedAffinity -5.3697114
REMARK minimizedRMSD -1
REMARK  0 active torsions:
REMARK  status: ('A' for Active; 'I' for Inactive)
ROOT
ATOM      1  C   UNL d   1       1.485  -1.877   0.472  0.00  0.00     0.077 C 
ATOM      2  C1  UNL d   1       0.089  -1.432   0.794  0.00  0.00    -0.074 A 
ATOM      3  C2  UNL d   1      -0.314  -0.111   0.574  0.00  0.00    -0.005 A 
ATOM      4  C3  UNL d   1      -1.618   0.285   0.870  0.00  0.00     0.006 A 
ATOM      5  C4  UNL d   1      -2.531  -0.634   1.388  0.00  0.00    -0.005 A 
ATOM      6  C5  UNL d   1      -2.147  -1.959   1.614  0.00  0.00    -0.074 A 
ATOM      7  C6  UNL d   1      -3.119  -2.962   2.161  0.00  0.00     0.077 C 
ATOM      8  C7  UNL d   1      -0.836  -2.352   1.308  0.00  0.00    -0.001 A 
ENDROOT
TORSDOF 0
ENDMDL
