MODEL 1
REMARK minimizedAffinity -5.20893717
REMARK minimizedRMSD -1
REMARK  0 active torsions:
REMARK  status: ('A' for Active; 'I' for Inactive)
ROOT
ATOM      1  C   UNL d   1      -2.553  -2.668   1.433  0.00  0.00     0.077 C 
ATOM      2  C1  UNL d   1      -1.577  -1.585   1.082  0.00  0.00    -0.074 A 
ATOM      3  C2  UNL d   1      -1.979  -0.246   1.026  0.00  0.00    -0.005 A 
ATOM      4  C3  UNL d   1      -1.058   0.752   0.707  0.00  0.00     0.006 A 
ATOM      5  C4  UNL d   1       0.272   0.422   0.442  0.00  0.00    -0.005 A 
ATOM      6  C5  UNL d   1       0.692  -0.911   0.494  0.00  0.00    -0.074 A 
ATOM      7  C6  UNL d   1       2.120  -1.281   0.221  0.00  0.00     0.077 C 
ATOM      8  C7  UNL d   1      -0.238  -1.907   0.821  0.00  0.00    -0.001 A 
ENDROOT
TORSDOF 0
ENDMDL
