MODEL 1
REMARK minimizedAffinity -5.27701807
REMARK minimizedRMSD -1
REMARK  0 active torsions:
REMARK  status: ('A' for Active; 'I' for Inactive)
ROOT
ATOM      1  C   UNL d   1       0.839  -1.444   0.315  0.00  0.00     0.077 C 
ATOM      2  C1  UNL d   1      -0.541  -1.607   0.879  0.00  0.00    -0.074 A 
ATOM      3  C2  UNL d   1      -1.130  -2.872   0.982  0.00  0.00    -0.005 A 
ATOM      4  C3  UNL d   1      -2.411  -3.010   1.518  0.00  0.00     0.006 A 
ATOM      5  C4  UNL d   1      -3.114  -1.886   1.955  0.00  0.00    -0.005 A 
ATOM      6  C5  UNL d   1      -2.541  -0.614   1.861  0.00  0.00    -0.074 A 
ATOM      7  C6  UNL d   1      -3.279   0.602   2.335  0.00  0.00     0.077 C 
ATOM      8  C7  UNL d   1      -1.251  -0.485   1.328  0.00  0.00    -0.001 A 
ENDROOT
TORSDOF 0
ENDMDL
