MODEL 1
REMARK minimizedAffinity -5.3278861
REMARK minimizedRMSD -1
REMARK  0 active torsions:
REMARK  status: ('A' for Active; 'I' for Inactive)
ROOT
ATOM      1  C   UNL d   1      -3.151  -1.013   2.209  0.00  0.00     0.077 C 
ATOM      2  C1  UNL d   1      -1.851  -1.131   1.469  0.00  0.00    -0.074 A 
ATOM      3  C2  UNL d   1      -1.015  -2.236   1.656  0.00  0.00    -0.005 A 
ATOM      4  C3  UNL d   1       0.186  -2.336   0.954  0.00  0.00     0.006 A 
ATOM      5  C4  UNL d   1       0.563  -1.334   0.059  0.00  0.00    -0.005 A 
ATOM      6  C5  UNL d   1      -0.261  -0.221  -0.141  0.00  0.00    -0.074 A 
ATOM      7  C6  UNL d   1       0.124   0.861  -1.106  0.00  0.00     0.077 C 
ATOM      8  C7  UNL d   1      -1.469  -0.131   0.563  0.00  0.00    -0.001 A 
ENDROOT
TORSDOF 0
ENDMDL
