MODEL 1
REMARK minimizedAffinity -4.7587409
REMARK minimizedRMSD -1
REMARK  0 active torsions:
REMARK  status: ('A' for Active; 'I' for Inactive)
ROOT
ATOM      1  C   UNL d   1      -3.993   0.271   1.627  0.00  0.00     0.077 C 
ATOM      2  C1  UNL d   1      -2.889  -0.733   1.472  0.00  0.00    -0.074 A 
ATOM      3  C2  UNL d   1      -3.137  -2.102   1.622  0.00  0.00    -0.005 A 
ATOM      4  C3  UNL d   1      -2.103  -3.025   1.466  0.00  0.00     0.006 A 
ATOM      5  C4  UNL d   1      -0.813  -2.589   1.160  0.00  0.00    -0.005 A 
ATOM      6  C5  UNL d   1      -0.547  -1.225   1.006  0.00  0.00    -0.074 A 
ATOM      7  C6  UNL d   1       0.832  -0.741   0.667  0.00  0.00     0.077 C 
ATOM      8  C7  UNL d   1      -1.592  -0.304   1.157  0.00  0.00    -0.001 A 
ENDROOT
TORSDOF 0
ENDMDL
