MODEL 1
REMARK minimizedAffinity -1.31641412
REMARK minimizedRMSD -1
REMARK  0 active torsions:
REMARK  status: ('A' for Active; 'I' for Inactive)
ROOT
ATOM      1  N1  IND d   1      -1.178   5.961  -5.375  0.00  0.00    -0.196 N 
ATOM      2  C2  IND d   1       0.001   5.961  -4.682  0.00  0.00     0.054 A 
ATOM      3  C3  IND d   1      -0.236   5.990  -3.351  0.00  0.00    -0.031 A 
ATOM      4  C4  IND d   1      -2.478   5.938  -2.087  0.00  0.00     0.051 A 
ATOM      5  C5  IND d   1      -3.830   5.971  -2.289  0.00  0.00    -0.031 A 
ATOM      6  C6  IND d   1      -4.377   6.000  -3.555  0.00  0.00     0.015 A 
ATOM      7  C7  IND d   1      -3.591   5.986  -4.672  0.00  0.00    -0.016 A 
ATOM      8  C8  IND d   1      -2.218   5.959  -4.471  0.00  0.00    -0.047 A 
ATOM      9  C9  IND d   1      -1.655   5.972  -3.188  0.00  0.00    -0.096 A 
ATOM     10  HN1 IND d   1      -1.257   5.961  -6.231  0.00  0.00     0.298 HD
ENDROOT
TORSDOF 0
ENDMDL
