MODEL 1
REMARK minimizedAffinity 0.732679665
REMARK minimizedRMSD -1
REMARK  0 active torsions:
REMARK  status: ('A' for Active; 'I' for Inactive)
ROOT
ATOM      1  N1  IND d   1      -0.617   5.952  -5.739  0.00  0.00    -0.196 N 
ATOM      2  C2  IND d   1       0.613   5.962  -5.143  0.00  0.00     0.054 A 
ATOM      3  C3  IND d   1       0.484   6.000  -3.798  0.00  0.00    -0.031 A 
ATOM      4  C4  IND d   1      -1.649   5.950  -2.357  0.00  0.00     0.051 A 
ATOM      5  C5  IND d   1      -3.012   5.977  -2.450  0.00  0.00    -0.031 A 
ATOM      6  C6  IND d   1      -3.660   5.995  -3.668  0.00  0.00     0.015 A 
ATOM      7  C7  IND d   1      -2.966   5.975  -4.844  0.00  0.00    -0.016 A 
ATOM      8  C8  IND d   1      -1.581   5.954  -4.754  0.00  0.00    -0.047 A 
ATOM      9  C9  IND d   1      -0.917   5.979  -3.521  0.00  0.00    -0.096 A 
ATOM     10  HN1 IND d   1      -0.765   5.946  -6.586  0.00  0.00     0.298 HD
ENDROOT
TORSDOF 0
ENDMDL
