MODEL 1
REMARK minimizedAffinity 2.29841447
REMARK minimizedRMSD -1
REMARK  0 active torsions:
REMARK  status: ('A' for Active; 'I' for Inactive)
ROOT
ATOM      1  N1  IND d   1       2.985   6.000  -3.763  0.00  0.00    -0.196 N 
ATOM      2  C2  IND d   1       3.634   5.966  -4.965  0.00  0.00     0.054 A 
ATOM      3  C3  IND d   1       2.742   5.912  -5.980  0.00  0.00    -0.031 A 
ATOM      4  C4  IND d   1       0.169   5.973  -5.900  0.00  0.00     0.051 A 
ATOM      5  C5  IND d   1      -0.882   5.965  -5.027  0.00  0.00    -0.031 A 
ATOM      6  C6  IND d   1      -0.694   5.972  -3.660  0.00  0.00     0.015 A 
ATOM      7  C7  IND d   1       0.558   5.998  -3.113  0.00  0.00    -0.016 A 
ATOM      8  C8  IND d   1       1.627   5.998  -3.997  0.00  0.00    -0.047 A 
ATOM      9  C9  IND d   1       1.443   5.948  -5.384  0.00  0.00    -0.096 A 
ATOM     10  HN1 IND d   1       3.362   6.019  -2.990  0.00  0.00     0.298 HD
ENDROOT
TORSDOF 0
ENDMDL
