MODEL 1
REMARK minimizedAffinity -1.73072803
REMARK minimizedRMSD -1
REMARK  0 active torsions:
REMARK  status: ('A' for Active; 'I' for Inactive)
ROOT
ATOM      1  N1  IND d   1       2.058   5.732  -6.000  0.00  0.00    -0.196 N 
ATOM      2  C2  IND d   1       3.161   5.810  -5.197  0.00  0.00     0.054 A 
ATOM      3  C3  IND d   1       2.793   5.959  -3.904  0.00  0.00    -0.031 A 
ATOM      4  C4  IND d   1       0.437   5.997  -2.869  0.00  0.00     0.051 A 
ATOM      5  C5  IND d   1      -0.888   5.996  -3.206  0.00  0.00    -0.031 A 
ATOM      6  C6  IND d   1      -1.307   5.902  -4.517  0.00  0.00     0.015 A 
ATOM      7  C7  IND d   1      -0.413   5.794  -5.545  0.00  0.00    -0.016 A 
ATOM      8  C8  IND d   1       0.933   5.802  -5.207  0.00  0.00    -0.047 A 
ATOM      9  C9  IND d   1       1.365   5.940  -3.882  0.00  0.00    -0.096 A 
ATOM     10  HN1 IND d   1       2.065   5.653  -6.856  0.00  0.00     0.298 HD
ENDROOT
TORSDOF 0
ENDMDL
