MODEL 1
REMARK minimizedAffinity 4.36399031
REMARK minimizedRMSD -1
REMARK  0 active torsions:
REMARK  status: ('A' for Active; 'I' for Inactive)
ROOT
ATOM      1  N1  IND d   1      -2.094  -0.458  -5.011  0.00  0.00    -0.196 N 
ATOM      2  C2  IND d   1      -2.932  -1.523  -4.832  0.00  0.00     0.054 A 
ATOM      3  C3  IND d   1      -2.223  -2.632  -4.522  0.00  0.00    -0.031 A 
ATOM      4  C4  IND d   1       0.310  -2.905  -4.155  0.00  0.00     0.051 A 
ATOM      5  C5  IND d   1       1.491  -2.222  -4.242  0.00  0.00    -0.031 A 
ATOM      6  C6  IND d   1       1.538  -0.889  -4.594  0.00  0.00     0.015 A 
ATOM      7  C7  IND d   1       0.399  -0.182  -4.862  0.00  0.00    -0.016 A 
ATOM      8  C8  IND d   1      -0.801  -0.874  -4.782  0.00  0.00    -0.047 A 
ATOM      9  C9  IND d   1      -0.851  -2.238  -4.467  0.00  0.00    -0.096 A 
ATOM     10  HN1 IND d   1      -2.334   0.338  -5.229  0.00  0.00     0.298 HD
ENDROOT
TORSDOF 0
ENDMDL
