MODEL 1
REMARK minimizedAffinity 0.0280779935
REMARK minimizedRMSD -1
REMARK  0 active torsions:
REMARK  status: ('A' for Active; 'I' for Inactive)
ROOT
ATOM      1  N1  IND d   1       4.433   2.844  -3.945  0.00  0.00    -0.196 N 
ATOM      2  C2  IND d   1       5.703   3.296  -3.720  0.00  0.00     0.054 A 
ATOM      3  C3  IND d   1       5.873   4.516  -4.277  0.00  0.00    -0.031 A 
ATOM      4  C4  IND d   1       4.173   6.000  -5.516  0.00  0.00     0.051 A 
ATOM      5  C5  IND d   1       2.894   6.000  -6.000  0.00  0.00    -0.031 A 
ATOM      6  C6  IND d   1       2.046   4.927  -5.817  0.00  0.00     0.015 A 
ATOM      7  C7  IND d   1       2.442   3.814  -5.131  0.00  0.00    -0.016 A 
ATOM      8  C8  IND d   1       3.741   3.808  -4.645  0.00  0.00    -0.047 A 
ATOM      9  C9  IND d   1       4.621   4.876  -4.864  0.00  0.00    -0.096 A 
ATOM     10  HN1 IND d   1       4.119   2.084  -3.692  0.00  0.00     0.298 HD
ENDROOT
TORSDOF 0
ENDMDL
