MODEL 1
REMARK minimizedAffinity -1.21138442
REMARK minimizedRMSD -1
REMARK  0 active torsions:
REMARK  status: ('A' for Active; 'I' for Inactive)
ROOT
ATOM      1  N1  IND d   1      -3.427   5.998  -4.032  0.00  0.00    -0.196 N 
ATOM      2  C2  IND d   1      -3.757   5.986  -2.705  0.00  0.00     0.054 A 
ATOM      3  C3  IND d   1      -2.641   5.947  -1.943  0.00  0.00    -0.031 A 
ATOM      4  C4  IND d   1      -0.169   6.000  -2.658  0.00  0.00     0.051 A 
ATOM      5  C5  IND d   1       0.633   5.975  -3.765  0.00  0.00    -0.031 A 
ATOM      6  C6  IND d   1       0.112   5.960  -5.043  0.00  0.00     0.015 A 
ATOM      7  C7  IND d   1      -1.236   5.980  -5.263  0.00  0.00    -0.016 A 
ATOM      8  C8  IND d   1      -2.053   5.997  -4.141  0.00  0.00    -0.047 A 
ATOM      9  C9  IND d   1      -1.531   5.970  -2.842  0.00  0.00    -0.096 A 
ATOM     10  HN1 IND d   1      -3.983   6.006  -4.687  0.00  0.00     0.298 HD
ENDROOT
TORSDOF 0
ENDMDL
