MODEL 1
REMARK minimizedAffinity -2.54447031
REMARK minimizedRMSD -1
REMARK  0 active torsions:
REMARK  status: ('A' for Active; 'I' for Inactive)
ROOT
ATOM      1  N1  IND d   1       1.902   4.747  -4.144  0.00  0.00    -0.196 N 
ATOM      2  C2  IND d   1       1.210   5.383  -5.137  0.00  0.00     0.054 A 
ATOM      3  C3  IND d   1       2.063   5.996  -5.988  0.00  0.00    -0.031 A 
ATOM      4  C4  IND d   1       4.638   6.000  -6.000  0.00  0.00     0.051 A 
ATOM      5  C5  IND d   1       5.719   5.587  -5.273  0.00  0.00    -0.031 A 
ATOM      6  C6  IND d   1       5.581   4.856  -4.111  0.00  0.00     0.015 A 
ATOM      7  C7  IND d   1       4.350   4.500  -3.636  0.00  0.00    -0.016 A 
ATOM      8  C8  IND d   1       3.250   4.923  -4.368  0.00  0.00    -0.047 A 
ATOM      9  C9  IND d   1       3.383   5.701  -5.525  0.00  0.00    -0.096 A 
ATOM     10  HN1 IND d   1       1.554   4.311  -3.490  0.00  0.00     0.298 HD
ENDROOT
TORSDOF 0
ENDMDL
