MODEL 1
REMARK minimizedAffinity 4.96284151
REMARK minimizedRMSD -1
REMARK  0 active torsions:
REMARK  status: ('A' for Active; 'I' for Inactive)
ROOT
ATOM      1  N1  IND d   1      -2.120   5.998  -3.982  0.00  0.00    -0.196 N 
ATOM      2  C2  IND d   1      -2.175   5.987  -2.617  0.00  0.00     0.054 A 
ATOM      3  C3  IND d   1      -0.927   5.947  -2.097  0.00  0.00    -0.031 A 
ATOM      4  C4  IND d   1       1.348   5.996  -3.299  0.00  0.00     0.051 A 
ATOM      5  C5  IND d   1       1.909   5.969  -4.546  0.00  0.00    -0.031 A 
ATOM      6  C6  IND d   1       1.139   5.953  -5.691  0.00  0.00     0.015 A 
ATOM      7  C7  IND d   1      -0.225   5.975  -5.633  0.00  0.00    -0.016 A 
ATOM      8  C8  IND d   1      -0.798   5.995  -4.369  0.00  0.00    -0.047 A 
ATOM      9  C9  IND d   1      -0.023   5.968  -3.202  0.00  0.00    -0.096 A 
ATOM     10  HN1 IND d   1      -2.798   6.006  -4.511  0.00  0.00     0.298 HD
ENDROOT
TORSDOF 0
ENDMDL
