MODEL 1
REMARK minimizedAffinity -0.72407639
REMARK minimizedRMSD -1
REMARK  0 active torsions:
REMARK  status: ('A' for Active; 'I' for Inactive)
ROOT
ATOM      1  N1  IND d   1       4.034   5.998  -3.754  0.00  0.00    -0.196 N 
ATOM      2  C2  IND d   1       4.721   5.992  -4.936  0.00  0.00     0.054 A 
ATOM      3  C3  IND d   1       3.862   5.933  -5.978  0.00  0.00    -0.031 A 
ATOM      4  C4  IND d   1       1.288   5.940  -5.980  0.00  0.00     0.051 A 
ATOM      5  C5  IND d   1       0.210   5.900  -5.141  0.00  0.00    -0.031 A 
ATOM      6  C6  IND d   1       0.354   5.893  -3.769  0.00  0.00     0.015 A 
ATOM      7  C7  IND d   1       1.587   5.938  -3.182  0.00  0.00    -0.016 A 
ATOM      8  C8  IND d   1       2.684   5.972  -4.031  0.00  0.00    -0.047 A 
ATOM      9  C9  IND d   1       2.545   5.936  -5.425  0.00  0.00    -0.096 A 
ATOM     10  HN1 IND d   1       4.385   6.015  -2.969  0.00  0.00     0.298 HD
ENDROOT
TORSDOF 0
ENDMDL
