MODEL 1
REMARK minimizedAffinity 4.04335308
REMARK minimizedRMSD -1
REMARK  0 active torsions:
REMARK  status: ('A' for Active; 'I' for Inactive)
ROOT
ATOM      1  N1  IND d   1       1.853   4.240  -4.652  0.00  0.00    -0.196 N 
ATOM      2  C2  IND d   1       1.340   5.155  -5.529  0.00  0.00     0.054 A 
ATOM      3  C3  IND d   1       2.309   5.999  -5.950  0.00  0.00    -0.031 A 
ATOM      4  C4  IND d   1       4.826   5.999  -5.407  0.00  0.00     0.051 A 
ATOM      5  C5  IND d   1       5.759   5.378  -4.625  0.00  0.00    -0.031 A 
ATOM      6  C6  IND d   1       5.432   4.323  -3.798  0.00  0.00     0.015 A 
ATOM      7  C7  IND d   1       4.156   3.840  -3.730  0.00  0.00    -0.016 A 
ATOM      8  C8  IND d   1       3.204   4.473  -4.517  0.00  0.00    -0.047 A 
ATOM      9  C9  IND d   1       3.521   5.571  -5.326  0.00  0.00    -0.096 A 
ATOM     10  HN1 IND d   1       1.407   3.624  -4.253  0.00  0.00     0.298 HD
ENDROOT
TORSDOF 0
ENDMDL
