MODEL 1
REMARK minimizedAffinity 7.61131859
REMARK minimizedRMSD -1
REMARK  0 active torsions:
REMARK  status: ('A' for Active; 'I' for Inactive)
ROOT
ATOM      1  N1  IND d   1       0.815   0.187   2.082  0.00  0.00    -0.196 N 
ATOM      2  C2  IND d   1       0.045  -0.753   1.454  0.00  0.00     0.054 A 
ATOM      3  C3  IND d   1      -0.083  -0.455   0.141  0.00  0.00    -0.031 A 
ATOM      4  C4  IND d   1       0.967   1.469  -1.210  0.00  0.00     0.051 A 
ATOM      5  C5  IND d   1       1.717   2.602  -1.066  0.00  0.00    -0.031 A 
ATOM      6  C6  IND d   1       2.216   2.995   0.159  0.00  0.00     0.015 A 
ATOM      7  C7  IND d   1       1.994   2.259   1.289  0.00  0.00    -0.016 A 
ATOM      8  C8  IND d   1       1.227   1.111   1.147  0.00  0.00    -0.047 A 
ATOM      9  C9  IND d   1       0.681   0.731  -0.085  0.00  0.00    -0.096 A 
ATOM     10  HN1 IND d   1       1.008   0.198   2.919  0.00  0.00     0.298 HD
ENDROOT
TORSDOF 0
ENDMDL
