MODEL 1
REMARK minimizedAffinity -0.569729924
REMARK minimizedRMSD -1
REMARK  0 active torsions:
REMARK  status: ('A' for Active; 'I' for Inactive)
ROOT
ATOM      1  N1  IND d   1      -1.699   5.942  -2.534  0.00  0.00    -0.196 N 
ATOM      2  C2  IND d   1      -2.972   5.953  -3.032  0.00  0.00     0.054 A 
ATOM      3  C3  IND d   1      -2.948   5.999  -4.383  0.00  0.00    -0.031 A 
ATOM      4  C4  IND d   1      -0.934   5.959  -5.986  0.00  0.00     0.051 A 
ATOM      5  C5  IND d   1       0.432   5.987  -6.000  0.00  0.00    -0.031 A 
ATOM      6  C6  IND d   1       1.173   6.000  -4.835  0.00  0.00     0.015 A 
ATOM      7  C7  IND d   1       0.572   5.973  -3.609  0.00  0.00    -0.016 A 
ATOM      8  C8  IND d   1      -0.815   5.951  -3.591  0.00  0.00    -0.047 A 
ATOM      9  C9  IND d   1      -1.573   5.981  -4.768  0.00  0.00    -0.096 A 
ATOM     10  HN1 IND d   1      -1.486   5.932  -1.701  0.00  0.00     0.298 HD
ENDROOT
TORSDOF 0
ENDMDL
