MODEL 1
REMARK minimizedAffinity -1.05129111
REMARK minimizedRMSD -1
REMARK  0 active torsions:
REMARK  status: ('A' for Active; 'I' for Inactive)
ROOT
ATOM      1  N1  IND d   1      -2.928   5.250  -1.271  0.00  0.00    -0.196 N 
ATOM      2  C2  IND d   1      -1.756   4.886  -0.670  0.00  0.00     0.054 A 
ATOM      3  C3  IND d   1      -0.753   4.851  -1.576  0.00  0.00    -0.031 A 
ATOM      4  C4  IND d   1      -0.788   5.454  -4.078  0.00  0.00     0.051 A 
ATOM      5  C5  IND d   1      -1.637   5.807  -5.089  0.00  0.00    -0.031 A 
ATOM      6  C6  IND d   1      -2.986   6.000  -4.875  0.00  0.00     0.015 A 
ATOM      7  C7  IND d   1      -3.538   5.856  -3.633  0.00  0.00    -0.016 A 
ATOM      8  C8  IND d   1      -2.680   5.491  -2.605  0.00  0.00    -0.047 A 
ATOM      9  C9  IND d   1      -1.317   5.252  -2.825  0.00  0.00    -0.096 A 
ATOM     10  HN1 IND d   1      -3.691   5.318  -0.882  0.00  0.00     0.298 HD
ENDROOT
TORSDOF 0
ENDMDL
