MODEL 1
REMARK minimizedAffinity 6.71714973
REMARK minimizedRMSD -1
REMARK  0 active torsions:
REMARK  status: ('A' for Active; 'I' for Inactive)
ROOT
ATOM      1  N1  IND d   1       0.014  -0.491   1.517  0.00  0.00    -0.196 N 
ATOM      2  C2  IND d   1      -0.576  -1.003   0.396  0.00  0.00     0.054 A 
ATOM      3  C3  IND d   1      -0.524  -0.106  -0.614  0.00  0.00    -0.031 A 
ATOM      4  C4  IND d   1       0.573   2.222  -0.679  0.00  0.00     0.051 A 
ATOM      5  C5  IND d   1       1.204   3.138   0.115  0.00  0.00    -0.031 A 
ATOM      6  C6  IND d   1       1.479   2.885   1.443  0.00  0.00     0.015 A 
ATOM      7  C7  IND d   1       1.142   1.696   2.026  0.00  0.00    -0.016 A 
ATOM      8  C8  IND d   1       0.494   0.767   1.225  0.00  0.00    -0.047 A 
ATOM      9  C9  IND d   1       0.174   1.035  -0.112  0.00  0.00    -0.096 A 
ATOM     10  HN1 IND d   1       0.076  -0.888   2.278  0.00  0.00     0.298 HD
ENDROOT
TORSDOF 0
ENDMDL
