MODEL 1
REMARK minimizedAffinity -1.01444638
REMARK minimizedRMSD -1
REMARK  0 active torsions:
REMARK  status: ('A' for Active; 'I' for Inactive)
ROOT
ATOM      1  N1  IND d   1       0.399   5.922  -5.993  0.00  0.00    -0.196 N 
ATOM      2  C2  IND d   1       1.681   5.922  -5.518  0.00  0.00     0.054 A 
ATOM      3  C3  IND d   1       1.681   5.966  -4.167  0.00  0.00    -0.031 A 
ATOM      4  C4  IND d   1      -0.305   5.940  -2.529  0.00  0.00     0.051 A 
ATOM      5  C5  IND d   1      -1.670   5.980  -2.491  0.00  0.00    -0.031 A 
ATOM      6  C6  IND d   1      -2.431   6.000  -3.642  0.00  0.00     0.015 A 
ATOM      7  C7  IND d   1      -1.853   5.969  -4.879  0.00  0.00    -0.016 A 
ATOM      8  C8  IND d   1      -0.466   5.936  -4.921  0.00  0.00    -0.047 A 
ATOM      9  C9  IND d   1       0.313   5.959  -3.757  0.00  0.00    -0.096 A 
ATOM     10  HN1 IND d   1       0.172   5.914  -6.822  0.00  0.00     0.298 HD
ENDROOT
TORSDOF 0
ENDMDL
