MODEL 1
REMARK minimizedAffinity 13.6541653
REMARK minimizedRMSD -1
REMARK  0 active torsions:
REMARK  status: ('A' for Active; 'I' for Inactive)
ROOT
ATOM      1  C   UNL d   1       1.937   3.422   1.300  0.00  0.00     0.124 A 
ATOM      2  C1  UNL d   1       0.675   2.938   1.614  0.00  0.00     0.062 A 
ATOM      3  C2  UNL d   1      -0.408   3.219   0.786  0.00  0.00     0.162 A 
ATOM      4  C3  UNL d   1      -0.234   3.988  -0.364  0.00  0.00    -0.034 A 
ATOM      5  C4  UNL d   1       1.038   4.473  -0.673  0.00  0.00     0.162 A 
ATOM      6  C5  UNL d   1       2.118   4.189   0.158  0.00  0.00     0.062 A 
ATOM      7  F   UNL d   1       3.337   4.658  -0.147  0.00  0.00    -0.097 F 
ATOM      8  F1  UNL d   1       1.242   5.215  -1.771  0.00  0.00    -0.096 F 
ATOM      9  I   UNL d   1      -1.851   4.411  -1.604  0.00  0.00    -0.060 I 
ATOM     10  F2  UNL d   1      -1.617   2.738   1.114  0.00  0.00    -0.096 F 
ATOM     11  F3  UNL d   1       0.497   2.197   2.717  0.00  0.00    -0.097 F 
ATOM     12  F4  UNL d   1       2.977   3.151   2.099  0.00  0.00    -0.092 F 
ENDROOT
TORSDOF 0
ENDMDL
