MODEL 1
REMARK minimizedAffinity 18.8677711
REMARK minimizedRMSD -1
REMARK  0 active torsions:
REMARK  status: ('A' for Active; 'I' for Inactive)
ROOT
ATOM      1  C   UNL d   1       0.929  -1.721  -0.622  0.00  0.00     0.124 A 
ATOM      2  C1  UNL d   1       2.285  -1.877  -0.369  0.00  0.00     0.062 A 
ATOM      3  C2  UNL d   1       2.907  -3.097  -0.614  0.00  0.00     0.162 A 
ATOM      4  C3  UNL d   1       2.174  -4.173  -1.116  0.00  0.00    -0.034 A 
ATOM      5  C4  UNL d   1       0.810  -4.009  -1.366  0.00  0.00     0.162 A 
ATOM      6  C5  UNL d   1       0.193  -2.787  -1.120  0.00  0.00     0.062 A 
ATOM      7  F   UNL d   1      -1.117  -2.638  -1.364  0.00  0.00    -0.097 F 
ATOM      8  F1  UNL d   1       0.076  -5.022  -1.849  0.00  0.00    -0.096 F 
ATOM      9  I   UNL d   1       3.100  -6.000  -1.483  0.00  0.00    -0.060 I 
ATOM     10  F2  UNL d   1       4.219  -3.219  -0.361  0.00  0.00    -0.096 F 
ATOM     11  F3  UNL d   1       2.998  -0.849   0.113  0.00  0.00    -0.097 F 
ATOM     12  F4  UNL d   1       0.333  -0.546  -0.384  0.00  0.00    -0.092 F 
ENDROOT
TORSDOF 0
ENDMDL
