MODEL 1
REMARK minimizedAffinity 21.5697765
REMARK minimizedRMSD -1
REMARK  0 active torsions:
REMARK  status: ('A' for Active; 'I' for Inactive)
ROOT
ATOM      1  C   UNL d   1      -0.034   3.898  -1.991  0.00  0.00     0.124 A 
ATOM      2  C1  UNL d   1       0.352   3.730  -0.668  0.00  0.00     0.062 A 
ATOM      3  C2  UNL d   1      -0.378   4.329   0.354  0.00  0.00     0.162 A 
ATOM      4  C3  UNL d   1      -1.503   5.100   0.058  0.00  0.00    -0.034 A 
ATOM      5  C4  UNL d   1      -1.883   5.265  -1.275  0.00  0.00     0.162 A 
ATOM      6  C5  UNL d   1      -1.150   4.664  -2.293  0.00  0.00     0.062 A 
ATOM      7  F   UNL d   1      -1.524   4.827  -3.571  0.00  0.00    -0.097 F 
ATOM      8  F1  UNL d   1      -2.959   5.999  -1.595  0.00  0.00    -0.096 F 
ATOM      9  I   UNL d   1      -2.597   5.997   1.585  0.00  0.00    -0.060 I 
ATOM     10  F2  UNL d   1       0.017   4.150   1.624  0.00  0.00    -0.096 F 
ATOM     11  F3  UNL d   1       1.431   2.991  -0.374  0.00  0.00    -0.097 F 
ATOM     12  F4  UNL d   1       0.671   3.321  -2.973  0.00  0.00    -0.092 F 
ENDROOT
TORSDOF 0
ENDMDL
