MODEL 1
REMARK minimizedAffinity 4.29277134
REMARK minimizedRMSD -1
REMARK  0 active torsions:
REMARK  status: ('A' for Active; 'I' for Inactive)
ROOT
ATOM      1  C   UNL d   1       1.525   3.424   1.628  0.00  0.00     0.124 A 
ATOM      2  C1  UNL d   1       1.758   4.116   0.448  0.00  0.00     0.062 A 
ATOM      3  C2  UNL d   1       0.733   4.285  -0.478  0.00  0.00     0.162 A 
ATOM      4  C3  UNL d   1      -0.535   3.761  -0.228  0.00  0.00    -0.034 A 
ATOM      5  C4  UNL d   1      -0.761   3.064   0.960  0.00  0.00     0.162 A 
ATOM      6  C5  UNL d   1       0.266   2.898   1.883  0.00  0.00     0.062 A 
ATOM      7  F   UNL d   1       0.040   2.229   3.023  0.00  0.00    -0.097 F 
ATOM      8  F1  UNL d   1      -1.968   2.547   1.233  0.00  0.00    -0.096 F 
ATOM      9  I   UNL d   1      -2.070   4.011  -1.611  0.00  0.00    -0.060 I 
ATOM     10  F2  UNL d   1       0.986   4.959  -1.610  0.00  0.00    -0.096 F 
ATOM     11  F3  UNL d   1       2.974   4.624   0.199  0.00  0.00    -0.097 F 
ATOM     12  F4  UNL d   1       2.514   3.262   2.517  0.00  0.00    -0.092 F 
ENDROOT
TORSDOF 0
ENDMDL
