MODEL 1
REMARK minimizedAffinity 10.12428
REMARK minimizedRMSD -1
REMARK  0 active torsions:
REMARK  status: ('A' for Active; 'I' for Inactive)
ROOT
ATOM      1  C   UNL d   1      -0.881   5.072  -2.005  0.00  0.00     0.124 A 
ATOM      2  C1  UNL d   1       0.492   5.072  -1.795  0.00  0.00     0.062 A 
ATOM      3  C2  UNL d   1       1.041   4.327  -0.757  0.00  0.00     0.162 A 
ATOM      4  C3  UNL d   1       0.219   3.573   0.081  0.00  0.00    -0.034 A 
ATOM      5  C4  UNL d   1      -1.160   3.579  -0.135  0.00  0.00     0.162 A 
ATOM      6  C5  UNL d   1      -1.705   4.326  -1.175  0.00  0.00     0.062 A 
ATOM      7  F   UNL d   1      -3.031   4.324  -1.375  0.00  0.00    -0.097 F 
ATOM      8  F1  UNL d   1      -1.980   2.865   0.651  0.00  0.00    -0.096 F 
ATOM      9  I   UNL d   1       1.037   2.457   1.635  0.00  0.00    -0.060 I 
ATOM     10  F2  UNL d   1       2.371   4.345  -0.578  0.00  0.00    -0.096 F 
ATOM     11  F3  UNL d   1       1.290   5.794  -2.595  0.00  0.00    -0.097 F 
ATOM     12  F4  UNL d   1      -1.407   5.791  -3.004  0.00  0.00    -0.092 F 
ENDROOT
TORSDOF 0
ENDMDL
