MODEL 1
REMARK minimizedAffinity 7.43264198
REMARK minimizedRMSD -1
REMARK  0 active torsions:
REMARK  status: ('A' for Active; 'I' for Inactive)
ROOT
ATOM      1  C   UNL d   1       1.658  -2.528  -0.316  0.00  0.00     0.124 A 
ATOM      2  C1  UNL d   1       3.017  -2.338  -0.108  0.00  0.00     0.062 A 
ATOM      3  C2  UNL d   1       3.926  -3.328  -0.471  0.00  0.00     0.162 A 
ATOM      4  C3  UNL d   1       3.479  -4.517  -1.047  0.00  0.00    -0.034 A 
ATOM      5  C4  UNL d   1       2.110  -4.701  -1.252  0.00  0.00     0.162 A 
ATOM      6  C5  UNL d   1       1.206  -3.709  -0.887  0.00  0.00     0.062 A 
ATOM      7  F   UNL d   1      -0.107  -3.894  -1.089  0.00  0.00    -0.097 F 
ATOM      8  F1  UNL d   1       1.646  -5.832  -1.803  0.00  0.00    -0.096 F 
ATOM      9  I   UNL d   1       4.834  -6.000  -1.591  0.00  0.00    -0.060 I 
ATOM     10  F2  UNL d   1       5.234  -3.117  -0.259  0.00  0.00    -0.096 F 
ATOM     11  F3  UNL d   1       3.457  -1.198   0.444  0.00  0.00    -0.097 F 
ATOM     12  F4  UNL d   1       0.786  -1.574   0.035  0.00  0.00    -0.092 F 
ENDROOT
TORSDOF 0
ENDMDL
