MODEL 1
REMARK minimizedAffinity 11.7528267
REMARK minimizedRMSD -1
REMARK  0 active torsions:
REMARK  status: ('A' for Active; 'I' for Inactive)
ROOT
ATOM      1  C   UNL d   1      -0.461   4.812  -0.494  0.00  0.00     0.124 A 
ATOM      2  C1  UNL d   1      -1.368   4.738  -1.541  0.00  0.00     0.062 A 
ATOM      3  C2  UNL d   1      -1.692   3.506  -2.101  0.00  0.00     0.162 A 
ATOM      4  C3  UNL d   1      -1.109   2.336  -1.613  0.00  0.00    -0.034 A 
ATOM      5  C4  UNL d   1      -0.197   2.419  -0.560  0.00  0.00     0.162 A 
ATOM      6  C5  UNL d   1       0.124   3.653  -0.004  0.00  0.00     0.062 A 
ATOM      7  F   UNL d   1       1.001   3.722   1.008  0.00  0.00    -0.097 F 
ATOM      8  F1  UNL d   1       0.382   1.314  -0.066  0.00  0.00    -0.096 F 
ATOM      9  I   UNL d   1      -1.592   0.491  -2.447  0.00  0.00    -0.060 I 
ATOM     10  F2  UNL d   1      -2.573   3.464  -3.112  0.00  0.00    -0.096 F 
ATOM     11  F3  UNL d   1      -1.934   5.857  -2.017  0.00  0.00    -0.097 F 
ATOM     12  F4  UNL d   1      -0.150   6.000   0.042  0.00  0.00    -0.092 F 
ENDROOT
TORSDOF 0
ENDMDL
