MODEL 1
REMARK minimizedAffinity 23.6704159
REMARK minimizedRMSD -1
REMARK  0 active torsions:
REMARK  status: ('A' for Active; 'I' for Inactive)
ROOT
ATOM      1  C   UNL d   1       1.353   3.828   2.716  0.00  0.00     0.124 A 
ATOM      2  C1  UNL d   1       1.685   4.848   1.834  0.00  0.00     0.062 A 
ATOM      3  C2  UNL d   1       1.113   4.890   0.566  0.00  0.00     0.162 A 
ATOM      4  C3  UNL d   1       0.202   3.910   0.172  0.00  0.00    -0.034 A 
ATOM      5  C4  UNL d   1      -0.126   2.888   1.063  0.00  0.00     0.162 A 
ATOM      6  C5  UNL d   1       0.448   2.849   2.330  0.00  0.00     0.062 A 
ATOM      7  F   UNL d   1       0.127   1.864   3.180  0.00  0.00    -0.097 F 
ATOM      8  F1  UNL d   1      -0.998   1.930   0.716  0.00  0.00    -0.096 F 
ATOM      9  I   UNL d   1      -0.655   3.971  -1.724  0.00  0.00    -0.060 I 
ATOM     10  F2  UNL d   1       1.452   5.887  -0.265  0.00  0.00    -0.096 F 
ATOM     11  F3  UNL d   1       2.560   5.794   2.205  0.00  0.00    -0.097 F 
ATOM     12  F4  UNL d   1       1.906   3.789   3.935  0.00  0.00    -0.092 F 
ENDROOT
TORSDOF 0
ENDMDL
