MODEL 1
REMARK minimizedAffinity 18.0715523
REMARK minimizedRMSD -1
REMARK  0 active torsions:
REMARK  status: ('A' for Active; 'I' for Inactive)
ROOT
ATOM      1  C   UNL d   1       4.335  -2.789  -0.517  0.00  0.00     0.124 A 
ATOM      2  C1  UNL d   1       2.994  -2.540  -0.257  0.00  0.00     0.062 A 
ATOM      3  C2  UNL d   1       2.023  -3.455  -0.651  0.00  0.00     0.162 A 
ATOM      4  C3  UNL d   1       2.388  -4.629  -1.310  0.00  0.00    -0.034 A 
ATOM      5  C4  UNL d   1       3.738  -4.872  -1.569  0.00  0.00     0.162 A 
ATOM      6  C5  UNL d   1       4.705  -3.954  -1.173  0.00  0.00     0.062 A 
ATOM      7  F   UNL d   1       6.000  -4.197  -1.425  0.00  0.00    -0.097 F 
ATOM      8  F1  UNL d   1       4.123  -5.991  -2.201  0.00  0.00    -0.096 F 
ATOM      9  I   UNL d   1       0.938  -5.999  -1.902  0.00  0.00    -0.060 I 
ATOM     10  F2  UNL d   1       0.735  -3.188  -0.386  0.00  0.00    -0.096 F 
ATOM     11  F3  UNL d   1       2.634  -1.414   0.376  0.00  0.00    -0.097 F 
ATOM     12  F4  UNL d   1       5.268  -1.906  -0.137  0.00  0.00    -0.092 F 
ENDROOT
TORSDOF 0
ENDMDL
