MODEL 1
REMARK minimizedAffinity 7.29952002
REMARK minimizedRMSD -1
REMARK  0 active torsions:
REMARK  status: ('A' for Active; 'I' for Inactive)
ROOT
ATOM      1  N1  IND d   1       1.030   2.916   0.150  0.00  0.00    -0.196 N 
ATOM      2  C2  IND d   1       2.298   2.458   0.375  0.00  0.00     0.054 A 
ATOM      3  C3  IND d   1       2.360   1.803   1.556  0.00  0.00    -0.031 A 
ATOM      4  C4  IND d   1       0.479   1.273   3.232  0.00  0.00     0.051 A 
ATOM      5  C5  IND d   1      -0.844   1.515   3.479  0.00  0.00    -0.031 A 
ATOM      6  C6  IND d   1      -1.626   2.248   2.610  0.00  0.00     0.015 A 
ATOM      7  C7  IND d   1      -1.115   2.760   1.451  0.00  0.00    -0.016 A 
ATOM      8  C8  IND d   1       0.230   2.523   1.200  0.00  0.00    -0.047 A 
ATOM      9  C9  IND d   1       1.038   1.815   2.099  0.00  0.00    -0.096 A 
ATOM     10  HN1 IND d   1       0.775   3.372  -0.532  0.00  0.00     0.298 HD
ENDROOT
TORSDOF 0
ENDMDL
