MODEL 1
REMARK minimizedAffinity 13.7378111
REMARK minimizedRMSD -1
REMARK  0 active torsions:
REMARK  status: ('A' for Active; 'I' for Inactive)
ROOT
ATOM      1  N1  IND d   1      -4.380   1.508  -3.982  0.00  0.00    -0.196 N 
ATOM      2  C2  IND d   1      -5.313   2.488  -4.180  0.00  0.00     0.054 A 
ATOM      3  C3  IND d   1      -6.000   2.722  -3.039  0.00  0.00    -0.031 A 
ATOM      4  C4  IND d   1      -5.691   1.685  -0.703  0.00  0.00     0.051 A 
ATOM      5  C5  IND d   1      -4.990   0.719  -0.037  0.00  0.00    -0.031 A 
ATOM      6  C6  IND d   1      -4.028  -0.046  -0.664  0.00  0.00     0.015 A 
ATOM      7  C7  IND d   1      -3.722   0.134  -1.983  0.00  0.00    -0.016 A 
ATOM      8  C8  IND d   1      -4.438   1.109  -2.664  0.00  0.00    -0.047 A 
ATOM      9  C9  IND d   1      -5.445   1.859  -2.044  0.00  0.00    -0.096 A 
ATOM     10  HN1 IND d   1      -3.848   1.194  -4.579  0.00  0.00     0.298 HD
ENDROOT
TORSDOF 0
ENDMDL
