MODEL 1
REMARK minimizedAffinity 6.03391552
REMARK minimizedRMSD -1
REMARK  0 active torsions:
REMARK  status: ('A' for Active; 'I' for Inactive)
ROOT
ATOM      1  N1  IND d   1       5.203  -1.849   2.438  0.00  0.00    -0.196 N 
ATOM      2  C2  IND d   1       5.823  -0.633   2.354  0.00  0.00     0.054 A 
ATOM      3  C3  IND d   1       5.189   0.157   1.459  0.00  0.00    -0.031 A 
ATOM      4  C4  IND d   1       3.055  -0.302   0.095  0.00  0.00     0.051 A 
ATOM      5  C5  IND d   1       2.151  -1.287  -0.193  0.00  0.00    -0.031 A 
ATOM      6  C6  IND d   1       2.218  -2.533   0.396  0.00  0.00     0.015 A 
ATOM      7  C7  IND d   1       3.190  -2.839   1.307  0.00  0.00    -0.016 A 
ATOM      8  C8  IND d   1       4.113  -1.844   1.596  0.00  0.00    -0.047 A 
ATOM      9  C9  IND d   1       4.075  -0.592   0.970  0.00  0.00    -0.096 A 
ATOM     10  HN1 IND d   1       5.452  -2.506   2.934  0.00  0.00     0.298 HD
ENDROOT
TORSDOF 0
ENDMDL
