MODEL 1
REMARK minimizedAffinity -1.3779875
REMARK minimizedRMSD -1
REMARK  0 active torsions:
REMARK  status: ('A' for Active; 'I' for Inactive)
ROOT
ATOM      1  N1  IND d   1      -0.015   1.480  -0.556  0.00  0.00    -0.196 N 
ATOM      2  C2  IND d   1       0.887   2.070   0.285  0.00  0.00     0.054 A 
ATOM      3  C3  IND d   1       1.702   1.138   0.829  0.00  0.00    -0.031 A 
ATOM      4  C4  IND d   1       1.800  -1.398   0.403  0.00  0.00     0.051 A 
ATOM      5  C5  IND d   1       1.154  -2.406  -0.257  0.00  0.00    -0.031 A 
ATOM      6  C6  IND d   1       0.065  -2.164  -1.069  0.00  0.00     0.015 A 
ATOM      7  C7  IND d   1      -0.414  -0.899  -1.261  0.00  0.00    -0.016 A 
ATOM      8  C8  IND d   1       0.236   0.126  -0.587  0.00  0.00    -0.047 A 
ATOM      9  C9  IND d   1       1.315  -0.119   0.272  0.00  0.00    -0.096 A 
ATOM     10  HN1 IND d   1      -0.634   1.887  -0.992  0.00  0.00     0.298 HD
ENDROOT
TORSDOF 0
ENDMDL
