MODEL 1
REMARK minimizedAffinity 0.00998537615
REMARK minimizedRMSD -1
REMARK  0 active torsions:
REMARK  status: ('A' for Active; 'I' for Inactive)
ROOT
ATOM      1  N1  IND d   1       1.370  -1.021  -1.050  0.00  0.00    -0.196 N 
ATOM      2  C2  IND d   1       2.229  -1.409  -0.060  0.00  0.00     0.054 A 
ATOM      3  C3  IND d   1       1.927  -2.657   0.363  0.00  0.00    -0.031 A 
ATOM      4  C4  IND d   1       0.128  -4.284  -0.498  0.00  0.00     0.051 A 
ATOM      5  C5  IND d   1      -0.924  -4.366  -1.367  0.00  0.00    -0.031 A 
ATOM      6  C6  IND d   1      -1.270  -3.316  -2.193  0.00  0.00     0.015 A 
ATOM      7  C7  IND d   1      -0.567  -2.145  -2.189  0.00  0.00    -0.016 A 
ATOM      8  C8  IND d   1       0.497  -2.056  -1.303  0.00  0.00    -0.047 A 
ATOM      9  C9  IND d   1       0.827  -3.102  -0.432  0.00  0.00    -0.096 A 
ATOM     10  HN1 IND d   1       1.374  -0.258  -1.447  0.00  0.00     0.298 HD
ENDROOT
TORSDOF 0
ENDMDL
