MODEL 1
REMARK minimizedAffinity 6.55057383
REMARK minimizedRMSD -1
REMARK  0 active torsions:
REMARK  status: ('A' for Active; 'I' for Inactive)
ROOT
ATOM      1  N1  IND d   1      -0.684   1.530   3.551  0.00  0.00    -0.196 N 
ATOM      2  C2  IND d   1      -1.977   1.671   3.129  0.00  0.00     0.054 A 
ATOM      3  C3  IND d   1      -2.011   2.018   1.823  0.00  0.00    -0.031 A 
ATOM      4  C4  IND d   1      -0.070   2.309   0.157  0.00  0.00     0.051 A 
ATOM      5  C5  IND d   1       1.294   2.320   0.085  0.00  0.00    -0.031 A 
ATOM      6  C6  IND d   1       2.085   2.060   1.185  0.00  0.00     0.015 A 
ATOM      7  C7  IND d   1       1.538   1.767   2.402  0.00  0.00    -0.016 A 
ATOM      8  C8  IND d   1       0.153   1.762   2.481  0.00  0.00    -0.047 A 
ATOM      9  C9  IND d   1      -0.655   2.067   1.378  0.00  0.00    -0.096 A 
ATOM     10  HN1 IND d   1      -0.436   1.329   4.349  0.00  0.00     0.298 HD
ENDROOT
TORSDOF 0
ENDMDL
