MODEL 1
REMARK minimizedAffinity -1.47053337
REMARK minimizedRMSD -1
REMARK  0 active torsions:
REMARK  status: ('A' for Active; 'I' for Inactive)
ROOT
ATOM      1  N1  IND d   1       1.576   0.656  -0.377  0.00  0.00    -0.196 N 
ATOM      2  C2  IND d   1       0.587   1.559  -0.650  0.00  0.00     0.054 A 
ATOM      3  C3  IND d   1      -0.470   0.940  -1.222  0.00  0.00    -0.031 A 
ATOM      4  C4  IND d   1      -0.832  -1.562  -1.711  0.00  0.00     0.051 A 
ATOM      5  C5  IND d   1      -0.195  -2.770  -1.670  0.00  0.00    -0.031 A 
ATOM      6  C6  IND d   1       1.090  -2.902  -1.185  0.00  0.00     0.015 A 
ATOM      7  C7  IND d   1       1.784  -1.826  -0.708  0.00  0.00    -0.016 A 
ATOM      8  C8  IND d   1       1.144  -0.596  -0.754  0.00  0.00    -0.047 A 
ATOM      9  C9  IND d   1      -0.144  -0.450  -1.285  0.00  0.00    -0.096 A 
ATOM     10  HN1 IND d   1       2.341   0.840  -0.028  0.00  0.00     0.298 HD
ENDROOT
TORSDOF 0
ENDMDL
