MODEL 1
REMARK minimizedAffinity 4.45665693
REMARK minimizedRMSD -1
REMARK  0 active torsions:
REMARK  status: ('A' for Active; 'I' for Inactive)
ROOT
ATOM      1  N1  IND d   1      -4.148   1.743   2.841  0.00  0.00    -0.196 N 
ATOM      2  C2  IND d   1      -4.268   1.213   1.586  0.00  0.00     0.054 A 
ATOM      3  C3  IND d   1      -3.110   1.357   0.903  0.00  0.00    -0.031 A 
ATOM      4  C4  IND d   1      -0.861   2.337   1.683  0.00  0.00     0.051 A 
ATOM      5  C5  IND d   1      -0.273   2.979   2.737  0.00  0.00    -0.031 A 
ATOM      6  C6  IND d   1      -0.960   3.244   3.904  0.00  0.00     0.015 A 
ATOM      7  C7  IND d   1      -2.263   2.866   4.065  0.00  0.00    -0.016 A 
ATOM      8  C8  IND d   1      -2.865   2.220   2.995  0.00  0.00    -0.047 A 
ATOM      9  C9  IND d   1      -2.186   1.986   1.792  0.00  0.00    -0.096 A 
ATOM     10  HN1 IND d   1      -4.770   1.772   3.434  0.00  0.00     0.298 HD
ENDROOT
TORSDOF 0
ENDMDL
