MODEL 1
REMARK minimizedAffinity -2.96695924
REMARK minimizedRMSD -1
REMARK  1 active torsions:
REMARK  status: ('A' for Active; 'I' for Inactive)
REMARK    1  A    between atoms: N_2  and  C1_3 
ROOT
ATOM      1  C1  UNL d   1      -1.009  -0.604   0.926  0.00  0.00     0.143 A 
ATOM      2  C2  UNL d   1      -2.150   0.006   0.393  0.00  0.00    -0.057 A 
ATOM      3  C3  UNL d   1      -2.088   0.753  -0.790  0.00  0.00     0.033 A 
ATOM      4  C4  UNL d   1      -0.875   0.928  -1.447  0.00  0.00    -0.042 A 
ATOM      5  C5  UNL d   1       0.276   0.352  -0.922  0.00  0.00     0.033 A 
ATOM      6  C6  UNL d   1       0.207  -0.399   0.256  0.00  0.00    -0.057 A 
ENDROOT
BRANCH   1   7
ATOM      7  N   UNL d   1      -0.987  -1.276   2.150  0.00  0.00    -0.732 N 
ATOM      8  C   UNL d   1      -1.037  -0.541   3.396  0.00  0.00     0.284 C 
ATOM      9  H3  UNL d   1      -1.557  -2.118   2.141  0.00  0.00     0.395 HD
ENDBRANCH   1   7
TORSDOF 1
ENDMDL
