MODEL 1
REMARK minimizedAffinity -4.04745293
REMARK minimizedRMSD -1
REMARK  1 active torsions:
REMARK  status: ('A' for Active; 'I' for Inactive)
REMARK    1  A    between atoms: N_2  and  C1_3 
ROOT
ATOM      1  C1  UNL d   1       0.086  -0.005   0.486  0.00  0.00     0.143 A 
ATOM      2  C2  UNL d   1      -0.542  -1.252   0.570  0.00  0.00    -0.057 A 
ATOM      3  C3  UNL d   1      -1.111  -1.700   1.768  0.00  0.00     0.033 A 
ATOM      4  C4  UNL d   1      -1.036  -0.917   2.916  0.00  0.00    -0.042 A 
ATOM      5  C5  UNL d   1      -0.395   0.315   2.862  0.00  0.00     0.033 A 
ATOM      6  C6  UNL d   1       0.166   0.760   1.661  0.00  0.00    -0.057 A 
ENDROOT
BRANCH   1   7
ATOM      7  N   UNL d   1       0.757   0.453  -0.650  0.00  0.00    -0.732 N 
ATOM      8  C   UNL d   1       0.333   0.044  -1.972  0.00  0.00     0.284 C 
ATOM      9  H3  UNL d   1       1.011   1.436  -0.581  0.00  0.00     0.395 HD
ENDBRANCH   1   7
TORSDOF 1
ENDMDL
