MODEL 1
REMARK minimizedAffinity -2.87306404
REMARK minimizedRMSD -1
REMARK  1 active torsions:
REMARK  status: ('A' for Active; 'I' for Inactive)
REMARK    1  A    between atoms: N_2  and  C1_3 
ROOT
ATOM      1  C1  UNL d   1       0.338  -0.420   0.295  0.00  0.00     0.143 A 
ATOM      2  C2  UNL d   1      -1.010  -0.406   0.668  0.00  0.00    -0.057 A 
ATOM      3  C3  UNL d   1      -1.391  -0.407   2.015  0.00  0.00     0.033 A 
ATOM      4  C4  UNL d   1      -0.426  -0.453   3.017  0.00  0.00    -0.042 A 
ATOM      5  C5  UNL d   1       0.919  -0.492   2.669  0.00  0.00     0.033 A 
ATOM      6  C6  UNL d   1       1.293  -0.484   1.322  0.00  0.00    -0.057 A 
ENDROOT
BRANCH   1   7
ATOM      7  N   UNL d   1       0.778  -0.518  -1.027  0.00  0.00    -0.732 N 
ATOM      8  C   UNL d   1       0.077   0.169  -2.091  0.00  0.00     0.284 C 
ATOM      9  H3  UNL d   1       1.792  -0.478  -1.103  0.00  0.00     0.395 HD
ENDBRANCH   1   7
TORSDOF 1
ENDMDL
