MODEL 1
REMARK minimizedAffinity -3.86930299
REMARK minimizedRMSD -1
REMARK  1 active torsions:
REMARK  status: ('A' for Active; 'I' for Inactive)
REMARK    1  A    between atoms: N_2  and  C1_3 
ROOT
ATOM      1  C1  UNL d   1       0.081  -0.116  -0.210  0.00  0.00     0.143 A 
ATOM      2  C2  UNL d   1       1.161   0.180   0.628  0.00  0.00    -0.057 A 
ATOM      3  C3  UNL d   1       1.074   0.007   2.014  0.00  0.00     0.033 A 
ATOM      4  C4  UNL d   1      -0.110  -0.440   2.592  0.00  0.00    -0.042 A 
ATOM      5  C5  UNL d   1      -1.205  -0.717   1.781  0.00  0.00     0.033 A 
ATOM      6  C6  UNL d   1      -1.109  -0.548   0.396  0.00  0.00    -0.057 A 
ENDROOT
BRANCH   1   7
ATOM      7  N   UNL d   1       0.073   0.128  -1.586  0.00  0.00    -0.732 N 
ATOM      8  C   UNL d   1       0.846  -0.701  -2.486  0.00  0.00     0.284 C 
ATOM      9  H3  UNL d   1      -0.853   0.368  -1.932  0.00  0.00     0.395 HD
ENDBRANCH   1   7
TORSDOF 1
ENDMDL
