MODEL 1
REMARK minimizedAffinity -1.89136922
REMARK minimizedRMSD -1
REMARK  1 active torsions:
REMARK  status: ('A' for Active; 'I' for Inactive)
REMARK    1  A    between atoms: N_2  and  C1_3 
ROOT
ATOM      1  C1  UNL d   1       0.106   0.083  -0.477  0.00  0.00     0.143 A 
ATOM      2  C2  UNL d   1      -0.740  -0.714   0.302  0.00  0.00    -0.057 A 
ATOM      3  C3  UNL d   1      -0.685  -0.679   1.701  0.00  0.00     0.033 A 
ATOM      4  C4  UNL d   1       0.240   0.134   2.346  0.00  0.00    -0.042 A 
ATOM      5  C5  UNL d   1       1.108   0.916   1.592  0.00  0.00     0.033 A 
ATOM      6  C6  UNL d   1       1.043   0.882   0.196  0.00  0.00    -0.057 A 
ENDROOT
BRANCH   1   7
ATOM      7  N   UNL d   1       0.167   0.020  -1.871  0.00  0.00    -0.732 N 
ATOM      8  C   UNL d   1       0.814  -1.093  -2.532  0.00  0.00     0.284 C 
ATOM      9  H3  UNL d   1      -0.701   0.318  -2.312  0.00  0.00     0.395 HD
ENDBRANCH   1   7
TORSDOF 1
ENDMDL
