MODEL 1
REMARK minimizedAffinity -2.85141158
REMARK minimizedRMSD -1
REMARK  1 active torsions:
REMARK  status: ('A' for Active; 'I' for Inactive)
REMARK    1  A    between atoms: N_2  and  C1_3 
ROOT
ATOM      1  C1  UNL d   1       0.211  -0.097   0.566  0.00  0.00     0.143 A 
ATOM      2  C2  UNL d   1       0.598   0.762   1.600  0.00  0.00    -0.057 A 
ATOM      3  C3  UNL d   1       0.247   0.502   2.930  0.00  0.00     0.033 A 
ATOM      4  C4  UNL d   1      -0.525  -0.611   3.247  0.00  0.00    -0.042 A 
ATOM      5  C5  UNL d   1      -0.942  -1.465   2.232  0.00  0.00     0.033 A 
ATOM      6  C6  UNL d   1      -0.582  -1.203   0.907  0.00  0.00    -0.057 A 
ENDROOT
BRANCH   1   7
ATOM      7  N   UNL d   1       0.445   0.160  -0.787  0.00  0.00    -0.732 N 
ATOM      8  C   UNL d   1       0.816  -0.911  -1.687  0.00  0.00     0.284 C 
ATOM      9  H3  UNL d   1      -0.224   0.819  -1.179  0.00  0.00     0.395 HD
ENDBRANCH   1   7
TORSDOF 1
ENDMDL
