MODEL 1
REMARK minimizedAffinity -3.17485213
REMARK minimizedRMSD -1
REMARK  1 active torsions:
REMARK  status: ('A' for Active; 'I' for Inactive)
REMARK    1  A    between atoms: N_2  and  C1_3 
ROOT
ATOM      1  C1  UNL d   1      -0.126   0.299  -0.999  0.00  0.00     0.143 A 
ATOM      2  C2  UNL d   1      -1.231  -0.298  -0.383  0.00  0.00    -0.057 A 
ATOM      3  C3  UNL d   1      -1.256  -0.527   0.998  0.00  0.00     0.033 A 
ATOM      4  C4  UNL d   1      -0.161  -0.188   1.786  0.00  0.00    -0.042 A 
ATOM      5  C5  UNL d   1       0.958   0.384   1.191  0.00  0.00     0.033 A 
ATOM      6  C6  UNL d   1       0.974   0.617  -0.188  0.00  0.00    -0.057 A 
ENDROOT
BRANCH   1   7
ATOM      7  N   UNL d   1      -0.001   0.463  -2.381  0.00  0.00    -0.732 N 
ATOM      8  C   UNL d   1       1.166  -0.033  -3.079  0.00  0.00     0.284 C 
ATOM      9  H3  UNL d   1      -0.877   0.305  -2.872  0.00  0.00     0.395 HD
ENDBRANCH   1   7
TORSDOF 1
ENDMDL
