MODEL 1
REMARK minimizedAffinity -5.61236572
REMARK minimizedRMSD -1
REMARK  1 active torsions:
REMARK  status: ('A' for Active; 'I' for Inactive)
REMARK    1  A    between atoms: N_2  and  C1_3 
ROOT
ATOM      1  C1  UNL d   1      -0.109   0.043  -0.072  0.00  0.00     0.143 A 
ATOM      2  C2  UNL d   1      -1.210  -0.248   0.741  0.00  0.00    -0.057 A 
ATOM      3  C3  UNL d   1      -1.045  -0.607   2.085  0.00  0.00     0.033 A 
ATOM      4  C4  UNL d   1       0.230  -0.712   2.632  0.00  0.00    -0.042 A 
ATOM      5  C5  UNL d   1       1.339  -0.452   1.835  0.00  0.00     0.033 A 
ATOM      6  C6  UNL d   1       1.168  -0.087   0.496  0.00  0.00    -0.057 A 
ENDROOT
BRANCH   1   7
ATOM      7  N   UNL d   1      -0.202   0.310  -1.440  0.00  0.00    -0.732 N 
ATOM      8  C   UNL d   1       0.424  -0.566  -2.407  0.00  0.00     0.284 C 
ATOM      9  H3  UNL d   1      -1.128   0.634  -1.710  0.00  0.00     0.395 HD
ENDBRANCH   1   7
TORSDOF 1
ENDMDL
