MODEL 1
REMARK minimizedAffinity -3.65980411
REMARK minimizedRMSD -1
REMARK  1 active torsions:
REMARK  status: ('A' for Active; 'I' for Inactive)
REMARK    1  A    between atoms: N_2  and  C1_3 
ROOT
ATOM      1  C1  UNL d   1      -0.092  -0.057   0.299  0.00  0.00     0.143 A 
ATOM      2  C2  UNL d   1       0.764   0.585   1.200  0.00  0.00    -0.057 A 
ATOM      3  C3  UNL d   1       0.796   0.225   2.553  0.00  0.00     0.033 A 
ATOM      4  C4  UNL d   1      -0.050  -0.767   3.035  0.00  0.00    -0.042 A 
ATOM      5  C5  UNL d   1      -0.927  -1.402   2.162  0.00  0.00     0.033 A 
ATOM      6  C6  UNL d   1      -0.950  -1.043   0.811  0.00  0.00    -0.057 A 
ENDROOT
BRANCH   1   7
ATOM      7  N   UNL d   1      -0.241   0.323  -1.037  0.00  0.00    -0.732 N 
ATOM      8  C   UNL d   1       0.019  -0.619  -2.105  0.00  0.00     0.284 C 
ATOM      9  H3  UNL d   1      -1.063   0.904  -1.186  0.00  0.00     0.395 HD
ENDBRANCH   1   7
TORSDOF 1
ENDMDL
