MODEL 1
REMARK minimizedAffinity -5.22409439
REMARK minimizedRMSD -1
REMARK  1 active torsions:
REMARK  status: ('A' for Active; 'I' for Inactive)
REMARK    1  A    between atoms: N_2  and  C1_3 
ROOT
ATOM      1  C1  UNL d   1      -0.680  -0.118   0.618  0.00  0.00     0.143 A 
ATOM      2  C2  UNL d   1       0.218  -0.288   1.677  0.00  0.00    -0.057 A 
ATOM      3  C3  UNL d   1      -0.230  -0.390   2.999  0.00  0.00     0.033 A 
ATOM      4  C4  UNL d   1      -1.587  -0.295   3.289  0.00  0.00    -0.042 A 
ATOM      5  C5  UNL d   1      -2.496  -0.101   2.255  0.00  0.00     0.033 A 
ATOM      6  C6  UNL d   1      -2.042  -0.006   0.936  0.00  0.00    -0.057 A 
ENDROOT
BRANCH   1   7
ATOM      7  N   UNL d   1      -0.289   0.090  -0.708  0.00  0.00    -0.732 N 
ATOM      8  C   UNL d   1       0.704  -0.763  -1.325  0.00  0.00     0.284 C 
ATOM      9  H3  UNL d   1      -1.074   0.319  -1.313  0.00  0.00     0.395 HD
ENDBRANCH   1   7
TORSDOF 1
ENDMDL
