MODEL 1
REMARK minimizedAffinity -4.49203968
REMARK minimizedRMSD -1
REMARK  1 active torsions:
REMARK  status: ('A' for Active; 'I' for Inactive)
REMARK    1  A    between atoms: N_2  and  C1_3 
ROOT
ATOM      1  C1  UNL d   1       0.232  -0.159  -0.382  0.00  0.00     0.143 A 
ATOM      2  C2  UNL d   1       1.171   0.198   0.591  0.00  0.00    -0.057 A 
ATOM      3  C3  UNL d   1       0.920  -0.006   1.953  0.00  0.00     0.033 A 
ATOM      4  C4  UNL d   1      -0.292  -0.547   2.369  0.00  0.00    -0.042 A 
ATOM      5  C5  UNL d   1      -1.251  -0.887   1.421  0.00  0.00     0.033 A 
ATOM      6  C6  UNL d   1      -0.991  -0.687   0.062  0.00  0.00    -0.057 A 
ENDROOT
BRANCH   1   7
ATOM      7  N   UNL d   1       0.382   0.109  -1.745  0.00  0.00    -0.732 N 
ATOM      8  C   UNL d   1       0.785  -0.936  -2.662  0.00  0.00     0.284 C 
ATOM      9  H3  UNL d   1      -0.349   0.718  -2.104  0.00  0.00     0.395 HD
ENDBRANCH   1   7
TORSDOF 1
ENDMDL
