MODEL 1
REMARK minimizedAffinity 1.50801551
REMARK minimizedRMSD -1
REMARK  0 active torsions:
REMARK  status: ('A' for Active; 'I' for Inactive)
ROOT
ATOM      1  C1  DEN d   1      -1.408  -0.894  -0.598  0.00  0.00     0.130 A 
ATOM      2  C2  DEN d   1      -1.224   0.518  -0.923  0.00  0.00    -0.031 A 
ATOM      3  C3  DEN d   1       0.178   0.875  -0.628  0.00  0.00     0.027 A 
ATOM      4  C4  DEN d   1       2.073  -0.615   0.291  0.00  0.00     0.027 A 
ATOM      5  C5  DEN d   1       2.393  -1.881   0.730  0.00  0.00    -0.003 A 
ATOM      6  C6  DEN d   1       1.468  -2.889   0.788  0.00  0.00     0.001 A 
ATOM      7  C7  DEN d   1       0.187  -2.661   0.359  0.00  0.00     0.017 A 
ATOM      8  C8  DEN d   1      -0.145  -1.385  -0.078  0.00  0.00    -0.094 A 
ATOM      9  C9  DEN d   1       0.808  -0.382  -0.141  0.00  0.00    -0.072 A 
ENDROOT
TORSDOF 0
ENDMDL
