MODEL 1
REMARK minimizedAffinity -2.97586322
REMARK minimizedRMSD -1
REMARK  0 active torsions:
REMARK  status: ('A' for Active; 'I' for Inactive)
ROOT
ATOM      1  C1  DEN d   1      -1.741  -0.543  -0.451  0.00  0.00     0.130 A 
ATOM      2  C2  DEN d   1      -1.825   0.784  -1.056  0.00  0.00    -0.031 A 
ATOM      3  C3  DEN d   1      -0.470   1.369  -1.062  0.00  0.00     0.027 A 
ATOM      4  C4  DEN d   1       1.740   0.355  -0.201  0.00  0.00     0.027 A 
ATOM      5  C5  DEN d   1       2.310  -0.742   0.406  0.00  0.00    -0.003 A 
ATOM      6  C6  DEN d   1       1.570  -1.826   0.798  0.00  0.00     0.001 A 
ATOM      7  C7  DEN d   1       0.224  -1.857   0.546  0.00  0.00     0.017 A 
ATOM      8  C8  DEN d   1      -0.359  -0.751  -0.060  0.00  0.00    -0.094 A 
ATOM      9  C9  DEN d   1       0.408   0.330  -0.459  0.00  0.00    -0.072 A 
ENDROOT
TORSDOF 0
ENDMDL
