MODEL 1
REMARK minimizedAffinity -3.22746563
REMARK minimizedRMSD -1
REMARK  0 active torsions:
REMARK  status: ('A' for Active; 'I' for Inactive)
ROOT
ATOM      1  C1  DEN d   1       0.109  -2.466   1.127  0.00  0.00     0.130 A 
ATOM      2  C2  DEN d   1       1.526  -2.727   1.362  0.00  0.00    -0.031 A 
ATOM      3  C3  DEN d   1       2.299  -1.618   0.768  0.00  0.00     0.027 A 
ATOM      4  C4  DEN d   1       1.443   0.471  -0.480  0.00  0.00     0.027 A 
ATOM      5  C5  DEN d   1       0.319   1.124  -0.936  0.00  0.00    -0.003 A 
ATOM      6  C6  DEN d   1      -0.941   0.614  -0.768  0.00  0.00     0.001 A 
ATOM      7  C7  DEN d   1      -1.111  -0.563  -0.087  0.00  0.00     0.017 A 
ATOM      8  C8  DEN d   1       0.018  -1.231   0.369  0.00  0.00    -0.094 A 
ATOM      9  C9  DEN d   1       1.282  -0.693   0.200  0.00  0.00    -0.072 A 
ENDROOT
TORSDOF 0
ENDMDL
