MODEL 1
REMARK minimizedAffinity -4.34553385
REMARK minimizedRMSD -1
REMARK  0 active torsions:
REMARK  status: ('A' for Active; 'I' for Inactive)
ROOT
ATOM      1  C1  DEN d   1       1.680  -0.240  -0.640  0.00  0.00     0.130 A 
ATOM      2  C2  DEN d   1       2.149  -1.450   0.029  0.00  0.00    -0.031 A 
ATOM      3  C3  DEN d   1       1.159  -1.813   1.063  0.00  0.00     0.027 A 
ATOM      4  C4  DEN d   1      -1.045  -0.627   1.687  0.00  0.00     0.027 A 
ATOM      5  C5  DEN d   1      -1.861   0.446   1.404  0.00  0.00    -0.003 A 
ATOM      6  C6  DEN d   1      -1.540   1.377   0.452  0.00  0.00     0.001 A 
ATOM      7  C7  DEN d   1      -0.395   1.227  -0.284  0.00  0.00     0.017 A 
ATOM      8  C8  DEN d   1       0.437   0.152  -0.000  0.00  0.00    -0.094 A 
ATOM      9  C9  DEN d   1       0.089  -0.785   0.958  0.00  0.00    -0.072 A 
ENDROOT
TORSDOF 0
ENDMDL
