MODEL 1
REMARK minimizedAffinity -3.90987325
REMARK minimizedRMSD -1
REMARK  0 active torsions:
REMARK  status: ('A' for Active; 'I' for Inactive)
ROOT
ATOM      1  C1  DEN d   1      -1.081  -0.502   1.765  0.00  0.00     0.130 A 
ATOM      2  C2  DEN d   1      -1.536   0.575   0.890  0.00  0.00    -0.031 A 
ATOM      3  C3  DEN d   1      -0.611   0.651  -0.259  0.00  0.00     0.027 A 
ATOM      4  C4  DEN d   1       1.467  -0.790  -0.767  0.00  0.00     0.027 A 
ATOM      5  C5  DEN d   1       2.257  -1.822  -0.310  0.00  0.00    -0.003 A 
ATOM      6  C6  DEN d   1       2.011  -2.458   0.878  0.00  0.00     0.001 A 
ATOM      7  C7  DEN d   1       0.922  -2.099   1.628  0.00  0.00     0.017 A 
ATOM      8  C8  DEN d   1       0.126  -1.055   1.177  0.00  0.00    -0.094 A 
ATOM      9  C9  DEN d   1       0.384  -0.432  -0.032  0.00  0.00    -0.072 A 
ENDROOT
TORSDOF 0
ENDMDL
