MODEL 1
REMARK minimizedAffinity -1.65653443
REMARK minimizedRMSD -1
REMARK  0 active torsions:
REMARK  status: ('A' for Active; 'I' for Inactive)
ROOT
ATOM      1  C1  DEN d   1       0.475   0.686  -1.501  0.00  0.00     0.130 A 
ATOM      2  C2  DEN d   1      -0.939   1.011  -1.342  0.00  0.00    -0.031 A 
ATOM      3  C3  DEN d   1      -1.472   0.200  -0.229  0.00  0.00     0.027 A 
ATOM      4  C4  DEN d   1      -0.249  -1.516   1.259  0.00  0.00     0.027 A 
ATOM      5  C5  DEN d   1       0.957  -2.138   1.497  0.00  0.00    -0.003 A 
ATOM      6  C6  DEN d   1       2.069  -1.890   0.736  0.00  0.00     0.001 A 
ATOM      7  C7  DEN d   1       2.009  -0.963  -0.270  0.00  0.00     0.017 A 
ATOM      8  C8  DEN d   1       0.795  -0.337  -0.521  0.00  0.00    -0.094 A 
ATOM      9  C9  DEN d   1      -0.314  -0.592   0.267  0.00  0.00    -0.072 A 
ENDROOT
TORSDOF 0
ENDMDL
