MODEL 1
REMARK minimizedAffinity -3.3474915
REMARK minimizedRMSD -1
REMARK  0 active torsions:
REMARK  status: ('A' for Active; 'I' for Inactive)
ROOT
ATOM      1  C1  DEN d   1      -3.398   1.507  -1.924  0.00  0.00     0.130 A 
ATOM      2  C2  DEN d   1      -4.145   1.011  -3.076  0.00  0.00    -0.031 A 
ATOM      3  C3  DEN d   1      -3.349   1.288  -4.289  0.00  0.00     0.027 A 
ATOM      4  C4  DEN d   1      -1.043   2.425  -4.493  0.00  0.00     0.027 A 
ATOM      5  C5  DEN d   1      -0.022   3.026  -3.790  0.00  0.00    -0.003 A 
ATOM      6  C6  DEN d   1      -0.069   3.192  -2.431  0.00  0.00     0.001 A 
ATOM      7  C7  DEN d   1      -1.140   2.711  -1.726  0.00  0.00     0.017 A 
ATOM      8  C8  DEN d   1      -2.177   2.111  -2.428  0.00  0.00    -0.094 A 
ATOM      9  C9  DEN d   1      -2.105   1.942  -3.800  0.00  0.00    -0.072 A 
ENDROOT
TORSDOF 0
ENDMDL
