MODEL 1
REMARK minimizedAffinity -2.40730786
REMARK minimizedRMSD -1
REMARK  0 active torsions:
REMARK  status: ('A' for Active; 'I' for Inactive)
ROOT
ATOM      1  C1  DEN d   1      -0.937   1.031  -0.003  0.00  0.00     0.130 A 
ATOM      2  C2  DEN d   1      -1.498   1.112  -1.349  0.00  0.00    -0.031 A 
ATOM      3  C3  DEN d   1      -0.884   0.045  -2.164  0.00  0.00     0.027 A 
ATOM      4  C4  DEN d   1       0.868  -1.719  -1.476  0.00  0.00     0.027 A 
ATOM      5  C5  DEN d   1       1.652  -2.177  -0.441  0.00  0.00    -0.003 A 
ATOM      6  C6  DEN d   1       1.654  -1.582   0.793  0.00  0.00     0.001 A 
ATOM      7  C7  DEN d   1       0.822  -0.522   1.036  0.00  0.00     0.017 A 
ATOM      8  C8  DEN d   1       0.033  -0.049  -0.005  0.00  0.00    -0.094 A 
ATOM      9  C9  DEN d   1       0.036  -0.672  -1.241  0.00  0.00    -0.072 A 
ENDROOT
TORSDOF 0
ENDMDL
