MODEL 1
REMARK minimizedAffinity -3.57208657
REMARK minimizedRMSD -1
REMARK  0 active torsions:
REMARK  status: ('A' for Active; 'I' for Inactive)
ROOT
ATOM      1  C1  DEN d   1      -1.509   0.729  -3.637  0.00  0.00     0.130 A 
ATOM      2  C2  DEN d   1      -2.320   1.920  -3.402  0.00  0.00    -0.031 A 
ATOM      3  C3  DEN d   1      -2.077   2.372  -2.017  0.00  0.00     0.027 A 
ATOM      4  C4  DEN d   1      -0.529   1.349  -0.225  0.00  0.00     0.027 A 
ATOM      5  C5  DEN d   1       0.353   0.326   0.045  0.00  0.00    -0.003 A 
ATOM      6  C6  DEN d   1       0.648  -0.645  -0.874  0.00  0.00     0.001 A 
ATOM      7  C7  DEN d   1       0.090  -0.589  -2.124  0.00  0.00     0.017 A 
ATOM      8  C8  DEN d   1      -0.806   0.435  -2.401  0.00  0.00    -0.094 A 
ATOM      9  C9  DEN d   1      -1.082   1.415  -1.463  0.00  0.00    -0.072 A 
ENDROOT
TORSDOF 0
ENDMDL
