MODEL 1
REMARK minimizedAffinity -3.4169507
REMARK minimizedRMSD -1
REMARK  0 active torsions:
REMARK  status: ('A' for Active; 'I' for Inactive)
ROOT
ATOM      1  C1  DEN d   1       1.343  -0.209  -0.904  0.00  0.00     0.130 A 
ATOM      2  C2  DEN d   1       0.307   0.820  -0.866  0.00  0.00    -0.031 A 
ATOM      3  C3  DEN d   1      -0.582   0.530   0.276  0.00  0.00     0.027 A 
ATOM      4  C4  DEN d   1      -0.455  -1.398   1.984  0.00  0.00     0.027 A 
ATOM      5  C5  DEN d   1       0.242  -2.527   2.352  0.00  0.00    -0.003 A 
ATOM      6  C6  DEN d   1       1.326  -2.978   1.647  0.00  0.00     0.001 A 
ATOM      7  C7  DEN d   1       1.772  -2.271   0.562  0.00  0.00     0.017 A 
ATOM      8  C8  DEN d   1       1.070  -1.136   0.180  0.00  0.00    -0.094 A 
ATOM      9  C9  DEN d   1      -0.017  -0.689   0.913  0.00  0.00    -0.072 A 
ENDROOT
TORSDOF 0
ENDMDL
