MODEL 1
REMARK minimizedAffinity -4.87022209
REMARK minimizedRMSD -1
REMARK  0 active torsions:
REMARK  status: ('A' for Active; 'I' for Inactive)
ROOT
ATOM      1  C1  DEN d   1       2.167   0.302  -0.560  0.00  0.00     0.130 A 
ATOM      2  C2  DEN d   1       2.748  -0.963  -0.121  0.00  0.00    -0.031 A 
ATOM      3  C3  DEN d   1       1.756  -1.652   0.729  0.00  0.00     0.027 A 
ATOM      4  C4  DEN d   1      -0.614  -0.887   1.399  0.00  0.00     0.027 A 
ATOM      5  C5  DEN d   1      -1.544   0.122   1.280  0.00  0.00    -0.003 A 
ATOM      6  C6  DEN d   1      -1.292   1.268   0.573  0.00  0.00     0.001 A 
ATOM      7  C7  DEN d   1      -0.096   1.412  -0.081  0.00  0.00     0.017 A 
ATOM      8  C8  DEN d   1       0.849   0.402   0.041  0.00  0.00    -0.094 A 
ATOM      9  C9  DEN d   1       0.570  -0.753   0.751  0.00  0.00    -0.072 A 
ENDROOT
TORSDOF 0
ENDMDL
