MODEL 1
REMARK minimizedAffinity -4.51985836
REMARK minimizedRMSD -1
REMARK  0 active torsions:
REMARK  status: ('A' for Active; 'I' for Inactive)
ROOT
ATOM      1  C1  DEN d   1       1.204   0.272  -0.369  0.00  0.00     0.130 A 
ATOM      2  C2  DEN d   1      -0.109   0.735  -0.810  0.00  0.00    -0.031 A 
ATOM      3  C3  DEN d   1      -1.127  -0.171  -0.240  0.00  0.00     0.027 A 
ATOM      4  C4  DEN d   1      -0.800  -2.231   1.277  0.00  0.00     0.027 A 
ATOM      5  C5  DEN d   1       0.134  -3.022   1.910  0.00  0.00    -0.003 A 
ATOM      6  C6  DEN d   1       1.480  -2.793   1.800  0.00  0.00     0.001 A 
ATOM      7  C7  DEN d   1       1.929  -1.720   1.077  0.00  0.00     0.017 A 
ATOM      8  C8  DEN d   1       0.994  -0.922   0.431  0.00  0.00    -0.094 A 
ATOM      9  C9  DEN d   1      -0.363  -1.162   0.564  0.00  0.00    -0.072 A 
ENDROOT
TORSDOF 0
ENDMDL
