MODEL 1
REMARK minimizedAffinity -2.14909196
REMARK minimizedRMSD -1
REMARK  0 active torsions:
REMARK  status: ('A' for Active; 'I' for Inactive)
ROOT
ATOM      1  C1  DEN d   1       1.882  -0.304  -0.503  0.00  0.00     0.130 A 
ATOM      2  C2  DEN d   1       2.325  -1.527   0.160  0.00  0.00    -0.031 A 
ATOM      3  C3  DEN d   1       1.273  -1.937   1.112  0.00  0.00     0.027 A 
ATOM      4  C4  DEN d   1      -0.989  -0.805   1.618  0.00  0.00     0.027 A 
ATOM      5  C5  DEN d   1      -1.802   0.264   1.312  0.00  0.00    -0.003 A 
ATOM      6  C6  DEN d   1      -1.433   1.229   0.413  0.00  0.00     0.001 A 
ATOM      7  C7  DEN d   1      -0.237   1.120  -0.246  0.00  0.00     0.017 A 
ATOM      8  C8  DEN d   1       0.592   0.049   0.061  0.00  0.00    -0.094 A 
ATOM      9  C9  DEN d   1       0.195  -0.923   0.964  0.00  0.00    -0.072 A 
ENDROOT
TORSDOF 0
ENDMDL
