MODEL 1
REMARK minimizedAffinity -4.18426228
REMARK minimizedRMSD -1
REMARK  0 active torsions:
REMARK  status: ('A' for Active; 'I' for Inactive)
ROOT
ATOM      1  C1  DEN d   1       0.630   0.824  -0.762  0.00  0.00     0.130 A 
ATOM      2  C2  DEN d   1      -0.762   1.159  -0.472  0.00  0.00    -0.031 A 
ATOM      3  C3  DEN d   1      -1.338   0.060   0.328  0.00  0.00     0.027 A 
ATOM      4  C4  DEN d   1      -0.216  -2.114   1.146  0.00  0.00     0.027 A 
ATOM      5  C5  DEN d   1       0.950  -2.847   1.138  0.00  0.00    -0.003 A 
ATOM      6  C6  DEN d   1       2.072  -2.427   0.473  0.00  0.00     0.001 A 
ATOM      7  C7  DEN d   1       2.065  -1.220  -0.175  0.00  0.00     0.017 A 
ATOM      8  C8  DEN d   1       0.891  -0.479  -0.177  0.00  0.00    -0.094 A 
ATOM      9  C9  DEN d   1      -0.229  -0.914   0.511  0.00  0.00    -0.072 A 
ENDROOT
TORSDOF 0
ENDMDL
