MODEL 1
REMARK minimizedAffinity 0.307769924
REMARK minimizedRMSD -1
REMARK  0 active torsions:
REMARK  status: ('A' for Active; 'I' for Inactive)
ROOT
ATOM      1  C1  DEN d   1       1.364  -1.831   1.498  0.00  0.00     0.130 A 
ATOM      2  C2  DEN d   1       2.824  -1.799   1.474  0.00  0.00    -0.031 A 
ATOM      3  C3  DEN d   1       3.242  -0.605   0.711  0.00  0.00     0.027 A 
ATOM      4  C4  DEN d   1       1.778   1.189  -0.424  0.00  0.00     0.027 A 
ATOM      5  C5  DEN d   1       0.484   1.582  -0.685  0.00  0.00    -0.003 A 
ATOM      6  C6  DEN d   1      -0.599   0.853  -0.269  0.00  0.00     0.001 A 
ATOM      7  C7  DEN d   1      -0.407  -0.285   0.470  0.00  0.00     0.017 A 
ATOM      8  C8  DEN d   1       0.895  -0.691   0.730  0.00  0.00    -0.094 A 
ATOM      9  C9  DEN d   1       1.976   0.066   0.311  0.00  0.00    -0.072 A 
ENDROOT
TORSDOF 0
ENDMDL
