MODEL 1
REMARK minimizedAffinity -5.27721643
REMARK minimizedRMSD -1
REMARK  0 active torsions:
REMARK  status: ('A' for Active; 'I' for Inactive)
ROOT
ATOM      1  C1  DEN d   1      -1.209   2.453  -2.575  0.00  0.00     0.130 A 
ATOM      2  C2  DEN d   1      -2.422   2.157  -3.334  0.00  0.00    -0.031 A 
ATOM      3  C3  DEN d   1      -2.816   0.764  -3.039  0.00  0.00     0.027 A 
ATOM      4  C4  DEN d   1      -1.675  -0.952  -1.488  0.00  0.00     0.027 A 
ATOM      5  C5  DEN d   1      -0.611  -1.164  -0.640  0.00  0.00    -0.003 A 
ATOM      6  C6  DEN d   1       0.339  -0.206  -0.405  0.00  0.00     0.001 A 
ATOM      7  C7  DEN d   1       0.219   1.026  -0.992  0.00  0.00     0.017 A 
ATOM      8  C8  DEN d   1      -0.847   1.246  -1.854  0.00  0.00    -0.094 A 
ATOM      9  C9  DEN d   1      -1.804   0.268  -2.068  0.00  0.00    -0.072 A 
ENDROOT
TORSDOF 0
ENDMDL
