MODEL 1
REMARK minimizedAffinity -1.20635974
REMARK minimizedRMSD -1
REMARK  1 active torsions:
REMARK  status: ('A' for Active; 'I' for Inactive)
REMARK    1  A    between atoms: C1_2  and  C2_3 
ROOT
ATOM      1  C2  UNL d   1      -0.984   0.412   1.716  0.00  0.00    -0.073 A 
ATOM      2  C3  UNL d   1      -2.058   1.128   2.256  0.00  0.00    -0.002 A 
ATOM      3  C4  UNL d   1      -2.528   2.279   1.621  0.00  0.00     0.004 A 
ATOM      4  C5  UNL d   1      -1.935   2.720   0.438  0.00  0.00    -0.004 A 
ATOM      5  C6  UNL d   1      -0.868   2.011  -0.123  0.00  0.00    -0.075 A 
ATOM      6  C7  UNL d   1      -0.218   2.473  -1.394  0.00  0.00     0.076 C 
ATOM      7  C8  UNL d   1      -0.400   0.858   0.522  0.00  0.00     0.001 A 
ENDROOT
BRANCH   1   8
ATOM      8  C1  UNL d   1      -0.477  -0.835   2.394  0.00  0.00     0.053 C 
ATOM      9  C   UNL d   1      -1.588  -1.584   3.114  0.00  0.00     0.018 C 
ENDBRANCH   1   8
TORSDOF 1
ENDMDL
