MODEL 1
REMARK minimizedAffinity 6.2725172
REMARK minimizedRMSD -1
REMARK  1 active torsions:
REMARK  status: ('A' for Active; 'I' for Inactive)
REMARK    1  A    between atoms: C1_2  and  C2_3 
ROOT
ATOM      1  C2  UNL d   1      -0.043   1.402   0.287  0.00  0.00    -0.073 A 
ATOM      2  C3  UNL d   1       0.455   0.790   1.443  0.00  0.00    -0.002 A 
ATOM      3  C4  UNL d   1      -0.277   0.826   2.630  0.00  0.00     0.004 A 
ATOM      4  C5  UNL d   1      -1.515   1.465   2.673  0.00  0.00    -0.004 A 
ATOM      5  C6  UNL d   1      -2.036   2.072   1.525  0.00  0.00    -0.075 A 
ATOM      6  C7  UNL d   1      -3.366   2.766   1.554  0.00  0.00     0.076 C 
ATOM      7  C8  UNL d   1      -1.293   2.035   0.337  0.00  0.00     0.001 A 
ENDROOT
BRANCH   1   8
ATOM      8  C1  UNL d   1       0.741   1.361  -1.000  0.00  0.00     0.053 C 
ATOM      9  C   UNL d   1       0.479   2.582  -1.866  0.00  0.00     0.018 C 
ENDBRANCH   1   8
TORSDOF 1
ENDMDL
