MODEL 1
REMARK minimizedAffinity 11.6450396
REMARK minimizedRMSD -1
REMARK  1 active torsions:
REMARK  status: ('A' for Active; 'I' for Inactive)
REMARK    1  A    between atoms: C1_2  and  C2_3 
ROOT
ATOM      1  C2  UNL d   1       4.377  -4.260  -2.549  0.00  0.00    -0.073 A 
ATOM      2  C3  UNL d   1       5.692  -3.842  -2.782  0.00  0.00    -0.002 A 
ATOM      3  C4  UNL d   1       5.995  -3.051  -3.891  0.00  0.00     0.004 A 
ATOM      4  C5  UNL d   1       4.987  -2.663  -4.773  0.00  0.00    -0.004 A 
ATOM      5  C6  UNL d   1       3.664  -3.060  -4.551  0.00  0.00    -0.075 A 
ATOM      6  C7  UNL d   1       2.568  -2.653  -5.492  0.00  0.00     0.076 C 
ATOM      7  C8  UNL d   1       3.368  -3.857  -3.437  0.00  0.00     0.001 A 
ENDROOT
BRANCH   1   8
ATOM      8  C1  UNL d   1       4.044  -5.109  -1.350  0.00  0.00     0.053 C 
ATOM      9  C   UNL d   1       4.769  -4.639  -0.099  0.00  0.00     0.018 C 
ENDBRANCH   1   8
TORSDOF 1
ENDMDL
