MODEL 1
REMARK minimizedAffinity 6.28315067
REMARK minimizedRMSD -1
REMARK  1 active torsions:
REMARK  status: ('A' for Active; 'I' for Inactive)
REMARK    1  A    between atoms: C1_2  and  C2_3 
ROOT
ATOM      1  C2  UNL d   1      -1.693  -0.514   3.045  0.00  0.00    -0.073 A 
ATOM      2  C3  UNL d   1      -0.320  -0.509   2.778  0.00  0.00    -0.002 A 
ATOM      3  C4  UNL d   1       0.262   0.563   2.100  0.00  0.00     0.004 A 
ATOM      4  C5  UNL d   1      -0.520   1.641   1.687  0.00  0.00    -0.004 A 
ATOM      5  C6  UNL d   1      -1.893   1.660   1.955  0.00  0.00    -0.075 A 
ATOM      6  C7  UNL d   1      -2.749   2.811   1.516  0.00  0.00     0.076 C 
ATOM      7  C8  UNL d   1      -2.471   0.579   2.635  0.00  0.00     0.001 A 
ENDROOT
BRANCH   1   8
ATOM      8  C1  UNL d   1      -2.325  -1.666   3.783  0.00  0.00     0.053 C 
ATOM      9  C   UNL d   1      -1.441  -2.903   3.773  0.00  0.00     0.018 C 
ENDBRANCH   1   8
TORSDOF 1
ENDMDL
