MODEL 1
REMARK minimizedAffinity 7.51066637
REMARK minimizedRMSD -1
REMARK  1 active torsions:
REMARK  status: ('A' for Active; 'I' for Inactive)
REMARK    1  A    between atoms: C1_2  and  C2_3 
ROOT
ATOM      1  C2  UNL d   1       5.163  -4.800  -1.316  0.00  0.00    -0.073 A 
ATOM      2  C3  UNL d   1       5.567  -3.464  -1.210  0.00  0.00    -0.002 A 
ATOM      3  C4  UNL d   1       5.979  -2.947   0.019  0.00  0.00     0.004 A 
ATOM      4  C5  UNL d   1       5.999  -3.760   1.151  0.00  0.00    -0.004 A 
ATOM      5  C6  UNL d   1       5.610  -5.101   1.064  0.00  0.00    -0.075 A 
ATOM      6  C7  UNL d   1       5.624  -5.989   2.273  0.00  0.00     0.076 C 
ATOM      7  C8  UNL d   1       5.195  -5.612  -0.173  0.00  0.00     0.001 A 
ENDROOT
BRANCH   1   8
ATOM      8  C1  UNL d   1       4.723  -5.364  -2.642  0.00  0.00     0.053 C 
ATOM      9  C   UNL d   1       5.885  -5.962  -3.420  0.00  0.00     0.018 C 
ENDBRANCH   1   8
TORSDOF 1
ENDMDL
