MODEL 1
REMARK minimizedAffinity 9.52894878
REMARK minimizedRMSD -1
REMARK  1 active torsions:
REMARK  status: ('A' for Active; 'I' for Inactive)
REMARK    1  A    between atoms: C1_2  and  C2_3 
ROOT
ATOM      1  C2  UNL d   1      -0.965   2.027  -0.317  0.00  0.00    -0.073 A 
ATOM      2  C3  UNL d   1       0.371   2.215  -0.690  0.00  0.00    -0.002 A 
ATOM      3  C4  UNL d   1       0.899   1.532  -1.787  0.00  0.00     0.004 A 
ATOM      4  C5  UNL d   1       0.096   0.661  -2.524  0.00  0.00    -0.004 A 
ATOM      5  C6  UNL d   1      -1.244   0.469  -2.173  0.00  0.00    -0.075 A 
ATOM      6  C7  UNL d   1      -2.120  -0.465  -2.955  0.00  0.00     0.076 C 
ATOM      7  C8  UNL d   1      -1.766   1.157  -1.069  0.00  0.00     0.001 A 
ENDROOT
BRANCH   1   8
ATOM      8  C1  UNL d   1      -1.541   2.768   0.863  0.00  0.00     0.053 C 
ATOM      9  C   UNL d   1      -1.473   1.946   2.140  0.00  0.00     0.018 C 
ENDBRANCH   1   8
TORSDOF 1
ENDMDL
