MODEL 1
REMARK minimizedAffinity 2.57687664
REMARK minimizedRMSD -1
REMARK  1 active torsions:
REMARK  status: ('A' for Active; 'I' for Inactive)
REMARK    1  A    between atoms: C1_2  and  C2_3 
ROOT
ATOM      1  C2  UNL d   1       3.673  -3.677   0.019  0.00  0.00    -0.073 A 
ATOM      2  C3  UNL d   1       5.068  -3.665   0.138  0.00  0.00    -0.002 A 
ATOM      3  C4  UNL d   1       5.702  -2.678   0.894  0.00  0.00     0.004 A 
ATOM      4  C5  UNL d   1       4.950  -1.699   1.543  0.00  0.00    -0.004 A 
ATOM      5  C6  UNL d   1       3.555  -1.701   1.446  0.00  0.00    -0.075 A 
ATOM      6  C7  UNL d   1       2.731  -0.654   2.137  0.00  0.00     0.076 C 
ATOM      7  C8  UNL d   1       2.925  -2.694   0.683  0.00  0.00     0.001 A 
ENDROOT
BRANCH   1   8
ATOM      8  C1  UNL d   1       2.983  -4.744  -0.791  0.00  0.00     0.053 C 
ATOM      9  C   UNL d   1       3.678  -4.988  -2.121  0.00  0.00     0.018 C 
ENDBRANCH   1   8
TORSDOF 1
ENDMDL
