MODEL 1
REMARK minimizedAffinity -1.09976566
REMARK minimizedRMSD -1
REMARK  1 active torsions:
REMARK  status: ('A' for Active; 'I' for Inactive)
REMARK    1  A    between atoms: C1_2  and  C2_3 
ROOT
ATOM      1  C2  UNL d   1      -1.811   1.040   2.065  0.00  0.00    -0.073 A 
ATOM      2  C3  UNL d   1      -0.413   1.082   2.025  0.00  0.00    -0.002 A 
ATOM      3  C4  UNL d   1       0.340   0.077   2.634  0.00  0.00     0.004 A 
ATOM      4  C5  UNL d   1      -0.296  -0.982   3.282  0.00  0.00    -0.004 A 
ATOM      5  C6  UNL d   1      -1.692  -1.048   3.322  0.00  0.00    -0.075 A 
ATOM      6  C7  UNL d   1      -2.391  -2.180   4.016  0.00  0.00     0.076 C 
ATOM      7  C8  UNL d   1      -2.441  -0.034   2.710  0.00  0.00     0.001 A 
ENDROOT
BRANCH   1   8
ATOM      8  C1  UNL d   1      -2.629   2.119   1.403  0.00  0.00     0.053 C 
ATOM      9  C   UNL d   1      -1.847   2.840   0.317  0.00  0.00     0.018 C 
ENDBRANCH   1   8
TORSDOF 1
ENDMDL
