MODEL 1
REMARK minimizedAffinity 10.275012
REMARK minimizedRMSD -1
REMARK  1 active torsions:
REMARK  status: ('A' for Active; 'I' for Inactive)
REMARK    1  A    between atoms: C1_2  and  C2_3 
ROOT
ATOM      1  C2  UNL d   1       1.505  -4.549  -2.033  0.00  0.00    -0.073 A 
ATOM      2  C3  UNL d   1       2.109  -4.180  -0.826  0.00  0.00    -0.002 A 
ATOM      3  C4  UNL d   1       1.831  -2.940  -0.248  0.00  0.00     0.004 A 
ATOM      4  C5  UNL d   1       0.942  -2.062  -0.867  0.00  0.00    -0.004 A 
ATOM      5  C6  UNL d   1       0.319  -2.417  -2.067  0.00  0.00    -0.075 A 
ATOM      6  C7  UNL d   1      -0.639  -1.483  -2.746  0.00  0.00     0.076 C 
ATOM      7  C8  UNL d   1       0.605  -3.663  -2.642  0.00  0.00     0.001 A 
ENDROOT
BRANCH   1   8
ATOM      8  C1  UNL d   1       1.797  -5.889  -2.657  0.00  0.00     0.053 C 
ATOM      9  C   UNL d   1       3.225  -5.978  -3.173  0.00  0.00     0.018 C 
ENDBRANCH   1   8
TORSDOF 1
ENDMDL
