MODEL 1
REMARK minimizedAffinity 2.92232585
REMARK minimizedRMSD -1
REMARK  1 active torsions:
REMARK  status: ('A' for Active; 'I' for Inactive)
REMARK    1  A    between atoms: C1_2  and  C2_3 
ROOT
ATOM      1  C2  UNL d   1       0.306   3.921  -0.556  0.00  0.00    -0.073 A 
ATOM      2  C3  UNL d   1       0.829   3.100  -1.562  0.00  0.00    -0.002 A 
ATOM      3  C4  UNL d   1       0.700   1.713  -1.479  0.00  0.00     0.004 A 
ATOM      4  C5  UNL d   1       0.041   1.134  -0.395  0.00  0.00    -0.004 A 
ATOM      5  C6  UNL d   1      -0.500   1.938   0.614  0.00  0.00    -0.075 A 
ATOM      6  C7  UNL d   1      -1.210   1.330   1.788  0.00  0.00     0.076 C 
ATOM      7  C8  UNL d   1      -0.363   3.330   0.525  0.00  0.00     0.001 A 
ENDROOT
BRANCH   1   8
ATOM      8  C1  UNL d   1       0.438   5.419  -0.645  0.00  0.00     0.053 C 
ATOM      9  C   UNL d   1       1.174   5.999   0.552  0.00  0.00     0.018 C 
ENDBRANCH   1   8
TORSDOF 1
ENDMDL
