MODEL 1
REMARK minimizedAffinity 3.71487236
REMARK minimizedRMSD -1
REMARK  1 active torsions:
REMARK  status: ('A' for Active; 'I' for Inactive)
REMARK    1  A    between atoms: C1_2  and  C2_3 
ROOT
ATOM      1  C2  UNL d   1       2.814   0.558   2.606  0.00  0.00    -0.073 A 
ATOM      2  C3  UNL d   1       1.674  -0.035   2.053  0.00  0.00    -0.002 A 
ATOM      3  C4  UNL d   1       1.205  -1.255   2.543  0.00  0.00     0.004 A 
ATOM      4  C5  UNL d   1       1.866  -1.889   3.595  0.00  0.00    -0.004 A 
ATOM      5  C6  UNL d   1       3.000  -1.306   4.169  0.00  0.00    -0.075 A 
ATOM      6  C7  UNL d   1       3.724  -1.977   5.299  0.00  0.00     0.076 C 
ATOM      7  C8  UNL d   1       3.467  -0.083   3.669  0.00  0.00     0.001 A 
ENDROOT
BRANCH   1   8
ATOM      8  C1  UNL d   1       3.321   1.878   2.084  0.00  0.00     0.053 C 
ATOM      9  C   UNL d   1       2.582   2.316   0.829  0.00  0.00     0.018 C 
ENDBRANCH   1   8
TORSDOF 1
ENDMDL
