MODEL 1
REMARK minimizedAffinity 15.0122957
REMARK minimizedRMSD -1
REMARK  1 active torsions:
REMARK  status: ('A' for Active; 'I' for Inactive)
REMARK    1  A    between atoms: C1_2  and  C2_3 
ROOT
ATOM      1  C2  UNL d   1       2.092  -3.017   4.303  0.00  0.00    -0.073 A 
ATOM      2  C3  UNL d   1       3.223  -3.408   3.577  0.00  0.00    -0.002 A 
ATOM      3  C4  UNL d   1       3.783  -2.550   2.630  0.00  0.00     0.004 A 
ATOM      4  C5  UNL d   1       3.223  -1.293   2.403  0.00  0.00    -0.004 A 
ATOM      5  C6  UNL d   1       2.100  -0.880   3.127  0.00  0.00    -0.075 A 
ATOM      6  C7  UNL d   1       1.485   0.469   2.894  0.00  0.00     0.076 C 
ATOM      7  C8  UNL d   1       1.542  -1.748   4.075  0.00  0.00     0.001 A 
ENDROOT
BRANCH   1   8
ATOM      8  C1  UNL d   1       1.488  -3.938   5.332  0.00  0.00     0.053 C 
ATOM      9  C   UNL d   1       1.692  -5.402   4.977  0.00  0.00     0.018 C 
ENDBRANCH   1   8
TORSDOF 1
ENDMDL
