MODEL 1
REMARK minimizedAffinity 11.439373
REMARK minimizedRMSD -1
REMARK  1 active torsions:
REMARK  status: ('A' for Active; 'I' for Inactive)
REMARK    1  A    between atoms: C1_2  and  C2_3 
ROOT
ATOM      1  C2  UNL d   1       2.771   0.936   2.401  0.00  0.00    -0.073 A 
ATOM      2  C3  UNL d   1       2.172   1.195   3.639  0.00  0.00    -0.002 A 
ATOM      3  C4  UNL d   1       1.687   0.146   4.422  0.00  0.00     0.004 A 
ATOM      4  C5  UNL d   1       1.803  -1.171   3.979  0.00  0.00    -0.004 A 
ATOM      5  C6  UNL d   1       2.409  -1.452   2.750  0.00  0.00    -0.075 A 
ATOM      6  C7  UNL d   1       2.539  -2.864   2.259  0.00  0.00     0.076 C 
ATOM      7  C8  UNL d   1       2.891  -0.393   1.969  0.00  0.00     0.001 A 
ENDROOT
BRANCH   1   8
ATOM      8  C1  UNL d   1       3.301   2.064   1.555  0.00  0.00     0.053 C 
ATOM      9  C   UNL d   1       3.764   1.584   0.189  0.00  0.00     0.018 C 
ENDBRANCH   1   8
TORSDOF 1
ENDMDL
