MODEL 1
REMARK minimizedAffinity 0.740937531
REMARK minimizedRMSD -1
REMARK  1 active torsions:
REMARK  status: ('A' for Active; 'I' for Inactive)
REMARK    1  A    between atoms: N_2  and  C1_3 
ROOT
ATOM      1  C1  UNL d   1       0.679   1.221  -0.248  0.00  0.00     0.143 A 
ATOM      2  C2  UNL d   1       1.813   0.957  -1.024  0.00  0.00    -0.057 A 
ATOM      3  C3  UNL d   1       2.917   1.818  -1.015  0.00  0.00     0.033 A 
ATOM      4  C4  UNL d   1       2.894   2.979  -0.248  0.00  0.00    -0.042 A 
ATOM      5  C5  UNL d   1       1.768   3.275   0.511  0.00  0.00     0.033 A 
ATOM      6  C6  UNL d   1       0.672   2.407   0.503  0.00  0.00    -0.057 A 
ENDROOT
BRANCH   1   7
ATOM      7  N   UNL d   1      -0.488   0.456  -0.291  0.00  0.00    -0.732 N 
ATOM      8  C   UNL d   1      -1.034  -0.124   0.918  0.00  0.00     0.284 C 
ATOM      9  H3  UNL d   1      -1.188   0.849  -0.916  0.00  0.00     0.395 HD
ENDBRANCH   1   7
TORSDOF 1
ENDMDL
