MODEL 1
REMARK minimizedAffinity 3.61529636
REMARK minimizedRMSD -1
REMARK  1 active torsions:
REMARK  status: ('A' for Active; 'I' for Inactive)
REMARK    1  A    between atoms: N_2  and  C1_3 
ROOT
ATOM      1  C1  UNL d   1      -1.726  -1.442   0.875  0.00  0.00     0.143 A 
ATOM      2  C2  UNL d   1      -1.282  -0.378   0.083  0.00  0.00    -0.057 A 
ATOM      3  C3  UNL d   1      -0.741   0.779   0.657  0.00  0.00     0.033 A 
ATOM      4  C4  UNL d   1      -0.661   0.904   2.040  0.00  0.00    -0.042 A 
ATOM      5  C5  UNL d   1      -1.119  -0.131   2.848  0.00  0.00     0.033 A 
ATOM      6  C6  UNL d   1      -1.652  -1.286   2.268  0.00  0.00    -0.057 A 
ENDROOT
BRANCH   1   7
ATOM      7  N   UNL d   1      -2.364  -2.577   0.368  0.00  0.00    -0.732 N 
ATOM      8  C   UNL d   1      -3.807  -2.636   0.285  0.00  0.00     0.284 C 
ATOM      9  H3  UNL d   1      -1.884  -2.962  -0.443  0.00  0.00     0.395 HD
ENDBRANCH   1   7
TORSDOF 1
ENDMDL
