MODEL 1
REMARK minimizedAffinity -0.872057438
REMARK minimizedRMSD -1
REMARK  1 active torsions:
REMARK  status: ('A' for Active; 'I' for Inactive)
REMARK    1  A    between atoms: N_2  and  C1_3 
ROOT
ATOM      1  C1  UNL d   1       0.147  -0.568  -1.063  0.00  0.00     0.143 A 
ATOM      2  C2  UNL d   1      -0.033   0.223   0.077  0.00  0.00    -0.057 A 
ATOM      3  C3  UNL d   1      -0.591  -0.306   1.247  0.00  0.00     0.033 A 
ATOM      4  C4  UNL d   1      -1.008  -1.632   1.288  0.00  0.00    -0.042 A 
ATOM      5  C5  UNL d   1      -0.863  -2.430   0.158  0.00  0.00     0.033 A 
ATOM      6  C6  UNL d   1      -0.298  -1.898  -1.005  0.00  0.00    -0.057 A 
ENDROOT
BRANCH   1   7
ATOM      7  N   UNL d   1       0.605  -0.075  -2.287  0.00  0.00    -0.732 N 
ATOM      8  C   UNL d   1       1.008  -0.980  -3.342  0.00  0.00     0.284 C 
ATOM      9  H3  UNL d   1       0.066   0.726  -2.610  0.00  0.00     0.395 HD
ENDBRANCH   1   7
TORSDOF 1
ENDMDL
