MODEL 1
REMARK minimizedAffinity 4.42419386
REMARK minimizedRMSD -1
REMARK  1 active torsions:
REMARK  status: ('A' for Active; 'I' for Inactive)
REMARK    1  A    between atoms: N_2  and  C1_3 
ROOT
ATOM      1  C1  UNL d   1       1.608   1.558   1.095  0.00  0.00     0.143 A 
ATOM      2  C2  UNL d   1       2.008   2.801   1.597  0.00  0.00    -0.057 A 
ATOM      3  C3  UNL d   1       2.986   3.566   0.949  0.00  0.00     0.033 A 
ATOM      4  C4  UNL d   1       3.603   3.086  -0.201  0.00  0.00    -0.042 A 
ATOM      5  C5  UNL d   1       3.239   1.842  -0.704  0.00  0.00     0.033 A 
ATOM      6  C6  UNL d   1       2.258   1.086  -0.056  0.00  0.00    -0.057 A 
ENDROOT
BRANCH   1   7
ATOM      7  N   UNL d   1       0.713   0.707   1.747  0.00  0.00    -0.732 N 
ATOM      8  C   UNL d   1      -0.316   0.010   1.005  0.00  0.00     0.284 C 
ATOM      9  H3  UNL d   1       1.165   0.142   2.462  0.00  0.00     0.395 HD
ENDBRANCH   1   7
TORSDOF 1
ENDMDL
