MODEL 1
REMARK minimizedAffinity -0.623230875
REMARK minimizedRMSD -1
REMARK  1 active torsions:
REMARK  status: ('A' for Active; 'I' for Inactive)
REMARK    1  A    between atoms: N_2  and  C1_3 
ROOT
ATOM      1  C1  UNL d   1       0.362  -0.475   0.072  0.00  0.00     0.143 A 
ATOM      2  C2  UNL d   1      -0.548   0.269   0.831  0.00  0.00    -0.057 A 
ATOM      3  C3  UNL d   1      -1.411  -0.351   1.743  0.00  0.00     0.033 A 
ATOM      4  C4  UNL d   1      -1.397  -1.734   1.892  0.00  0.00    -0.042 A 
ATOM      5  C5  UNL d   1      -0.518  -2.496   1.130  0.00  0.00     0.033 A 
ATOM      6  C6  UNL d   1       0.345  -1.870   0.226  0.00  0.00    -0.057 A 
ENDROOT
BRANCH   1   7
ATOM      7  N   UNL d   1       1.176   0.073  -0.922  0.00  0.00    -0.732 N 
ATOM      8  C   UNL d   1       0.910  -0.188  -2.320  0.00  0.00     0.284 C 
ATOM      9  H3  UNL d   1       1.440   1.035  -0.722  0.00  0.00     0.395 HD
ENDBRANCH   1   7
TORSDOF 1
ENDMDL
