MODEL 1
REMARK minimizedAffinity 1.00847471
REMARK minimizedRMSD -1
REMARK  1 active torsions:
REMARK  status: ('A' for Active; 'I' for Inactive)
REMARK    1  A    between atoms: N_2  and  C1_3 
ROOT
ATOM      1  C1  UNL d   1      -0.359  -1.097  -0.403  0.00  0.00     0.143 A 
ATOM      2  C2  UNL d   1       0.050  -0.002  -1.172  0.00  0.00    -0.057 A 
ATOM      3  C3  UNL d   1       1.199  -0.064  -1.970  0.00  0.00     0.033 A 
ATOM      4  C4  UNL d   1       1.978  -1.216  -1.990  0.00  0.00    -0.042 A 
ATOM      5  C5  UNL d   1       1.604  -2.308  -1.214  0.00  0.00     0.033 A 
ATOM      6  C6  UNL d   1       0.452  -2.242  -0.424  0.00  0.00    -0.057 A 
ENDROOT
BRANCH   1   7
ATOM      7  N   UNL d   1      -1.436  -1.064   0.486  0.00  0.00    -0.732 N 
ATOM      8  C   UNL d   1      -1.721   0.128   1.255  0.00  0.00     0.284 C 
ATOM      9  H3  UNL d   1      -2.263  -1.524   0.112  0.00  0.00     0.395 HD
ENDBRANCH   1   7
TORSDOF 1
ENDMDL
