MODEL 1
REMARK minimizedAffinity -2.33787704
REMARK minimizedRMSD -1
REMARK  1 active torsions:
REMARK  status: ('A' for Active; 'I' for Inactive)
REMARK    1  A    between atoms: N_2  and  C1_3 
ROOT
ATOM      1  C1  UNL d   1      -0.289   0.369  -0.113  0.00  0.00     0.143 A 
ATOM      2  C2  UNL d   1       0.877  -0.384  -0.291  0.00  0.00    -0.057 A 
ATOM      3  C3  UNL d   1       0.920  -1.744   0.040  0.00  0.00     0.033 A 
ATOM      4  C4  UNL d   1      -0.197  -2.370   0.583  0.00  0.00    -0.042 A 
ATOM      5  C5  UNL d   1      -1.359  -1.636   0.791  0.00  0.00     0.033 A 
ATOM      6  C6  UNL d   1      -1.398  -0.280   0.453  0.00  0.00    -0.057 A 
ENDROOT
BRANCH   1   7
ATOM      7  N   UNL d   1      -0.366   1.746  -0.330  0.00  0.00    -0.732 N 
ATOM      8  C   UNL d   1       0.170   2.676   0.641  0.00  0.00     0.284 C 
ATOM      9  H3  UNL d   1      -0.175   1.999  -1.297  0.00  0.00     0.395 HD
ENDBRANCH   1   7
TORSDOF 1
ENDMDL
