MODEL 1
REMARK minimizedAffinity 0.709987223
REMARK minimizedRMSD -1
REMARK  1 active torsions:
REMARK  status: ('A' for Active; 'I' for Inactive)
REMARK    1  A    between atoms: N_2  and  C1_3 
ROOT
ATOM      1  C1  UNL d   1      -0.352  -1.528  -1.184  0.00  0.00     0.143 A 
ATOM      2  C2  UNL d   1       0.423  -0.552  -1.819  0.00  0.00    -0.057 A 
ATOM      3  C3  UNL d   1       0.703   0.671  -1.197  0.00  0.00     0.033 A 
ATOM      4  C4  UNL d   1       0.187   0.950   0.064  0.00  0.00    -0.042 A 
ATOM      5  C5  UNL d   1      -0.606   0.004   0.704  0.00  0.00     0.033 A 
ATOM      6  C6  UNL d   1      -0.876  -1.217   0.080  0.00  0.00    -0.057 A 
ENDROOT
BRANCH   1   7
ATOM      7  N   UNL d   1      -0.747  -2.723  -1.790  0.00  0.00    -0.732 N 
ATOM      8  C   UNL d   1      -1.116  -3.870  -0.988  0.00  0.00     0.284 C 
ATOM      9  H3  UNL d   1      -1.348  -2.569  -2.597  0.00  0.00     0.395 HD
ENDBRANCH   1   7
TORSDOF 1
ENDMDL
