MODEL 1
REMARK minimizedAffinity 0.423065126
REMARK minimizedRMSD -1
REMARK  1 active torsions:
REMARK  status: ('A' for Active; 'I' for Inactive)
REMARK    1  A    between atoms: N_2  and  C1_3 
ROOT
ATOM      1  C1  UNL d   1       0.768   2.019   1.402  0.00  0.00     0.143 A 
ATOM      2  C2  UNL d   1       0.864   0.658   1.713  0.00  0.00    -0.057 A 
ATOM      3  C3  UNL d   1       0.147  -0.304   0.991  0.00  0.00     0.033 A 
ATOM      4  C4  UNL d   1      -0.704   0.083  -0.039  0.00  0.00    -0.042 A 
ATOM      5  C5  UNL d   1      -0.834   1.432  -0.350  0.00  0.00     0.033 A 
ATOM      6  C6  UNL d   1      -0.110   2.387   0.371  0.00  0.00    -0.057 A 
ENDROOT
BRANCH   1   7
ATOM      7  N   UNL d   1       1.379   3.032   2.146  0.00  0.00    -0.732 N 
ATOM      8  C   UNL d   1       2.531   3.736   1.625  0.00  0.00     0.284 C 
ATOM      9  H3  UNL d   1       0.703   3.630   2.616  0.00  0.00     0.395 HD
ENDBRANCH   1   7
TORSDOF 1
ENDMDL
