MODEL 1
REMARK minimizedAffinity -5.44566965
REMARK minimizedRMSD -1
REMARK  1 active torsions:
REMARK  status: ('A' for Active; 'I' for Inactive)
REMARK    1  A    between atoms: N_2  and  C1_3 
ROOT
ATOM      1  C1  UNL d   1       0.562  -0.653  -1.480  0.00  0.00     0.143 A 
ATOM      2  C2  UNL d   1       0.165  -1.095  -0.214  0.00  0.00    -0.057 A 
ATOM      3  C3  UNL d   1       0.313  -2.434   0.167  0.00  0.00     0.033 A 
ATOM      4  C4  UNL d   1       0.835  -3.364  -0.726  0.00  0.00    -0.042 A 
ATOM      5  C5  UNL d   1       1.213  -2.952  -1.999  0.00  0.00     0.033 A 
ATOM      6  C6  UNL d   1       1.069  -1.612  -2.371  0.00  0.00    -0.057 A 
ENDROOT
BRANCH   1   7
ATOM      7  N   UNL d   1       0.349   0.644  -1.953  0.00  0.00    -0.732 N 
ATOM      8  C   UNL d   1       0.321   1.766  -1.040  0.00  0.00     0.284 C 
ATOM      9  H3  UNL d   1       0.848   0.828  -2.821  0.00  0.00     0.395 HD
ENDBRANCH   1   7
TORSDOF 1
ENDMDL
