MODEL 1
REMARK minimizedAffinity -4.37696552
REMARK minimizedRMSD -1
REMARK  1 active torsions:
REMARK  status: ('A' for Active; 'I' for Inactive)
REMARK    1  A    between atoms: N_2  and  C1_3 
ROOT
ATOM      1  C1  UNL d   1       0.382   0.574  -0.740  0.00  0.00     0.143 A 
ATOM      2  C2  UNL d   1      -0.399   1.658  -1.154  0.00  0.00    -0.057 A 
ATOM      3  C3  UNL d   1      -0.068   2.970  -0.795  0.00  0.00     0.033 A 
ATOM      4  C4  UNL d   1       1.037   3.220   0.011  0.00  0.00    -0.042 A 
ATOM      5  C5  UNL d   1       1.814   2.155   0.455  0.00  0.00     0.033 A 
ATOM      6  C6  UNL d   1       1.482   0.848   0.088  0.00  0.00    -0.057 A 
ENDROOT
BRANCH   1   7
ATOM      7  N   UNL d   1       0.050  -0.761  -0.981  0.00  0.00    -0.732 N 
ATOM      8  C   UNL d   1       0.323  -1.368  -2.266  0.00  0.00     0.284 C 
ATOM      9  H3  UNL d   1       0.254  -1.362  -0.186  0.00  0.00     0.395 HD
ENDBRANCH   1   7
TORSDOF 1
ENDMDL
