MODEL 1
REMARK minimizedAffinity 14.0475998
REMARK minimizedRMSD -1
REMARK  0 active torsions:
REMARK  status: ('A' for Active; 'I' for Inactive)
ROOT
ATOM      1  C   UNL d   1       2.460   1.920  -2.576  0.00  0.00     0.124 A 
ATOM      2  C1  UNL d   1       3.750   1.509  -2.268  0.00  0.00     0.062 A 
ATOM      3  C2  UNL d   1       4.762   1.609  -3.219  0.00  0.00     0.162 A 
ATOM      4  C3  UNL d   1       4.488   2.123  -4.486  0.00  0.00    -0.034 A 
ATOM      5  C4  UNL d   1       3.189   2.534  -4.788  0.00  0.00     0.162 A 
ATOM      6  C5  UNL d   1       2.181   2.432  -3.835  0.00  0.00     0.062 A 
ATOM      7  F   UNL d   1       0.935   2.829  -4.134  0.00  0.00    -0.097 F 
ATOM      8  F1  UNL d   1       2.891   3.033  -5.997  0.00  0.00    -0.096 F 
ATOM      9  I   UNL d   1       5.999   2.275  -5.910  0.00  0.00    -0.060 I 
ATOM     10  F2  UNL d   1       5.999   1.205  -2.894  0.00  0.00    -0.096 F 
ATOM     11  F3  UNL d   1       4.022   1.014  -1.052  0.00  0.00    -0.097 F 
ATOM     12  F4  UNL d   1       1.488   1.822  -1.660  0.00  0.00    -0.092 F 
ENDROOT
TORSDOF 0
ENDMDL
