MODEL 1
REMARK minimizedAffinity 20.6975632
REMARK minimizedRMSD -1
REMARK  0 active torsions:
REMARK  status: ('A' for Active; 'I' for Inactive)
ROOT
ATOM      1  C   UNL d   1      -0.644   1.493   2.267  0.00  0.00     0.124 A 
ATOM      2  C1  UNL d   1       0.220   1.180   1.226  0.00  0.00     0.062 A 
ATOM      3  C2  UNL d   1       1.564   1.533   1.303  0.00  0.00     0.162 A 
ATOM      4  C3  UNL d   1       2.053   2.202   2.424  0.00  0.00    -0.034 A 
ATOM      5  C4  UNL d   1       1.178   2.514   3.466  0.00  0.00     0.162 A 
ATOM      6  C5  UNL d   1      -0.164   2.159   3.385  0.00  0.00     0.062 A 
ATOM      7  F   UNL d   1      -0.998   2.463   4.391  0.00  0.00    -0.097 F 
ATOM      8  F1  UNL d   1       1.615   3.157   4.559  0.00  0.00    -0.096 F 
ATOM      9  I   UNL d   1       4.063   2.731   2.542  0.00  0.00    -0.060 I 
ATOM     10  F2  UNL d   1       2.376   1.218   0.283  0.00  0.00    -0.096 F 
ATOM     11  F3  UNL d   1      -0.242   0.537   0.144  0.00  0.00    -0.097 F 
ATOM     12  F4  UNL d   1      -1.937   1.153   2.190  0.00  0.00    -0.092 F 
ENDROOT
TORSDOF 0
ENDMDL
