MODEL 1
REMARK minimizedAffinity 26.3849945
REMARK minimizedRMSD -1
REMARK  0 active torsions:
REMARK  status: ('A' for Active; 'I' for Inactive)
ROOT
ATOM      1  C   UNL d   1       0.349   2.237  -0.487  0.00  0.00     0.124 A 
ATOM      2  C1  UNL d   1      -1.010   2.515  -0.429  0.00  0.00     0.062 A 
ATOM      3  C2  UNL d   1      -1.856   1.715   0.333  0.00  0.00     0.162 A 
ATOM      4  C3  UNL d   1      -1.347   0.629   1.045  0.00  0.00    -0.034 A 
ATOM      5  C4  UNL d   1       0.020   0.355   0.981  0.00  0.00     0.162 A 
ATOM      6  C5  UNL d   1       0.863   1.157   0.218  0.00  0.00     0.062 A 
ATOM      7  F   UNL d   1       2.175   0.887   0.163  0.00  0.00    -0.097 F 
ATOM      8  F1  UNL d   1       0.544  -0.681   1.653  0.00  0.00    -0.096 F 
ATOM      9  I   UNL d   1      -2.610  -0.569   2.185  0.00  0.00    -0.060 I 
ATOM     10  F2  UNL d   1      -3.165   2.008   0.370  0.00  0.00    -0.096 F 
ATOM     11  F3  UNL d   1      -1.509   3.557  -1.110  0.00  0.00    -0.097 F 
ATOM     12  F4  UNL d   1       1.161   3.008  -1.221  0.00  0.00    -0.092 F 
ENDROOT
TORSDOF 0
ENDMDL
