MODEL 1
REMARK minimizedAffinity 31.9270058
REMARK minimizedRMSD -1
REMARK  0 active torsions:
REMARK  status: ('A' for Active; 'I' for Inactive)
ROOT
ATOM      1  C   UNL d   1       1.312   1.192  -3.781  0.00  0.00     0.124 A 
ATOM      2  C1  UNL d   1       2.338   0.549  -3.103  0.00  0.00     0.062 A 
ATOM      3  C2  UNL d   1       2.456   0.682  -1.723  0.00  0.00     0.162 A 
ATOM      4  C3  UNL d   1       1.543   1.460  -1.010  0.00  0.00    -0.034 A 
ATOM      5  C4  UNL d   1       0.514   2.105  -1.699  0.00  0.00     0.162 A 
ATOM      6  C5  UNL d   1       0.401   1.969  -3.079  0.00  0.00     0.062 A 
ATOM      7  F   UNL d   1      -0.591   2.591  -3.733  0.00  0.00    -0.097 F 
ATOM      8  F1  UNL d   1      -0.380   2.861  -1.045  0.00  0.00    -0.096 F 
ATOM      9  I   UNL d   1       1.716   1.661   1.054  0.00  0.00    -0.060 I 
ATOM     10  F2  UNL d   1       3.457   0.049  -1.093  0.00  0.00    -0.096 F 
ATOM     11  F3  UNL d   1       3.220  -0.201  -3.779  0.00  0.00    -0.097 F 
ATOM     12  F4  UNL d   1       1.202   1.063  -5.110  0.00  0.00    -0.092 F 
ENDROOT
TORSDOF 0
ENDMDL
