MODEL 1
REMARK minimizedAffinity 19.6682262
REMARK minimizedRMSD -1
REMARK  0 active torsions:
REMARK  status: ('A' for Active; 'I' for Inactive)
ROOT
ATOM      1  C   UNL d   1       2.368  -0.507   0.043  0.00  0.00     0.124 A 
ATOM      2  C1  UNL d   1       3.124  -0.905  -1.052  0.00  0.00     0.062 A 
ATOM      3  C2  UNL d   1       2.777  -0.483  -2.332  0.00  0.00     0.162 A 
ATOM      4  C3  UNL d   1       1.670   0.344  -2.525  0.00  0.00    -0.034 A 
ATOM      5  C4  UNL d   1       0.915   0.739  -1.419  0.00  0.00     0.162 A 
ATOM      6  C5  UNL d   1       1.265   0.314  -0.142  0.00  0.00     0.062 A 
ATOM      7  F   UNL d   1       0.535   0.699   0.915  0.00  0.00    -0.097 F 
ATOM      8  F1  UNL d   1      -0.155   1.533  -1.569  0.00  0.00    -0.096 F 
ATOM      9  I   UNL d   1       1.149   0.978  -4.437  0.00  0.00    -0.060 I 
ATOM     10  F2  UNL d   1       3.525  -0.882  -3.371  0.00  0.00    -0.096 F 
ATOM     11  F3  UNL d   1       4.189  -1.700  -0.876  0.00  0.00    -0.097 F 
ATOM     12  F4  UNL d   1       2.703  -0.916   1.273  0.00  0.00    -0.092 F 
ENDROOT
TORSDOF 0
ENDMDL
