MODEL 1
REMARK minimizedAffinity 17.8205833
REMARK minimizedRMSD -1
REMARK  0 active torsions:
REMARK  status: ('A' for Active; 'I' for Inactive)
ROOT
ATOM      1  C   UNL d   1       0.995  -5.969  -2.597  0.00  0.00     0.124 A 
ATOM      2  C1  UNL d   1       2.182  -5.957  -1.879  0.00  0.00     0.062 A 
ATOM      3  C2  UNL d   1       3.404  -5.954  -2.546  0.00  0.00     0.162 A 
ATOM      4  C3  UNL d   1       3.444  -5.962  -3.940  0.00  0.00    -0.034 A 
ATOM      5  C4  UNL d   1       2.245  -5.975  -4.656  0.00  0.00     0.162 A 
ATOM      6  C5  UNL d   1       1.027  -5.978  -3.984  0.00  0.00     0.062 A 
ATOM      7  F   UNL d   1      -0.119  -5.990  -4.680  0.00  0.00    -0.097 F 
ATOM      8  F1  UNL d   1       2.248  -5.983  -5.997  0.00  0.00    -0.096 F 
ATOM      9  I   UNL d   1       5.269  -5.957  -4.942  0.00  0.00    -0.060 I 
ATOM     10  F2  UNL d   1       4.536  -5.942  -1.827  0.00  0.00    -0.096 F 
ATOM     11  F3  UNL d   1       2.153  -5.949  -0.538  0.00  0.00    -0.097 F 
ATOM     12  F4  UNL d   1      -0.179  -5.973  -1.953  0.00  0.00    -0.092 F 
ENDROOT
TORSDOF 0
ENDMDL
