MODEL 1
REMARK minimizedAffinity 10.2803001
REMARK minimizedRMSD -1
REMARK  0 active torsions:
REMARK  status: ('A' for Active; 'I' for Inactive)
ROOT
ATOM      1  C   UNL d   1       3.305  -1.114  -0.833  0.00  0.00     0.124 A 
ATOM      2  C1  UNL d   1       3.899  -0.054  -1.504  0.00  0.00     0.062 A 
ATOM      3  C2  UNL d   1       3.708   1.251  -1.060  0.00  0.00     0.162 A 
ATOM      4  C3  UNL d   1       2.919   1.504   0.063  0.00  0.00    -0.034 A 
ATOM      5  C4  UNL d   1       2.324   0.433   0.732  0.00  0.00     0.162 A 
ATOM      6  C5  UNL d   1       2.518  -0.870   0.284  0.00  0.00     0.062 A 
ATOM      7  F   UNL d   1       1.944  -1.892   0.934  0.00  0.00    -0.097 F 
ATOM      8  F1  UNL d   1       1.560   0.640   1.815  0.00  0.00    -0.096 F 
ATOM      9  I   UNL d   1       2.631   3.454   0.730  0.00  0.00    -0.060 I 
ATOM     10  F2  UNL d   1       4.294   2.255  -1.728  0.00  0.00    -0.096 F 
ATOM     11  F3  UNL d   1       4.658  -0.288  -2.584  0.00  0.00    -0.097 F 
ATOM     12  F4  UNL d   1       3.489  -2.369  -1.263  0.00  0.00    -0.092 F 
ENDROOT
TORSDOF 0
ENDMDL
