MODEL 1
REMARK minimizedAffinity 11.0240488
REMARK minimizedRMSD -1
REMARK  0 active torsions:
REMARK  status: ('A' for Active; 'I' for Inactive)
ROOT
ATOM      1  C   UNL d   1       2.246   1.704  -5.979  0.00  0.00     0.124 A 
ATOM      2  C1  UNL d   1       1.062   0.980  -5.981  0.00  0.00     0.062 A 
ATOM      3  C2  UNL d   1      -0.163   1.641  -5.986  0.00  0.00     0.162 A 
ATOM      4  C3  UNL d   1      -0.210   3.035  -5.990  0.00  0.00    -0.034 A 
ATOM      5  C4  UNL d   1       0.985   3.756  -5.987  0.00  0.00     0.162 A 
ATOM      6  C5  UNL d   1       2.206   3.091  -5.982  0.00  0.00     0.062 A 
ATOM      7  F   UNL d   1       3.349   3.792  -5.980  0.00  0.00    -0.097 F 
ATOM      8  F1  UNL d   1       0.976   5.098  -5.991  0.00  0.00    -0.096 F 
ATOM      9  I   UNL d   1      -2.040   4.027  -5.998  0.00  0.00    -0.060 I 
ATOM     10  F2  UNL d   1      -1.292   0.916  -5.988  0.00  0.00    -0.096 F 
ATOM     11  F3  UNL d   1       1.097  -0.361  -5.977  0.00  0.00    -0.097 F 
ATOM     12  F4  UNL d   1       3.423   1.065  -5.973  0.00  0.00    -0.092 F 
ENDROOT
TORSDOF 0
ENDMDL
