MODEL 1
REMARK minimizedAffinity 21.4154587
REMARK minimizedRMSD -1
REMARK  0 active torsions:
REMARK  status: ('A' for Active; 'I' for Inactive)
ROOT
ATOM      1  C   UNL d   1       1.090   1.487   0.868  0.00  0.00     0.124 A 
ATOM      2  C1  UNL d   1       1.809   1.798   2.015  0.00  0.00     0.062 A 
ATOM      3  C2  UNL d   1       3.137   2.203   1.920  0.00  0.00     0.162 A 
ATOM      4  C3  UNL d   1       3.756   2.301   0.674  0.00  0.00    -0.034 A 
ATOM      5  C4  UNL d   1       3.027   1.986  -0.474  0.00  0.00     0.162 A 
ATOM      6  C5  UNL d   1       1.700   1.581  -0.375  0.00  0.00     0.062 A 
ATOM      7  F   UNL d   1       1.008   1.282  -1.483  0.00  0.00    -0.097 F 
ATOM      8  F1  UNL d   1       3.592   2.069  -1.688  0.00  0.00    -0.096 F 
ATOM      9  I   UNL d   1       5.742   2.906   0.528  0.00  0.00    -0.060 I 
ATOM     10  F2  UNL d   1       3.807   2.497   3.044  0.00  0.00    -0.096 F 
ATOM     11  F3  UNL d   1       1.222   1.707   3.217  0.00  0.00    -0.097 F 
ATOM     12  F4  UNL d   1      -0.187   1.097   0.962  0.00  0.00    -0.092 F 
ENDROOT
TORSDOF 0
ENDMDL
