MODEL 1
REMARK minimizedAffinity 19.5375061
REMARK minimizedRMSD -1
REMARK  0 active torsions:
REMARK  status: ('A' for Active; 'I' for Inactive)
ROOT
ATOM      1  C   UNL d   1       2.751   4.001  -0.395  0.00  0.00     0.124 A 
ATOM      2  C1  UNL d   1       3.744   4.657  -1.109  0.00  0.00     0.062 A 
ATOM      3  C2  UNL d   1       4.673   3.929  -1.847  0.00  0.00     0.162 A 
ATOM      4  C3  UNL d   1       4.613   2.535  -1.875  0.00  0.00    -0.034 A 
ATOM      5  C4  UNL d   1       3.612   1.883  -1.153  0.00  0.00     0.162 A 
ATOM      6  C5  UNL d   1       2.686   2.615  -0.417  0.00  0.00     0.062 A 
ATOM      7  F   UNL d   1       1.728   1.980   0.272  0.00  0.00    -0.097 F 
ATOM      8  F1  UNL d   1       3.525   0.544  -1.158  0.00  0.00    -0.096 F 
ATOM      9  I   UNL d   1       6.000   1.443  -2.977  0.00  0.00    -0.060 I 
ATOM     10  F2  UNL d   1       5.622   4.589  -2.528  0.00  0.00    -0.096 F 
ATOM     11  F3  UNL d   1       3.810   5.996  -1.088  0.00  0.00    -0.097 F 
ATOM     12  F4  UNL d   1       1.860   4.704   0.315  0.00  0.00    -0.092 F 
ENDROOT
TORSDOF 0
ENDMDL
