MODEL 1
REMARK minimizedAffinity 16.1421204
REMARK minimizedRMSD -1
REMARK  0 active torsions:
REMARK  status: ('A' for Active; 'I' for Inactive)
ROOT
ATOM      1  C   UNL d   1       0.386   2.097  -4.335  0.00  0.00     0.124 A 
ATOM      2  C1  UNL d   1      -0.307   2.703  -3.296  0.00  0.00     0.062 A 
ATOM      3  C2  UNL d   1       0.263   2.783  -2.028  0.00  0.00     0.162 A 
ATOM      4  C3  UNL d   1       1.533   2.257  -1.793  0.00  0.00    -0.034 A 
ATOM      5  C4  UNL d   1       2.223   1.649  -2.843  0.00  0.00     0.162 A 
ATOM      6  C5  UNL d   1       1.650   1.571  -4.108  0.00  0.00     0.062 A 
ATOM      7  F   UNL d   1       2.320   0.986  -5.111  0.00  0.00    -0.097 F 
ATOM      8  F1  UNL d   1       3.446   1.133  -2.651  0.00  0.00    -0.096 F 
ATOM      9  I   UNL d   1       2.388   2.375   0.101  0.00  0.00    -0.060 I 
ATOM     10  F2  UNL d   1      -0.430   3.373  -1.042  0.00  0.00    -0.096 F 
ATOM     11  F3  UNL d   1      -1.529   3.211  -3.512  0.00  0.00    -0.097 F 
ATOM     12  F4  UNL d   1      -0.165   2.021  -5.553  0.00  0.00    -0.092 F 
ENDROOT
TORSDOF 0
ENDMDL
