MODEL 1
REMARK minimizedAffinity 13.0607042
REMARK minimizedRMSD -1
REMARK  0 active torsions:
REMARK  status: ('A' for Active; 'I' for Inactive)
ROOT
ATOM      1  C   UNL d   1       2.452   3.113   3.384  0.00  0.00     0.124 A 
ATOM      2  C1  UNL d   1       3.802   2.793   3.386  0.00  0.00     0.062 A 
ATOM      3  C2  UNL d   1       4.700   3.551   4.131  0.00  0.00     0.162 A 
ATOM      4  C3  UNL d   1       4.250   4.636   4.883  0.00  0.00    -0.034 A 
ATOM      5  C4  UNL d   1       2.890   4.952   4.876  0.00  0.00     0.162 A 
ATOM      6  C5  UNL d   1       1.997   4.191   4.129  0.00  0.00     0.062 A 
ATOM      7  F   UNL d   1       0.692   4.502   4.129  0.00  0.00    -0.097 F 
ATOM      8  F1  UNL d   1       2.424   5.989   5.588  0.00  0.00    -0.096 F 
ATOM      9  I   UNL d   1       5.590   5.773   6.000  0.00  0.00    -0.060 I 
ATOM     10  F2  UNL d   1       6.000   3.220   4.114  0.00  0.00    -0.096 F 
ATOM     11  F3  UNL d   1       4.244   1.752   2.666  0.00  0.00    -0.097 F 
ATOM     12  F4  UNL d   1       1.590   2.382   2.665  0.00  0.00    -0.092 F 
ENDROOT
TORSDOF 0
ENDMDL
