MODEL 1
REMARK minimizedAffinity 23.6058979
REMARK minimizedRMSD -1
REMARK  0 active torsions:
REMARK  status: ('A' for Active; 'I' for Inactive)
ROOT
ATOM      1  C   UNL d   1       2.381   1.409   1.610  0.00  0.00     0.124 A 
ATOM      2  C1  UNL d   1       2.096   1.667   0.277  0.00  0.00     0.062 A 
ATOM      3  C2  UNL d   1       3.126   1.933  -0.621  0.00  0.00     0.162 A 
ATOM      4  C3  UNL d   1       4.452   1.941  -0.188  0.00  0.00    -0.034 A 
ATOM      5  C4  UNL d   1       4.731   1.681   1.155  0.00  0.00     0.162 A 
ATOM      6  C5  UNL d   1       3.698   1.416   2.048  0.00  0.00     0.062 A 
ATOM      7  F   UNL d   1       3.976   1.166   3.336  0.00  0.00    -0.097 F 
ATOM      8  F1  UNL d   1       5.995   1.680   1.605  0.00  0.00    -0.096 F 
ATOM      9  I   UNL d   1       5.995   2.338  -1.527  0.00  0.00    -0.060 I 
ATOM     10  F2  UNL d   1       2.821   2.180  -1.904  0.00  0.00    -0.096 F 
ATOM     11  F3  UNL d   1       0.824   1.662  -0.149  0.00  0.00    -0.097 F 
ATOM     12  F4  UNL d   1       1.388   1.154   2.472  0.00  0.00    -0.092 F 
ENDROOT
TORSDOF 0
ENDMDL
