MODEL 1
REMARK minimizedAffinity 11.4808006
REMARK minimizedRMSD -1
REMARK  0 active torsions:
REMARK  status: ('A' for Active; 'I' for Inactive)
ROOT
ATOM      1  C   UNL d   1       3.767   3.365   1.961  0.00  0.00     0.124 A 
ATOM      2  C1  UNL d   1       4.566   3.158   3.078  0.00  0.00     0.062 A 
ATOM      3  C2  UNL d   1       4.364   3.909   4.232  0.00  0.00     0.162 A 
ATOM      4  C3  UNL d   1       3.358   4.874   4.276  0.00  0.00    -0.034 A 
ATOM      5  C4  UNL d   1       2.560   5.078   3.149  0.00  0.00     0.162 A 
ATOM      6  C5  UNL d   1       2.766   4.324   1.998  0.00  0.00     0.062 A 
ATOM      7  F   UNL d   1       1.993   4.526   0.921  0.00  0.00    -0.097 F 
ATOM      8  F1  UNL d   1       1.584   5.998   3.158  0.00  0.00    -0.096 F 
ATOM      9  I   UNL d   1       3.053   6.000   6.000  0.00  0.00    -0.060 I 
ATOM     10  F2  UNL d   1       5.151   3.687   5.296  0.00  0.00    -0.096 F 
ATOM     11  F3  UNL d   1       5.535   2.232   3.044  0.00  0.00    -0.097 F 
ATOM     12  F4  UNL d   1       3.964   2.641   0.852  0.00  0.00    -0.092 F 
ENDROOT
TORSDOF 0
ENDMDL
