MODEL 1
REMARK minimizedAffinity 37.5966797
REMARK minimizedRMSD -1
REMARK  0 active torsions:
REMARK  status: ('A' for Active; 'I' for Inactive)
ROOT
ATOM      1  C   UNL d   1       0.102   0.189   0.132  0.00  0.00     0.124 A 
ATOM      2  C1  UNL d   1      -1.090   0.890   0.012  0.00  0.00     0.062 A 
ATOM      3  C2  UNL d   1      -2.249   0.408   0.614  0.00  0.00     0.162 A 
ATOM      4  C3  UNL d   1      -2.221  -0.781   1.342  0.00  0.00    -0.034 A 
ATOM      5  C4  UNL d   1      -1.019  -1.481   1.457  0.00  0.00     0.162 A 
ATOM      6  C5  UNL d   1       0.137  -0.995   0.854  0.00  0.00     0.062 A 
ATOM      7  F   UNL d   1       1.287  -1.674   0.971  0.00  0.00    -0.097 F 
ATOM      8  F1  UNL d   1      -0.957  -2.628   2.150  0.00  0.00    -0.096 F 
ATOM      9  I   UNL d   1      -3.952  -1.506   2.243  0.00  0.00    -0.060 I 
ATOM     10  F2  UNL d   1      -3.387   1.106   0.482  0.00  0.00    -0.096 F 
ATOM     11  F3  UNL d   1      -1.126   2.035  -0.685  0.00  0.00    -0.097 F 
ATOM     12  F4  UNL d   1       1.215   0.655  -0.448  0.00  0.00    -0.092 F 
ENDROOT
TORSDOF 0
ENDMDL
