MODEL 1
REMARK minimizedAffinity 31.6479511
REMARK minimizedRMSD -1
REMARK  0 active torsions:
REMARK  status: ('A' for Active; 'I' for Inactive)
ROOT
ATOM      1  C   UNL d   1      -4.806  -1.235   3.172  0.00  0.00     0.124 A 
ATOM      2  C1  UNL d   1      -4.194  -2.262   3.877  0.00  0.00     0.062 A 
ATOM      3  C2  UNL d   1      -2.954  -2.747   3.473  0.00  0.00     0.162 A 
ATOM      4  C3  UNL d   1      -2.315  -2.204   2.358  0.00  0.00    -0.034 A 
ATOM      5  C4  UNL d   1      -2.937  -1.171   1.653  0.00  0.00     0.162 A 
ATOM      6  C5  UNL d   1      -4.177  -0.691   2.061  0.00  0.00     0.062 A 
ATOM      7  F   UNL d   1      -4.767   0.302   1.379  0.00  0.00    -0.097 F 
ATOM      8  F1  UNL d   1      -2.352  -0.627   0.576  0.00  0.00    -0.096 F 
ATOM      9  I   UNL d   1      -0.460  -2.925   1.750  0.00  0.00    -0.060 I 
ATOM     10  F2  UNL d   1      -2.386  -3.740   4.173  0.00  0.00    -0.096 F 
ATOM     11  F3  UNL d   1      -4.800  -2.791   4.950  0.00  0.00    -0.097 F 
ATOM     12  F4  UNL d   1      -6.000  -0.771   3.563  0.00  0.00    -0.092 F 
ENDROOT
TORSDOF 0
ENDMDL
