MODEL 1
REMARK minimizedAffinity 38.6263199
REMARK minimizedRMSD -1
REMARK  0 active torsions:
REMARK  status: ('A' for Active; 'I' for Inactive)
ROOT
ATOM      1  C   UNL d   1      -3.598   4.175  -5.659  0.00  0.00     0.124 A 
ATOM      2  C1  UNL d   1      -3.858   2.821  -5.824  0.00  0.00     0.062 A 
ATOM      3  C2  UNL d   1      -2.811   1.903  -5.827  0.00  0.00     0.162 A 
ATOM      4  C3  UNL d   1      -1.495   2.336  -5.662  0.00  0.00    -0.034 A 
ATOM      5  C4  UNL d   1      -1.242   3.699  -5.497  0.00  0.00     0.162 A 
ATOM      6  C5  UNL d   1      -2.292   4.612  -5.495  0.00  0.00     0.062 A 
ATOM      7  F   UNL d   1      -2.039   5.919  -5.336  0.00  0.00    -0.097 F 
ATOM      8  F1  UNL d   1       0.011   4.149  -5.336  0.00  0.00    -0.096 F 
ATOM      9  I   UNL d   1       0.072   0.966  -5.665  0.00  0.00    -0.060 I 
ATOM     10  F2  UNL d   1      -3.091   0.602  -5.988  0.00  0.00    -0.096 F 
ATOM     11  F3  UNL d   1      -5.119   2.396  -5.983  0.00  0.00    -0.097 F 
ATOM     12  F4  UNL d   1      -4.607   5.056  -5.658  0.00  0.00    -0.092 F 
ENDROOT
TORSDOF 0
ENDMDL
