MODEL 1
REMARK minimizedAffinity 28.9810581
REMARK minimizedRMSD -1
REMARK  0 active torsions:
REMARK  status: ('A' for Active; 'I' for Inactive)
ROOT
ATOM      1  C   UNL d   1       2.658   2.183   2.844  0.00  0.00     0.124 A 
ATOM      2  C1  UNL d   1       1.486   2.636   3.433  0.00  0.00     0.062 A 
ATOM      3  C2  UNL d   1       1.514   3.725   4.299  0.00  0.00     0.162 A 
ATOM      4  C3  UNL d   1       2.718   4.371   4.580  0.00  0.00    -0.034 A 
ATOM      5  C4  UNL d   1       3.893   3.909   3.984  0.00  0.00     0.162 A 
ATOM      6  C5  UNL d   1       3.860   2.819   3.119  0.00  0.00     0.062 A 
ATOM      7  F   UNL d   1       4.994   2.383   2.551  0.00  0.00    -0.097 F 
ATOM      8  F1  UNL d   1       5.068   4.506   4.232  0.00  0.00    -0.096 F 
ATOM      9  I   UNL d   1       2.764   6.000   5.874  0.00  0.00    -0.060 I 
ATOM     10  F2  UNL d   1       0.366   4.142   4.855  0.00  0.00    -0.096 F 
ATOM     11  F3  UNL d   1       0.324   2.022   3.169  0.00  0.00    -0.097 F 
ATOM     12  F4  UNL d   1       2.629   1.134   2.012  0.00  0.00    -0.092 F 
ENDROOT
TORSDOF 0
ENDMDL
