MODEL 1
REMARK minimizedAffinity 2.3427875
REMARK minimizedRMSD -1
REMARK  0 active torsions:
REMARK  status: ('A' for Active; 'I' for Inactive)
ROOT
ATOM      1  C1  DEN d   1       1.229  -0.906  -0.411  0.00  0.00     0.130 A 
ATOM      2  C2  DEN d   1       2.543  -1.388   0.005  0.00  0.00    -0.031 A 
ATOM      3  C3  DEN d   1       3.314  -0.234   0.508  0.00  0.00     0.027 A 
ATOM      4  C4  DEN d   1       2.604   2.239   0.687  0.00  0.00     0.027 A 
ATOM      5  C5  DEN d   1       1.585   3.135   0.447  0.00  0.00    -0.003 A 
ATOM      6  C6  DEN d   1       0.399   2.755  -0.123  0.00  0.00     0.001 A 
ATOM      7  C7  DEN d   1       0.184   1.438  -0.431  0.00  0.00     0.017 A 
ATOM      8  C8  DEN d   1       1.209   0.530  -0.198  0.00  0.00    -0.094 A 
ATOM      9  C9  DEN d   1       2.397   0.931   0.390  0.00  0.00    -0.072 A 
ENDROOT
TORSDOF 0
ENDMDL
