MODEL 1
REMARK minimizedAffinity 7.14850807
REMARK minimizedRMSD -1
REMARK  0 active torsions:
REMARK  status: ('A' for Active; 'I' for Inactive)
ROOT
ATOM      1  C1  DEN d   1       1.754   1.627   1.514  0.00  0.00     0.130 A 
ATOM      2  C2  DEN d   1       1.051   1.992   0.287  0.00  0.00    -0.031 A 
ATOM      3  C3  DEN d   1       1.182   0.871  -0.665  0.00  0.00     0.027 A 
ATOM      4  C4  DEN d   1       2.394  -1.385  -0.357  0.00  0.00     0.027 A 
ATOM      5  C5  DEN d   1       3.146  -2.146   0.510  0.00  0.00    -0.003 A 
ATOM      6  C6  DEN d   1       3.513  -1.693   1.749  0.00  0.00     0.001 A 
ATOM      7  C7  DEN d   1       3.089  -0.462   2.175  0.00  0.00     0.017 A 
ATOM      8  C8  DEN d   1       2.337   0.315   1.303  0.00  0.00    -0.094 A 
ATOM      9  C9  DEN d   1       1.966  -0.166   0.059  0.00  0.00    -0.072 A 
ENDROOT
TORSDOF 0
ENDMDL
