MODEL 1
REMARK minimizedAffinity 6.58012867
REMARK minimizedRMSD -1
REMARK  0 active torsions:
REMARK  status: ('A' for Active; 'I' for Inactive)
ROOT
ATOM      1  C1  DEN d   1      -1.584   1.334   2.669  0.00  0.00     0.130 A 
ATOM      2  C2  DEN d   1      -0.975   0.413   3.624  0.00  0.00    -0.031 A 
ATOM      3  C3  DEN d   1       0.404   0.135   3.175  0.00  0.00     0.027 A 
ATOM      4  C4  DEN d   1       1.649   1.039   1.105  0.00  0.00     0.027 A 
ATOM      5  C5  DEN d   1       1.540   1.842  -0.009  0.00  0.00    -0.003 A 
ATOM      6  C6  DEN d   1       0.380   2.500  -0.324  0.00  0.00     0.001 A 
ATOM      7  C7  DEN d   1      -0.703   2.402   0.508  0.00  0.00     0.017 A 
ATOM      8  C8  DEN d   1      -0.603   1.588   1.629  0.00  0.00    -0.094 A 
ATOM      9  C9  DEN d   1       0.582   0.942   1.937  0.00  0.00    -0.072 A 
ENDROOT
TORSDOF 0
ENDMDL
