MODEL 1
REMARK minimizedAffinity 5.99051857
REMARK minimizedRMSD -1
REMARK  0 active torsions:
REMARK  status: ('A' for Active; 'I' for Inactive)
ROOT
ATOM      1  C1  DEN d   1       0.918   1.519  -0.634  0.00  0.00     0.130 A 
ATOM      2  C2  DEN d   1       1.154   2.579   0.342  0.00  0.00    -0.031 A 
ATOM      3  C3  DEN d   1       2.066   2.051   1.377  0.00  0.00     0.027 A 
ATOM      4  C4  DEN d   1       3.134  -0.289   1.559  0.00  0.00     0.027 A 
ATOM      5  C5  DEN d   1       3.221  -1.532   0.972  0.00  0.00    -0.003 A 
ATOM      6  C6  DEN d   1       2.525  -1.854  -0.164  0.00  0.00     0.001 A 
ATOM      7  C7  DEN d   1       1.747  -0.906  -0.774  0.00  0.00     0.017 A 
ATOM      8  C8  DEN d   1       1.648   0.347  -0.184  0.00  0.00    -0.094 A 
ATOM      9  C9  DEN d   1       2.369   0.656   0.958  0.00  0.00    -0.072 A 
ENDROOT
TORSDOF 0
ENDMDL
