MODEL 1
REMARK minimizedAffinity 5.98054075
REMARK minimizedRMSD -1
REMARK  0 active torsions:
REMARK  status: ('A' for Active; 'I' for Inactive)
ROOT
ATOM      1  C1  DEN d   1      -3.939   0.512   0.111  0.00  0.00     0.130 A 
ATOM      2  C2  DEN d   1      -3.763   0.756   1.540  0.00  0.00    -0.031 A 
ATOM      3  C3  DEN d   1      -2.379   1.226   1.755  0.00  0.00     0.027 A 
ATOM      4  C4  DEN d   1      -0.505   1.600   0.023  0.00  0.00     0.027 A 
ATOM      5  C5  DEN d   1      -0.178   1.517  -1.313  0.00  0.00    -0.003 A 
ATOM      6  C6  DEN d   1      -1.063   1.064  -2.255  0.00  0.00     0.001 A 
ATOM      7  C7  DEN d   1      -2.335   0.720  -1.880  0.00  0.00     0.017 A 
ATOM      8  C8  DEN d   1      -2.670   0.794  -0.535  0.00  0.00    -0.094 A 
ATOM      9  C9  DEN d   1      -1.765   1.266   0.400  0.00  0.00    -0.072 A 
ENDROOT
TORSDOF 0
ENDMDL
