MODEL 1
REMARK minimizedAffinity 0.611338139
REMARK minimizedRMSD -1
REMARK  0 active torsions:
REMARK  status: ('A' for Active; 'I' for Inactive)
ROOT
ATOM      1  C1  DEN d   1       2.661  -1.122  -0.446  0.00  0.00     0.130 A 
ATOM      2  C2  DEN d   1       3.452  -0.391   0.539  0.00  0.00    -0.031 A 
ATOM      3  C3  DEN d   1       2.740   0.864   0.855  0.00  0.00     0.027 A 
ATOM      4  C4  DEN d   1       0.500   1.738  -0.078  0.00  0.00     0.027 A 
ATOM      5  C5  DEN d   1      -0.534   1.472  -0.947  0.00  0.00    -0.003 A 
ATOM      6  C6  DEN d   1      -0.559   0.348  -1.730  0.00  0.00     0.001 A 
ATOM      7  C7  DEN d   1       0.448  -0.575  -1.625  0.00  0.00     0.017 A 
ATOM      8  C8  DEN d   1       1.498  -0.309  -0.755  0.00  0.00    -0.094 A 
ATOM      9  C9  DEN d   1       1.499   0.827   0.036  0.00  0.00    -0.072 A 
ENDROOT
TORSDOF 0
ENDMDL
