MODEL 1
REMARK minimizedAffinity 0.619529784
REMARK minimizedRMSD -1
REMARK  0 active torsions:
REMARK  status: ('A' for Active; 'I' for Inactive)
ROOT
ATOM      1  C1  DEN d   1       2.729  -2.156  -1.224  0.00  0.00     0.130 A 
ATOM      2  C2  DEN d   1       1.453  -2.580  -0.656  0.00  0.00    -0.031 A 
ATOM      3  C3  DEN d   1       0.906  -1.456   0.130  0.00  0.00     0.027 A 
ATOM      4  C4  DEN d   1       1.904   0.891   0.515  0.00  0.00     0.027 A 
ATOM      5  C5  DEN d   1       2.975   1.713   0.245  0.00  0.00    -0.003 A 
ATOM      6  C6  DEN d   1       4.047   1.296  -0.499  0.00  0.00     0.001 A 
ATOM      7  C7  DEN d   1       4.050   0.036  -1.037  0.00  0.00     0.017 A 
ATOM      8  C8  DEN d   1       2.976  -0.801  -0.763  0.00  0.00    -0.094 A 
ATOM      9  C9  DEN d   1       1.897  -0.356  -0.019  0.00  0.00    -0.072 A 
ENDROOT
TORSDOF 0
ENDMDL
