MODEL 1
REMARK minimizedAffinity 13.0229731
REMARK minimizedRMSD -1
REMARK  0 active torsions:
REMARK  status: ('A' for Active; 'I' for Inactive)
ROOT
ATOM      1  C4' PXY d   1      -1.992  -5.144   5.895  0.00  0.00     0.077 C 
ATOM      2  C1' PXY d   1      -1.376  -5.141   0.147  0.00  0.00     0.077 C 
ATOM      3  C1  PXY d   1      -1.526  -5.136   1.656  0.00  0.00    -0.082 A 
ATOM      4  C2  PXY d   1      -2.344  -6.000   2.235  0.00  0.00     0.003 A 
ATOM      5  C3  PXY d   1      -2.516  -5.988   3.595  0.00  0.00     0.003 A 
ATOM      6  C4  PXY d   1      -1.802  -5.119   4.376  0.00  0.00    -0.082 A 
ATOM      7  C5  PXY d   1      -0.957  -4.242   3.793  0.00  0.00     0.003 A 
ATOM      8  C6  PXY d   1      -0.829  -4.242   2.407  0.00  0.00     0.003 A 
ENDROOT
TORSDOF 0
ENDMDL
