MODEL 1
REMARK minimizedAffinity 12.7701206
REMARK minimizedRMSD -1
REMARK  0 active torsions:
REMARK  status: ('A' for Active; 'I' for Inactive)
ROOT
ATOM      1  C4' PXY d   1       1.789  -2.710   0.901  0.00  0.00     0.077 C 
ATOM      2  C1' PXY d   1       3.276   2.490  -1.140  0.00  0.00     0.077 C 
ATOM      3  C1  PXY d   1       2.897   1.126  -0.597  0.00  0.00    -0.082 A 
ATOM      4  C2  PXY d   1       2.109   0.335  -1.308  0.00  0.00     0.003 A 
ATOM      5  C3  PXY d   1       1.730  -0.888  -0.818  0.00  0.00     0.003 A 
ATOM      6  C4  PXY d   1       2.205  -1.328   0.388  0.00  0.00    -0.082 A 
ATOM      7  C5  PXY d   1       3.018  -0.531   1.115  0.00  0.00     0.003 A 
ATOM      8  C6  PXY d   1       3.357   0.724   0.618  0.00  0.00     0.003 A 
ENDROOT
TORSDOF 0
ENDMDL
