MODEL 1
REMARK minimizedAffinity 6.87184095
REMARK minimizedRMSD -1
REMARK  0 active torsions:
REMARK  status: ('A' for Active; 'I' for Inactive)
ROOT
ATOM      1  C4' PXY d   1      -4.797   2.135   1.547  0.00  0.00     0.077 C 
ATOM      2  C1' PXY d   1      -5.018  -0.243  -3.717  0.00  0.00     0.077 C 
ATOM      3  C1  PXY d   1      -4.958   0.369  -2.331  0.00  0.00    -0.082 A 
ATOM      4  C2  PXY d   1      -5.609   1.494  -2.084  0.00  0.00     0.003 A 
ATOM      5  C3  PXY d   1      -5.539   2.078  -0.846  0.00  0.00     0.003 A 
ATOM      6  C4  PXY d   1      -4.838   1.476   0.165  0.00  0.00    -0.082 A 
ATOM      7  C5  PXY d   1      -4.180   0.323  -0.076  0.00  0.00     0.003 A 
ATOM      8  C6  PXY d   1      -4.230  -0.232  -1.351  0.00  0.00     0.003 A 
ENDROOT
TORSDOF 0
ENDMDL
