MODEL 1
REMARK minimizedAffinity 8.69966412
REMARK minimizedRMSD -1
REMARK  0 active torsions:
REMARK  status: ('A' for Active; 'I' for Inactive)
ROOT
ATOM      1  C4' PXY d   1       2.252  -0.507  -0.009  0.00  0.00     0.077 C 
ATOM      2  C1' PXY d   1       6.000   3.742  -1.159  0.00  0.00     0.077 C 
ATOM      3  C1  PXY d   1       5.023   2.626  -0.846  0.00  0.00    -0.082 A 
ATOM      4  C2  PXY d   1       4.425   1.983  -1.836  0.00  0.00     0.003 A 
ATOM      5  C3  PXY d   1       3.514   0.993  -1.570  0.00  0.00     0.003 A 
ATOM      6  C4  PXY d   1       3.253   0.620  -0.278  0.00  0.00    -0.082 A 
ATOM      7  C5  PXY d   1       3.868   1.264   0.737  0.00  0.00     0.003 A 
ATOM      8  C6  PXY d   1       4.757   2.294   0.447  0.00  0.00     0.003 A 
ENDROOT
TORSDOF 0
ENDMDL
