MODEL 1
REMARK minimizedAffinity 9.0687027
REMARK minimizedRMSD -1
REMARK  0 active torsions:
REMARK  status: ('A' for Active; 'I' for Inactive)
ROOT
ATOM      1  C4' PXY d   1      -4.500   1.126   1.460  0.00  0.00     0.077 C 
ATOM      2  C1' PXY d   1      -5.313  -0.438  -4.045  0.00  0.00     0.077 C 
ATOM      3  C1  PXY d   1      -5.092  -0.038  -2.599  0.00  0.00    -0.082 A 
ATOM      4  C2  PXY d   1      -6.000   0.697  -1.978  0.00  0.00     0.003 A 
ATOM      5  C3  PXY d   1      -5.801   1.094  -0.681  0.00  0.00     0.003 A 
ATOM      6  C4  PXY d   1      -4.686   0.691   0.004  0.00  0.00    -0.082 A 
ATOM      7  C5  PXY d   1      -3.760  -0.068  -0.620  0.00  0.00     0.003 A 
ATOM      8  C6  PXY d   1      -3.961  -0.426  -1.950  0.00  0.00     0.003 A 
ENDROOT
TORSDOF 0
ENDMDL
