MODEL 1
REMARK minimizedAffinity 4.5368576
REMARK minimizedRMSD -1
REMARK  0 active torsions:
REMARK  status: ('A' for Active; 'I' for Inactive)
ROOT
ATOM      1  C4' PXY d   1      -4.126   0.368   0.376  0.00  0.00     0.077 C 
ATOM      2  C1' PXY d   1      -5.448   0.493  -5.250  0.00  0.00     0.077 C 
ATOM      3  C1  PXY d   1      -5.092   0.452  -3.777  0.00  0.00    -0.082 A 
ATOM      4  C2  PXY d   1      -6.000   0.788  -2.875  0.00  0.00     0.003 A 
ATOM      5  C3  PXY d   1      -5.685   0.787  -1.540  0.00  0.00     0.003 A 
ATOM      6  C4  PXY d   1      -4.445   0.386  -1.121  0.00  0.00    -0.082 A 
ATOM      7  C5  PXY d   1      -3.516   0.031  -2.035  0.00  0.00     0.003 A 
ATOM      8  C6  PXY d   1      -3.843   0.079  -3.387  0.00  0.00     0.003 A 
ENDROOT
TORSDOF 0
ENDMDL
