MODEL 1
REMARK minimizedAffinity 4.25174236
REMARK minimizedRMSD -1
REMARK  0 active torsions:
REMARK  status: ('A' for Active; 'I' for Inactive)
ROOT
ATOM      1  C4' PXY d   1       1.840  -2.602   0.533  0.00  0.00     0.077 C 
ATOM      2  C1' PXY d   1       4.154   2.417  -1.161  0.00  0.00     0.077 C 
ATOM      3  C1  PXY d   1       3.536   1.104  -0.723  0.00  0.00    -0.082 A 
ATOM      4  C2  PXY d   1       4.003   0.487   0.351  0.00  0.00     0.003 A 
ATOM      5  C3  PXY d   1       3.477  -0.717   0.743  0.00  0.00     0.003 A 
ATOM      6  C4  PXY d   1       2.427  -1.270   0.059  0.00  0.00    -0.082 A 
ATOM      7  C5  PXY d   1       1.939  -0.642  -1.031  0.00  0.00     0.003 A 
ATOM      8  C6  PXY d   1       2.514   0.559  -1.437  0.00  0.00     0.003 A 
ENDROOT
TORSDOF 0
ENDMDL
