MODEL 1
REMARK minimizedAffinity -2.40829682
REMARK minimizedRMSD -1
REMARK  0 active torsions:
REMARK  status: ('A' for Active; 'I' for Inactive)
ROOT
ATOM      1  C   UNL d   1       1.740   5.787  -5.626  0.00  0.00     0.172 C 
ATOM      2  N   UNL d   1       2.879   4.900  -5.587  0.00  0.00    -0.070 N 
ATOM      3  C1  UNL d   1       4.148   5.212  -6.000  0.00  0.00    -0.004 A 
ATOM      4  C2  UNL d   1       4.941   4.103  -5.800  0.00  0.00    -0.047 A 
ATOM      5  C3  UNL d   1       4.121   3.089  -5.249  0.00  0.00    -0.047 A 
ATOM      6  C4  UNL d   1       2.850   3.610  -5.128  0.00  0.00    -0.004 A 
ENDROOT
TORSDOF 0
ENDMDL
