MODEL 1
REMARK minimizedAffinity -1.85486984
REMARK minimizedRMSD -1
REMARK  0 active torsions:
REMARK  status: ('A' for Active; 'I' for Inactive)
ROOT
ATOM      1  C   UNL d   1       5.994   5.512  -5.999  0.00  0.00     0.172 C 
ATOM      2  N   UNL d   1       4.939   4.554  -5.766  0.00  0.00    -0.070 N 
ATOM      3  C1  UNL d   1       3.692   4.843  -5.281  0.00  0.00    -0.004 A 
ATOM      4  C2  UNL d   1       2.985   3.663  -5.204  0.00  0.00    -0.047 A 
ATOM      5  C3  UNL d   1       3.837   2.628  -5.658  0.00  0.00    -0.047 A 
ATOM      6  C4  UNL d   1       5.041   3.208  -5.999  0.00  0.00    -0.004 A 
ENDROOT
TORSDOF 0
ENDMDL
