MODEL 1
REMARK minimizedAffinity -2.64714551
REMARK minimizedRMSD -1
REMARK  0 active torsions:
REMARK  status: ('A' for Active; 'I' for Inactive)
ROOT
ATOM      1  C   UNL d   1       1.919   5.925  -5.980  0.00  0.00     0.172 C 
ATOM      2  N   UNL d   1       2.882   4.849  -5.985  0.00  0.00    -0.070 N 
ATOM      3  C1  UNL d   1       4.244   4.996  -6.000  0.00  0.00    -0.004 A 
ATOM      4  C2  UNL d   1       4.805   3.738  -5.999  0.00  0.00    -0.047 A 
ATOM      5  C3  UNL d   1       3.744   2.801  -5.984  0.00  0.00    -0.047 A 
ATOM      6  C4  UNL d   1       2.565   3.516  -5.975  0.00  0.00    -0.004 A 
ENDROOT
TORSDOF 0
ENDMDL
