MODEL 1
REMARK minimizedAffinity -2.74458623
REMARK minimizedRMSD -1
REMARK  0 active torsions:
REMARK  status: ('A' for Active; 'I' for Inactive)
ROOT
ATOM      1  C   UNL d   1       1.535   5.991  -6.000  0.00  0.00     0.172 C 
ATOM      2  N   UNL d   1       2.534   4.956  -5.878  0.00  0.00    -0.070 N 
ATOM      3  C1  UNL d   1       3.887   5.134  -5.999  0.00  0.00    -0.004 A 
ATOM      4  C2  UNL d   1       4.491   3.909  -5.817  0.00  0.00    -0.047 A 
ATOM      5  C3  UNL d   1       3.467   2.962  -5.579  0.00  0.00    -0.047 A 
ATOM      6  C4  UNL d   1       2.265   3.637  -5.622  0.00  0.00    -0.004 A 
ENDROOT
TORSDOF 0
ENDMDL
