MODEL 1
REMARK minimizedAffinity -2.62526345
REMARK minimizedRMSD -1
REMARK  0 active torsions:
REMARK  status: ('A' for Active; 'I' for Inactive)
ROOT
ATOM      1  C   UNL d   1       3.382   2.168  -5.999  0.00  0.00     0.172 C 
ATOM      2  N   UNL d   1       3.189   3.582  -5.776  0.00  0.00    -0.070 N 
ATOM      3  C1  UNL d   1       4.121   4.560  -6.000  0.00  0.00    -0.004 A 
ATOM      4  C2  UNL d   1       3.552   5.770  -5.666  0.00  0.00    -0.047 A 
ATOM      5  C3  UNL d   1       2.233   5.510  -5.225  0.00  0.00    -0.047 A 
ATOM      6  C4  UNL d   1       2.035   4.147  -5.303  0.00  0.00    -0.004 A 
ENDROOT
TORSDOF 0
ENDMDL
