MODEL 1
REMARK minimizedAffinity -2.91126156
REMARK minimizedRMSD -1
REMARK  0 active torsions:
REMARK  status: ('A' for Active; 'I' for Inactive)
ROOT
ATOM      1  C   UNL d   1       1.168   4.125  -5.663  0.00  0.00     0.172 C 
ATOM      2  N   UNL d   1       2.559   3.759  -5.538  0.00  0.00    -0.070 N 
ATOM      3  C1  UNL d   1       3.621   4.490  -6.000  0.00  0.00    -0.004 A 
ATOM      4  C2  UNL d   1       4.774   3.804  -5.684  0.00  0.00    -0.047 A 
ATOM      5  C3  UNL d   1       4.392   2.620  -5.011  0.00  0.00    -0.047 A 
ATOM      6  C4  UNL d   1       3.016   2.617  -4.934  0.00  0.00    -0.004 A 
ENDROOT
TORSDOF 0
ENDMDL
