MODEL 1
REMARK minimizedAffinity -1.66326511
REMARK minimizedRMSD -1
REMARK  0 active torsions:
REMARK  status: ('A' for Active; 'I' for Inactive)
ROOT
ATOM      1  C   UNL d   1       1.611   4.548  -5.600  0.00  0.00     0.172 C 
ATOM      2  N   UNL d   1       3.008   4.198  -5.701  0.00  0.00    -0.070 N 
ATOM      3  C1  UNL d   1       4.028   5.061  -6.000  0.00  0.00    -0.004 A 
ATOM      4  C2  UNL d   1       5.204   4.341  -5.998  0.00  0.00    -0.047 A 
ATOM      5  C3  UNL d   1       4.879   2.999  -5.689  0.00  0.00    -0.047 A 
ATOM      6  C4  UNL d   1       3.513   2.939  -5.510  0.00  0.00    -0.004 A 
ENDROOT
TORSDOF 0
ENDMDL
