MODEL 1
REMARK minimizedAffinity -2.86016369
REMARK minimizedRMSD -1
REMARK  0 active torsions:
REMARK  status: ('A' for Active; 'I' for Inactive)
ROOT
ATOM      1  C   UNL d   1       1.849   5.959  -6.000  0.00  0.00     0.172 C 
ATOM      2  N   UNL d   1       2.908   5.000  -5.790  0.00  0.00    -0.070 N 
ATOM      3  C1  UNL d   1       4.242   5.225  -5.999  0.00  0.00    -0.004 A 
ATOM      4  C2  UNL d   1       4.920   4.067  -5.685  0.00  0.00    -0.047 A 
ATOM      5  C3  UNL d   1       3.960   3.112  -5.274  0.00  0.00    -0.047 A 
ATOM      6  C4  UNL d   1       2.722   3.716  -5.349  0.00  0.00    -0.004 A 
ENDROOT
TORSDOF 0
ENDMDL
