MODEL 1
REMARK minimizedAffinity -2.87682009
REMARK minimizedRMSD -1
REMARK  0 active torsions:
REMARK  status: ('A' for Active; 'I' for Inactive)
ROOT
ATOM      1  C   UNL d   1       1.860   5.912  -5.962  0.00  0.00     0.172 C 
ATOM      2  N   UNL d   1       2.991   5.016  -5.916  0.00  0.00    -0.070 N 
ATOM      3  C1  UNL d   1       4.307   5.387  -5.998  0.00  0.00    -0.004 A 
ATOM      4  C2  UNL d   1       5.073   4.244  -5.916  0.00  0.00    -0.047 A 
ATOM      5  C3  UNL d   1       4.187   3.149  -5.781  0.00  0.00    -0.047 A 
ATOM      6  C4  UNL d   1       2.905   3.655  -5.784  0.00  0.00    -0.004 A 
ENDROOT
TORSDOF 0
ENDMDL
