MODEL 1
REMARK minimizedAffinity 1.93643558
REMARK minimizedRMSD -1
REMARK  0 active torsions:
REMARK  status: ('A' for Active; 'I' for Inactive)
ROOT
ATOM      1  C   UNL d   1       0.083   2.153   2.727  0.00  0.00     0.172 C 
ATOM      2  N   UNL d   1       1.310   1.593   2.212  0.00  0.00    -0.070 N 
ATOM      3  C1  UNL d   1       2.255   2.270   1.487  0.00  0.00    -0.004 A 
ATOM      4  C2  UNL d   1       3.269   1.387   1.187  0.00  0.00    -0.047 A 
ATOM      5  C3  UNL d   1       2.922   0.136   1.749  0.00  0.00    -0.047 A 
ATOM      6  C4  UNL d   1       1.705   0.292   2.378  0.00  0.00    -0.004 A 
ENDROOT
TORSDOF 0
ENDMDL
