MODEL 1
REMARK minimizedAffinity -2.10879803
REMARK minimizedRMSD -1
REMARK  0 active torsions:
REMARK  status: ('A' for Active; 'I' for Inactive)
ROOT
ATOM      1  C   UNL d   1       4.857   1.949  -5.896  0.00  0.00     0.172 C 
ATOM      2  N   UNL d   1       4.860   3.385  -5.743  0.00  0.00    -0.070 N 
ATOM      3  C1  UNL d   1       3.804   4.217  -6.000  0.00  0.00    -0.004 A 
ATOM      4  C2  UNL d   1       4.208   5.507  -5.730  0.00  0.00    -0.047 A 
ATOM      5  C3  UNL d   1       5.554   5.448  -5.297  0.00  0.00    -0.047 A 
ATOM      6  C4  UNL d   1       5.933   4.122  -5.314  0.00  0.00    -0.004 A 
ENDROOT
TORSDOF 0
ENDMDL
