MODEL 1
REMARK minimizedAffinity 1.74868178
REMARK minimizedRMSD -1
REMARK  0 active torsions:
REMARK  status: ('A' for Active; 'I' for Inactive)
ROOT
ATOM      1  C   UNL d   1       6.000  -0.187   2.621  0.00  0.00     0.172 C 
ATOM      2  N   UNL d   1       4.694   0.103   2.078  0.00  0.00    -0.070 N 
ATOM      3  C1  UNL d   1       4.445   0.798   0.925  0.00  0.00    -0.004 A 
ATOM      4  C2  UNL d   1       3.079   0.859   0.755  0.00  0.00    -0.047 A 
ATOM      5  C3  UNL d   1       2.486   0.177   1.845  0.00  0.00    -0.047 A 
ATOM      6  C4  UNL d   1       3.508  -0.280   2.648  0.00  0.00    -0.004 A 
ENDROOT
TORSDOF 0
ENDMDL
