MODEL 1
REMARK minimizedAffinity -0.056735754
REMARK minimizedRMSD -1
REMARK  0 active torsions:
REMARK  status: ('A' for Active; 'I' for Inactive)
ROOT
ATOM      1  C   UNL d   1       1.588   5.990  -4.075  0.00  0.00     0.172 C 
ATOM      2  N   UNL d   1       2.940   5.990  -4.583  0.00  0.00    -0.070 N 
ATOM      3  C1  UNL d   1       4.079   5.985  -3.822  0.00  0.00    -0.004 A 
ATOM      4  C2  UNL d   1       5.158   5.987  -4.679  0.00  0.00    -0.047 A 
ATOM      5  C3  UNL d   1       4.651   5.994  -6.000  0.00  0.00    -0.047 A 
ATOM      6  C4  UNL d   1       3.275   5.996  -5.911  0.00  0.00    -0.004 A 
ENDROOT
TORSDOF 0
ENDMDL
