MODEL 1
REMARK minimizedAffinity 1.87569892
REMARK minimizedRMSD -1
REMARK  0 active torsions:
REMARK  status: ('A' for Active; 'I' for Inactive)
ROOT
ATOM      1  C   UNL d   1       1.141  -1.306   0.618  0.00  0.00     0.172 C 
ATOM      2  N   UNL d   1       1.907  -0.082   0.639  0.00  0.00    -0.070 N 
ATOM      3  C1  UNL d   1       3.142   0.076   1.210  0.00  0.00    -0.004 A 
ATOM      4  C2  UNL d   1       3.531   1.384   1.017  0.00  0.00    -0.047 A 
ATOM      5  C3  UNL d   1       2.495   2.034   0.307  0.00  0.00    -0.047 A 
ATOM      6  C4  UNL d   1       1.502   1.103   0.085  0.00  0.00    -0.004 A 
ENDROOT
TORSDOF 0
ENDMDL
