MODEL 1
REMARK minimizedAffinity -0.402964622
REMARK minimizedRMSD -1
REMARK  0 active torsions:
REMARK  status: ('A' for Active; 'I' for Inactive)
ROOT
ATOM      1  C   UNL d   1       2.468   0.303   1.645  0.00  0.00     0.172 C 
ATOM      2  N   UNL d   1       1.301  -0.481   1.315  0.00  0.00    -0.070 N 
ATOM      3  C1  UNL d   1       0.006  -0.148   1.610  0.00  0.00    -0.004 A 
ATOM      4  C2  UNL d   1      -0.808  -1.151   1.129  0.00  0.00    -0.047 A 
ATOM      5  C3  UNL d   1       0.027  -2.120   0.524  0.00  0.00    -0.047 A 
ATOM      6  C4  UNL d   1       1.328  -1.681   0.653  0.00  0.00    -0.004 A 
ENDROOT
TORSDOF 0
ENDMDL
