MODEL 1
REMARK minimizedAffinity -2.11716461
REMARK minimizedRMSD -1
REMARK  0 active torsions:
REMARK  status: ('A' for Active; 'I' for Inactive)
ROOT
ATOM      1  C   UNL d   1       5.404   5.929  -5.997  0.00  0.00     0.172 C 
ATOM      2  N   UNL d   1       4.119   5.315  -5.755  0.00  0.00    -0.070 N 
ATOM      3  C1  UNL d   1       3.014   5.947  -5.251  0.00  0.00    -0.004 A 
ATOM      4  C2  UNL d   1       1.997   5.020  -5.172  0.00  0.00    -0.047 A 
ATOM      5  C3  UNL d   1       2.509   3.788  -5.645  0.00  0.00    -0.047 A 
ATOM      6  C4  UNL d   1       3.825   3.999  -5.999  0.00  0.00    -0.004 A 
ENDROOT
TORSDOF 0
ENDMDL
