MODEL 1
REMARK minimizedAffinity 14.4010401
REMARK minimizedRMSD -1
REMARK  0 active torsions:
REMARK  status: ('A' for Active; 'I' for Inactive)
ROOT
ATOM      1  O1  BZF d   1      -0.293   4.204  -0.191  0.00  0.00    -0.204 OA
ATOM      2  C2  BZF d   1      -0.016   2.868   0.022  0.00  0.00     0.174 A 
ATOM      3  C3  BZF d   1      -0.738   2.091  -0.812  0.00  0.00    -0.012 A 
ATOM      4  C3A BZF d   1      -1.446   3.003  -1.658  0.00  0.00    -0.107 A 
ATOM      5  C4  BZF d   1      -2.315   2.837  -2.697  0.00  0.00     0.055 A 
ATOM      6  C5  BZF d   1      -2.886   3.933  -3.263  0.00  0.00    -0.016 A 
ATOM      7  C6  BZF d   1      -2.614   5.207  -2.811  0.00  0.00     0.022 A 
ATOM      8  C7  BZF d   1      -1.755   5.423  -1.785  0.00  0.00     0.029 A 
ATOM      9  C7A BZF d   1      -1.151   4.319  -1.233  0.00  0.00     0.058 A 
ENDROOT
TORSDOF 0
ENDMDL
