MODEL 1
REMARK minimizedAffinity 4.99904537
REMARK minimizedRMSD -1
REMARK  0 active torsions:
REMARK  status: ('A' for Active; 'I' for Inactive)
ROOT
ATOM      1  O1  BZF d   1      -4.235  -3.399   4.872  0.00  0.00    -0.204 OA
ATOM      2  C2  BZF d   1      -5.193  -3.446   5.866  0.00  0.00     0.174 A 
ATOM      3  C3  BZF d   1      -6.000  -2.367   5.805  0.00  0.00    -0.012 A 
ATOM      4  C3A BZF d   1      -5.573  -1.643   4.647  0.00  0.00    -0.107 A 
ATOM      5  C4  BZF d   1      -5.998  -0.490   4.052  0.00  0.00     0.055 A 
ATOM      6  C5  BZF d   1      -5.321  -0.015   2.974  0.00  0.00    -0.016 A 
ATOM      7  C6  BZF d   1      -4.212  -0.663   2.469  0.00  0.00     0.022 A 
ATOM      8  C7  BZF d   1      -3.756  -1.813   3.023  0.00  0.00     0.029 A 
ATOM      9  C7A BZF d   1      -4.459  -2.314   4.092  0.00  0.00     0.058 A 
ENDROOT
TORSDOF 0
ENDMDL
