MODEL 1
REMARK minimizedAffinity 1.36309481
REMARK minimizedRMSD -1
REMARK  0 active torsions:
REMARK  status: ('A' for Active; 'I' for Inactive)
ROOT
ATOM      1  O1  BZF d   1      -2.855  -5.734  -5.974  0.00  0.00    -0.204 OA
ATOM      2  C2  BZF d   1      -4.019  -4.992  -5.995  0.00  0.00     0.174 A 
ATOM      3  C3  BZF d   1      -3.746  -3.672  -5.954  0.00  0.00    -0.012 A 
ATOM      4  C3A BZF d   1      -2.319  -3.582  -5.996  0.00  0.00    -0.107 A 
ATOM      5  C4  BZF d   1      -1.444  -2.533  -5.999  0.00  0.00     0.055 A 
ATOM      6  C5  BZF d   1      -0.109  -2.786  -5.972  0.00  0.00    -0.016 A 
ATOM      7  C6  BZF d   1       0.385  -4.074  -5.936  0.00  0.00     0.022 A 
ATOM      8  C7  BZF d   1      -0.444  -5.146  -5.937  0.00  0.00     0.029 A 
ATOM      9  C7A BZF d   1      -1.792  -4.894  -5.998  0.00  0.00     0.058 A 
ENDROOT
TORSDOF 0
ENDMDL
