MODEL 1
REMARK minimizedAffinity 3.75884557
REMARK minimizedRMSD -1
REMARK  0 active torsions:
REMARK  status: ('A' for Active; 'I' for Inactive)
ROOT
ATOM      1  O1  BZF d   1      -2.978   3.639  -4.504  0.00  0.00    -0.204 OA
ATOM      2  C2  BZF d   1      -4.132   3.499  -3.756  0.00  0.00     0.174 A 
ATOM      3  C3  BZF d   1      -3.958   3.989  -2.512  0.00  0.00    -0.012 A 
ATOM      4  C3A BZF d   1      -2.641   4.549  -2.509  0.00  0.00    -0.107 A 
ATOM      5  C4  BZF d   1      -1.899   5.196  -1.563  0.00  0.00     0.055 A 
ATOM      6  C5  BZF d   1      -0.620   5.551  -1.856  0.00  0.00    -0.016 A 
ATOM      7  C6  BZF d   1      -0.050   5.268  -3.080  0.00  0.00     0.022 A 
ATOM      8  C7  BZF d   1      -0.749   4.632  -4.051  0.00  0.00     0.029 A 
ATOM      9  C7A BZF d   1      -2.052   4.302  -3.770  0.00  0.00     0.058 A 
ENDROOT
TORSDOF 0
ENDMDL
