MODEL 1
REMARK minimizedAffinity 8.35709476
REMARK minimizedRMSD -1
REMARK  0 active torsions:
REMARK  status: ('A' for Active; 'I' for Inactive)
ROOT
ATOM      1  O1  BZF d   1      -0.032  -4.360  -5.892  0.00  0.00    -0.204 OA
ATOM      2  C2  BZF d   1      -0.253  -5.724  -5.863  0.00  0.00     0.174 A 
ATOM      3  C3  BZF d   1      -1.574  -5.993  -5.831  0.00  0.00    -0.012 A 
ATOM      4  C3A BZF d   1      -2.220  -4.721  -5.933  0.00  0.00    -0.107 A 
ATOM      5  C4  BZF d   1      -3.529  -4.333  -5.970  0.00  0.00     0.055 A 
ATOM      6  C5  BZF d   1      -3.825  -3.007  -5.999  0.00  0.00    -0.016 A 
ATOM      7  C6  BZF d   1      -2.838  -2.043  -5.986  0.00  0.00     0.022 A 
ATOM      8  C7  BZF d   1      -1.526  -2.379  -5.955  0.00  0.00     0.029 A 
ATOM      9  C7A BZF d   1      -1.223  -3.719  -5.959  0.00  0.00     0.058 A 
ENDROOT
TORSDOF 0
ENDMDL
