MODEL 1
REMARK minimizedAffinity -1.79355145
REMARK minimizedRMSD -1
REMARK  0 active torsions:
REMARK  status: ('A' for Active; 'I' for Inactive)
ROOT
ATOM      1  O1  BZF d   1      -5.276  -3.754  -5.982  0.00  0.00    -0.204 OA
ATOM      2  C2  BZF d   1      -5.991  -4.935  -5.965  0.00  0.00     0.174 A 
ATOM      3  C3  BZF d   1      -5.162  -5.998  -6.000  0.00  0.00    -0.012 A 
ATOM      4  C3A BZF d   1      -3.842  -5.447  -5.947  0.00  0.00    -0.107 A 
ATOM      5  C4  BZF d   1      -2.594  -6.000  -5.934  0.00  0.00     0.055 A 
ATOM      6  C5  BZF d   1      -1.509  -5.181  -5.953  0.00  0.00    -0.016 A 
ATOM      7  C6  BZF d   1      -1.635  -3.808  -5.990  0.00  0.00     0.022 A 
ATOM      8  C7  BZF d   1      -2.853  -3.213  -5.999  0.00  0.00     0.029 A 
ATOM      9  C7A BZF d   1      -3.951  -4.037  -5.947  0.00  0.00     0.058 A 
ENDROOT
TORSDOF 0
ENDMDL
