MODEL 1
REMARK minimizedAffinity 9.83442116
REMARK minimizedRMSD -1
REMARK  0 active torsions:
REMARK  status: ('A' for Active; 'I' for Inactive)
ROOT
ATOM      1  O1  BZF d   1      -0.464  -4.578  -5.149  0.00  0.00    -0.204 OA
ATOM      2  C2  BZF d   1      -0.076  -3.298  -5.495  0.00  0.00     0.174 A 
ATOM      3  C3  BZF d   1      -1.133  -2.574  -5.915  0.00  0.00    -0.012 A 
ATOM      4  C3A BZF d   1      -2.268  -3.428  -5.738  0.00  0.00    -0.107 A 
ATOM      5  C4  BZF d   1      -3.606  -3.270  -5.962  0.00  0.00     0.055 A 
ATOM      6  C5  BZF d   1      -4.439  -4.323  -5.754  0.00  0.00    -0.016 A 
ATOM      7  C6  BZF d   1      -3.968  -5.548  -5.329  0.00  0.00     0.022 A 
ATOM      8  C7  BZF d   1      -2.650  -5.752  -5.089  0.00  0.00     0.029 A 
ATOM      9  C7A BZF d   1      -1.810  -4.680  -5.266  0.00  0.00     0.058 A 
ENDROOT
TORSDOF 0
ENDMDL
