MODEL 1
REMARK minimizedAffinity 4.79441833
REMARK minimizedRMSD -1
REMARK  0 active torsions:
REMARK  status: ('A' for Active; 'I' for Inactive)
ROOT
ATOM      1  O1  BZF d   1      -5.140  -2.674  -5.948  0.00  0.00    -0.204 OA
ATOM      2  C2  BZF d   1      -4.509  -1.446  -5.912  0.00  0.00     0.174 A 
ATOM      3  C3  BZF d   1      -3.171  -1.596  -5.837  0.00  0.00    -0.012 A 
ATOM      4  C3A BZF d   1      -2.946  -3.007  -5.918  0.00  0.00    -0.107 A 
ATOM      5  C4  BZF d   1      -1.821  -3.780  -5.914  0.00  0.00     0.055 A 
ATOM      6  C5  BZF d   1      -1.948  -5.133  -5.934  0.00  0.00    -0.016 A 
ATOM      7  C6  BZF d   1      -3.184  -5.745  -5.953  0.00  0.00     0.022 A 
ATOM      8  C7  BZF d   1      -4.329  -5.020  -5.963  0.00  0.00     0.029 A 
ATOM      9  C7A BZF d   1      -4.203  -3.653  -5.977  0.00  0.00     0.058 A 
ENDROOT
TORSDOF 0
ENDMDL
