MODEL 1
REMARK minimizedAffinity -1.59572029
REMARK minimizedRMSD -1
REMARK  0 active torsions:
REMARK  status: ('A' for Active; 'I' for Inactive)
ROOT
ATOM      1  O1  BZF d   1      -3.795  -1.947  -5.923  0.00  0.00    -0.204 OA
ATOM      2  C2  BZF d   1      -5.147  -1.663  -5.923  0.00  0.00     0.174 A 
ATOM      3  C3  BZF d   1      -5.874  -2.796  -5.999  0.00  0.00    -0.012 A 
ATOM      4  C3A BZF d   1      -4.919  -3.860  -5.957  0.00  0.00    -0.107 A 
ATOM      5  C4  BZF d   1      -5.027  -5.221  -5.981  0.00  0.00     0.055 A 
ATOM      6  C5  BZF d   1      -3.896  -5.974  -5.999  0.00  0.00    -0.016 A 
ATOM      7  C6  BZF d   1      -2.642  -5.399  -6.000  0.00  0.00     0.022 A 
ATOM      8  C7  BZF d   1      -2.484  -4.053  -5.972  0.00  0.00     0.029 A 
ATOM      9  C7A BZF d   1      -3.625  -3.291  -5.920  0.00  0.00     0.058 A 
ENDROOT
TORSDOF 0
ENDMDL
