MODEL 1
REMARK minimizedAffinity 2.28771734
REMARK minimizedRMSD -1
REMARK  0 active torsions:
REMARK  status: ('A' for Active; 'I' for Inactive)
ROOT
ATOM      1  O1  BZF d   1      -0.745  -2.640  -5.866  0.00  0.00    -0.204 OA
ATOM      2  C2  BZF d   1      -1.574  -1.536  -5.911  0.00  0.00     0.174 A 
ATOM      3  C3  BZF d   1      -2.866  -1.911  -6.000  0.00  0.00    -0.012 A 
ATOM      4  C3A BZF d   1      -2.850  -3.340  -5.917  0.00  0.00    -0.107 A 
ATOM      5  C4  BZF d   1      -3.829  -4.292  -5.932  0.00  0.00     0.055 A 
ATOM      6  C5  BZF d   1      -3.474  -5.604  -5.907  0.00  0.00    -0.016 A 
ATOM      7  C6  BZF d   1      -2.152  -5.998  -5.874  0.00  0.00     0.022 A 
ATOM      8  C7  BZF d   1      -1.147  -5.090  -5.853  0.00  0.00     0.029 A 
ATOM      9  C7A BZF d   1      -1.503  -3.763  -5.844  0.00  0.00     0.058 A 
ENDROOT
TORSDOF 0
ENDMDL
