MODEL 1
REMARK minimizedAffinity 6.04976988
REMARK minimizedRMSD -1
REMARK  1 active torsions:
REMARK  status: ('A' for Active; 'I' for Inactive)
REMARK    1  A    between atoms: C1_2  and  C2_3 
ROOT
ATOM      1  C2  UNL d   1      -0.134   2.942   2.389  0.00  0.00    -0.073 A 
ATOM      2  C3  UNL d   1      -0.592   2.019   1.442  0.00  0.00    -0.002 A 
ATOM      3  C4  UNL d   1       0.316   1.290   0.672  0.00  0.00     0.004 A 
ATOM      4  C5  UNL d   1       1.688   1.471   0.846  0.00  0.00    -0.004 A 
ATOM      5  C6  UNL d   1       2.165   2.380   1.796  0.00  0.00    -0.075 A 
ATOM      6  C7  UNL d   1       3.638   2.587   1.994  0.00  0.00     0.076 C 
ATOM      7  C8  UNL d   1       1.247   3.110   2.563  0.00  0.00     0.001 A 
ENDROOT
BRANCH   1   8
ATOM      8  C1  UNL d   1      -1.111   3.726   3.227  0.00  0.00     0.053 C 
ATOM      9  C   UNL d   1      -0.715   3.746   4.695  0.00  0.00     0.018 C 
ENDBRANCH   1   8
TORSDOF 1
ENDMDL
