MODEL 1
REMARK minimizedAffinity -1.65934002
REMARK minimizedRMSD -1
REMARK  1 active torsions:
REMARK  status: ('A' for Active; 'I' for Inactive)
REMARK    1  A    between atoms: C1_2  and  C2_3 
ROOT
ATOM      1  C2  UNL d   1       2.010   4.023  -5.992  0.00  0.00    -0.073 A 
ATOM      2  C3  UNL d   1       1.583   2.691  -5.999  0.00  0.00    -0.002 A 
ATOM      3  C4  UNL d   1       0.221   2.387  -5.997  0.00  0.00     0.004 A 
ATOM      4  C5  UNL d   1      -0.726   3.410  -5.995  0.00  0.00    -0.004 A 
ATOM      5  C6  UNL d   1      -0.319   4.748  -6.000  0.00  0.00    -0.075 A 
ATOM      6  C7  UNL d   1      -1.326   5.861  -5.996  0.00  0.00     0.076 C 
ATOM      7  C8  UNL d   1       1.050   5.045  -5.999  0.00  0.00     0.001 A 
ENDROOT
BRANCH   1   8
ATOM      8  C1  UNL d   1       3.480   4.356  -6.000  0.00  0.00     0.053 C 
ATOM      9  C   UNL d   1       3.724   5.857  -5.996  0.00  0.00     0.018 C 
ENDBRANCH   1   8
TORSDOF 1
ENDMDL
