MODEL 1
REMARK minimizedAffinity -0.366042674
REMARK minimizedRMSD -1
REMARK  1 active torsions:
REMARK  status: ('A' for Active; 'I' for Inactive)
REMARK    1  A    between atoms: C1_2  and  C2_3 
ROOT
ATOM      1  C2  UNL d   1      -1.714   3.569  -5.989  0.00  0.00    -0.073 A 
ATOM      2  C3  UNL d   1      -1.469   4.947  -5.998  0.00  0.00    -0.002 A 
ATOM      3  C4  UNL d   1      -0.160   5.430  -5.998  0.00  0.00     0.004 A 
ATOM      4  C5  UNL d   1       0.916   4.543  -5.996  0.00  0.00    -0.004 A 
ATOM      5  C6  UNL d   1       0.691   3.162  -5.999  0.00  0.00    -0.075 A 
ATOM      6  C7  UNL d   1       1.838   2.194  -5.994  0.00  0.00     0.076 C 
ATOM      7  C8  UNL d   1      -0.626   2.685  -5.996  0.00  0.00     0.001 A 
ENDROOT
BRANCH   1   8
ATOM      8  C1  UNL d   1      -3.126   3.043  -5.996  0.00  0.00     0.053 C 
ATOM      9  C   UNL d   1      -4.153   4.164  -5.978  0.00  0.00     0.018 C 
ENDBRANCH   1   8
TORSDOF 1
ENDMDL
