MODEL 1
REMARK minimizedAffinity -1.24477673
REMARK minimizedRMSD -1
REMARK  1 active torsions:
REMARK  status: ('A' for Active; 'I' for Inactive)
REMARK    1  A    between atoms: C1_2  and  C2_3 
ROOT
ATOM      1  C2  UNL d   1      -1.267   3.551  -5.996  0.00  0.00    -0.073 A 
ATOM      2  C3  UNL d   1      -0.561   4.759  -5.981  0.00  0.00    -0.002 A 
ATOM      3  C4  UNL d   1      -1.245   5.976  -5.975  0.00  0.00     0.004 A 
ATOM      4  C5  UNL d   1      -2.640   5.996  -5.976  0.00  0.00    -0.004 A 
ATOM      5  C6  UNL d   1      -3.363   4.799  -5.979  0.00  0.00    -0.075 A 
ATOM      6  C7  UNL d   1      -4.863   4.805  -5.983  0.00  0.00     0.076 C 
ATOM      7  C8  UNL d   1      -2.668   3.582  -5.988  0.00  0.00     0.001 A 
ENDROOT
BRANCH   1   8
ATOM      8  C1  UNL d   1      -0.532   2.235  -5.996  0.00  0.00     0.053 C 
ATOM      9  C   UNL d   1       0.977   2.425  -5.999  0.00  0.00     0.018 C 
ENDBRANCH   1   8
TORSDOF 1
ENDMDL
