MODEL 1
REMARK minimizedAffinity -1.63635194
REMARK minimizedRMSD -1
REMARK  1 active torsions:
REMARK  status: ('A' for Active; 'I' for Inactive)
REMARK    1  A    between atoms: C1_2  and  C2_3 
ROOT
ATOM      1  C2  UNL d   1      -3.174   5.007  -5.950  0.00  0.00    -0.073 A 
ATOM      2  C3  UNL d   1      -3.103   3.613  -5.841  0.00  0.00    -0.002 A 
ATOM      3  C4  UNL d   1      -1.864   2.972  -5.792  0.00  0.00     0.004 A 
ATOM      4  C5  UNL d   1      -0.686   3.717  -5.843  0.00  0.00    -0.004 A 
ATOM      5  C6  UNL d   1      -0.736   5.111  -5.939  0.00  0.00    -0.075 A 
ATOM      6  C7  UNL d   1       0.522   5.927  -5.998  0.00  0.00     0.076 C 
ATOM      7  C8  UNL d   1      -1.984   5.747  -5.991  0.00  0.00     0.001 A 
ENDROOT
BRANCH   1   8
ATOM      8  C1  UNL d   1      -4.509   5.703  -5.997  0.00  0.00     0.053 C 
ATOM      9  C   UNL d   1      -5.667   4.718  -5.996  0.00  0.00     0.018 C 
ENDBRANCH   1   8
TORSDOF 1
ENDMDL
