MODEL 1
REMARK minimizedAffinity 0.481599987
REMARK minimizedRMSD -1
REMARK  1 active torsions:
REMARK  status: ('A' for Active; 'I' for Inactive)
REMARK    1  A    between atoms: C1_2  and  C2_3 
ROOT
ATOM      1  C2  UNL d   1      -0.468   3.203  -5.997  0.00  0.00    -0.073 A 
ATOM      2  C3  UNL d   1      -0.008   4.525  -5.972  0.00  0.00    -0.002 A 
ATOM      3  C4  UNL d   1      -0.914   5.586  -5.965  0.00  0.00     0.004 A 
ATOM      4  C5  UNL d   1      -2.287   5.338  -5.974  0.00  0.00    -0.004 A 
ATOM      5  C6  UNL d   1      -2.766   4.024  -5.987  0.00  0.00    -0.075 A 
ATOM      6  C7  UNL d   1      -4.239   3.739  -6.000  0.00  0.00     0.076 C 
ATOM      7  C8  UNL d   1      -1.850   2.963  -5.998  0.00  0.00     0.001 A 
ENDROOT
BRANCH   1   8
ATOM      8  C1  UNL d   1       0.507   2.054  -5.999  0.00  0.00     0.053 C 
ATOM      9  C   UNL d   1       1.950   2.531  -5.979  0.00  0.00     0.018 C 
ENDBRANCH   1   8
TORSDOF 1
ENDMDL
