MODEL 1
REMARK minimizedAffinity 9.50750542
REMARK minimizedRMSD -1
REMARK  1 active torsions:
REMARK  status: ('A' for Active; 'I' for Inactive)
REMARK    1  A    between atoms: C1_2  and  C2_3 
ROOT
ATOM      1  C2  UNL d   1      -1.017  -1.994  -1.310  0.00  0.00    -0.073 A 
ATOM      2  C3  UNL d   1      -0.322  -2.646  -2.335  0.00  0.00    -0.002 A 
ATOM      3  C4  UNL d   1      -0.712  -3.919  -2.753  0.00  0.00     0.004 A 
ATOM      4  C5  UNL d   1      -1.804  -4.549  -2.155  0.00  0.00    -0.004 A 
ATOM      5  C6  UNL d   1      -2.518  -3.909  -1.138  0.00  0.00    -0.075 A 
ATOM      6  C7  UNL d   1      -3.693  -4.575  -0.484  0.00  0.00     0.076 C 
ATOM      7  C8  UNL d   1      -2.118  -2.632  -0.722  0.00  0.00     0.001 A 
ENDROOT
BRANCH   1   8
ATOM      8  C1  UNL d   1      -0.603  -0.617  -0.861  0.00  0.00     0.053 C 
ATOM      9  C   UNL d   1      -0.280  -0.575   0.625  0.00  0.00     0.018 C 
ENDBRANCH   1   8
TORSDOF 1
ENDMDL
