MODEL 1
REMARK minimizedAffinity -1.38948774
REMARK minimizedRMSD -1
REMARK  1 active torsions:
REMARK  status: ('A' for Active; 'I' for Inactive)
REMARK    1  A    between atoms: C1_2  and  C2_3 
ROOT
ATOM      1  C2  UNL d   1      -3.019   3.812  -5.975  0.00  0.00    -0.073 A 
ATOM      2  C3  UNL d   1      -3.123   5.207  -5.951  0.00  0.00    -0.002 A 
ATOM      3  C4  UNL d   1      -1.975   5.999  -5.935  0.00  0.00     0.004 A 
ATOM      4  C5  UNL d   1      -0.713   5.406  -5.950  0.00  0.00    -0.004 A 
ATOM      5  C6  UNL d   1      -0.588   4.014  -5.985  0.00  0.00    -0.075 A 
ATOM      6  C7  UNL d   1       0.763   3.360  -5.999  0.00  0.00     0.076 C 
ATOM      7  C8  UNL d   1      -1.746   3.225  -5.999  0.00  0.00     0.001 A 
ENDROOT
BRANCH   1   8
ATOM      8  C1  UNL d   1      -4.257   2.952  -5.999  0.00  0.00     0.053 C 
ATOM      9  C   UNL d   1      -5.529   3.785  -5.997  0.00  0.00     0.018 C 
ENDBRANCH   1   8
TORSDOF 1
ENDMDL
