MODEL 1
REMARK minimizedAffinity -0.972176552
REMARK minimizedRMSD -1
REMARK  1 active torsions:
REMARK  status: ('A' for Active; 'I' for Inactive)
REMARK    1  A    between atoms: C1_2  and  C2_3 
ROOT
ATOM      1  C2  UNL d   1      -0.843   3.572  -5.996  0.00  0.00    -0.073 A 
ATOM      2  C3  UNL d   1      -0.232   4.831  -5.979  0.00  0.00    -0.002 A 
ATOM      3  C4  UNL d   1      -1.008   5.991  -5.975  0.00  0.00     0.004 A 
ATOM      4  C5  UNL d   1      -2.400   5.904  -5.982  0.00  0.00    -0.004 A 
ATOM      5  C6  UNL d   1      -3.029   4.655  -5.987  0.00  0.00    -0.075 A 
ATOM      6  C7  UNL d   1      -4.526   4.545  -5.996  0.00  0.00     0.076 C 
ATOM      7  C8  UNL d   1      -2.243   3.495  -5.993  0.00  0.00     0.001 A 
ENDROOT
BRANCH   1   8
ATOM      8  C1  UNL d   1      -0.010   2.316  -5.994  0.00  0.00     0.053 C 
ATOM      9  C   UNL d   1       1.480   2.621  -6.000  0.00  0.00     0.018 C 
ENDBRANCH   1   8
TORSDOF 1
ENDMDL
