MODEL 1
REMARK minimizedAffinity 6.9232502
REMARK minimizedRMSD -1
REMARK  1 active torsions:
REMARK  status: ('A' for Active; 'I' for Inactive)
REMARK    1  A    between atoms: C1_2  and  C2_3 
ROOT
ATOM      1  C2  UNL d   1      -1.678   4.498  -5.699  0.00  0.00    -0.073 A 
ATOM      2  C3  UNL d   1      -2.095   3.164  -5.771  0.00  0.00    -0.002 A 
ATOM      3  C4  UNL d   1      -1.160   2.140  -5.924  0.00  0.00     0.004 A 
ATOM      4  C5  UNL d   1       0.201   2.438  -6.000  0.00  0.00    -0.004 A 
ATOM      5  C6  UNL d   1       0.638   3.764  -5.918  0.00  0.00    -0.075 A 
ATOM      6  C7  UNL d   1       2.098   4.101  -6.000  0.00  0.00     0.076 C 
ATOM      7  C8  UNL d   1      -0.307   4.787  -5.767  0.00  0.00     0.001 A 
ENDROOT
BRANCH   1   8
ATOM      8  C1  UNL d   1      -2.684   5.607  -5.528  0.00  0.00     0.053 C 
ATOM      9  C   UNL d   1      -2.858   5.998  -4.069  0.00  0.00     0.018 C 
ENDBRANCH   1   8
TORSDOF 1
ENDMDL
