MODEL 1
REMARK minimizedAffinity -2.35956621
REMARK minimizedRMSD -1
REMARK  1 active torsions:
REMARK  status: ('A' for Active; 'I' for Inactive)
REMARK    1  A    between atoms: C1_2  and  C2_3 
ROOT
ATOM      1  C2  UNL d   1      -0.564   3.609  -5.998  0.00  0.00    -0.073 A 
ATOM      2  C3  UNL d   1      -0.096   4.927  -5.993  0.00  0.00    -0.002 A 
ATOM      3  C4  UNL d   1      -0.995   5.995  -5.997  0.00  0.00     0.004 A 
ATOM      4  C5  UNL d   1      -2.369   5.755  -6.000  0.00  0.00    -0.004 A 
ATOM      5  C6  UNL d   1      -2.856   4.444  -5.993  0.00  0.00    -0.075 A 
ATOM      6  C7  UNL d   1      -4.331   4.169  -5.998  0.00  0.00     0.076 C 
ATOM      7  C8  UNL d   1      -1.947   3.378  -5.992  0.00  0.00     0.001 A 
ENDROOT
BRANCH   1   8
ATOM      8  C1  UNL d   1       0.403   2.453  -5.987  0.00  0.00     0.053 C 
ATOM      9  C   UNL d   1       0.841   2.090  -4.577  0.00  0.00     0.018 C 
ENDBRANCH   1   8
TORSDOF 1
ENDMDL
