MODEL 1
REMARK minimizedAffinity -0.647321939
REMARK minimizedRMSD -1
REMARK  1 active torsions:
REMARK  status: ('A' for Active; 'I' for Inactive)
REMARK    1  A    between atoms: C1_2  and  C2_3 
ROOT
ATOM      1  C2  UNL d   1       0.291   3.770  -6.000  0.00  0.00    -0.073 A 
ATOM      2  C3  UNL d   1       0.145   5.162  -5.996  0.00  0.00    -0.002 A 
ATOM      3  C4  UNL d   1      -1.126   5.737  -5.999  0.00  0.00     0.004 A 
ATOM      4  C5  UNL d   1      -2.263   4.929  -5.998  0.00  0.00    -0.004 A 
ATOM      5  C6  UNL d   1      -2.138   3.536  -5.990  0.00  0.00    -0.075 A 
ATOM      6  C7  UNL d   1      -3.350   2.652  -5.991  0.00  0.00     0.076 C 
ATOM      7  C8  UNL d   1      -0.858   2.966  -5.990  0.00  0.00     0.001 A 
ENDROOT
BRANCH   1   8
ATOM      8  C1  UNL d   1       1.662   3.144  -5.990  0.00  0.00     0.053 C 
ATOM      9  C   UNL d   1       2.766   4.189  -5.973  0.00  0.00     0.018 C 
ENDBRANCH   1   8
TORSDOF 1
ENDMDL
