MODEL 1
REMARK minimizedAffinity 4.0494957
REMARK minimizedRMSD -1
REMARK  1 active torsions:
REMARK  status: ('A' for Active; 'I' for Inactive)
REMARK    1  A    between atoms: C1_2  and  C2_3 
ROOT
ATOM      1  C2  UNL d   1      -0.883   3.802  -5.951  0.00  0.00    -0.073 A 
ATOM      2  C3  UNL d   1      -0.704   5.190  -5.970  0.00  0.00    -0.002 A 
ATOM      3  C4  UNL d   1       0.581   5.734  -5.990  0.00  0.00     0.004 A 
ATOM      4  C5  UNL d   1       1.697   4.898  -5.999  0.00  0.00    -0.004 A 
ATOM      5  C6  UNL d   1       1.538   3.509  -5.992  0.00  0.00    -0.075 A 
ATOM      6  C7  UNL d   1       2.729   2.596  -5.999  0.00  0.00     0.076 C 
ATOM      7  C8  UNL d   1       0.245   2.970  -5.969  0.00  0.00     0.001 A 
ENDROOT
BRANCH   1   8
ATOM      8  C1  UNL d   1      -2.269   3.210  -5.936  0.00  0.00     0.053 C 
ATOM      9  C   UNL d   1      -3.315   4.217  -5.486  0.00  0.00     0.018 C 
ENDBRANCH   1   8
TORSDOF 1
ENDMDL
