MODEL 1
REMARK minimizedAffinity 4.43196917
REMARK minimizedRMSD -1
REMARK  0 active torsions:
REMARK  status: ('A' for Active; 'I' for Inactive)
ROOT
ATOM      1  C2' OXE d   1       0.193  -0.326   1.522  0.00  0.00     0.078 C 
ATOM      2  C1' OXE d   1       1.984  -1.623  -0.207  0.00  0.00     0.078 C 
ATOM      3  C1  OXE d   1       2.365  -1.514   1.248  0.00  0.00    -0.078 A 
ATOM      4  C2  OXE d   1       1.505  -0.836   2.078  0.00  0.00    -0.078 A 
ATOM      5  C3  OXE d   1       1.782  -0.754   3.439  0.00  0.00     0.003 A 
ATOM      6  C4  OXE d   1       3.002  -1.219   3.944  0.00  0.00    -0.002 A 
ATOM      7  C5  OXE d   1       3.911  -1.877   3.109  0.00  0.00    -0.002 A 
ATOM      8  C6  OXE d   1       3.590  -2.070   1.769  0.00  0.00     0.003 A 
ENDROOT
TORSDOF 0
ENDMDL
