MODEL 1
REMARK minimizedAffinity 9.17452145
REMARK minimizedRMSD -1
REMARK  0 active torsions:
REMARK  status: ('A' for Active; 'I' for Inactive)
ROOT
ATOM      1  C2' OXE d   1      -5.784   4.384  -0.493  0.00  0.00     0.078 C 
ATOM      2  C1' OXE d   1      -3.111   3.529  -0.553  0.00  0.00     0.078 C 
ATOM      3  C1  OXE d   1      -3.909   3.255   0.697  0.00  0.00    -0.078 A 
ATOM      4  C2  OXE d   1      -5.202   3.718   0.736  0.00  0.00    -0.078 A 
ATOM      5  C3  OXE d   1      -6.000   3.445   1.843  0.00  0.00     0.003 A 
ATOM      6  C4  OXE d   1      -5.451   2.837   2.979  0.00  0.00    -0.002 A 
ATOM      7  C5  OXE d   1      -4.125   2.393   2.976  0.00  0.00    -0.002 A 
ATOM      8  C6  OXE d   1      -3.355   2.555   1.830  0.00  0.00     0.003 A 
ENDROOT
TORSDOF 0
ENDMDL
