MODEL 1
REMARK minimizedAffinity 3.31509686
REMARK minimizedRMSD -1
REMARK  0 active torsions:
REMARK  status: ('A' for Active; 'I' for Inactive)
ROOT
ATOM      1  C2' OXE d   1       3.686  -3.951   4.512  0.00  0.00     0.078 C 
ATOM      2  C1' OXE d   1       0.937  -3.661   4.020  0.00  0.00     0.078 C 
ATOM      3  C1  OXE d   1       1.868  -2.626   3.440  0.00  0.00    -0.078 A 
ATOM      4  C2  OXE d   1       3.207  -2.750   3.725  0.00  0.00    -0.078 A 
ATOM      5  C3  OXE d   1       4.115  -1.853   3.170  0.00  0.00     0.003 A 
ATOM      6  C4  OXE d   1       3.663  -0.740   2.451  0.00  0.00    -0.002 A 
ATOM      7  C5  OXE d   1       2.300  -0.573   2.184  0.00  0.00    -0.002 A 
ATOM      8  C6  OXE d   1       1.396  -1.528   2.634  0.00  0.00     0.003 A 
ENDROOT
TORSDOF 0
ENDMDL
