MODEL 1
REMARK minimizedAffinity 4.24481964
REMARK minimizedRMSD -1
REMARK  0 active torsions:
REMARK  status: ('A' for Active; 'I' for Inactive)
ROOT
ATOM      1  C2' OXE d   1       2.630   0.143   2.001  0.00  0.00     0.078 C 
ATOM      2  C1' OXE d   1       2.119  -0.064   4.754  0.00  0.00     0.078 C 
ATOM      3  C1  OXE d   1       2.241  -1.343   3.963  0.00  0.00    -0.078 A 
ATOM      4  C2  OXE d   1       2.445  -1.231   2.608  0.00  0.00    -0.078 A 
ATOM      5  C3  OXE d   1       2.619  -2.379   1.840  0.00  0.00     0.003 A 
ATOM      6  C4  OXE d   1       2.437  -3.646   2.408  0.00  0.00    -0.002 A 
ATOM      7  C5  OXE d   1       2.190  -3.781   3.778  0.00  0.00    -0.002 A 
ATOM      8  C6  OXE d   1       2.132  -2.643   4.576  0.00  0.00     0.003 A 
ENDROOT
TORSDOF 0
ENDMDL
