MODEL 1
REMARK minimizedAffinity 1.05733764
REMARK minimizedRMSD -1
REMARK  0 active torsions:
REMARK  status: ('A' for Active; 'I' for Inactive)
ROOT
ATOM      1  C2' OXE d   1       2.396  -3.852   5.786  0.00  0.00     0.078 C 
ATOM      2  C1' OXE d   1       2.143  -4.848   3.174  0.00  0.00     0.078 C 
ATOM      3  C1  OXE d   1       2.316  -3.360   3.346  0.00  0.00    -0.078 A 
ATOM      4  C2  OXE d   1       2.392  -2.876   4.629  0.00  0.00    -0.078 A 
ATOM      5  C3  OXE d   1       2.606  -1.517   4.842  0.00  0.00     0.003 A 
ATOM      6  C4  OXE d   1       2.591  -0.620   3.767  0.00  0.00    -0.002 A 
ATOM      7  C5  OXE d   1       2.475  -1.088   2.454  0.00  0.00    -0.002 A 
ATOM      8  C6  OXE d   1       2.380  -2.456   2.224  0.00  0.00     0.003 A 
ENDROOT
TORSDOF 0
ENDMDL
