MODEL 1
REMARK minimizedAffinity 10.1828585
REMARK minimizedRMSD -1
REMARK  0 active torsions:
REMARK  status: ('A' for Active; 'I' for Inactive)
ROOT
ATOM      1  C2' OXE d   1       3.157   1.713   1.158  0.00  0.00     0.078 C 
ATOM      2  C1' OXE d   1       2.803   2.763   3.737  0.00  0.00     0.078 C 
ATOM      3  C1  OXE d   1       2.579   1.285   3.543  0.00  0.00    -0.078 A 
ATOM      4  C2  OXE d   1       2.709   0.787   2.269  0.00  0.00    -0.078 A 
ATOM      5  C3  OXE d   1       2.567  -0.579   2.044  0.00  0.00     0.003 A 
ATOM      6  C4  OXE d   1       2.143  -1.426   3.075  0.00  0.00    -0.002 A 
ATOM      7  C5  OXE d   1       1.966  -0.933   4.372  0.00  0.00    -0.002 A 
ATOM      8  C6  OXE d   1       2.221   0.409   4.632  0.00  0.00     0.003 A 
ENDROOT
TORSDOF 0
ENDMDL
