MODEL 1
REMARK minimizedAffinity 3.00207973
REMARK minimizedRMSD -1
REMARK  0 active torsions:
REMARK  status: ('A' for Active; 'I' for Inactive)
ROOT
ATOM      1  C2' OXE d   1       3.660   0.662   0.062  0.00  0.00     0.078 C 
ATOM      2  C1' OXE d   1       2.025   0.796   2.339  0.00  0.00     0.078 C 
ATOM      3  C1  OXE d   1       1.847   1.857   1.283  0.00  0.00    -0.078 A 
ATOM      4  C2  OXE d   1       2.684   1.811   0.193  0.00  0.00    -0.078 A 
ATOM      5  C3  OXE d   1       2.526   2.734  -0.837  0.00  0.00     0.003 A 
ATOM      6  C4  OXE d   1       1.627   3.799  -0.703  0.00  0.00    -0.002 A 
ATOM      7  C5  OXE d   1       0.793   3.887   0.417  0.00  0.00    -0.002 A 
ATOM      8  C6  OXE d   1       0.861   2.903   1.397  0.00  0.00     0.003 A 
ENDROOT
TORSDOF 0
ENDMDL
