MODEL 1
REMARK minimizedAffinity 14.3601313
REMARK minimizedRMSD -1
REMARK  0 active torsions:
REMARK  status: ('A' for Active; 'I' for Inactive)
ROOT
ATOM      1  C2' OXE d   1      -5.998   4.654   0.335  0.00  0.00     0.078 C 
ATOM      2  C1' OXE d   1      -5.997   1.909  -0.252  0.00  0.00     0.078 C 
ATOM      3  C1  OXE d   1      -5.913   2.318   1.197  0.00  0.00    -0.078 A 
ATOM      4  C2  OXE d   1      -5.867   3.663   1.473  0.00  0.00    -0.078 A 
ATOM      5  C3  OXE d   1      -5.844   4.096   2.795  0.00  0.00     0.003 A 
ATOM      6  C4  OXE d   1      -5.713   3.174   3.841  0.00  0.00    -0.002 A 
ATOM      7  C5  OXE d   1      -5.718   1.800   3.580  0.00  0.00    -0.002 A 
ATOM      8  C6  OXE d   1      -5.860   1.355   2.270  0.00  0.00     0.003 A 
ENDROOT
TORSDOF 0
ENDMDL
