MODEL 1
REMARK minimizedAffinity 9.07542419
REMARK minimizedRMSD -1
REMARK  0 active torsions:
REMARK  status: ('A' for Active; 'I' for Inactive)
ROOT
ATOM      1  C2' OXE d   1      -5.821   2.050  -0.976  0.00  0.00     0.078 C 
ATOM      2  C1' OXE d   1      -3.035   2.361  -0.843  0.00  0.00     0.078 C 
ATOM      3  C1  OXE d   1      -3.843   2.736   0.373  0.00  0.00    -0.078 A 
ATOM      4  C2  OXE d   1      -5.210   2.625   0.283  0.00  0.00    -0.078 A 
ATOM      5  C3  OXE d   1      -5.999   2.906   1.395  0.00  0.00     0.003 A 
ATOM      6  C4  OXE d   1      -5.427   3.447   2.552  0.00  0.00    -0.002 A 
ATOM      7  C5  OXE d   1      -4.040   3.606   2.651  0.00  0.00    -0.002 A 
ATOM      8  C6  OXE d   1      -3.232   3.216   1.589  0.00  0.00     0.003 A 
ENDROOT
TORSDOF 0
ENDMDL
