MODEL 1
REMARK minimizedAffinity -1.73625517
REMARK minimizedRMSD -1
REMARK  0 active torsions:
REMARK  status: ('A' for Active; 'I' for Inactive)
ROOT
ATOM      1  C1  BNZ d   1      -0.548   0.396  -0.705  0.00  0.00     0.000 A 
ATOM      2  C2  BNZ d   1      -0.844   1.234  -1.746  0.00  0.00     0.000 A 
ATOM      3  C3  BNZ d   1      -0.281   1.047  -2.977  0.00  0.00     0.000 A 
ATOM      4  C4  BNZ d   1       0.608   0.048  -3.155  0.00  0.00     0.000 A 
ATOM      5  C5  BNZ d   1       0.924  -0.800  -2.112  0.00  0.00     0.000 A 
ATOM      6  C6  BNZ d   1       0.325  -0.632  -0.885  0.00  0.00     0.000 A 
ENDROOT
TORSDOF 0
ENDMDL
