MODEL 1
REMARK minimizedAffinity -0.0274619926
REMARK minimizedRMSD -1
REMARK  0 active torsions:
REMARK  status: ('A' for Active; 'I' for Inactive)
ROOT
ATOM      1  C1  BNZ d   1       4.078  -4.158  -3.539  0.00  0.00     0.000 A 
ATOM      2  C2  BNZ d   1       3.079  -3.594  -2.790  0.00  0.00     0.000 A 
ATOM      3  C3  BNZ d   1       3.092  -2.259  -2.499  0.00  0.00     0.000 A 
ATOM      4  C4  BNZ d   1       4.121  -1.498  -2.922  0.00  0.00     0.000 A 
ATOM      5  C5  BNZ d   1       5.140  -2.053  -3.671  0.00  0.00     0.000 A 
ATOM      6  C6  BNZ d   1       5.104  -3.390  -3.995  0.00  0.00     0.000 A 
ENDROOT
TORSDOF 0
ENDMDL
