MODEL 1
REMARK minimizedAffinity -4.15647554
REMARK minimizedRMSD -1
REMARK  0 active torsions:
REMARK  status: ('A' for Active; 'I' for Inactive)
ROOT
ATOM      1  C1  BNZ d   1       1.524   0.170   1.219  0.00  0.00     0.000 A 
ATOM      2  C2  BNZ d   1       1.010   1.119   0.376  0.00  0.00     0.000 A 
ATOM      3  C3  BNZ d   1       0.639   2.347   0.848  0.00  0.00     0.000 A 
ATOM      4  C4  BNZ d   1       0.744   2.610   2.167  0.00  0.00     0.000 A 
ATOM      5  C5  BNZ d   1       1.251   1.660   3.031  0.00  0.00     0.000 A 
ATOM      6  C6  BNZ d   1       1.660   0.438   2.546  0.00  0.00     0.000 A 
ENDROOT
TORSDOF 0
ENDMDL
