MODEL 1
REMARK minimizedAffinity -4.82761526
REMARK minimizedRMSD -1
REMARK  0 active torsions:
REMARK  status: ('A' for Active; 'I' for Inactive)
ROOT
ATOM      1  C1  BNZ d   1       0.641   0.356  -0.161  0.00  0.00     0.000 A 
ATOM      2  C2  BNZ d   1       1.188  -0.224   0.952  0.00  0.00     0.000 A 
ATOM      3  C3  BNZ d   1       1.167   0.418   2.159  0.00  0.00     0.000 A 
ATOM      4  C4  BNZ d   1       0.636   1.655   2.242  0.00  0.00     0.000 A 
ATOM      5  C5  BNZ d   1       0.089   2.258   1.127  0.00  0.00     0.000 A 
ATOM      6  C6  BNZ d   1       0.077   1.592  -0.077  0.00  0.00     0.000 A 
ENDROOT
TORSDOF 0
ENDMDL
