MODEL 1
REMARK minimizedAffinity 12.2256556
REMARK minimizedRMSD -1
REMARK  0 active torsions:
REMARK  status: ('A' for Active; 'I' for Inactive)
ROOT
ATOM      1  C1  DEN d   1       5.289   1.946   2.698  0.00  0.00     0.130 A 
ATOM      2  C2  DEN d   1       4.721   1.172   1.598  0.00  0.00    -0.031 A 
ATOM      3  C3  DEN d   1       4.516  -0.212   2.072  0.00  0.00     0.027 A 
ATOM      4  C4  DEN d   1       5.015  -1.223   4.391  0.00  0.00     0.027 A 
ATOM      5  C5  DEN d   1       5.514  -0.959   5.647  0.00  0.00    -0.003 A 
ATOM      6  C6  DEN d   1       6.000   0.274   5.996  0.00  0.00     0.001 A 
ATOM      7  C7  DEN d   1       5.956   1.301   5.090  0.00  0.00     0.017 A 
ATOM      8  C8  DEN d   1       5.462   1.040   3.819  0.00  0.00    -0.094 A 
ATOM      9  C9  DEN d   1       4.964  -0.210   3.490  0.00  0.00    -0.072 A 
ENDROOT
TORSDOF 0
ENDMDL
