MODEL 1
REMARK minimizedAffinity 14.6789341
REMARK minimizedRMSD -1
REMARK  0 active torsions:
REMARK  status: ('A' for Active; 'I' for Inactive)
ROOT
ATOM      1  C1  DEN d   1       5.986   1.885   3.291  0.00  0.00     0.130 A 
ATOM      2  C2  DEN d   1       5.962   1.790   1.834  0.00  0.00    -0.031 A 
ATOM      3  C3  DEN d   1       5.956   3.161   1.287  0.00  0.00     0.027 A 
ATOM      4  C4  DEN d   1       5.986   5.411   2.548  0.00  0.00     0.027 A 
ATOM      5  C5  DEN d   1       5.997   6.000   3.793  0.00  0.00    -0.003 A 
ATOM      6  C6  DEN d   1       5.970   5.265   4.949  0.00  0.00     0.001 A 
ATOM      7  C7  DEN d   1       5.978   3.897   4.883  0.00  0.00     0.017 A 
ATOM      8  C8  DEN d   1       5.960   3.296   3.632  0.00  0.00    -0.094 A 
ATOM      9  C9  DEN d   1       5.999   4.056   2.475  0.00  0.00    -0.072 A 
ENDROOT
TORSDOF 0
ENDMDL
