MODEL 1
REMARK minimizedAffinity 6.93236399
REMARK minimizedRMSD -1
REMARK  0 active torsions:
REMARK  status: ('A' for Active; 'I' for Inactive)
ROOT
ATOM      1  C1  DEN d   1       2.440   1.095  -2.023  0.00  0.00     0.130 A 
ATOM      2  C2  DEN d   1       2.074   0.250  -3.157  0.00  0.00    -0.031 A 
ATOM      3  C3  DEN d   1       0.931  -0.591  -2.748  0.00  0.00     0.027 A 
ATOM      4  C4  DEN d   1      -0.303  -0.664  -0.484  0.00  0.00     0.027 A 
ATOM      5  C5  DEN d   1      -0.345  -0.139   0.789  0.00  0.00    -0.003 A 
ATOM      6  C6  DEN d   1       0.553   0.802   1.221  0.00  0.00     0.001 A 
ATOM      7  C7  DEN d   1       1.503   1.280   0.358  0.00  0.00     0.017 A 
ATOM      8  C8  DEN d   1       1.556   0.750  -0.925  0.00  0.00    -0.094 A 
ATOM      9  C9  DEN d   1       0.633  -0.192  -1.346  0.00  0.00    -0.072 A 
ENDROOT
TORSDOF 0
ENDMDL
