MODEL 1
REMARK minimizedAffinity 6.94173479
REMARK minimizedRMSD -1
REMARK  0 active torsions:
REMARK  status: ('A' for Active; 'I' for Inactive)
ROOT
ATOM      1  C1  DEN d   1       5.903   2.008   1.921  0.00  0.00     0.130 A 
ATOM      2  C2  DEN d   1       5.932   1.325   3.212  0.00  0.00    -0.031 A 
ATOM      3  C3  DEN d   1       5.972   2.353   4.271  0.00  0.00     0.027 A 
ATOM      4  C4  DEN d   1       5.985   4.922   4.040  0.00  0.00     0.027 A 
ATOM      5  C5  DEN d   1       5.980   5.969   3.145  0.00  0.00    -0.003 A 
ATOM      6  C6  DEN d   1       5.984   5.770   1.790  0.00  0.00     0.001 A 
ATOM      7  C7  DEN d   1       5.947   4.495   1.290  0.00  0.00     0.017 A 
ATOM      8  C8  DEN d   1       5.959   3.434   2.187  0.00  0.00    -0.094 A 
ATOM      9  C9  DEN d   1       5.942   3.656   3.554  0.00  0.00    -0.072 A 
ENDROOT
TORSDOF 0
ENDMDL
