MODEL 1
REMARK minimizedAffinity 13.644886
REMARK minimizedRMSD -1
REMARK  0 active torsions:
REMARK  status: ('A' for Active; 'I' for Inactive)
ROOT
ATOM      1  C1  DEN d   1       5.818   2.236  -3.794  0.00  0.00     0.130 A 
ATOM      2  C2  DEN d   1       5.999   2.879  -5.093  0.00  0.00    -0.031 A 
ATOM      3  C3  DEN d   1       4.725   2.781  -5.833  0.00  0.00     0.027 A 
ATOM      4  C4  DEN d   1       2.499   1.708  -5.095  0.00  0.00     0.027 A 
ATOM      5  C5  DEN d   1       1.863   1.027  -4.081  0.00  0.00    -0.003 A 
ATOM      6  C6  DEN d   1       2.504   0.675  -2.923  0.00  0.00     0.001 A 
ATOM      7  C7  DEN d   1       3.810   1.042  -2.732  0.00  0.00     0.017 A 
ATOM      8  C8  DEN d   1       4.461   1.722  -3.754  0.00  0.00    -0.094 A 
ATOM      9  C9  DEN d   1       3.791   2.079  -4.911  0.00  0.00    -0.072 A 
ENDROOT
TORSDOF 0
ENDMDL
