MODEL 1
REMARK minimizedAffinity 8.35180092
REMARK minimizedRMSD -1
REMARK  0 active torsions:
REMARK  status: ('A' for Active; 'I' for Inactive)
ROOT
ATOM      1  C1  DEN d   1       5.936   3.234   4.722  0.00  0.00     0.130 A 
ATOM      2  C2  DEN d   1       5.971   4.340   5.675  0.00  0.00    -0.031 A 
ATOM      3  C3  DEN d   1       5.997   5.602   4.908  0.00  0.00     0.027 A 
ATOM      4  C4  DEN d   1       5.982   5.949   2.352  0.00  0.00     0.027 A 
ATOM      5  C5  DEN d   1       5.968   5.308   1.133  0.00  0.00    -0.003 A 
ATOM      6  C6  DEN d   1       5.976   3.943   1.025  0.00  0.00     0.001 A 
ATOM      7  C7  DEN d   1       5.953   3.172   2.157  0.00  0.00     0.017 A 
ATOM      8  C8  DEN d   1       5.975   3.811   3.390  0.00  0.00    -0.094 A 
ATOM      9  C9  DEN d   1       5.954   5.192   3.478  0.00  0.00    -0.072 A 
ENDROOT
TORSDOF 0
ENDMDL
