MODEL 1
REMARK minimizedAffinity 2.57426715
REMARK minimizedRMSD -1
REMARK  0 active torsions:
REMARK  status: ('A' for Active; 'I' for Inactive)
ROOT
ATOM      1  C1  DEN d   1       0.247   1.517   1.466  0.00  0.00     0.130 A 
ATOM      2  C2  DEN d   1       1.065   2.720   1.583  0.00  0.00    -0.031 A 
ATOM      3  C3  DEN d   1       2.248   2.555   0.714  0.00  0.00     0.027 A 
ATOM      4  C4  DEN d   1       2.885   0.564  -0.798  0.00  0.00     0.027 A 
ATOM      5  C5  DEN d   1       2.507  -0.691  -1.219  0.00  0.00    -0.003 A 
ATOM      6  C6  DEN d   1       1.376  -1.308  -0.753  0.00  0.00     0.001 A 
ATOM      7  C7  DEN d   1       0.559  -0.651   0.129  0.00  0.00     0.017 A 
ATOM      8  C8  DEN d   1       0.937   0.612   0.564  0.00  0.00    -0.094 A 
ATOM      9  C9  DEN d   1       2.078   1.224   0.072  0.00  0.00    -0.072 A 
ENDROOT
TORSDOF 0
ENDMDL
