MODEL 1
REMARK minimizedAffinity 6.20848465
REMARK minimizedRMSD -1
REMARK  0 active torsions:
REMARK  status: ('A' for Active; 'I' for Inactive)
ROOT
ATOM      1  C1  DEN d   1       3.629   5.494   5.380  0.00  0.00     0.130 A 
ATOM      2  C2  DEN d   1       4.853   6.000   5.996  0.00  0.00    -0.031 A 
ATOM      3  C3  DEN d   1       6.000   5.344   5.337  0.00  0.00     0.027 A 
ATOM      4  C4  DEN d   1       6.000   3.608   3.428  0.00  0.00     0.027 A 
ATOM      5  C5  DEN d   1       5.202   2.864   2.588  0.00  0.00    -0.003 A 
ATOM      6  C6  DEN d   1       3.834   2.918   2.642  0.00  0.00     0.001 A 
ATOM      7  C7  DEN d   1       3.223   3.768   3.526  0.00  0.00     0.017 A 
ATOM      8  C8  DEN d   1       4.021   4.517   4.381  0.00  0.00    -0.094 A 
ATOM      9  C9  DEN d   1       5.402   4.457   4.303  0.00  0.00    -0.072 A 
ENDROOT
TORSDOF 0
ENDMDL
