MODEL 1
REMARK minimizedAffinity 5.9397006
REMARK minimizedRMSD -1
REMARK  0 active torsions:
REMARK  status: ('A' for Active; 'I' for Inactive)
ROOT
ATOM      1  C1  DEN d   1       2.588   3.578  -0.198  0.00  0.00     0.130 A 
ATOM      2  C2  DEN d   1       2.673   2.124  -0.089  0.00  0.00    -0.031 A 
ATOM      3  C3  DEN d   1       3.841   1.674  -0.873  0.00  0.00     0.027 A 
ATOM      4  C4  DEN d   1       5.521   3.081  -2.232  0.00  0.00     0.027 A 
ATOM      5  C5  DEN d   1       5.853   4.357  -2.632  0.00  0.00    -0.003 A 
ATOM      6  C6  DEN d   1       5.106   5.450  -2.279  0.00  0.00     0.001 A 
ATOM      7  C7  DEN d   1       4.015   5.293  -1.466  0.00  0.00     0.017 A 
ATOM      8  C8  DEN d   1       3.670   4.008  -1.065  0.00  0.00    -0.094 A 
ATOM      9  C9  DEN d   1       4.445   2.918  -1.423  0.00  0.00    -0.072 A 
ENDROOT
TORSDOF 0
ENDMDL
