MODEL 1
REMARK minimizedAffinity -2.40248156
REMARK minimizedRMSD -1
REMARK  0 active torsions:
REMARK  status: ('A' for Active; 'I' for Inactive)
ROOT
ATOM      1  C1  DEN d   1      -0.912  -0.395  -0.704  0.00  0.00     0.130 A 
ATOM      2  C2  DEN d   1       0.547  -0.431  -0.653  0.00  0.00    -0.031 A 
ATOM      3  C3  DEN d   1       0.962  -1.827  -0.409  0.00  0.00     0.027 A 
ATOM      4  C4  DEN d   1      -0.506  -3.927  -0.111  0.00  0.00     0.027 A 
ATOM      5  C5  DEN d   1      -1.801  -4.393  -0.062  0.00  0.00    -0.003 A 
ATOM      6  C6  DEN d   1      -2.882  -3.562  -0.189  0.00  0.00     0.001 A 
ATOM      7  C7  DEN d   1      -2.687  -2.225  -0.416  0.00  0.00     0.017 A 
ATOM      8  C8  DEN d   1      -1.385  -1.746  -0.459  0.00  0.00    -0.094 A 
ATOM      9  C9  DEN d   1      -0.305  -2.604  -0.341  0.00  0.00    -0.072 A 
ENDROOT
TORSDOF 0
ENDMDL
