MODEL 1
REMARK minimizedAffinity 4.57913303
REMARK minimizedRMSD -1
REMARK  0 active torsions:
REMARK  status: ('A' for Active; 'I' for Inactive)
ROOT
ATOM      1  C1  DEN d   1      -0.723  -2.052   0.140  0.00  0.00     0.130 A 
ATOM      2  C2  DEN d   1      -1.815  -1.211  -0.342  0.00  0.00    -0.031 A 
ATOM      3  C3  DEN d   1      -3.049  -2.022  -0.346  0.00  0.00     0.027 A 
ATOM      4  C4  DEN d   1      -3.373  -4.485   0.349  0.00  0.00     0.027 A 
ATOM      5  C5  DEN d   1      -2.735  -5.614   0.814  0.00  0.00    -0.003 A 
ATOM      6  C6  DEN d   1      -1.387  -5.644   1.053  0.00  0.00     0.001 A 
ATOM      7  C7  DEN d   1      -0.639  -4.511   0.870  0.00  0.00     0.017 A 
ATOM      8  C8  DEN d   1      -1.274  -3.371   0.394  0.00  0.00    -0.094 A 
ATOM      9  C9  DEN d   1      -2.641  -3.357   0.170  0.00  0.00    -0.072 A 
ENDROOT
TORSDOF 0
ENDMDL
