MODEL 1
REMARK minimizedAffinity 15.2717628
REMARK minimizedRMSD -1
REMARK  0 active torsions:
REMARK  status: ('A' for Active; 'I' for Inactive)
ROOT
ATOM      1  C1  DEN d   1       0.551  -5.999   2.603  0.00  0.00     0.130 A 
ATOM      2  C2  DEN d   1       1.880  -5.617   2.135  0.00  0.00    -0.031 A 
ATOM      3  C3  DEN d   1       1.721  -4.543   1.135  0.00  0.00     0.027 A 
ATOM      4  C4  DEN d   1      -0.443  -3.435   0.274  0.00  0.00     0.027 A 
ATOM      5  C5  DEN d   1      -1.817  -3.433   0.368  0.00  0.00    -0.003 A 
ATOM      6  C6  DEN d   1      -2.494  -4.301   1.182  0.00  0.00     0.001 A 
ATOM      7  C7  DEN d   1      -1.796  -5.179   1.969  0.00  0.00     0.017 A 
ATOM      8  C8  DEN d   1      -0.411  -5.193   1.873  0.00  0.00    -0.094 A 
ATOM      9  C9  DEN d   1       0.256  -4.298   1.053  0.00  0.00    -0.072 A 
ENDROOT
TORSDOF 0
ENDMDL
