MODEL 1
REMARK minimizedAffinity 2.51667404
REMARK minimizedRMSD -1
REMARK  0 active torsions:
REMARK  status: ('A' for Active; 'I' for Inactive)
ROOT
ATOM      1  C   UNL d   1      -2.012  -3.744   1.149  0.00  0.00     0.023 A 
ATOM      2  C1  UNL d   1      -2.080  -4.945   0.443  0.00  0.00     0.003 A 
ATOM      3  C2  UNL d   1      -1.076  -5.278  -0.469  0.00  0.00     0.048 A 
ATOM      4  C3  UNL d   1      -0.007  -4.405  -0.669  0.00  0.00     0.023 A 
ATOM      5  C4  UNL d   1       0.065  -3.203   0.036  0.00  0.00     0.048 A 
ATOM      6  C5  UNL d   1      -0.941  -2.874   0.946  0.00  0.00     0.003 A 
ATOM      7  I   UNL d   1       1.488  -4.898  -2.026  0.00  0.00    -0.146 I 
ENDROOT
TORSDOF 0
ENDMDL
