MODEL 1
REMARK minimizedAffinity 7.40901279
REMARK minimizedRMSD -1
REMARK  0 active torsions:
REMARK  status: ('A' for Active; 'I' for Inactive)
ROOT
ATOM      1  C   UNL d   1      -4.316   4.603  -4.281  0.00  0.00     0.023 A 
ATOM      2  C1  UNL d   1      -3.702   3.538  -4.941  0.00  0.00     0.003 A 
ATOM      3  C2  UNL d   1      -3.342   2.390  -4.231  0.00  0.00     0.048 A 
ATOM      4  C3  UNL d   1      -3.598   2.314  -2.863  0.00  0.00     0.023 A 
ATOM      5  C4  UNL d   1      -4.213   3.377  -2.199  0.00  0.00     0.048 A 
ATOM      6  C5  UNL d   1      -4.571   4.523  -2.912  0.00  0.00     0.003 A 
ATOM      7  I   UNL d   1      -3.063   0.607  -1.805  0.00  0.00    -0.146 I 
ENDROOT
TORSDOF 0
ENDMDL
