MODEL 1
REMARK minimizedAffinity 2.44988012
REMARK minimizedRMSD -1
REMARK  0 active torsions:
REMARK  status: ('A' for Active; 'I' for Inactive)
ROOT
ATOM      1  C   UNL d   1       1.883  -3.389   6.000  0.00  0.00     0.023 A 
ATOM      2  C1  UNL d   1       1.138  -2.254   5.678  0.00  0.00     0.003 A 
ATOM      3  C2  UNL d   1       1.167  -1.743   4.379  0.00  0.00     0.048 A 
ATOM      4  C3  UNL d   1       1.943  -2.373   3.406  0.00  0.00     0.023 A 
ATOM      5  C4  UNL d   1       2.689  -3.509   3.723  0.00  0.00     0.048 A 
ATOM      6  C5  UNL d   1       2.657  -4.016   5.023  0.00  0.00     0.003 A 
ATOM      7  I   UNL d   1       1.988  -1.614   1.471  0.00  0.00    -0.146 I 
ENDROOT
TORSDOF 0
ENDMDL
