MODEL 1
REMARK minimizedAffinity 4.26398373
REMARK minimizedRMSD -1
REMARK  0 active torsions:
REMARK  status: ('A' for Active; 'I' for Inactive)
ROOT
ATOM      1  C   UNL d   1       1.877  -1.842   1.443  0.00  0.00     0.023 A 
ATOM      2  C1  UNL d   1       2.255  -3.087   1.945  0.00  0.00     0.003 A 
ATOM      3  C2  UNL d   1       1.916  -3.447   3.251  0.00  0.00     0.048 A 
ATOM      4  C3  UNL d   1       1.198  -2.557   4.049  0.00  0.00     0.023 A 
ATOM      5  C4  UNL d   1       0.817  -1.310   3.551  0.00  0.00     0.048 A 
ATOM      6  C5  UNL d   1       1.158  -0.954   2.245  0.00  0.00     0.003 A 
ATOM      7  I   UNL d   1       0.692  -3.090   5.993  0.00  0.00    -0.146 I 
ENDROOT
TORSDOF 0
ENDMDL
