MODEL 1
REMARK minimizedAffinity 7.54174328
REMARK minimizedRMSD -1
REMARK  0 active torsions:
REMARK  status: ('A' for Active; 'I' for Inactive)
ROOT
ATOM      1  C   UNL d   1       2.223  -0.627   1.350  0.00  0.00     0.023 A 
ATOM      2  C1  UNL d   1       3.092  -1.410   0.590  0.00  0.00     0.003 A 
ATOM      3  C2  UNL d   1       3.137  -2.793   0.783  0.00  0.00     0.048 A 
ATOM      4  C3  UNL d   1       2.310  -3.385   1.736  0.00  0.00     0.023 A 
ATOM      5  C4  UNL d   1       1.438  -2.606   2.497  0.00  0.00     0.048 A 
ATOM      6  C5  UNL d   1       1.397  -1.224   2.302  0.00  0.00     0.003 A 
ATOM      7  I   UNL d   1       2.375  -5.443   2.024  0.00  0.00    -0.146 I 
ENDROOT
TORSDOF 0
ENDMDL
