MODEL 1
REMARK minimizedAffinity 7.02673244
REMARK minimizedRMSD -1
REMARK  0 active torsions:
REMARK  status: ('A' for Active; 'I' for Inactive)
ROOT
ATOM      1  C   UNL d   1      -1.194  -5.787  -0.607  0.00  0.00     0.023 A 
ATOM      2  C1  UNL d   1       0.198  -5.705  -0.623  0.00  0.00     0.003 A 
ATOM      3  C2  UNL d   1       0.849  -4.718   0.120  0.00  0.00     0.048 A 
ATOM      4  C3  UNL d   1       0.101  -3.817   0.877  0.00  0.00     0.023 A 
ATOM      5  C4  UNL d   1      -1.292  -3.896   0.897  0.00  0.00     0.048 A 
ATOM      6  C5  UNL d   1      -1.938  -4.884   0.152  0.00  0.00     0.003 A 
ATOM      7  I   UNL d   1       1.067  -2.347   1.984  0.00  0.00    -0.146 I 
ENDROOT
TORSDOF 0
ENDMDL
