MODEL 1
REMARK minimizedAffinity 12.0448713
REMARK minimizedRMSD -1
REMARK  0 active torsions:
REMARK  status: ('A' for Active; 'I' for Inactive)
ROOT
ATOM      1  C   UNL d   1       1.852  -3.510   6.000  0.00  0.00     0.023 A 
ATOM      2  C1  UNL d   1       2.298  -4.098   4.816  0.00  0.00     0.003 A 
ATOM      3  C2  UNL d   1       2.026  -3.491   3.588  0.00  0.00     0.048 A 
ATOM      4  C3  UNL d   1       1.308  -2.296   3.552  0.00  0.00     0.023 A 
ATOM      5  C4  UNL d   1       0.861  -1.703   4.734  0.00  0.00     0.048 A 
ATOM      6  C5  UNL d   1       1.135  -2.314   5.959  0.00  0.00     0.003 A 
ATOM      7  I   UNL d   1       0.902  -1.390   1.725  0.00  0.00    -0.146 I 
ENDROOT
TORSDOF 0
ENDMDL
