MODEL 1
REMARK minimizedAffinity 6.46797514
REMARK minimizedRMSD -1
REMARK  0 active torsions:
REMARK  status: ('A' for Active; 'I' for Inactive)
ROOT
ATOM      1  C4' PXY d   1      -1.698   3.467   2.917  0.00  0.00     0.077 C 
ATOM      2  C1' PXY d   1      -4.368   5.352  -1.851  0.00  0.00     0.077 C 
ATOM      3  C1  PXY d   1      -3.671   4.845  -0.604  0.00  0.00    -0.082 A 
ATOM      4  C2  PXY d   1      -3.484   5.664   0.419  0.00  0.00     0.003 A 
ATOM      5  C3  PXY d   1      -2.827   5.231   1.542  0.00  0.00     0.003 A 
ATOM      6  C4  PXY d   1      -2.405   3.932   1.641  0.00  0.00    -0.082 A 
ATOM      7  C5  PXY d   1      -2.602   3.088   0.606  0.00  0.00     0.003 A 
ATOM      8  C6  PXY d   1      -3.234   3.558  -0.542  0.00  0.00     0.003 A 
ENDROOT
TORSDOF 0
ENDMDL
