MODEL 1
REMARK minimizedAffinity 22.6037426
REMARK minimizedRMSD -1
REMARK  0 active torsions:
REMARK  status: ('A' for Active; 'I' for Inactive)
ROOT
ATOM      1  C4' PXY d   1       5.241   1.361  -6.000  0.00  0.00     0.077 C 
ATOM      2  C1' PXY d   1       2.761  -2.996  -3.122  0.00  0.00     0.077 C 
ATOM      3  C1  PXY d   1       3.409  -1.845  -3.867  0.00  0.00    -0.082 A 
ATOM      4  C2  PXY d   1       3.492  -1.885  -5.187  0.00  0.00     0.003 A 
ATOM      5  C3  PXY d   1       4.103  -0.867  -5.874  0.00  0.00     0.003 A 
ATOM      6  C4  PXY d   1       4.587   0.226  -5.207  0.00  0.00    -0.082 A 
ATOM      7  C5  PXY d   1       4.496   0.279  -3.861  0.00  0.00     0.003 A 
ATOM      8  C6  PXY d   1       3.909  -0.783  -3.179  0.00  0.00     0.003 A 
ENDROOT
TORSDOF 0
ENDMDL
