MODEL 1
REMARK minimizedAffinity 13.0885601
REMARK minimizedRMSD -1
REMARK  0 active torsions:
REMARK  status: ('A' for Active; 'I' for Inactive)
ROOT
ATOM      1  C4' PXY d   1       5.977  -6.000  -5.980  0.00  0.00     0.077 C 
ATOM      2  C1' PXY d   1       2.611  -2.168  -3.259  0.00  0.00     0.077 C 
ATOM      3  C1  PXY d   1       3.487  -3.171  -3.984  0.00  0.00    -0.082 A 
ATOM      4  C2  PXY d   1       4.091  -4.128  -3.298  0.00  0.00     0.003 A 
ATOM      5  C3  PXY d   1       4.912  -5.024  -3.933  0.00  0.00     0.003 A 
ATOM      6  C4  PXY d   1       5.076  -4.971  -5.292  0.00  0.00    -0.082 A 
ATOM      7  C5  PXY d   1       4.455  -4.004  -6.000  0.00  0.00     0.003 A 
ATOM      8  C6  PXY d   1       3.658  -3.079  -5.331  0.00  0.00     0.003 A 
ENDROOT
TORSDOF 0
ENDMDL
