MODEL 1
REMARK minimizedAffinity 12.5063009
REMARK minimizedRMSD -1
REMARK  0 active torsions:
REMARK  status: ('A' for Active; 'I' for Inactive)
ROOT
ATOM      1  C4' PXY d   1       6.000   4.852  -3.066  0.00  0.00     0.077 C 
ATOM      2  C1' PXY d   1       5.591  -0.113  -5.999  0.00  0.00     0.077 C 
ATOM      3  C1  PXY d   1       5.704   1.195  -5.240  0.00  0.00    -0.082 A 
ATOM      4  C2  PXY d   1       5.714   1.184  -3.917  0.00  0.00     0.003 A 
ATOM      5  C3  PXY d   1       5.783   2.360  -3.215  0.00  0.00     0.003 A 
ATOM      6  C4  PXY d   1       5.897   3.555  -3.874  0.00  0.00    -0.082 A 
ATOM      7  C5  PXY d   1       5.899   3.573  -5.224  0.00  0.00     0.003 A 
ATOM      8  C6  PXY d   1       5.786   2.372  -5.918  0.00  0.00     0.003 A 
ENDROOT
TORSDOF 0
ENDMDL
