MODEL 1
REMARK minimizedAffinity 10.6171894
REMARK minimizedRMSD -1
REMARK  0 active torsions:
REMARK  status: ('A' for Active; 'I' for Inactive)
ROOT
ATOM      1  C4' PXY d   1      -0.720   3.064   1.359  0.00  0.00     0.077 C 
ATOM      2  C1' PXY d   1      -5.336   5.519  -1.105  0.00  0.00     0.077 C 
ATOM      3  C1  PXY d   1      -4.130   4.864  -0.463  0.00  0.00    -0.082 A 
ATOM      4  C2  PXY d   1      -3.519   5.463   0.546  0.00  0.00     0.003 A 
ATOM      5  C3  PXY d   1      -2.407   4.900   1.118  0.00  0.00     0.003 A 
ATOM      6  C4  PXY d   1      -1.947   3.685   0.687  0.00  0.00    -0.082 A 
ATOM      7  C5  PXY d   1      -2.571   3.061  -0.336  0.00  0.00     0.003 A 
ATOM      8  C6  PXY d   1      -3.673   3.670  -0.929  0.00  0.00     0.003 A 
ENDROOT
TORSDOF 0
ENDMDL
