MODEL 1
REMARK minimizedAffinity 13.0479527
REMARK minimizedRMSD -1
REMARK  0 active torsions:
REMARK  status: ('A' for Active; 'I' for Inactive)
ROOT
ATOM      1  C4' PXY d   1       3.925  -2.804  -5.433  0.00  0.00     0.077 C 
ATOM      2  C1' PXY d   1       5.999   2.545  -4.723  0.00  0.00     0.077 C 
ATOM      3  C1  PXY d   1       5.451   1.142  -4.897  0.00  0.00    -0.082 A 
ATOM      4  C2  PXY d   1       5.980   0.341  -5.807  0.00  0.00     0.003 A 
ATOM      5  C3  PXY d   1       5.475  -0.919  -6.000  0.00  0.00     0.003 A 
ATOM      6  C4  PXY d   1       4.453  -1.383  -5.216  0.00  0.00    -0.082 A 
ATOM      7  C5  PXY d   1       3.915  -0.576  -4.278  0.00  0.00     0.003 A 
ATOM      8  C6  PXY d   1       4.414   0.715  -4.126  0.00  0.00     0.003 A 
ENDROOT
TORSDOF 0
ENDMDL
