MODEL 1
REMARK minimizedAffinity 18.1761818
REMARK minimizedRMSD -1
REMARK  0 active torsions:
REMARK  status: ('A' for Active; 'I' for Inactive)
ROOT
ATOM      1  C4' PXY d   1       1.486   6.000   2.748  0.00  0.00     0.077 C 
ATOM      2  C1' PXY d   1      -1.393   1.890  -0.121  0.00  0.00     0.077 C 
ATOM      3  C1  PXY d   1      -0.630   2.969   0.621  0.00  0.00    -0.082 A 
ATOM      4  C2  PXY d   1      -0.662   3.001   1.944  0.00  0.00     0.003 A 
ATOM      5  C3  PXY d   1      -0.004   3.989   2.630  0.00  0.00     0.003 A 
ATOM      6  C4  PXY d   1       0.738   4.923   1.957  0.00  0.00    -0.082 A 
ATOM      7  C5  PXY d   1       0.784   4.890   0.609  0.00  0.00     0.003 A 
ATOM      8  C6  PXY d   1       0.076   3.904  -0.071  0.00  0.00     0.003 A 
ENDROOT
TORSDOF 0
ENDMDL
