MODEL 1
REMARK minimizedAffinity 15.9937267
REMARK minimizedRMSD -1
REMARK  0 active torsions:
REMARK  status: ('A' for Active; 'I' for Inactive)
ROOT
ATOM      1  C4' PXY d   1       5.995   5.999  -3.179  0.00  0.00     0.077 C 
ATOM      2  C1' PXY d   1       2.342   4.946   1.175  0.00  0.00     0.077 C 
ATOM      3  C1  PXY d   1       3.310   5.223   0.042  0.00  0.00    -0.082 A 
ATOM      4  C2  PXY d   1       2.863   5.753  -1.085  0.00  0.00     0.003 A 
ATOM      5  C3  PXY d   1       3.719   5.980  -2.132  0.00  0.00     0.003 A 
ATOM      6  C4  PXY d   1       5.055   5.711  -2.005  0.00  0.00    -0.082 A 
ATOM      7  C5  PXY d   1       5.521   5.179  -0.855  0.00  0.00     0.003 A 
ATOM      8  C6  PXY d   1       4.628   4.918   0.181  0.00  0.00     0.003 A 
ENDROOT
TORSDOF 0
ENDMDL
