MODEL 1
REMARK minimizedAffinity 13.5862093
REMARK minimizedRMSD -1
REMARK  0 active torsions:
REMARK  status: ('A' for Active; 'I' for Inactive)
ROOT
ATOM      1  C4' PXY d   1       3.453   5.670  -0.508  0.00  0.00     0.077 C 
ATOM      2  C1' PXY d   1      -1.139   3.272   2.057  0.00  0.00     0.077 C 
ATOM      3  C1  PXY d   1       0.059   3.913   1.384  0.00  0.00    -0.082 A 
ATOM      4  C2  PXY d   1       0.919   3.156   0.721  0.00  0.00     0.003 A 
ATOM      5  C3  PXY d   1       2.025   3.714   0.133  0.00  0.00     0.003 A 
ATOM      6  C4  PXY d   1       2.225   5.068   0.179  0.00  0.00    -0.082 A 
ATOM      7  C5  PXY d   1       1.346   5.848   0.845  0.00  0.00     0.003 A 
ATOM      8  C6  PXY d   1       0.252   5.257   1.469  0.00  0.00     0.003 A 
ENDROOT
TORSDOF 0
ENDMDL
