MODEL 1
REMARK minimizedAffinity 16.5494766
REMARK minimizedRMSD -1
REMARK  0 active torsions:
REMARK  status: ('A' for Active; 'I' for Inactive)
ROOT
ATOM      1  C4' PXY d   1      -2.621  -3.025   5.890  0.00  0.00     0.077 C 
ATOM      2  C1' PXY d   1      -4.232   2.526   5.991  0.00  0.00     0.077 C 
ATOM      3  C1  PXY d   1      -3.820   1.067   5.970  0.00  0.00    -0.082 A 
ATOM      4  C2  PXY d   1      -2.537   0.750   5.914  0.00  0.00     0.003 A 
ATOM      5  C3  PXY d   1      -2.149  -0.564   5.863  0.00  0.00     0.003 A 
ATOM      6  C4  PXY d   1      -3.081  -1.565   5.922  0.00  0.00    -0.082 A 
ATOM      7  C5  PXY d   1      -4.392  -1.250   5.990  0.00  0.00     0.003 A 
ATOM      8  C6  PXY d   1      -4.768   0.091   6.000  0.00  0.00     0.003 A 
ENDROOT
TORSDOF 0
ENDMDL
