MODEL 1
REMARK minimizedAffinity 16.624649
REMARK minimizedRMSD -1
REMARK  0 active torsions:
REMARK  status: ('A' for Active; 'I' for Inactive)
ROOT
ATOM      1  C4' PXY d   1      -3.026  -2.045  -2.638  0.00  0.00     0.077 C 
ATOM      2  C1' PXY d   1       1.001  -2.704   1.457  0.00  0.00     0.077 C 
ATOM      3  C1  PXY d   1      -0.064  -2.536   0.391  0.00  0.00    -0.082 A 
ATOM      4  C2  PXY d   1       0.292  -2.442  -0.880  0.00  0.00     0.003 A 
ATOM      5  C3  PXY d   1      -0.656  -2.258  -1.854  0.00  0.00     0.003 A 
ATOM      6  C4  PXY d   1      -1.986  -2.224  -1.529  0.00  0.00    -0.082 A 
ATOM      7  C5  PXY d   1      -2.357  -2.331  -0.236  0.00  0.00     0.003 A 
ATOM      8  C6  PXY d   1      -1.377  -2.475   0.742  0.00  0.00     0.003 A 
ENDROOT
TORSDOF 0
ENDMDL
