MODEL 1
REMARK minimizedAffinity 20.9583549
REMARK minimizedRMSD -1
REMARK  0 active torsions:
REMARK  status: ('A' for Active; 'I' for Inactive)
ROOT
ATOM      1  C4' PXY d   1      -1.906  -2.734  -3.548  0.00  0.00     0.077 C 
ATOM      2  C1' PXY d   1      -6.000  -6.000  -5.995  0.00  0.00     0.077 C 
ATOM      3  C1  PXY d   1      -4.919  -5.154  -5.350  0.00  0.00    -0.082 A 
ATOM      4  C2  PXY d   1      -5.225  -3.963  -4.861  0.00  0.00     0.003 A 
ATOM      5  C3  PXY d   1      -4.254  -3.172  -4.304  0.00  0.00     0.003 A 
ATOM      6  C4  PXY d   1      -2.967  -3.626  -4.198  0.00  0.00    -0.082 A 
ATOM      7  C5  PXY d   1      -2.649  -4.844  -4.685  0.00  0.00     0.003 A 
ATOM      8  C6  PXY d   1      -3.641  -5.615  -5.284  0.00  0.00     0.003 A 
ENDROOT
TORSDOF 0
ENDMDL
