MODEL 1
REMARK minimizedAffinity 11.2739458
REMARK minimizedRMSD -1
REMARK  0 active torsions:
REMARK  status: ('A' for Active; 'I' for Inactive)
ROOT
ATOM      1  C4' PXY d   1      -6.000  -6.000  -5.251  0.00  0.00     0.077 C 
ATOM      2  C1' PXY d   1      -1.189  -2.865  -4.583  0.00  0.00     0.077 C 
ATOM      3  C1  PXY d   1      -2.447  -3.691  -4.769  0.00  0.00    -0.082 A 
ATOM      4  C2  PXY d   1      -3.556  -3.346  -4.138  0.00  0.00     0.003 A 
ATOM      5  C3  PXY d   1      -4.694  -4.100  -4.270  0.00  0.00     0.003 A 
ATOM      6  C4  PXY d   1      -4.710  -5.189  -5.100  0.00  0.00    -0.082 A 
ATOM      7  C5  PXY d   1      -3.584  -5.542  -5.756  0.00  0.00     0.003 A 
ATOM      8  C6  PXY d   1      -2.429  -4.787  -5.576  0.00  0.00     0.003 A 
ENDROOT
TORSDOF 0
ENDMDL
