MODEL 1
REMARK minimizedAffinity 22.1260185
REMARK minimizedRMSD -1
REMARK  0 active torsions:
REMARK  status: ('A' for Active; 'I' for Inactive)
ROOT
ATOM      1  C4' PXY d   1       4.976   1.167  -4.256  0.00  0.00     0.077 C 
ATOM      2  C1' PXY d   1       1.820   5.875  -3.120  0.00  0.00     0.077 C 
ATOM      3  C1  PXY d   1       2.658   4.648  -3.421  0.00  0.00    -0.082 A 
ATOM      4  C2  PXY d   1       2.061   3.509  -3.735  0.00  0.00     0.003 A 
ATOM      5  C3  PXY d   1       2.803   2.382  -3.979  0.00  0.00     0.003 A 
ATOM      6  C4  PXY d   1       4.171   2.434  -3.954  0.00  0.00    -0.082 A 
ATOM      7  C5  PXY d   1       4.787   3.594  -3.645  0.00  0.00     0.003 A 
ATOM      8  C6  PXY d   1       4.015   4.717  -3.360  0.00  0.00     0.003 A 
ENDROOT
TORSDOF 0
ENDMDL
