MODEL 1
REMARK minimizedAffinity 16.8278503
REMARK minimizedRMSD -1
REMARK  0 active torsions:
REMARK  status: ('A' for Active; 'I' for Inactive)
ROOT
ATOM      1  C4' PXY d   1       2.598  -2.293  -3.239  0.00  0.00     0.077 C 
ATOM      2  C1' PXY d   1      -1.922  -0.634  -0.040  0.00  0.00     0.077 C 
ATOM      3  C1  PXY d   1      -0.745  -1.075  -0.887  0.00  0.00    -0.082 A 
ATOM      4  C2  PXY d   1       0.449  -1.203  -0.332  0.00  0.00     0.003 A 
ATOM      5  C3  PXY d   1       1.531  -1.570  -1.090  0.00  0.00     0.003 A 
ATOM      6  C4  PXY d   1       1.379  -1.859  -2.420  0.00  0.00    -0.082 A 
ATOM      7  C5  PXY d   1       0.162  -1.741  -2.991  0.00  0.00     0.003 A 
ATOM      8  C6  PXY d   1      -0.915  -1.328  -2.213  0.00  0.00     0.003 A 
ENDROOT
TORSDOF 0
ENDMDL
