MODEL 1
REMARK minimizedAffinity 10.4169741
REMARK minimizedRMSD -1
REMARK  0 active torsions:
REMARK  status: ('A' for Active; 'I' for Inactive)
ROOT
ATOM      1  C4' PXY d   1       3.264  -1.177  -3.641  0.00  0.00     0.077 C 
ATOM      2  C1' PXY d   1      -1.290  -1.907  -0.155  0.00  0.00     0.077 C 
ATOM      3  C1  PXY d   1      -0.104  -1.715  -1.080  0.00  0.00    -0.082 A 
ATOM      4  C2  PXY d   1       1.092  -2.143  -0.708  0.00  0.00     0.003 A 
ATOM      5  C3  PXY d   1       2.181  -1.949  -1.518  0.00  0.00     0.003 A 
ATOM      6  C4  PXY d   1       2.036  -1.358  -2.744  0.00  0.00    -0.082 A 
ATOM      7  C5  PXY d   1       0.818  -0.928  -3.136  0.00  0.00     0.003 A 
ATOM      8  C6  PXY d   1      -0.268  -1.097  -2.281  0.00  0.00     0.003 A 
ENDROOT
TORSDOF 0
ENDMDL
