MODEL 1
REMARK minimizedAffinity 15.1439133
REMARK minimizedRMSD -1
REMARK  0 active torsions:
REMARK  status: ('A' for Active; 'I' for Inactive)
ROOT
ATOM      1  C4' PXY d   1       1.550  -5.976  -0.649  0.00  0.00     0.077 C 
ATOM      2  C1' PXY d   1      -0.705  -0.712   0.143  0.00  0.00     0.077 C 
ATOM      3  C1  PXY d   1      -0.110  -2.093  -0.052  0.00  0.00    -0.082 A 
ATOM      4  C2  PXY d   1       0.249  -2.485  -1.264  0.00  0.00     0.003 A 
ATOM      5  C3  PXY d   1       0.759  -3.742  -1.463  0.00  0.00     0.003 A 
ATOM      6  C4  PXY d   1       0.953  -4.587  -0.404  0.00  0.00    -0.082 A 
ATOM      7  C5  PXY d   1       0.600  -4.190   0.837  0.00  0.00     0.003 A 
ATOM      8  C6  PXY d   1       0.045  -2.925   1.012  0.00  0.00     0.003 A 
ENDROOT
TORSDOF 0
ENDMDL
