MODEL 1
REMARK minimizedAffinity 19.9973774
REMARK minimizedRMSD -1
REMARK  0 active torsions:
REMARK  status: ('A' for Active; 'I' for Inactive)
ROOT
ATOM      1  C4' PXY d   1       6.000   4.836  -1.555  0.00  0.00     0.077 C 
ATOM      2  C1' PXY d   1       1.109   5.584   1.434  0.00  0.00     0.077 C 
ATOM      3  C1  PXY d   1       2.396   5.399   0.655  0.00  0.00    -0.082 A 
ATOM      4  C2  PXY d   1       2.396   4.660  -0.443  0.00  0.00     0.003 A 
ATOM      5  C3  PXY d   1       3.558   4.456  -1.141  0.00  0.00     0.003 A 
ATOM      6  C4  PXY d   1       4.721   5.058  -0.742  0.00  0.00    -0.082 A 
ATOM      7  C5  PXY d   1       4.727   5.822   0.371  0.00  0.00     0.003 A 
ATOM      8  C6  PXY d   1       3.546   5.983   1.089  0.00  0.00     0.003 A 
ENDROOT
TORSDOF 0
ENDMDL
