MODEL 1
REMARK minimizedAffinity 11.2811213
REMARK minimizedRMSD -1
REMARK  0 active torsions:
REMARK  status: ('A' for Active; 'I' for Inactive)
ROOT
ATOM      1  C4' PXY d   1       4.426  -2.912  -4.746  0.00  0.00     0.077 C 
ATOM      2  C1' PXY d   1       0.382  -1.588  -0.832  0.00  0.00     0.077 C 
ATOM      3  C1  PXY d   1       1.450  -1.925  -1.855  0.00  0.00    -0.082 A 
ATOM      4  C2  PXY d   1       1.138  -2.665  -2.907  0.00  0.00     0.003 A 
ATOM      5  C3  PXY d   1       2.098  -3.005  -3.825  0.00  0.00     0.003 A 
ATOM      6  C4  PXY d   1       3.378  -2.539  -3.693  0.00  0.00    -0.082 A 
ATOM      7  C5  PXY d   1       3.702  -1.775  -2.628  0.00  0.00     0.003 A 
ATOM      8  C6  PXY d   1       2.723  -1.475  -1.686  0.00  0.00     0.003 A 
ENDROOT
TORSDOF 0
ENDMDL
