MODEL 1
REMARK minimizedAffinity 3.47534156
REMARK minimizedRMSD -1
REMARK  0 active torsions:
REMARK  status: ('A' for Active; 'I' for Inactive)
ROOT
ATOM      1  C4' PXY d   1       5.739  -5.301  -3.804  0.00  0.00     0.077 C 
ATOM      2  C1' PXY d   1       5.889   0.361  -4.955  0.00  0.00     0.077 C 
ATOM      3  C1  PXY d   1       5.854  -1.121  -4.641  0.00  0.00    -0.082 A 
ATOM      4  C2  PXY d   1       5.920  -2.001  -5.628  0.00  0.00     0.003 A 
ATOM      5  C3  PXY d   1       5.857  -3.345  -5.364  0.00  0.00     0.003 A 
ATOM      6  C4  PXY d   1       5.780  -3.795  -4.073  0.00  0.00    -0.082 A 
ATOM      7  C5  PXY d   1       5.723  -2.904  -3.060  0.00  0.00     0.003 A 
ATOM      8  C6  PXY d   1       5.746  -1.543  -3.352  0.00  0.00     0.003 A 
ENDROOT
TORSDOF 0
ENDMDL
