MODEL 1
REMARK minimizedAffinity 13.2291403
REMARK minimizedRMSD -1
REMARK  2 active torsions:
REMARK  status: ('A' for Active; 'I' for Inactive)
REMARK    1  A    between atoms: C1_2  and  C2_3 
REMARK    2  A    between atoms: C2_3  and  C3_4 
ROOT
ATOM      1  C3  UNL d   1      -0.389   0.081   0.763  0.00  0.00    -0.075 A 
ATOM      2  C4  UNL d   1      -0.905  -0.207  -0.508  0.00  0.00     0.002 A 
ATOM      3  C5  UNL d   1      -2.271  -0.082  -0.763  0.00  0.00     0.002 A 
ATOM      4  C6  UNL d   1      -3.138   0.322   0.250  0.00  0.00    -0.004 A 
ATOM      5  C7  UNL d   1      -2.638   0.595   1.522  0.00  0.00     0.002 A 
ATOM      6  C8  UNL d   1      -1.271   0.475   1.778  0.00  0.00     0.002 A 
ENDROOT
BRANCH   1   7
ATOM      7  C2  UNL d   1       1.092  -0.024   1.038  0.00  0.00     0.056 C 
BRANCH   7   8
ATOM      8  C1  UNL d   1       1.966   0.040  -0.220  0.00  0.00     0.007 C 
ATOM      9  C   UNL d   1       3.011   1.147  -0.169  0.00  0.00     0.009 C 
ENDBRANCH   7   8
ENDBRANCH   1   7
TORSDOF 2
ENDMDL
