MODEL 1
REMARK minimizedAffinity 7.0144577
REMARK minimizedRMSD -1
REMARK  2 active torsions:
REMARK  status: ('A' for Active; 'I' for Inactive)
REMARK    1  A    between atoms: C1_2  and  C2_3 
REMARK    2  A    between atoms: C2_3  and  C3_4 
ROOT
ATOM      1  C3  UNL d   1      -1.217   0.038   1.986  0.00  0.00    -0.075 A 
ATOM      2  C4  UNL d   1      -1.586  -0.546   3.206  0.00  0.00     0.002 A 
ATOM      3  C5  UNL d   1      -0.617  -1.081   4.057  0.00  0.00     0.002 A 
ATOM      4  C6  UNL d   1       0.727  -1.047   3.694  0.00  0.00    -0.004 A 
ATOM      5  C7  UNL d   1       1.103  -0.484   2.476  0.00  0.00     0.002 A 
ATOM      6  C8  UNL d   1       0.137   0.055   1.626  0.00  0.00     0.002 A 
ENDROOT
BRANCH   1   7
ATOM      7  C2  UNL d   1      -2.258   0.645   1.075  0.00  0.00     0.056 C 
BRANCH   7   8
ATOM      8  C1  UNL d   1      -2.018   0.372  -0.414  0.00  0.00     0.007 C 
ATOM      9  C   UNL d   1      -2.212  -1.089  -0.796  0.00  0.00     0.009 C 
ENDBRANCH   7   8
ENDBRANCH   1   7
TORSDOF 2
ENDMDL
