MODEL 1
REMARK minimizedAffinity 2.67879057
REMARK minimizedRMSD -1
REMARK  2 active torsions:
REMARK  status: ('A' for Active; 'I' for Inactive)
REMARK    1  A    between atoms: C1_2  and  C2_3 
REMARK    2  A    between atoms: C2_3  and  C3_4 
ROOT
ATOM      1  C3  UNL d   1       1.882   0.958  -3.861  0.00  0.00    -0.075 A 
ATOM      2  C4  UNL d   1       2.036   0.342  -2.610  0.00  0.00     0.002 A 
ATOM      3  C5  UNL d   1       3.086   0.706  -1.766  0.00  0.00     0.002 A 
ATOM      4  C6  UNL d   1       3.998   1.681  -2.164  0.00  0.00    -0.004 A 
ATOM      5  C7  UNL d   1       3.864   2.287  -3.411  0.00  0.00     0.002 A 
ATOM      6  C8  UNL d   1       2.812   1.928  -4.256  0.00  0.00     0.002 A 
ENDROOT
BRANCH   1   7
ATOM      7  C2  UNL d   1       0.731   0.589  -4.767  0.00  0.00     0.056 C 
BRANCH   7   8
ATOM      8  C1  UNL d   1      -0.488   0.026  -4.029  0.00  0.00     0.007 C 
ATOM      9  C   UNL d   1      -1.171  -1.111  -4.778  0.00  0.00     0.009 C 
ENDBRANCH   7   8
ENDBRANCH   1   7
TORSDOF 2
ENDMDL
