MODEL 1
REMARK minimizedAffinity -2.43170166
REMARK minimizedRMSD -1
REMARK  0 active torsions:
REMARK  status: ('A' for Active; 'I' for Inactive)
ROOT
ATOM      1  C   UNL d   1       4.904  -1.179   4.927  0.00  0.00     0.020 A 
ATOM      2  C1  UNL d   1       5.963  -1.691   5.675  0.00  0.00     0.020 A 
ATOM      3  C2  UNL d   1       6.000  -3.050   5.995  0.00  0.00     0.034 A 
ATOM      4  C3  UNL d   1       4.974  -3.902   5.567  0.00  0.00     0.017 A 
ATOM      5  C4  UNL d   1       3.911  -3.387   4.817  0.00  0.00     0.017 A 
ATOM      6  C5  UNL d   1       3.880  -2.025   4.499  0.00  0.00     0.034 A 
ATOM      7 Cl   UNL d   1       2.610  -4.375   4.253  0.00  0.00    -0.070 Cl
ATOM      8 Cl1  UNL d   1       5.084  -5.571   5.999  0.00  0.00    -0.070 Cl
ENDROOT
TORSDOF 0
ENDMDL
