MODEL 1
REMARK minimizedAffinity 1.64945638
REMARK minimizedRMSD -1
REMARK  0 active torsions:
REMARK  status: ('A' for Active; 'I' for Inactive)
ROOT
ATOM      1  C   UNL d   1      -5.283  -0.271   4.238  0.00  0.00     0.020 A 
ATOM      2  C1  UNL d   1      -5.019   0.045   5.570  0.00  0.00     0.020 A 
ATOM      3  C2  UNL d   1      -4.687   1.354   5.925  0.00  0.00     0.034 A 
ATOM      4  C3  UNL d   1      -4.616   2.352   4.946  0.00  0.00     0.017 A 
ATOM      5  C4  UNL d   1      -4.881   2.034   3.609  0.00  0.00     0.017 A 
ATOM      6  C5  UNL d   1      -5.214   0.721   3.260  0.00  0.00     0.034 A 
ATOM      7 Cl   UNL d   1      -4.814   3.211   2.345  0.00  0.00    -0.070 Cl
ATOM      8 Cl1  UNL d   1      -4.200   3.949   5.455  0.00  0.00    -0.070 Cl
ENDROOT
TORSDOF 0
ENDMDL
