MODEL 1
REMARK minimizedAffinity 5.76684809
REMARK minimizedRMSD -1
REMARK  0 active torsions:
REMARK  status: ('A' for Active; 'I' for Inactive)
ROOT
ATOM      1  C   UNL d   1       0.184   1.313  -3.089  0.00  0.00     0.020 A 
ATOM      2  C1  UNL d   1       0.863   0.226  -2.541  0.00  0.00     0.020 A 
ATOM      3  C2  UNL d   1       1.788   0.425  -1.514  0.00  0.00     0.034 A 
ATOM      4  C3  UNL d   1       2.037   1.715  -1.032  0.00  0.00     0.017 A 
ATOM      5  C4  UNL d   1       1.355   2.807  -1.582  0.00  0.00     0.017 A 
ATOM      6  C5  UNL d   1       0.430   2.601  -2.610  0.00  0.00     0.034 A 
ATOM      7 Cl   UNL d   1       1.608   4.428  -1.039  0.00  0.00    -0.070 Cl
ATOM      8 Cl1  UNL d   1       3.193   1.888   0.241  0.00  0.00    -0.070 Cl
ENDROOT
TORSDOF 0
ENDMDL
