MODEL 1
REMARK minimizedAffinity -2.48717213
REMARK minimizedRMSD -1
REMARK  0 active torsions:
REMARK  status: ('A' for Active; 'I' for Inactive)
ROOT
ATOM      1  C   UNL d   1      -2.692   5.990   4.910  0.00  0.00     0.020 A 
ATOM      2  C1  UNL d   1      -4.066   5.941   5.146  0.00  0.00     0.020 A 
ATOM      3  C2  UNL d   1      -4.958   5.900   4.073  0.00  0.00     0.034 A 
ATOM      4  C3  UNL d   1      -4.478   5.910   2.758  0.00  0.00     0.017 A 
ATOM      5  C4  UNL d   1      -3.099   5.959   2.522  0.00  0.00     0.017 A 
ATOM      6  C5  UNL d   1      -2.210   5.999   3.601  0.00  0.00     0.034 A 
ATOM      7 Cl   UNL d   1      -2.431   5.973   0.928  0.00  0.00    -0.070 Cl
ATOM      8 Cl1  UNL d   1      -5.638   5.858   1.479  0.00  0.00    -0.070 Cl
ENDROOT
TORSDOF 0
ENDMDL
