MODEL 1
REMARK minimizedAffinity -0.629951715
REMARK minimizedRMSD -1
REMARK  0 active torsions:
REMARK  status: ('A' for Active; 'I' for Inactive)
ROOT
ATOM      1  C   UNL d   1      -2.874   5.939   5.836  0.00  0.00     0.020 A 
ATOM      2  C1  UNL d   1      -4.254   5.822   6.000  0.00  0.00     0.020 A 
ATOM      3  C2  UNL d   1      -5.087   5.757   4.881  0.00  0.00     0.034 A 
ATOM      4  C3  UNL d   1      -4.541   5.810   3.593  0.00  0.00     0.017 A 
ATOM      5  C4  UNL d   1      -3.156   5.928   3.430  0.00  0.00     0.017 A 
ATOM      6  C5  UNL d   1      -2.327   5.992   4.554  0.00  0.00     0.034 A 
ATOM      7 Cl   UNL d   1      -2.409   5.999   1.873  0.00  0.00    -0.070 Cl
ATOM      8 Cl1  UNL d   1      -5.630   5.725   2.254  0.00  0.00    -0.070 Cl
ENDROOT
TORSDOF 0
ENDMDL
