MODEL 1
REMARK minimizedAffinity 7.24022675
REMARK minimizedRMSD -1
REMARK  0 active torsions:
REMARK  status: ('A' for Active; 'I' for Inactive)
ROOT
ATOM      1  C   UNL d   1      -4.560   6.000   2.518  0.00  0.00     0.020 A 
ATOM      2  C1  UNL d   1      -4.726   4.797   1.832  0.00  0.00     0.020 A 
ATOM      3  C2  UNL d   1      -4.344   3.594   2.429  0.00  0.00     0.034 A 
ATOM      4  C3  UNL d   1      -3.794   3.591   3.716  0.00  0.00     0.017 A 
ATOM      5  C4  UNL d   1      -3.628   4.798   4.404  0.00  0.00     0.017 A 
ATOM      6  C5  UNL d   1      -4.012   6.000   3.802  0.00  0.00     0.034 A 
ATOM      7 Cl   UNL d   1      -2.956   4.874   5.995  0.00  0.00    -0.070 Cl
ATOM      8 Cl1  UNL d   1      -3.343   2.066   4.394  0.00  0.00    -0.070 Cl
ENDROOT
TORSDOF 0
ENDMDL
