MODEL 1
REMARK minimizedAffinity 5.2301569
REMARK minimizedRMSD -1
REMARK  0 active torsions:
REMARK  status: ('A' for Active; 'I' for Inactive)
ROOT
ATOM      1  C   UNL d   1      -4.383   5.959   5.820  0.00  0.00     0.020 A 
ATOM      2  C1  UNL d   1      -3.008   5.983   5.586  0.00  0.00     0.020 A 
ATOM      3  C2  UNL d   1      -2.523   5.953   4.276  0.00  0.00     0.034 A 
ATOM      4  C3  UNL d   1      -3.412   5.898   3.197  0.00  0.00     0.017 A 
ATOM      5  C4  UNL d   1      -4.791   5.875   3.434  0.00  0.00     0.017 A 
ATOM      6  C5  UNL d   1      -5.272   5.905   4.746  0.00  0.00     0.034 A 
ATOM      7 Cl   UNL d   1      -5.950   5.808   2.153  0.00  0.00    -0.070 Cl
ATOM      8 Cl1  UNL d   1      -2.742   5.864   1.605  0.00  0.00    -0.070 Cl
ENDROOT
TORSDOF 0
ENDMDL
