MODEL 1
REMARK minimizedAffinity 14.6392307
REMARK minimizedRMSD -1
REMARK  0 active torsions:
REMARK  status: ('A' for Active; 'I' for Inactive)
ROOT
ATOM      1  C   UNL d   1       0.960   3.704  -3.957  0.00  0.00     0.020 A 
ATOM      2  C1  UNL d   1       0.721   2.364  -4.259  0.00  0.00     0.020 A 
ATOM      3  C2  UNL d   1       1.169   1.363  -3.395  0.00  0.00     0.034 A 
ATOM      4  C3  UNL d   1       1.860   1.700  -2.225  0.00  0.00     0.017 A 
ATOM      5  C4  UNL d   1       2.099   3.045  -1.923  0.00  0.00     0.017 A 
ATOM      6  C5  UNL d   1       1.648   4.044  -2.791  0.00  0.00     0.034 A 
ATOM      7 Cl   UNL d   1       2.944   3.538  -0.498  0.00  0.00    -0.070 Cl
ATOM      8 Cl1  UNL d   1       2.385   0.410  -1.203  0.00  0.00    -0.070 Cl
ENDROOT
TORSDOF 0
ENDMDL
