MODEL 1
REMARK minimizedAffinity 7.64279366
REMARK minimizedRMSD -1
REMARK  0 active torsions:
REMARK  status: ('A' for Active; 'I' for Inactive)
ROOT
ATOM      1  C   UNL d   1       1.505   2.086  -1.895  0.00  0.00     0.020 A 
ATOM      2  C1  UNL d   1       1.271   0.726  -2.099  0.00  0.00     0.020 A 
ATOM      3  C2  UNL d   1       0.946   0.256  -3.373  0.00  0.00     0.034 A 
ATOM      4  C3  UNL d   1       0.853   1.147  -4.449  0.00  0.00     0.017 A 
ATOM      5  C4  UNL d   1       1.088   2.511  -4.244  0.00  0.00     0.017 A 
ATOM      6  C5  UNL d   1       1.414   2.976  -2.966  0.00  0.00     0.034 A 
ATOM      7 Cl   UNL d   1       0.993   3.670  -5.522  0.00  0.00    -0.070 Cl
ATOM      8 Cl1  UNL d   1       0.447   0.497  -5.997  0.00  0.00    -0.070 Cl
ENDROOT
TORSDOF 0
ENDMDL
