MODEL 1
REMARK minimizedAffinity 3.30206013
REMARK minimizedRMSD -1
REMARK  0 active torsions:
REMARK  status: ('A' for Active; 'I' for Inactive)
ROOT
ATOM      1  C   UNL d   1      -2.127   5.979   1.928  0.00  0.00     0.020 A 
ATOM      2  C1  UNL d   1      -1.431   5.989   3.136  0.00  0.00     0.020 A 
ATOM      3  C2  UNL d   1      -2.131   5.995   4.345  0.00  0.00     0.034 A 
ATOM      4  C3  UNL d   1      -3.531   5.991   4.348  0.00  0.00     0.017 A 
ATOM      5  C4  UNL d   1      -4.228   5.981   3.135  0.00  0.00     0.017 A 
ATOM      6  C5  UNL d   1      -3.523   5.975   1.927  0.00  0.00     0.034 A 
ATOM      7 Cl   UNL d   1      -5.955   5.976   3.058  0.00  0.00    -0.070 Cl
ATOM      8 Cl1  UNL d   1      -4.330   5.998   5.879  0.00  0.00    -0.070 Cl
ENDROOT
TORSDOF 0
ENDMDL
