MODEL 1
REMARK minimizedAffinity -2.03901434
REMARK minimizedRMSD -1
REMARK  0 active torsions:
REMARK  status: ('A' for Active; 'I' for Inactive)
ROOT
ATOM      1  C   UNL d   1      -4.159   6.000   5.449  0.00  0.00     0.020 A 
ATOM      2  C1  UNL d   1      -2.777   5.992   5.271  0.00  0.00     0.020 A 
ATOM      3  C2  UNL d   1      -2.238   5.887   3.987  0.00  0.00     0.034 A 
ATOM      4  C3  UNL d   1      -3.083   5.788   2.876  0.00  0.00     0.017 A 
ATOM      5  C4  UNL d   1      -4.471   5.796   3.055  0.00  0.00     0.017 A 
ATOM      6  C5  UNL d   1      -5.005   5.902   4.343  0.00  0.00     0.034 A 
ATOM      7 Cl   UNL d   1      -5.577   5.678   1.732  0.00  0.00    -0.070 Cl
ATOM      8 Cl1  UNL d   1      -2.348   5.661   1.317  0.00  0.00    -0.070 Cl
ENDROOT
TORSDOF 0
ENDMDL
