MODEL 1
REMARK minimizedAffinity -1.42928636
REMARK minimizedRMSD -1
REMARK  0 active torsions:
REMARK  status: ('A' for Active; 'I' for Inactive)
ROOT
ATOM      1  C   UNL d   1      -3.775   5.999   6.000  0.00  0.00     0.020 A 
ATOM      2  C1  UNL d   1      -2.444   5.999   5.584  0.00  0.00     0.020 A 
ATOM      3  C2  UNL d   1      -2.138   5.999   4.221  0.00  0.00     0.034 A 
ATOM      4  C3  UNL d   1      -3.165   5.999   3.270  0.00  0.00     0.017 A 
ATOM      5  C4  UNL d   1      -4.500   5.999   3.688  0.00  0.00     0.017 A 
ATOM      6  C5  UNL d   1      -4.800   5.999   5.054  0.00  0.00     0.034 A 
ATOM      7 Cl   UNL d   1      -5.821   5.998   2.573  0.00  0.00    -0.070 Cl
ATOM      8 Cl1  UNL d   1      -2.714   5.999   1.602  0.00  0.00    -0.070 Cl
ENDROOT
TORSDOF 0
ENDMDL
