MODEL 1
REMARK minimizedAffinity 0.385902435
REMARK minimizedRMSD -1
REMARK  0 active torsions:
REMARK  status: ('A' for Active; 'I' for Inactive)
ROOT
ATOM      1  C   UNL d   1      -2.628   5.986   5.363  0.00  0.00     0.020 A 
ATOM      2  C1  UNL d   1      -4.004   5.988   5.585  0.00  0.00     0.020 A 
ATOM      3  C2  UNL d   1      -4.886   5.993   4.502  0.00  0.00     0.034 A 
ATOM      4  C3  UNL d   1      -4.392   5.994   3.192  0.00  0.00     0.017 A 
ATOM      5  C4  UNL d   1      -3.010   5.991   2.971  0.00  0.00     0.017 A 
ATOM      6  C5  UNL d   1      -2.132   5.987   4.059  0.00  0.00     0.034 A 
ATOM      7 Cl   UNL d   1      -2.326   5.993   1.384  0.00  0.00    -0.070 Cl
ATOM      8 Cl1  UNL d   1      -5.540   5.999   1.901  0.00  0.00    -0.070 Cl
ENDROOT
TORSDOF 0
ENDMDL
