MODEL 1
REMARK minimizedAffinity -0.934865177
REMARK minimizedRMSD -1
REMARK  0 active torsions:
REMARK  status: ('A' for Active; 'I' for Inactive)
ROOT
ATOM      1  C   UNL d   1      -1.894   5.986   5.315  0.00  0.00     0.020 A 
ATOM      2  C1  UNL d   1      -3.108   5.997   6.000  0.00  0.00     0.020 A 
ATOM      3  C2  UNL d   1      -4.310   5.999   5.289  0.00  0.00     0.034 A 
ATOM      4  C3  UNL d   1      -4.301   5.990   3.890  0.00  0.00     0.017 A 
ATOM      5  C4  UNL d   1      -3.081   5.979   3.203  0.00  0.00     0.017 A 
ATOM      6  C5  UNL d   1      -1.880   5.977   3.920  0.00  0.00     0.034 A 
ATOM      7 Cl   UNL d   1      -2.988   5.968   1.477  0.00  0.00    -0.070 Cl
ATOM      8 Cl1  UNL d   1      -5.825   5.993   3.076  0.00  0.00    -0.070 Cl
ENDROOT
TORSDOF 0
ENDMDL
