MODEL 1
REMARK minimizedAffinity 11.0500994
REMARK minimizedRMSD -1
REMARK  0 active torsions:
REMARK  status: ('A' for Active; 'I' for Inactive)
ROOT
ATOM      1  C   UNL d   1       0.605   2.579  -3.762  0.00  0.00     0.020 A 
ATOM      2  C1  UNL d   1       1.738   3.071  -4.409  0.00  0.00     0.020 A 
ATOM      3  C2  UNL d   1       2.984   2.481  -4.180  0.00  0.00     0.034 A 
ATOM      4  C3  UNL d   1       3.099   1.398  -3.302  0.00  0.00     0.017 A 
ATOM      5  C4  UNL d   1       1.961   0.905  -2.653  0.00  0.00     0.017 A 
ATOM      6  C5  UNL d   1       0.717   1.499  -2.886  0.00  0.00     0.034 A 
ATOM      7 Cl   UNL d   1       2.024  -0.428  -1.555  0.00  0.00    -0.070 Cl
ATOM      8 Cl1  UNL d   1       4.670   0.718  -3.067  0.00  0.00    -0.070 Cl
ENDROOT
TORSDOF 0
ENDMDL
