MODEL 1
REMARK minimizedAffinity 1.37574708
REMARK minimizedRMSD -1
REMARK  0 active torsions:
REMARK  status: ('A' for Active; 'I' for Inactive)
ROOT
ATOM      1  C   UNL d   1      -3.071   5.946   5.831  0.00  0.00     0.020 A 
ATOM      2  C1  UNL d   1      -4.450   5.813   5.991  0.00  0.00     0.020 A 
ATOM      3  C2  UNL d   1      -5.278   5.735   4.870  0.00  0.00     0.034 A 
ATOM      4  C3  UNL d   1      -4.729   5.789   3.584  0.00  0.00     0.017 A 
ATOM      5  C4  UNL d   1      -3.345   5.922   3.424  0.00  0.00     0.017 A 
ATOM      6  C5  UNL d   1      -2.520   6.000   4.550  0.00  0.00     0.034 A 
ATOM      7 Cl   UNL d   1      -2.594   5.995   1.869  0.00  0.00    -0.070 Cl
ATOM      8 Cl1  UNL d   1      -5.813   5.685   2.242  0.00  0.00    -0.070 Cl
ENDROOT
TORSDOF 0
ENDMDL
