MODEL 1
REMARK minimizedAffinity -0.557581365
REMARK minimizedRMSD -1
REMARK  0 active torsions:
REMARK  status: ('A' for Active; 'I' for Inactive)
ROOT
ATOM      1  C   UNL d   1       1.452  -1.310  -2.597  0.00  0.00     0.020 A 
ATOM      2  C1  UNL d   1       0.735  -1.237  -3.790  0.00  0.00     0.020 A 
ATOM      3  C2  UNL d   1       0.569  -0.008  -4.432  0.00  0.00     0.034 A 
ATOM      4  C3  UNL d   1       1.121   1.154  -3.880  0.00  0.00     0.017 A 
ATOM      5  C4  UNL d   1       1.841   1.080  -2.682  0.00  0.00     0.017 A 
ATOM      6  C5  UNL d   1       2.004  -0.153  -2.044  0.00  0.00     0.034 A 
ATOM      7 Cl   UNL d   1       2.552   2.470  -1.941  0.00  0.00    -0.070 Cl
ATOM      8 Cl1  UNL d   1       0.878   2.640  -4.727  0.00  0.00    -0.070 Cl
ENDROOT
TORSDOF 0
ENDMDL
