MODEL 1
REMARK minimizedAffinity 10.5005436
REMARK minimizedRMSD -1
REMARK  0 active torsions:
REMARK  status: ('A' for Active; 'I' for Inactive)
ROOT
ATOM      1  C   UNL d   1      -2.061   5.974   1.942  0.00  0.00     0.020 A 
ATOM      2  C1  UNL d   1      -1.401   5.992   3.170  0.00  0.00     0.020 A 
ATOM      3  C2  UNL d   1      -2.136   5.999   4.358  0.00  0.00     0.034 A 
ATOM      4  C3  UNL d   1      -3.535   5.990   4.320  0.00  0.00     0.017 A 
ATOM      5  C4  UNL d   1      -4.197   5.973   3.086  0.00  0.00     0.017 A 
ATOM      6  C5  UNL d   1      -3.456   5.965   1.901  0.00  0.00     0.034 A 
ATOM      7 Cl   UNL d   1      -5.920   5.960   2.959  0.00  0.00    -0.070 Cl
ATOM      8 Cl1  UNL d   1      -4.380   6.000   5.827  0.00  0.00    -0.070 Cl
ENDROOT
TORSDOF 0
ENDMDL
