MODEL 1
REMARK minimizedAffinity 3.54139042
REMARK minimizedRMSD -1
REMARK  0 active torsions:
REMARK  status: ('A' for Active; 'I' for Inactive)
ROOT
ATOM      1  C   UNL d   1      -2.749   6.000   5.436  0.00  0.00     0.020 A 
ATOM      2  C1  UNL d   1      -4.129   5.898   5.614  0.00  0.00     0.020 A 
ATOM      3  C2  UNL d   1      -4.969   5.785   4.504  0.00  0.00     0.034 A 
ATOM      4  C3  UNL d   1      -4.431   5.775   3.212  0.00  0.00     0.017 A 
ATOM      5  C4  UNL d   1      -3.047   5.878   3.035  0.00  0.00     0.017 A 
ATOM      6  C5  UNL d   1      -2.210   5.990   4.149  0.00  0.00     0.034 A 
ATOM      7 Cl   UNL d   1      -2.310   5.872   1.472  0.00  0.00    -0.070 Cl
ATOM      8 Cl1  UNL d   1      -5.530   5.633   1.886  0.00  0.00    -0.070 Cl
ENDROOT
TORSDOF 0
ENDMDL
