MODEL 1
REMARK minimizedAffinity 9.40938091
REMARK minimizedRMSD -1
REMARK  0 active torsions:
REMARK  status: ('A' for Active; 'I' for Inactive)
ROOT
ATOM      1  C   UNL d   1      -2.859   5.804   4.765  0.00  0.00     0.020 A 
ATOM      2  C1  UNL d   1      -4.233   5.983   4.917  0.00  0.00     0.020 A 
ATOM      3  C2  UNL d   1      -5.086   5.803   3.826  0.00  0.00     0.034 A 
ATOM      4  C3  UNL d   1      -4.565   5.443   2.578  0.00  0.00     0.017 A 
ATOM      5  C4  UNL d   1      -3.186   5.263   2.426  0.00  0.00     0.017 A 
ATOM      6  C5  UNL d   1      -2.336   5.445   3.522  0.00  0.00     0.034 A 
ATOM      7 Cl   UNL d   1      -2.469   4.819   0.917  0.00  0.00    -0.070 Cl
ATOM      8 Cl1  UNL d   1      -5.678   5.237   1.272  0.00  0.00    -0.070 Cl
ENDROOT
TORSDOF 0
ENDMDL
