MODEL 1
REMARK minimizedAffinity 12.2423468
REMARK minimizedRMSD -1
REMARK  0 active torsions:
REMARK  status: ('A' for Active; 'I' for Inactive)
ROOT
ATOM      1  C4' PXY d   1      -1.623   2.632   0.761  0.00  0.00     0.077 C 
ATOM      2  C1' PXY d   1       2.207   6.000  -1.959  0.00  0.00     0.077 C 
ATOM      3  C1  PXY d   1       1.212   5.107  -1.245  0.00  0.00    -0.082 A 
ATOM      4  C2  PXY d   1      -0.084   5.277  -1.450  0.00  0.00     0.003 A 
ATOM      5  C3  PXY d   1      -0.999   4.500  -0.787  0.00  0.00     0.003 A 
ATOM      6  C4  PXY d   1      -0.581   3.503   0.054  0.00  0.00    -0.082 A 
ATOM      7  C5  PXY d   1       0.739   3.317   0.260  0.00  0.00     0.003 A 
ATOM      8  C6  PXY d   1       1.651   4.143  -0.390  0.00  0.00     0.003 A 
ENDROOT
TORSDOF 0
ENDMDL
