MODEL 1
REMARK minimizedAffinity 3.88858867
REMARK minimizedRMSD -1
REMARK  0 active torsions:
REMARK  status: ('A' for Active; 'I' for Inactive)
ROOT
ATOM      1  C4' PXY d   1      -1.128   0.252  -4.449  0.00  0.00     0.077 C 
ATOM      2  C1' PXY d   1      -3.945   5.239  -5.232  0.00  0.00     0.077 C 
ATOM      3  C1  PXY d   1      -3.206   3.934  -5.014  0.00  0.00    -0.082 A 
ATOM      4  C2  PXY d   1      -2.494   3.412  -6.000  0.00  0.00     0.003 A 
ATOM      5  C3  PXY d   1      -1.846   2.216  -5.830  0.00  0.00     0.003 A 
ATOM      6  C4  PXY d   1      -1.883   1.573  -4.621  0.00  0.00    -0.082 A 
ATOM      7  C5  PXY d   1      -2.598   2.104  -3.607  0.00  0.00     0.003 A 
ATOM      8  C6  PXY d   1      -3.283   3.299  -3.813  0.00  0.00     0.003 A 
ENDROOT
TORSDOF 0
ENDMDL
