MODEL 1
REMARK minimizedAffinity 9.38301754
REMARK minimizedRMSD -1
REMARK  0 active torsions:
REMARK  status: ('A' for Active; 'I' for Inactive)
ROOT
ATOM      1  C4' PXY d   1       2.149   6.000  -2.099  0.00  0.00     0.077 C 
ATOM      2  C1' PXY d   1      -1.604   2.320   0.308  0.00  0.00     0.077 C 
ATOM      3  C1  PXY d   1      -0.629   3.289  -0.332  0.00  0.00    -0.082 A 
ATOM      4  C2  PXY d   1       0.672   3.118  -0.159  0.00  0.00     0.003 A 
ATOM      5  C3  PXY d   1       1.567   4.002  -0.704  0.00  0.00     0.003 A 
ATOM      6  C4  PXY d   1       1.128   5.042  -1.479  0.00  0.00    -0.082 A 
ATOM      7  C5  PXY d   1      -0.197   5.217  -1.670  0.00  0.00     0.003 A 
ATOM      8  C6  PXY d   1      -1.091   4.332  -1.074  0.00  0.00     0.003 A 
ENDROOT
TORSDOF 0
ENDMDL
