MODEL 1
REMARK minimizedAffinity 10.6104403
REMARK minimizedRMSD -1
REMARK  0 active torsions:
REMARK  status: ('A' for Active; 'I' for Inactive)
ROOT
ATOM      1  C4' PXY d   1      -0.747  -3.314  -2.295  0.00  0.00     0.077 C 
ATOM      2  C1' PXY d   1       2.760  -5.990   1.440  0.00  0.00     0.077 C 
ATOM      3  C1  PXY d   1       1.843  -5.297   0.452  0.00  0.00    -0.082 A 
ATOM      4  C2  PXY d   1       1.573  -4.011   0.601  0.00  0.00     0.003 A 
ATOM      5  C3  PXY d   1       0.721  -3.376  -0.266  0.00  0.00     0.003 A 
ATOM      6  C4  PXY d   1       0.181  -4.052  -1.326  0.00  0.00    -0.082 A 
ATOM      7  C5  PXY d   1       0.459  -5.363  -1.491  0.00  0.00     0.003 A 
ATOM      8  C6  PXY d   1       1.294  -5.999  -0.577  0.00  0.00     0.003 A 
ENDROOT
TORSDOF 0
ENDMDL
