MODEL 1
REMARK minimizedAffinity 11.4260273
REMARK minimizedRMSD -1
REMARK  0 active torsions:
REMARK  status: ('A' for Active; 'I' for Inactive)
ROOT
ATOM      1  C4' PXY d   1      -1.613   2.549   0.752  0.00  0.00     0.077 C 
ATOM      2  C1' PXY d   1       2.314   5.998  -1.717  0.00  0.00     0.077 C 
ATOM      3  C1  PXY d   1       1.293   5.084  -1.068  0.00  0.00    -0.082 A 
ATOM      4  C2  PXY d   1       0.006   5.255  -1.324  0.00  0.00     0.003 A 
ATOM      5  C3  PXY d   1      -0.932   4.458  -0.721  0.00  0.00     0.003 A 
ATOM      6  C4  PXY d   1      -0.547   3.442   0.112  0.00  0.00    -0.082 A 
ATOM      7  C5  PXY d   1       0.765   3.255   0.370  0.00  0.00     0.003 A 
ATOM      8  C6  PXY d   1       1.700   4.101  -0.220  0.00  0.00     0.003 A 
ENDROOT
TORSDOF 0
ENDMDL
