MODEL 1
REMARK minimizedAffinity 3.27351737
REMARK minimizedRMSD -1
REMARK  0 active torsions:
REMARK  status: ('A' for Active; 'I' for Inactive)
ROOT
ATOM      1  C4' PXY d   1      -3.393   4.000  -5.993  0.00  0.00     0.077 C 
ATOM      2  C1' PXY d   1       0.651   1.013  -3.139  0.00  0.00     0.077 C 
ATOM      3  C1  PXY d   1      -0.406   1.791  -3.898  0.00  0.00    -0.082 A 
ATOM      4  C2  PXY d   1      -0.863   2.929  -3.402  0.00  0.00     0.003 A 
ATOM      5  C3  PXY d   1      -1.842   3.629  -4.060  0.00  0.00     0.003 A 
ATOM      6  C4  PXY d   1      -2.319   3.186  -5.265  0.00  0.00    -0.082 A 
ATOM      7  C5  PXY d   1      -1.850   2.031  -5.783  0.00  0.00     0.003 A 
ATOM      8  C6  PXY d   1      -0.886   1.315  -5.079  0.00  0.00     0.003 A 
ENDROOT
TORSDOF 0
ENDMDL
