MODEL 1
REMARK minimizedAffinity 6.940732
REMARK minimizedRMSD -1
REMARK  0 active torsions:
REMARK  status: ('A' for Active; 'I' for Inactive)
ROOT
ATOM      1  C4' PXY d   1      -2.135   3.000   0.804  0.00  0.00     0.077 C 
ATOM      2  C1' PXY d   1       2.193   6.000  -1.579  0.00  0.00     0.077 C 
ATOM      3  C1  PXY d   1       1.066   5.203  -0.953  0.00  0.00    -0.082 A 
ATOM      4  C2  PXY d   1      -0.189   5.559  -1.176  0.00  0.00     0.003 A 
ATOM      5  C3  PXY d   1      -1.220   4.868  -0.592  0.00  0.00     0.003 A 
ATOM      6  C4  PXY d   1      -0.965   3.770   0.185  0.00  0.00    -0.082 A 
ATOM      7  C5  PXY d   1       0.312   3.394   0.408  0.00  0.00     0.003 A 
ATOM      8  C6  PXY d   1       1.345   4.133  -0.161  0.00  0.00     0.003 A 
ENDROOT
TORSDOF 0
ENDMDL
