MODEL 1
REMARK minimizedAffinity 10.3950453
REMARK minimizedRMSD -1
REMARK  0 active torsions:
REMARK  status: ('A' for Active; 'I' for Inactive)
ROOT
ATOM      1  C4' PXY d   1       1.316  -2.655  -1.289  0.00  0.00     0.077 C 
ATOM      2  C1' PXY d   1       0.550   2.883   0.177  0.00  0.00     0.077 C 
ATOM      3  C1  PXY d   1       0.745   1.433  -0.219  0.00  0.00    -0.082 A 
ATOM      4  C2  PXY d   1       0.948   0.521   0.718  0.00  0.00     0.003 A 
ATOM      5  C3  PXY d   1       1.157  -0.790   0.376  0.00  0.00     0.003 A 
ATOM      6  C4  PXY d   1       1.106  -1.181  -0.935  0.00  0.00    -0.082 A 
ATOM      7  C5  PXY d   1       0.888  -0.258  -1.896  0.00  0.00     0.003 A 
ATOM      8  C6  PXY d   1       0.719   1.074  -1.531  0.00  0.00     0.003 A 
ENDROOT
TORSDOF 0
ENDMDL
