MODEL 1
REMARK minimizedAffinity 12.2231932
REMARK minimizedRMSD -1
REMARK  0 active torsions:
REMARK  status: ('A' for Active; 'I' for Inactive)
ROOT
ATOM      1  C4' PXY d   1      -1.921   2.527   0.482  0.00  0.00     0.077 C 
ATOM      2  C1' PXY d   1       2.226   5.807  -1.855  0.00  0.00     0.077 C 
ATOM      3  C1  PXY d   1       1.147   4.937  -1.242  0.00  0.00    -0.082 A 
ATOM      4  C2  PXY d   1      -0.126   5.236  -1.441  0.00  0.00     0.003 A 
ATOM      5  C3  PXY d   1      -1.115   4.479  -0.867  0.00  0.00     0.003 A 
ATOM      6  C4  PXY d   1      -0.798   3.372  -0.126  0.00  0.00    -0.082 A 
ATOM      7  C5  PXY d   1       0.499   3.054   0.072  0.00  0.00     0.003 A 
ATOM      8  C6  PXY d   1       1.488   3.859  -0.484  0.00  0.00     0.003 A 
ENDROOT
TORSDOF 0
ENDMDL
