MODEL 1
REMARK minimizedAffinity 7.82471085
REMARK minimizedRMSD -1
REMARK  0 active torsions:
REMARK  status: ('A' for Active; 'I' for Inactive)
ROOT
ATOM      1  C4' PXY d   1       2.991  -5.990   1.317  0.00  0.00     0.077 C 
ATOM      2  C1' PXY d   1      -0.721  -3.383  -2.266  0.00  0.00     0.077 C 
ATOM      3  C1  PXY d   1       0.243  -4.075  -1.322  0.00  0.00    -0.082 A 
ATOM      4  C2  PXY d   1       1.300  -3.420  -0.871  0.00  0.00     0.003 A 
ATOM      5  C3  PXY d   1       2.199  -4.040  -0.043  0.00  0.00     0.003 A 
ATOM      6  C4  PXY d   1       1.986  -5.328   0.371  0.00  0.00    -0.082 A 
ATOM      7  C5  PXY d   1       0.904  -6.000  -0.077  0.00  0.00     0.003 A 
ATOM      8  C6  PXY d   1       0.025  -5.365  -0.950  0.00  0.00     0.003 A 
ENDROOT
TORSDOF 0
ENDMDL
