MODEL 1
REMARK minimizedAffinity 5.99273586
REMARK minimizedRMSD -1
REMARK  0 active torsions:
REMARK  status: ('A' for Active; 'I' for Inactive)
ROOT
ATOM      1  C4' PXY d   1      -1.507   3.094  -0.372  0.00  0.00     0.077 C 
ATOM      2  C1' PXY d   1       1.716  -1.704  -0.259  0.00  0.00     0.077 C 
ATOM      3  C1  PXY d   1       0.878  -0.442  -0.299  0.00  0.00    -0.082 A 
ATOM      4  C2  PXY d   1       0.231  -0.051   0.788  0.00  0.00     0.003 A 
ATOM      5  C3  PXY d   1      -0.557   1.071   0.760  0.00  0.00     0.003 A 
ATOM      6  C4  PXY d   1      -0.641   1.830  -0.376  0.00  0.00    -0.082 A 
ATOM      7  C5  PXY d   1       0.024   1.445  -1.485  0.00  0.00     0.003 A 
ATOM      8  C6  PXY d   1       0.785   0.280  -1.449  0.00  0.00     0.003 A 
ENDROOT
TORSDOF 0
ENDMDL
