MODEL 1
REMARK minimizedAffinity 14.3935575
REMARK minimizedRMSD -1
REMARK  0 active torsions:
REMARK  status: ('A' for Active; 'I' for Inactive)
ROOT
ATOM      1  C4' PXY d   1       3.756   2.986  -5.913  0.00  0.00     0.077 C 
ATOM      2  C1' PXY d   1       5.644   5.170  -0.905  0.00  0.00     0.077 C 
ATOM      3  C1  PXY d   1       5.141   4.589  -2.212  0.00  0.00    -0.082 A 
ATOM      4  C2  PXY d   1       5.893   4.674  -3.298  0.00  0.00     0.003 A 
ATOM      5  C3  PXY d   1       5.439   4.183  -4.495  0.00  0.00     0.003 A 
ATOM      6  C4  PXY d   1       4.227   3.550  -4.570  0.00  0.00    -0.082 A 
ATOM      7  C5  PXY d   1       3.460   3.450  -3.464  0.00  0.00     0.003 A 
ATOM      8  C6  PXY d   1       3.920   3.992  -2.268  0.00  0.00     0.003 A 
ENDROOT
TORSDOF 0
ENDMDL
