MODEL 1
REMARK minimizedAffinity 12.5205078
REMARK minimizedRMSD -1
REMARK  0 active torsions:
REMARK  status: ('A' for Active; 'I' for Inactive)
ROOT
ATOM      1  C4' PXY d   1       1.132  -3.015   3.203  0.00  0.00     0.077 C 
ATOM      2  C1' PXY d   1      -3.713  -0.062   2.097  0.00  0.00     0.077 C 
ATOM      3  C1  PXY d   1      -2.446  -0.846   2.378  0.00  0.00    -0.082 A 
ATOM      4  C2  PXY d   1      -1.835  -0.706   3.544  0.00  0.00     0.003 A 
ATOM      5  C3  PXY d   1      -0.671  -1.383   3.803  0.00  0.00     0.003 A 
ATOM      6  C4  PXY d   1      -0.155  -2.251   2.879  0.00  0.00    -0.082 A 
ATOM      7  C5  PXY d   1      -0.777  -2.407   1.691  0.00  0.00     0.003 A 
ATOM      8  C6  PXY d   1      -1.936  -1.680   1.433  0.00  0.00     0.003 A 
ENDROOT
TORSDOF 0
ENDMDL
