MODEL 1
REMARK minimizedAffinity 21.6311474
REMARK minimizedRMSD -1
REMARK  0 active torsions:
REMARK  status: ('A' for Active; 'I' for Inactive)
ROOT
ATOM      1  C4' PXY d   1      -0.307   0.066   1.310  0.00  0.00     0.077 C 
ATOM      2  C1' PXY d   1      -4.181  -4.223   1.430  0.00  0.00     0.077 C 
ATOM      3  C1  PXY d   1      -3.168  -3.096   1.386  0.00  0.00    -0.082 A 
ATOM      4  C2  PXY d   1      -2.161  -3.088   2.243  0.00  0.00     0.003 A 
ATOM      5  C3  PXY d   1      -1.253  -2.060   2.238  0.00  0.00     0.003 A 
ATOM      6  C4  PXY d   1      -1.348  -1.057   1.311  0.00  0.00    -0.082 A 
ATOM      7  C5  PXY d   1      -2.367  -1.063   0.426  0.00  0.00     0.003 A 
ATOM      8  C6  PXY d   1      -3.301  -2.095   0.474  0.00  0.00     0.003 A 
ENDROOT
TORSDOF 0
ENDMDL
