MODEL 1
REMARK minimizedAffinity 15.9764147
REMARK minimizedRMSD -1
REMARK  0 active torsions:
REMARK  status: ('A' for Active; 'I' for Inactive)
ROOT
ATOM      1  C4' PXY d   1       3.732  -1.326  -1.550  0.00  0.00     0.077 C 
ATOM      2  C1' PXY d   1       5.658  -5.999   1.256  0.00  0.00     0.077 C 
ATOM      3  C1  PXY d   1       5.142  -4.779   0.517  0.00  0.00    -0.082 A 
ATOM      4  C2  PXY d   1       6.000  -3.903   0.022  0.00  0.00     0.003 A 
ATOM      5  C3  PXY d   1       5.550  -2.779  -0.621  0.00  0.00     0.003 A 
ATOM      6  C4  PXY d   1       4.208  -2.576  -0.806  0.00  0.00    -0.082 A 
ATOM      7  C5  PXY d   1       3.326  -3.471  -0.312  0.00  0.00     0.003 A 
ATOM      8  C6  PXY d   1       3.803  -4.585   0.373  0.00  0.00     0.003 A 
ENDROOT
TORSDOF 0
ENDMDL
