MODEL 1
REMARK minimizedAffinity 4.94120884
REMARK minimizedRMSD -1
REMARK  0 active torsions:
REMARK  status: ('A' for Active; 'I' for Inactive)
ROOT
ATOM      1  C4' PXY d   1       2.109  -2.889   3.381  0.00  0.00     0.077 C 
ATOM      2  C1' PXY d   1      -2.934  -3.000   0.558  0.00  0.00     0.077 C 
ATOM      3  C1  PXY d   1      -1.611  -2.984   1.298  0.00  0.00    -0.082 A 
ATOM      4  C2  PXY d   1      -1.296  -1.943   2.052  0.00  0.00     0.003 A 
ATOM      5  C3  PXY d   1      -0.090  -1.898   2.702  0.00  0.00     0.003 A 
ATOM      6  C4  PXY d   1       0.780  -2.952   2.623  0.00  0.00    -0.082 A 
ATOM      7  C5  PXY d   1       0.461  -4.022   1.865  0.00  0.00     0.003 A 
ATOM      8  C6  PXY d   1      -0.751  -4.031   1.179  0.00  0.00     0.003 A 
ENDROOT
TORSDOF 0
ENDMDL
