MODEL 1
REMARK minimizedAffinity 20.2237663
REMARK minimizedRMSD -1
REMARK  0 active torsions:
REMARK  status: ('A' for Active; 'I' for Inactive)
ROOT
ATOM      1  C4' PXY d   1       2.498   1.494  -1.688  0.00  0.00     0.077 C 
ATOM      2  C1' PXY d   1       6.000   5.199  -4.413  0.00  0.00     0.077 C 
ATOM      3  C1  PXY d   1       5.074   4.227  -3.708  0.00  0.00    -0.082 A 
ATOM      4  C2  PXY d   1       5.077   4.161  -2.387  0.00  0.00     0.003 A 
ATOM      5  C3  PXY d   1       4.269   3.266  -1.735  0.00  0.00     0.003 A 
ATOM      6  C4  PXY d   1       3.410   2.466  -2.441  0.00  0.00    -0.082 A 
ATOM      7  C5  PXY d   1       3.393   2.535  -3.789  0.00  0.00     0.003 A 
ATOM      8  C6  PXY d   1       4.251   3.422  -4.433  0.00  0.00     0.003 A 
ENDROOT
TORSDOF 0
ENDMDL
