MODEL 1
REMARK minimizedAffinity 6.41043425
REMARK minimizedRMSD -1
REMARK  0 active torsions:
REMARK  status: ('A' for Active; 'I' for Inactive)
ROOT
ATOM      1  C4' PXY d   1      -1.185   4.814  -4.775  0.00  0.00     0.077 C 
ATOM      2  C1' PXY d   1       2.871   2.446  -1.405  0.00  0.00     0.077 C 
ATOM      3  C1  PXY d   1       1.805   3.075  -2.279  0.00  0.00    -0.082 A 
ATOM      4  C2  PXY d   1       1.260   2.369  -3.257  0.00  0.00     0.003 A 
ATOM      5  C3  PXY d   1       0.317   2.934  -4.077  0.00  0.00     0.003 A 
ATOM      6  C4  PXY d   1      -0.111   4.216  -3.861  0.00  0.00    -0.082 A 
ATOM      7  C5  PXY d   1       0.432   4.939  -2.860  0.00  0.00     0.003 A 
ATOM      8  C6  PXY d   1       1.418   4.362  -2.064  0.00  0.00     0.003 A 
ENDROOT
TORSDOF 0
ENDMDL
