MODEL 1
REMARK minimizedAffinity 21.3237133
REMARK minimizedRMSD -1
REMARK  0 active torsions:
REMARK  status: ('A' for Active; 'I' for Inactive)
ROOT
ATOM      1  C4' PXY d   1      -3.783  -5.474   1.995  0.00  0.00     0.077 C 
ATOM      2  C1' PXY d   1      -2.247  -1.131  -1.498  0.00  0.00     0.077 C 
ATOM      3  C1  PXY d   1      -2.645  -2.279  -0.590  0.00  0.00    -0.082 A 
ATOM      4  C2  PXY d   1      -3.624  -2.112   0.284  0.00  0.00     0.003 A 
ATOM      5  C3  PXY d   1      -3.976  -3.129   1.134  0.00  0.00     0.003 A 
ATOM      6  C4  PXY d   1      -3.354  -4.346   1.052  0.00  0.00    -0.082 A 
ATOM      7  C5  PXY d   1      -2.361  -4.527   0.156  0.00  0.00     0.003 A 
ATOM      8  C6  PXY d   1      -1.992  -3.469  -0.670  0.00  0.00     0.003 A 
ENDROOT
TORSDOF 0
ENDMDL
