MODEL 1
REMARK minimizedAffinity 13.6166449
REMARK minimizedRMSD -1
REMARK  0 active torsions:
REMARK  status: ('A' for Active; 'I' for Inactive)
ROOT
ATOM      1  C4' PXY d   1       5.995   4.344  -0.988  0.00  0.00     0.077 C 
ATOM      2  C1' PXY d   1       3.193   2.989  -5.859  0.00  0.00     0.077 C 
ATOM      3  C1  PXY d   1       3.939   3.341  -4.587  0.00  0.00    -0.082 A 
ATOM      4  C2  PXY d   1       3.296   3.344  -3.431  0.00  0.00     0.003 A 
ATOM      5  C3  PXY d   1       3.947   3.691  -2.275  0.00  0.00     0.003 A 
ATOM      6  C4  PXY d   1       5.284   3.986  -2.296  0.00  0.00    -0.082 A 
ATOM      7  C5  PXY d   1       5.950   3.974  -3.470  0.00  0.00     0.003 A 
ATOM      8  C6  PXY d   1       5.261   3.660  -4.637  0.00  0.00     0.003 A 
ENDROOT
TORSDOF 0
ENDMDL
