MODEL 1
REMARK minimizedAffinity 12.2774897
REMARK minimizedRMSD -1
REMARK  0 active torsions:
REMARK  status: ('A' for Active; 'I' for Inactive)
ROOT
ATOM      1  C4' PXY d   1       1.420  -2.937   4.497  0.00  0.00     0.077 C 
ATOM      2  C1' PXY d   1      -2.102   0.912   2.007  0.00  0.00     0.077 C 
ATOM      3  C1  PXY d   1      -1.182  -0.107   2.651  0.00  0.00    -0.082 A 
ATOM      4  C2  PXY d   1      -0.846   0.028   3.924  0.00  0.00     0.003 A 
ATOM      5  C3  PXY d   1       0.010  -0.865   4.513  0.00  0.00     0.003 A 
ATOM      6  C4  PXY d   1       0.486  -1.938   3.808  0.00  0.00    -0.082 A 
ATOM      7  C5  PXY d   1       0.140  -2.088   2.512  0.00  0.00     0.003 A 
ATOM      8  C6  PXY d   1      -0.698  -1.147   1.920  0.00  0.00     0.003 A 
ENDROOT
TORSDOF 0
ENDMDL
