MODEL 1
REMARK minimizedAffinity 12.2925339
REMARK minimizedRMSD -1
REMARK  0 active torsions:
REMARK  status: ('A' for Active; 'I' for Inactive)
ROOT
ATOM      1  C4' PXY d   1       6.000   5.348  -5.106  0.00  0.00     0.077 C 
ATOM      2  C1' PXY d   1       1.911   2.139  -2.577  0.00  0.00     0.077 C 
ATOM      3  C1  PXY d   1       2.983   2.973  -3.250  0.00  0.00    -0.082 A 
ATOM      4  C2  PXY d   1       3.762   3.752  -2.518  0.00  0.00     0.003 A 
ATOM      5  C3  PXY d   1       4.716   4.537  -3.114  0.00  0.00     0.003 A 
ATOM      6  C4  PXY d   1       4.910   4.482  -4.468  0.00  0.00    -0.082 A 
ATOM      7  C5  PXY d   1       4.127   3.681  -5.221  0.00  0.00     0.003 A 
ATOM      8  C6  PXY d   1       3.137   2.924  -4.601  0.00  0.00     0.003 A 
ENDROOT
TORSDOF 0
ENDMDL
