MODEL 1
REMARK minimizedAffinity 18.1801395
REMARK minimizedRMSD -1
REMARK  0 active torsions:
REMARK  status: ('A' for Active; 'I' for Inactive)
ROOT
ATOM      1  C4' PXY d   1      -5.936  -5.063  -5.997  0.00  0.00     0.077 C 
ATOM      2  C1' PXY d   1      -0.424  -5.097  -4.254  0.00  0.00     0.077 C 
ATOM      3  C1  PXY d   1      -1.873  -5.082  -4.700  0.00  0.00    -0.082 A 
ATOM      4  C2  PXY d   1      -2.302  -5.990  -5.561  0.00  0.00     0.003 A 
ATOM      5  C3  PXY d   1      -3.601  -5.971  -6.000  0.00  0.00     0.003 A 
ATOM      6  C4  PXY d   1      -4.483  -5.046  -5.511  0.00  0.00    -0.082 A 
ATOM      7  C5  PXY d   1      -4.056  -4.123  -4.624  0.00  0.00     0.003 A 
ATOM      8  C6  PXY d   1      -2.724  -4.134  -4.223  0.00  0.00     0.003 A 
ENDROOT
TORSDOF 0
ENDMDL
