MODEL 1
REMARK minimizedAffinity 16.9794331
REMARK minimizedRMSD -1
REMARK  0 active torsions:
REMARK  status: ('A' for Active; 'I' for Inactive)
ROOT
ATOM      1  C4' PXY d   1       1.499   2.174  -2.627  0.00  0.00     0.077 C 
ATOM      2  C1' PXY d   1       6.000   5.072  -4.809  0.00  0.00     0.077 C 
ATOM      3  C1  PXY d   1       4.824   4.313  -4.224  0.00  0.00    -0.082 A 
ATOM      4  C2  PXY d   1       4.151   3.465  -4.984  0.00  0.00     0.003 A 
ATOM      5  C3  PXY d   1       3.065   2.794  -4.481  0.00  0.00     0.003 A 
ATOM      6  C4  PXY d   1       2.698   2.954  -3.172  0.00  0.00    -0.082 A 
ATOM      7  C5  PXY d   1       3.387   3.810  -2.387  0.00  0.00     0.003 A 
ATOM      8  C6  PXY d   1       4.460   4.512  -2.928  0.00  0.00     0.003 A 
ENDROOT
TORSDOF 0
ENDMDL
