MODEL 1
REMARK minimizedAffinity 13.7737722
REMARK minimizedRMSD -1
REMARK  0 active torsions:
REMARK  status: ('A' for Active; 'I' for Inactive)
ROOT
ATOM      1  C4' PXY d   1       3.631   2.886  -5.998  0.00  0.00     0.077 C 
ATOM      2  C1' PXY d   1       5.232   5.911  -1.340  0.00  0.00     0.077 C 
ATOM      3  C1  PXY d   1       4.805   5.110  -2.554  0.00  0.00    -0.082 A 
ATOM      4  C2  PXY d   1       5.583   5.078  -3.624  0.00  0.00     0.003 A 
ATOM      5  C3  PXY d   1       5.197   4.385  -4.742  0.00  0.00     0.003 A 
ATOM      6  C4  PXY d   1       4.027   3.674  -4.746  0.00  0.00    -0.082 A 
ATOM      7  C5  PXY d   1       3.232   3.693  -3.655  0.00  0.00     0.003 A 
ATOM      8  C6  PXY d   1       3.623   4.436  -2.545  0.00  0.00     0.003 A 
ENDROOT
TORSDOF 0
ENDMDL
