MODEL 1
REMARK minimizedAffinity 20.1611958
REMARK minimizedRMSD -1
REMARK  0 active torsions:
REMARK  status: ('A' for Active; 'I' for Inactive)
ROOT
ATOM      1  C4' PXY d   1       2.233   2.328  -2.253  0.00  0.00     0.077 C 
ATOM      2  C1' PXY d   1       5.999   5.731  -5.019  0.00  0.00     0.077 C 
ATOM      3  C1  PXY d   1       5.004   4.837  -4.305  0.00  0.00    -0.082 A 
ATOM      4  C2  PXY d   1       4.887   4.911  -2.989  0.00  0.00     0.003 A 
ATOM      5  C3  PXY d   1       4.015   4.088  -2.324  0.00  0.00     0.003 A 
ATOM      6  C4  PXY d   1       3.217   3.218  -3.017  0.00  0.00    -0.082 A 
ATOM      7  C5  PXY d   1       3.324   3.145  -4.361  0.00  0.00     0.003 A 
ATOM      8  C6  PXY d   1       4.244   3.960  -5.014  0.00  0.00     0.003 A 
ENDROOT
TORSDOF 0
ENDMDL
