MODEL 1
REMARK minimizedAffinity 14.9878807
REMARK minimizedRMSD -1
REMARK  0 active torsions:
REMARK  status: ('A' for Active; 'I' for Inactive)
ROOT
ATOM      1  C4' PXY d   1       6.000   4.898  -5.128  0.00  0.00     0.077 C 
ATOM      2  C1' PXY d   1       1.572   2.181  -2.594  0.00  0.00     0.077 C 
ATOM      3  C1  PXY d   1       2.734   2.884  -3.267  0.00  0.00    -0.082 A 
ATOM      4  C2  PXY d   1       3.432   3.785  -2.595  0.00  0.00     0.003 A 
ATOM      5  C3  PXY d   1       4.466   4.453  -3.198  0.00  0.00     0.003 A 
ATOM      6  C4  PXY d   1       4.824   4.157  -4.486  0.00  0.00    -0.082 A 
ATOM      7  C5  PXY d   1       4.124   3.231  -5.175  0.00  0.00     0.003 A 
ATOM      8  C6  PXY d   1       3.052   2.594  -4.558  0.00  0.00     0.003 A 
ENDROOT
TORSDOF 0
ENDMDL
