MODEL 1
REMARK minimizedAffinity 9.87093544
REMARK minimizedRMSD -1
REMARK  0 active torsions:
REMARK  status: ('A' for Active; 'I' for Inactive)
ROOT
ATOM      1  C4' PXY d   1       5.540   5.950  -1.923  0.00  0.00     0.077 C 
ATOM      2  C1' PXY d   1       1.107   2.573  -3.459  0.00  0.00     0.077 C 
ATOM      3  C1  PXY d   1       2.262   3.469  -3.054  0.00  0.00    -0.082 A 
ATOM      4  C2  PXY d   1       3.484   3.191  -3.476  0.00  0.00     0.003 A 
ATOM      5  C3  PXY d   1       4.545   3.971  -3.093  0.00  0.00     0.003 A 
ATOM      6  C4  PXY d   1       4.343   5.079  -2.314  0.00  0.00    -0.082 A 
ATOM      7  C5  PXY d   1       3.097   5.376  -1.889  0.00  0.00     0.003 A 
ATOM      8  C6  PXY d   1       2.040   4.547  -2.255  0.00  0.00     0.003 A 
ENDROOT
TORSDOF 0
ENDMDL
