MODEL 1
REMARK minimizedAffinity 12.4305382
REMARK minimizedRMSD -1
REMARK  0 active torsions:
REMARK  status: ('A' for Active; 'I' for Inactive)
ROOT
ATOM      1  C4' PXY d   1       1.790  -2.188   3.147  0.00  0.00     0.077 C 
ATOM      2  C1' PXY d   1      -3.568  -3.218   1.239  0.00  0.00     0.077 C 
ATOM      3  C1  PXY d   1      -2.160  -2.961   1.740  0.00  0.00    -0.082 A 
ATOM      4  C2  PXY d   1      -1.897  -1.850   2.409  0.00  0.00     0.003 A 
ATOM      5  C3  PXY d   1      -0.622  -1.586   2.841  0.00  0.00     0.003 A 
ATOM      6  C4  PXY d   1       0.382  -2.494   2.632  0.00  0.00    -0.082 A 
ATOM      7  C5  PXY d   1       0.118  -3.634   1.959  0.00  0.00     0.003 A 
ATOM      8  C6  PXY d   1      -1.173  -3.864   1.493  0.00  0.00     0.003 A 
ENDROOT
TORSDOF 0
ENDMDL
