MODEL 1
REMARK minimizedAffinity 12.8300743
REMARK minimizedRMSD -1
REMARK  0 active torsions:
REMARK  status: ('A' for Active; 'I' for Inactive)
ROOT
ATOM      1  C4' PXY d   1      -5.550   1.881   2.053  0.00  0.00     0.077 C 
ATOM      2  C1' PXY d   1      -6.000  -0.743  -3.078  0.00  0.00     0.077 C 
ATOM      3  C1  PXY d   1      -5.878  -0.044  -1.739  0.00  0.00    -0.082 A 
ATOM      4  C2  PXY d   1      -5.669  -0.758  -0.645  0.00  0.00     0.003 A 
ATOM      5  C3  PXY d   1      -5.588  -0.145   0.579  0.00  0.00     0.003 A 
ATOM      6  C4  PXY d   1      -5.670   1.218   0.678  0.00  0.00    -0.082 A 
ATOM      7  C5  PXY d   1      -5.873   1.955  -0.435  0.00  0.00     0.003 A 
ATOM      8  C6  PXY d   1      -5.993   1.310  -1.663  0.00  0.00     0.003 A 
ENDROOT
TORSDOF 0
ENDMDL
