MODEL 1
REMARK minimizedAffinity 3.06367135
REMARK minimizedRMSD -1
REMARK  0 active torsions:
REMARK  status: ('A' for Active; 'I' for Inactive)
ROOT
ATOM      1  C4' PXY d   1      -1.941   0.937   3.542  0.00  0.00     0.077 C 
ATOM      2  C1' PXY d   1       0.507  -2.744  -0.182  0.00  0.00     0.077 C 
ATOM      3  C1  PXY d   1      -0.143  -1.775   0.785  0.00  0.00    -0.082 A 
ATOM      4  C2  PXY d   1       0.559  -1.289   1.795  0.00  0.00     0.003 A 
ATOM      5  C3  PXY d   1      -0.023  -0.436   2.698  0.00  0.00     0.003 A 
ATOM      6  C4  PXY d   1      -1.322  -0.036   2.535  0.00  0.00    -0.082 A 
ATOM      7  C5  PXY d   1      -2.042  -0.520   1.500  0.00  0.00     0.003 A 
ATOM      8  C6  PXY d   1      -1.445  -1.416   0.619  0.00  0.00     0.003 A 
ENDROOT
TORSDOF 0
ENDMDL
