MODEL 1
REMARK minimizedAffinity 4.51357841
REMARK minimizedRMSD -1
REMARK  1 active torsions:
REMARK  status: ('A' for Active; 'I' for Inactive)
REMARK    1  A    between atoms: N_2  and  C1_3 
ROOT
ATOM      1  C1  UNL d   1       2.234   0.156   1.247  0.00  0.00     0.143 A 
ATOM      2  C2  UNL d   1       1.468  -1.006   1.097  0.00  0.00    -0.057 A 
ATOM      3  C3  UNL d   1       1.379  -1.954   2.124  0.00  0.00     0.033 A 
ATOM      4  C4  UNL d   1       2.080  -1.770   3.311  0.00  0.00    -0.042 A 
ATOM      5  C5  UNL d   1       2.867  -0.635   3.472  0.00  0.00     0.033 A 
ATOM      6  C6  UNL d   1       2.947   0.311   2.446  0.00  0.00    -0.057 A 
ENDROOT
BRANCH   1   7
ATOM      7  N   UNL d   1       2.441   1.087   0.227  0.00  0.00    -0.732 N 
ATOM      8  C   UNL d   1       1.584   2.247   0.101  0.00  0.00     0.284 C 
ATOM      9  H3  UNL d   1       3.428   1.281   0.072  0.00  0.00     0.395 HD
ENDBRANCH   1   7
TORSDOF 1
ENDMDL
