MODEL 1
REMARK minimizedAffinity 2.05505347
REMARK minimizedRMSD -1
REMARK  1 active torsions:
REMARK  status: ('A' for Active; 'I' for Inactive)
REMARK    1  A    between atoms: N_2  and  C1_3 
ROOT
ATOM      1  C1  UNL d   1       1.596  -3.138   0.583  0.00  0.00     0.143 A 
ATOM      2  C2  UNL d   1       1.404  -3.037  -0.799  0.00  0.00    -0.057 A 
ATOM      3  C3  UNL d   1       1.716  -4.101  -1.654  0.00  0.00     0.033 A 
ATOM      4  C4  UNL d   1       2.253  -5.278  -1.143  0.00  0.00    -0.042 A 
ATOM      5  C5  UNL d   1       2.475  -5.391   0.224  0.00  0.00     0.033 A 
ATOM      6  C6  UNL d   1       2.156  -4.328   1.074  0.00  0.00    -0.057 A 
ENDROOT
BRANCH   1   7
ATOM      7  N   UNL d   1       1.398  -2.080   1.475  0.00  0.00    -0.732 N 
ATOM      8  C   UNL d   1       1.928  -2.142   2.820  0.00  0.00     0.284 C 
ATOM      9  H3  UNL d   1       1.501  -1.172   1.029  0.00  0.00     0.395 HD
ENDBRANCH   1   7
TORSDOF 1
ENDMDL
