MODEL 1
REMARK minimizedAffinity 7.00531769
REMARK minimizedRMSD -1
REMARK  1 active torsions:
REMARK  status: ('A' for Active; 'I' for Inactive)
REMARK    1  A    between atoms: N_2  and  C1_3 
ROOT
ATOM      1  C1  UNL d   1       2.257  -0.923   2.498  0.00  0.00     0.143 A 
ATOM      2  C2  UNL d   1       2.172   0.209   3.315  0.00  0.00    -0.057 A 
ATOM      3  C3  UNL d   1       2.371   1.495   2.797  0.00  0.00     0.033 A 
ATOM      4  C4  UNL d   1       2.687   1.669   1.454  0.00  0.00    -0.042 A 
ATOM      5  C5  UNL d   1       2.801   0.556   0.628  0.00  0.00     0.033 A 
ATOM      6  C6  UNL d   1       2.596  -0.725   1.150  0.00  0.00    -0.057 A 
ENDROOT
BRANCH   1   7
ATOM      7  N   UNL d   1       2.168  -2.234   2.973  0.00  0.00    -0.732 N 
ATOM      8  C   UNL d   1       3.258  -2.823   3.721  0.00  0.00     0.284 C 
ATOM      9  H3  UNL d   1       1.246  -2.451   3.343  0.00  0.00     0.395 HD
ENDBRANCH   1   7
TORSDOF 1
ENDMDL
