MODEL 1
REMARK minimizedAffinity -3.8275938
REMARK minimizedRMSD -1
REMARK  1 active torsions:
REMARK  status: ('A' for Active; 'I' for Inactive)
REMARK    1  A    between atoms: N_2  and  C1_3 
ROOT
ATOM      1  C1  UNL d   1       3.181   5.265  -2.660  0.00  0.00     0.143 A 
ATOM      2  C2  UNL d   1       3.998   5.987  -1.783  0.00  0.00    -0.057 A 
ATOM      3  C3  UNL d   1       5.393   5.872  -1.829  0.00  0.00     0.033 A 
ATOM      4  C4  UNL d   1       5.996   5.007  -2.736  0.00  0.00    -0.042 A 
ATOM      5  C5  UNL d   1       5.203   4.260  -3.600  0.00  0.00     0.033 A 
ATOM      6  C6  UNL d   1       3.811   4.385  -3.554  0.00  0.00    -0.057 A 
ENDROOT
BRANCH   1   7
ATOM      7  N   UNL d   1       1.786   5.262  -2.598  0.00  0.00    -0.732 N 
ATOM      8  C   UNL d   1       1.099   4.673  -1.469  0.00  0.00     0.284 C 
ATOM      9  H3  UNL d   1       1.381   6.138  -2.921  0.00  0.00     0.395 HD
ENDBRANCH   1   7
TORSDOF 1
ENDMDL
