MODEL 1
REMARK minimizedAffinity 3.63481808
REMARK minimizedRMSD -1
REMARK  1 active torsions:
REMARK  status: ('A' for Active; 'I' for Inactive)
REMARK    1  A    between atoms: N_2  and  C1_3 
ROOT
ATOM      1  C1  UNL d   1      -3.513   1.895   1.002  0.00  0.00     0.143 A 
ATOM      2  C2  UNL d   1      -4.231   2.497  -0.036  0.00  0.00    -0.057 A 
ATOM      3  C3  UNL d   1      -5.431   3.175   0.210  0.00  0.00     0.033 A 
ATOM      4  C4  UNL d   1      -5.950   3.239   1.499  0.00  0.00    -0.042 A 
ATOM      5  C5  UNL d   1      -5.266   2.626   2.542  0.00  0.00     0.033 A 
ATOM      6  C6  UNL d   1      -4.065   1.956   2.291  0.00  0.00    -0.057 A 
ENDROOT
BRANCH   1   7
ATOM      7  N   UNL d   1      -2.365   1.122   0.808  0.00  0.00    -0.732 N 
ATOM      8  C   UNL d   1      -2.314   0.131  -0.245  0.00  0.00     0.284 C 
ATOM      9  H3  UNL d   1      -1.510   1.664   0.911  0.00  0.00     0.395 HD
ENDBRANCH   1   7
TORSDOF 1
ENDMDL
