MODEL 1
REMARK minimizedAffinity 3.6550715
REMARK minimizedRMSD -1
REMARK  1 active torsions:
REMARK  status: ('A' for Active; 'I' for Inactive)
REMARK    1  A    between atoms: N_2  and  C1_3 
ROOT
ATOM      1  C1  UNL d   1       0.632  -1.092   1.153  0.00  0.00     0.143 A 
ATOM      2  C2  UNL d   1       1.371   0.053   1.467  0.00  0.00    -0.057 A 
ATOM      3  C3  UNL d   1       2.179   0.105   2.610  0.00  0.00     0.033 A 
ATOM      4  C4  UNL d   1       2.240  -0.982   3.476  0.00  0.00    -0.042 A 
ATOM      5  C5  UNL d   1       1.494  -2.122   3.196  0.00  0.00     0.033 A 
ATOM      6  C6  UNL d   1       0.694  -2.170   2.050  0.00  0.00    -0.057 A 
ENDROOT
BRANCH   1   7
ATOM      7  N   UNL d   1      -0.266  -1.170   0.085  0.00  0.00    -0.732 N 
ATOM      8  C   UNL d   1      -1.548  -0.502   0.151  0.00  0.00     0.284 C 
ATOM      9  H3  UNL d   1       0.196  -1.094  -0.818  0.00  0.00     0.395 HD
ENDBRANCH   1   7
TORSDOF 1
ENDMDL
