MODEL 1
REMARK minimizedAffinity 2.18902755
REMARK minimizedRMSD -1
REMARK  1 active torsions:
REMARK  status: ('A' for Active; 'I' for Inactive)
REMARK    1  A    between atoms: N_2  and  C1_3 
ROOT
ATOM      1  C1  UNL d   1       2.159  -0.771   2.595  0.00  0.00     0.143 A 
ATOM      2  C2  UNL d   1       2.117   0.269   3.530  0.00  0.00    -0.057 A 
ATOM      3  C3  UNL d   1       2.568   1.554   3.207  0.00  0.00     0.033 A 
ATOM      4  C4  UNL d   1       3.098   1.816   1.948  0.00  0.00    -0.042 A 
ATOM      5  C5  UNL d   1       3.173   0.792   1.011  0.00  0.00     0.033 A 
ATOM      6  C6  UNL d   1       2.715  -0.488   1.337  0.00  0.00    -0.057 A 
ENDROOT
BRANCH   1   7
ATOM      7  N   UNL d   1       1.818  -2.094   2.887  0.00  0.00    -0.732 N 
ATOM      8  C   UNL d   1       2.650  -2.895   3.758  0.00  0.00     0.284 C 
ATOM      9  H3  UNL d   1       0.819  -2.212   3.041  0.00  0.00     0.395 HD
ENDBRANCH   1   7
TORSDOF 1
ENDMDL
