MODEL 1
REMARK minimizedAffinity -3.61507607
REMARK minimizedRMSD -1
REMARK  1 active torsions:
REMARK  status: ('A' for Active; 'I' for Inactive)
REMARK    1  A    between atoms: N_2  and  C1_3 
ROOT
ATOM      1  C1  UNL d   1      -0.330  -1.433   0.179  0.00  0.00     0.143 A 
ATOM      2  C2  UNL d   1       0.294  -1.193  -1.050  0.00  0.00    -0.057 A 
ATOM      3  C3  UNL d   1       0.438   0.108  -1.549  0.00  0.00     0.033 A 
ATOM      4  C4  UNL d   1      -0.068   1.191  -0.839  0.00  0.00    -0.042 A 
ATOM      5  C5  UNL d   1      -0.714   0.974   0.373  0.00  0.00     0.033 A 
ATOM      6  C6  UNL d   1      -0.849  -0.327   0.869  0.00  0.00    -0.057 A 
ENDROOT
BRANCH   1   7
ATOM      7  N   UNL d   1      -0.591  -2.710   0.682  0.00  0.00    -0.732 N 
ATOM      8  C   UNL d   1      -0.090  -3.886   0.004  0.00  0.00     0.284 C 
ATOM      9  H3  UNL d   1      -0.515  -2.751   1.696  0.00  0.00     0.395 HD
ENDBRANCH   1   7
TORSDOF 1
ENDMDL
