MODEL 1
REMARK minimizedAffinity -3.97062755
REMARK minimizedRMSD -1
REMARK  1 active torsions:
REMARK  status: ('A' for Active; 'I' for Inactive)
REMARK    1  A    between atoms: N_2  and  C1_3 
ROOT
ATOM      1  C1  UNL d   1      -0.109   0.607   0.071  0.00  0.00     0.143 A 
ATOM      2  C2  UNL d   1      -1.002   0.500   1.143  0.00  0.00    -0.057 A 
ATOM      3  C3  UNL d   1      -1.451  -0.748   1.592  0.00  0.00     0.033 A 
ATOM      4  C4  UNL d   1      -1.036  -1.914   0.957  0.00  0.00    -0.042 A 
ATOM      5  C5  UNL d   1      -0.168  -1.830  -0.126  0.00  0.00     0.033 A 
ATOM      6  C6  UNL d   1       0.282  -0.581  -0.566  0.00  0.00    -0.057 A 
ENDROOT
BRANCH   1   7
ATOM      7  N   UNL d   1       0.296   1.823  -0.485  0.00  0.00    -0.732 N 
ATOM      8  C   UNL d   1       1.111   2.745   0.276  0.00  0.00     0.284 C 
ATOM      9  H3  UNL d   1       0.572   1.731  -1.460  0.00  0.00     0.395 HD
ENDBRANCH   1   7
TORSDOF 1
ENDMDL
