MODEL 1
REMARK minimizedAffinity -3.1025486
REMARK minimizedRMSD -1
REMARK  1 active torsions:
REMARK  status: ('A' for Active; 'I' for Inactive)
REMARK    1  A    between atoms: N_2  and  C1_3 
ROOT
ATOM      1  C1  UNL d   1       0.587   1.935   0.242  0.00  0.00     0.143 A 
ATOM      2  C2  UNL d   1       1.065   2.877  -0.675  0.00  0.00    -0.057 A 
ATOM      3  C3  UNL d   1       1.498   4.142  -0.259  0.00  0.00     0.033 A 
ATOM      4  C4  UNL d   1       1.433   4.498   1.084  0.00  0.00    -0.042 A 
ATOM      5  C5  UNL d   1       0.938   3.587   2.011  0.00  0.00     0.033 A 
ATOM      6  C6  UNL d   1       0.514   2.323   1.589  0.00  0.00    -0.057 A 
ENDROOT
BRANCH   1   7
ATOM      7  N   UNL d   1       0.050   0.698  -0.122  0.00  0.00    -0.732 N 
ATOM      8  C   UNL d   1      -0.784  -0.043   0.800  0.00  0.00     0.284 C 
ATOM      9  H3  UNL d   1      -0.280   0.686  -1.084  0.00  0.00     0.395 HD
ENDBRANCH   1   7
TORSDOF 1
ENDMDL
