MODEL 1
REMARK minimizedAffinity -2.82716942
REMARK minimizedRMSD -1
REMARK  1 active torsions:
REMARK  status: ('A' for Active; 'I' for Inactive)
REMARK    1  A    between atoms: N_2  and  C1_3 
ROOT
ATOM      1  C1  UNL d   1      -0.108   0.300  -0.166  0.00  0.00     0.143 A 
ATOM      2  C2  UNL d   1      -1.006  -0.107   0.826  0.00  0.00    -0.057 A 
ATOM      3  C3  UNL d   1      -1.086  -1.446   1.229  0.00  0.00     0.033 A 
ATOM      4  C4  UNL d   1      -0.286  -2.409   0.623  0.00  0.00    -0.042 A 
ATOM      5  C5  UNL d   1       0.596  -2.032  -0.383  0.00  0.00     0.033 A 
ATOM      6  C6  UNL d   1       0.676  -0.692  -0.776  0.00  0.00    -0.057 A 
ENDROOT
BRANCH   1   7
ATOM      7  N   UNL d   1      -0.051   1.598  -0.679  0.00  0.00    -0.732 N 
ATOM      8  C   UNL d   1       0.857   2.574  -0.115  0.00  0.00     0.284 C 
ATOM      9  H3  UNL d   1      -0.104   1.617  -1.694  0.00  0.00     0.395 HD
ENDBRANCH   1   7
TORSDOF 1
ENDMDL
