MODEL 1
REMARK minimizedAffinity -2.58621502
REMARK minimizedRMSD -1
REMARK  1 active torsions:
REMARK  status: ('A' for Active; 'I' for Inactive)
REMARK    1  A    between atoms: N_2  and  C1_3 
ROOT
ATOM      1  C1  UNL d   1       1.231   2.007   0.576  0.00  0.00     0.143 A 
ATOM      2  C2  UNL d   1       0.241   2.393  -0.333  0.00  0.00    -0.057 A 
ATOM      3  C3  UNL d   1      -0.896   1.603  -0.547  0.00  0.00     0.033 A 
ATOM      4  C4  UNL d   1      -1.048   0.396   0.126  0.00  0.00    -0.042 A 
ATOM      5  C5  UNL d   1      -0.063  -0.020   1.016  0.00  0.00     0.033 A 
ATOM      6  C6  UNL d   1       1.066   0.776   1.230  0.00  0.00    -0.057 A 
ENDROOT
BRANCH   1   7
ATOM      7  N   UNL d   1       2.431   2.699   0.759  0.00  0.00    -0.732 N 
ATOM      8  C   UNL d   1       2.676   3.439   1.978  0.00  0.00     0.284 C 
ATOM      9  H3  UNL d   1       3.236   2.178   0.421  0.00  0.00     0.395 HD
ENDBRANCH   1   7
TORSDOF 1
ENDMDL
