MODEL 1
REMARK minimizedAffinity -4.32955885
REMARK minimizedRMSD -1
REMARK  1 active torsions:
REMARK  status: ('A' for Active; 'I' for Inactive)
REMARK    1  A    between atoms: N_2  and  C1_3 
ROOT
ATOM      1  C1  UNL d   1      -0.408  -0.376   0.404  0.00  0.00     0.143 A 
ATOM      2  C2  UNL d   1      -1.153  -0.997   1.412  0.00  0.00    -0.057 A 
ATOM      3  C3  UNL d   1      -1.061  -2.376   1.636  0.00  0.00     0.033 A 
ATOM      4  C4  UNL d   1      -0.242  -3.165   0.835  0.00  0.00    -0.042 A 
ATOM      5  C5  UNL d   1       0.488  -2.572  -0.189  0.00  0.00     0.033 A 
ATOM      6  C6  UNL d   1       0.397  -1.193  -0.404  0.00  0.00    -0.057 A 
ENDROOT
BRANCH   1   7
ATOM      7  N   UNL d   1      -0.530   0.975   0.067  0.00  0.00    -0.732 N 
ATOM      8  C   UNL d   1       0.618   1.854   0.120  0.00  0.00     0.284 C 
ATOM      9  H3  UNL d   1      -1.129   1.121  -0.742  0.00  0.00     0.395 HD
ENDBRANCH   1   7
TORSDOF 1
ENDMDL
