MODEL 1
REMARK minimizedAffinity -4.23361397
REMARK minimizedRMSD -1
REMARK  1 active torsions:
REMARK  status: ('A' for Active; 'I' for Inactive)
REMARK    1  A    between atoms: N_2  and  C1_3 
ROOT
ATOM      1  C1  UNL d   1       0.011   0.040  -0.494  0.00  0.00     0.143 A 
ATOM      2  C2  UNL d   1      -0.919  -0.219   0.519  0.00  0.00    -0.057 A 
ATOM      3  C3  UNL d   1      -1.030  -1.490   1.094  0.00  0.00     0.033 A 
ATOM      4  C4  UNL d   1      -0.230  -2.536   0.646  0.00  0.00    -0.042 A 
ATOM      5  C5  UNL d   1       0.684  -2.307  -0.377  0.00  0.00     0.033 A 
ATOM      6  C6  UNL d   1       0.795  -1.034  -0.943  0.00  0.00    -0.057 A 
ENDROOT
BRANCH   1   7
ATOM      7  N   UNL d   1       0.101   1.257  -1.174  0.00  0.00    -0.732 N 
ATOM      8  C   UNL d   1       0.819   2.373  -0.596  0.00  0.00     0.284 C 
ATOM      9  H3  UNL d   1       0.258   1.134  -2.172  0.00  0.00     0.395 HD
ENDBRANCH   1   7
TORSDOF 1
ENDMDL
