MODEL 1
REMARK minimizedAffinity -3.63622284
REMARK minimizedRMSD -1
REMARK  1 active torsions:
REMARK  status: ('A' for Active; 'I' for Inactive)
REMARK    1  A    between atoms: N_2  and  C1_3 
ROOT
ATOM      1  C1  UNL d   1      -0.250   0.183  -0.114  0.00  0.00     0.143 A 
ATOM      2  C2  UNL d   1      -1.305  -0.009   0.784  0.00  0.00    -0.057 A 
ATOM      3  C3  UNL d   1      -1.548  -1.261   1.362  0.00  0.00     0.033 A 
ATOM      4  C4  UNL d   1      -0.755  -2.354   1.028  0.00  0.00    -0.042 A 
ATOM      5  C5  UNL d   1       0.284  -2.192   0.118  0.00  0.00     0.033 A 
ATOM      6  C6  UNL d   1       0.526  -0.938  -0.451  0.00  0.00    -0.057 A 
ENDROOT
BRANCH   1   7
ATOM      7  N   UNL d   1      -0.018   1.379  -0.798  0.00  0.00    -0.732 N 
ATOM      8  C   UNL d   1       0.959   2.329  -0.310  0.00  0.00     0.284 C 
ATOM      9  H3  UNL d   1      -0.008   1.254  -1.807  0.00  0.00     0.395 HD
ENDBRANCH   1   7
TORSDOF 1
ENDMDL
