MODEL 1
REMARK minimizedAffinity -4.64554691
REMARK minimizedRMSD -1
REMARK  1 active torsions:
REMARK  status: ('A' for Active; 'I' for Inactive)
REMARK    1  A    between atoms: N_2  and  C1_3 
ROOT
ATOM      1  C1  UNL d   1       0.220  -0.953  -0.342  0.00  0.00     0.143 A 
ATOM      2  C2  UNL d   1       0.255  -1.492  -1.633  0.00  0.00    -0.057 A 
ATOM      3  C3  UNL d   1       0.088  -2.865  -1.851  0.00  0.00     0.033 A 
ATOM      4  C4  UNL d   1      -0.088  -3.730  -0.776  0.00  0.00    -0.042 A 
ATOM      5  C5  UNL d   1      -0.101  -3.219   0.517  0.00  0.00     0.033 A 
ATOM      6  C6  UNL d   1       0.059  -1.847   0.728  0.00  0.00    -0.057 A 
ENDROOT
BRANCH   1   7
ATOM      7  N   UNL d   1       0.478   0.389  -0.053  0.00  0.00    -0.732 N 
ATOM      8  C   UNL d   1      -0.465   1.419  -0.434  0.00  0.00     0.284 C 
ATOM      9  H3  UNL d   1       0.881   0.517   0.872  0.00  0.00     0.395 HD
ENDBRANCH   1   7
TORSDOF 1
ENDMDL
