MODEL 1
REMARK minimizedAffinity -4.37725544
REMARK minimizedRMSD -1
REMARK  1 active torsions:
REMARK  status: ('A' for Active; 'I' for Inactive)
REMARK    1  A    between atoms: N_2  and  C1_3 
ROOT
ATOM      1  C1  UNL d   1       0.051  -1.002  -0.065  0.00  0.00     0.143 A 
ATOM      2  C2  UNL d   1       0.583  -1.470  -1.271  0.00  0.00    -0.057 A 
ATOM      3  C3  UNL d   1       0.617  -2.838  -1.567  0.00  0.00     0.033 A 
ATOM      4  C4  UNL d   1       0.144  -3.767  -0.646  0.00  0.00    -0.042 A 
ATOM      5  C5  UNL d   1      -0.366  -3.326   0.570  0.00  0.00     0.033 A 
ATOM      6  C6  UNL d   1      -0.403  -1.958   0.856  0.00  0.00    -0.057 A 
ENDROOT
BRANCH   1   7
ATOM      7  N   UNL d   1       0.079   0.338   0.329  0.00  0.00    -0.732 N 
ATOM      8  C   UNL d   1       0.144   1.395  -0.657  0.00  0.00     0.284 C 
ATOM      9  H3  UNL d   1      -0.554   0.529   1.102  0.00  0.00     0.395 HD
ENDBRANCH   1   7
TORSDOF 1
ENDMDL
