MODEL 1
REMARK minimizedAffinity -4.08392
REMARK minimizedRMSD -1
REMARK  1 active torsions:
REMARK  status: ('A' for Active; 'I' for Inactive)
REMARK    1  A    between atoms: N_2  and  C1_3 
ROOT
ATOM      1  C1  UNL d   1       0.131   1.024   0.019  0.00  0.00     0.143 A 
ATOM      2  C2  UNL d   1       0.782   0.051  -0.746  0.00  0.00    -0.057 A 
ATOM      3  C3  UNL d   1       0.566  -1.314  -0.520  0.00  0.00     0.033 A 
ATOM      4  C4  UNL d   1      -0.285  -1.731   0.498  0.00  0.00    -0.042 A 
ATOM      5  C5  UNL d   1      -0.923  -0.781   1.287  0.00  0.00     0.033 A 
ATOM      6  C6  UNL d   1      -0.709   0.581   1.052  0.00  0.00    -0.057 A 
ENDROOT
BRANCH   1   7
ATOM      7  N   UNL d   1       0.379   2.395  -0.092  0.00  0.00    -0.732 N 
ATOM      8  C   UNL d   1       1.714   2.920   0.099  0.00  0.00     0.284 C 
ATOM      9  H3  UNL d   1      -0.128   2.820  -0.865  0.00  0.00     0.395 HD
ENDBRANCH   1   7
TORSDOF 1
ENDMDL
