MODEL 1
REMARK minimizedAffinity -2.60121989
REMARK minimizedRMSD -1
REMARK  2 active torsions:
REMARK  status: ('A' for Active; 'I' for Inactive)
REMARK    1  A    between atoms: C2'_3  and  C1'_4 
REMARK    2  A    between atoms: C1'_4  and  C1_5 
ROOT
ATOM      1  C1  I4B d   1      -0.226  -0.285  -0.050  0.00  0.00    -0.075 A 
ATOM      2  C2  I4B d   1       0.014  -0.618   1.259  0.00  0.00     0.003 A 
ATOM      3  C3  I4B d   1      -0.911  -0.256   2.268  0.00  0.00     0.002 A 
ATOM      4  C4  I4B d   1      -2.031   0.477   1.932  0.00  0.00    -0.004 A 
ATOM      5  C5  I4B d   1      -2.284   0.794   0.601  0.00  0.00     0.002 A 
ATOM      6  C6  I4B d   1      -1.383   0.400  -0.399  0.00  0.00     0.003 A 
ENDROOT
BRANCH   1   7
ATOM      7  C1' I4B d   1       0.789  -0.654  -1.086  0.00  0.00     0.060 C 
BRANCH   7   8
ATOM      8  C2' I4B d   1       0.392   0.014  -2.387  0.00  0.00    -0.013 C 
ATOM      9  C4' I4B d   1       1.519   0.847  -2.938  0.00  0.00     0.013 C 
ATOM     10  C3' I4B d   1      -0.011  -1.060  -3.354  0.00  0.00     0.013 C 
ENDBRANCH   7   8
ENDBRANCH   1   7
TORSDOF 2
ENDMDL
