MODEL 1
REMARK minimizedAffinity -2.31997037
REMARK minimizedRMSD -1
REMARK  2 active torsions:
REMARK  status: ('A' for Active; 'I' for Inactive)
REMARK    1  A    between atoms: C2'_3  and  C1'_4 
REMARK    2  A    between atoms: C1'_4  and  C1_5 
ROOT
ATOM      1  C1  I4B d   1       0.539  -0.516  -0.931  0.00  0.00    -0.075 A 
ATOM      2  C2  I4B d   1       1.601  -0.731  -0.089  0.00  0.00     0.003 A 
ATOM      3  C3  I4B d   1       1.467  -0.501   1.301  0.00  0.00     0.002 A 
ATOM      4  C4  I4B d   1       0.275  -0.012   1.797  0.00  0.00    -0.004 A 
ATOM      5  C5  I4B d   1      -0.808   0.183   0.946  0.00  0.00     0.002 A 
ATOM      6  C6  I4B d   1      -0.680  -0.082  -0.426  0.00  0.00     0.003 A 
ENDROOT
BRANCH   1   7
ATOM      7  C1' I4B d   1       0.726  -0.737  -2.399  0.00  0.00     0.060 C 
BRANCH   7   8
ATOM      8  C2' I4B d   1       0.598   0.604  -3.093  0.00  0.00    -0.013 C 
ATOM      9  C4' I4B d   1       1.950   1.195  -3.391  0.00  0.00     0.013 C 
ATOM     10  C3' I4B d   1      -0.194   0.401  -4.350  0.00  0.00     0.013 C 
ENDBRANCH   7   8
ENDBRANCH   1   7
TORSDOF 2
ENDMDL
