MODEL 1
REMARK minimizedAffinity -3.55370259
REMARK minimizedRMSD -1
REMARK  2 active torsions:
REMARK  status: ('A' for Active; 'I' for Inactive)
REMARK    1  A    between atoms: C2'_3  and  C1'_4 
REMARK    2  A    between atoms: C1'_4  and  C1_5 
ROOT
ATOM      1  C1  I4B d   1      -0.734  -0.324  -0.230  0.00  0.00    -0.075 A 
ATOM      2  C2  I4B d   1      -1.766   0.439   0.256  0.00  0.00     0.003 A 
ATOM      3  C3  I4B d   1      -1.799   0.805   1.623  0.00  0.00     0.002 A 
ATOM      4  C4  I4B d   1      -0.814   0.347   2.474  0.00  0.00    -0.004 A 
ATOM      5  C5  I4B d   1       0.244  -0.407   1.975  0.00  0.00     0.002 A 
ATOM      6  C6  I4B d   1       0.291  -0.735   0.612  0.00  0.00     0.003 A 
ENDROOT
BRANCH   1   7
ATOM      7  C1' I4B d   1      -0.748  -0.721  -1.672  0.00  0.00     0.060 C 
BRANCH   7   8
ATOM      8  C2' I4B d   1       0.598  -0.361  -2.268  0.00  0.00    -0.013 C 
ATOM      9  C4' I4B d   1       0.814  -1.054  -3.587  0.00  0.00     0.013 C 
ATOM     10  C3' I4B d   1       0.651   1.130  -2.425  0.00  0.00     0.013 C 
ENDBRANCH   7   8
ENDBRANCH   1   7
TORSDOF 2
ENDMDL
