MODEL 1
REMARK minimizedAffinity -1.53271985
REMARK minimizedRMSD -1
REMARK  2 active torsions:
REMARK  status: ('A' for Active; 'I' for Inactive)
REMARK    1  A    between atoms: C2'_3  and  C1'_4 
REMARK    2  A    between atoms: C1'_4  and  C1_5 
ROOT
ATOM      1  C1  I4B d   1      -0.031  -0.259  -0.543  0.00  0.00    -0.075 A 
ATOM      2  C2  I4B d   1       0.444  -0.180   0.742  0.00  0.00     0.003 A 
ATOM      3  C3  I4B d   1      -0.411   0.229   1.794  0.00  0.00     0.002 A 
ATOM      4  C4  I4B d   1      -1.710   0.596   1.510  0.00  0.00    -0.004 A 
ATOM      5  C5  I4B d   1      -2.197   0.493   0.210  0.00  0.00     0.002 A 
ATOM      6  C6  I4B d   1      -1.356   0.051  -0.821  0.00  0.00     0.003 A 
ENDROOT
BRANCH   1   7
ATOM      7  C1' I4B d   1       0.908  -0.664  -1.635  0.00  0.00     0.060 C 
BRANCH   7   8
ATOM      8  C2' I4B d   1       0.575   0.157  -2.864  0.00  0.00    -0.013 C 
ATOM      9  C4' I4B d   1       1.734   1.031  -3.266  0.00  0.00     0.013 C 
ATOM     10  C3' I4B d   1       0.204  -0.791  -3.966  0.00  0.00     0.013 C 
ENDBRANCH   7   8
ENDBRANCH   1   7
TORSDOF 2
ENDMDL
