MODEL 1
REMARK minimizedAffinity -1.5696671
REMARK minimizedRMSD -1
REMARK  2 active torsions:
REMARK  status: ('A' for Active; 'I' for Inactive)
REMARK    1  A    between atoms: C2'_3  and  C1'_4 
REMARK    2  A    between atoms: C1'_4  and  C1_5 
ROOT
ATOM      1  C1  I4B d   1       0.524   0.303  -1.737  0.00  0.00    -0.075 A 
ATOM      2  C2  I4B d   1       0.724  -0.719  -2.631  0.00  0.00     0.003 A 
ATOM      3  C3  I4B d   1       1.012  -0.433  -3.988  0.00  0.00     0.002 A 
ATOM      4  C4  I4B d   1       1.040   0.879  -4.414  0.00  0.00    -0.004 A 
ATOM      5  C5  I4B d   1       0.860   1.915  -3.502  0.00  0.00     0.002 A 
ATOM      6  C6  I4B d   1       0.613   1.626  -2.152  0.00  0.00     0.003 A 
ENDROOT
BRANCH   1   7
ATOM      7  C1' I4B d   1       0.190  -0.035  -0.318  0.00  0.00     0.060 C 
BRANCH   7   8
ATOM      8  C2' I4B d   1      -1.318  -0.014  -0.177  0.00  0.00    -0.013 C 
ATOM      9  C4' I4B d   1      -1.869  -1.406  -0.005  0.00  0.00     0.013 C 
ATOM     10  C3' I4B d   1      -1.662   0.853   0.998  0.00  0.00     0.013 C 
ENDBRANCH   7   8
ENDBRANCH   1   7
TORSDOF 2
ENDMDL
