MODEL 1
REMARK minimizedAffinity -4.23779583
REMARK minimizedRMSD -1
REMARK  2 active torsions:
REMARK  status: ('A' for Active; 'I' for Inactive)
REMARK    1  A    between atoms: C2'_3  and  C1'_4 
REMARK    2  A    between atoms: C1'_4  and  C1_5 
ROOT
ATOM      1  C1  I4B d   1       0.829  -0.323  -2.103  0.00  0.00    -0.075 A 
ATOM      2  C2  I4B d   1      -0.199  -0.221  -3.007  0.00  0.00     0.003 A 
ATOM      3  C3  I4B d   1       0.017   0.393  -4.265  0.00  0.00     0.002 A 
ATOM      4  C4  I4B d   1       1.254   0.932  -4.555  0.00  0.00    -0.004 A 
ATOM      5  C5  I4B d   1       2.301   0.807  -3.647  0.00  0.00     0.002 A 
ATOM      6  C6  I4B d   1       2.091   0.164  -2.418  0.00  0.00     0.003 A 
ENDROOT
BRANCH   1   7
ATOM      7  C1' I4B d   1       0.558  -0.948  -0.771  0.00  0.00     0.060 C 
BRANCH   7   8
ATOM      8  C2' I4B d   1      -0.079   0.102   0.116  0.00  0.00    -0.013 C 
ATOM      9  C4' I4B d   1      -1.558  -0.136   0.268  0.00  0.00     0.013 C 
ATOM     10  C3' I4B d   1       0.615   0.068   1.445  0.00  0.00     0.013 C 
ENDBRANCH   7   8
ENDBRANCH   1   7
TORSDOF 2
ENDMDL
