MODEL 1
REMARK minimizedAffinity -0.539847553
REMARK minimizedRMSD -1
REMARK  2 active torsions:
REMARK  status: ('A' for Active; 'I' for Inactive)
REMARK    1  A    between atoms: C2'_3  and  C1'_4 
REMARK    2  A    between atoms: C1'_4  and  C1_5 
ROOT
ATOM      1  C1  I4B d   1      -0.016  -0.326   2.013  0.00  0.00    -0.075 A 
ATOM      2  C2  I4B d   1      -1.204   0.241   2.403  0.00  0.00     0.003 A 
ATOM      3  C3  I4B d   1      -2.268   0.371   1.478  0.00  0.00     0.002 A 
ATOM      4  C4  I4B d   1      -2.085  -0.029   0.170  0.00  0.00    -0.004 A 
ATOM      5  C5  I4B d   1      -0.888  -0.624  -0.217  0.00  0.00     0.002 A 
ATOM      6  C6  I4B d   1       0.149  -0.785   0.713  0.00  0.00     0.003 A 
ENDROOT
BRANCH   1   7
ATOM      7  C1' I4B d   1       1.098  -0.418   3.007  0.00  0.00     0.060 C 
BRANCH   7   8
ATOM      8  C2' I4B d   1       0.500  -0.803   4.345  0.00  0.00    -0.013 C 
ATOM      9  C4' I4B d   1       1.220  -1.981   4.946  0.00  0.00     0.013 C 
ATOM     10  C3' I4B d   1       0.573   0.393   5.246  0.00  0.00     0.013 C 
ENDBRANCH   7   8
ENDBRANCH   1   7
TORSDOF 2
ENDMDL
