MODEL 1
REMARK minimizedAffinity -5.79246044
REMARK minimizedRMSD -1
REMARK  1 active torsions:
REMARK  status: ('A' for Active; 'I' for Inactive)
REMARK    1  A    between atoms: C1_2  and  C2_3 
ROOT
ATOM      1  C2  UNL d   1       0.332   0.582  -0.622  0.00  0.00    -0.073 A 
ATOM      2  C3  UNL d   1      -0.846   0.399   0.111  0.00  0.00    -0.002 A 
ATOM      3  C4  UNL d   1      -1.970  -0.168  -0.492  0.00  0.00     0.004 A 
ATOM      4  C5  UNL d   1      -1.926  -0.564  -1.828  0.00  0.00    -0.004 A 
ATOM      5  C6  UNL d   1      -0.754  -0.400  -2.574  0.00  0.00    -0.075 A 
ATOM      6  C7  UNL d   1      -0.690  -0.819  -4.013  0.00  0.00     0.076 C 
ATOM      7  C8  UNL d   1       0.370   0.173  -1.963  0.00  0.00     0.001 A 
ENDROOT
BRANCH   1   8
ATOM      8  C1  UNL d   1       1.550   1.189   0.026  0.00  0.00     0.053 C 
ATOM      9  C   UNL d   1       2.253   0.206   0.948  0.00  0.00     0.018 C 
ENDBRANCH   1   8
TORSDOF 1
ENDMDL
