MODEL 1
REMARK minimizedAffinity -3.37546325
REMARK minimizedRMSD -1
REMARK  1 active torsions:
REMARK  status: ('A' for Active; 'I' for Inactive)
REMARK    1  A    between atoms: C1_2  and  C2_3 
ROOT
ATOM      1  C2  UNL d   1       1.374   0.056   0.794  0.00  0.00    -0.073 A 
ATOM      2  C3  UNL d   1       0.543   0.980   0.151  0.00  0.00    -0.002 A 
ATOM      3  C4  UNL d   1      -0.787   0.659  -0.125  0.00  0.00     0.004 A 
ATOM      4  C5  UNL d   1      -1.300  -0.584   0.245  0.00  0.00    -0.004 A 
ATOM      5  C6  UNL d   1      -0.488  -1.516   0.899  0.00  0.00    -0.075 A 
ATOM      6  C7  UNL d   1      -1.024  -2.859   1.301  0.00  0.00     0.076 C 
ATOM      7  C8  UNL d   1       0.847  -1.187   1.170  0.00  0.00     0.001 A 
ENDROOT
BRANCH   1   8
ATOM      8  C1  UNL d   1       2.809   0.401   1.100  0.00  0.00     0.053 C 
ATOM      9  C   UNL d   1       2.975   0.957   2.505  0.00  0.00     0.018 C 
ENDBRANCH   1   8
TORSDOF 1
ENDMDL
