MODEL 1
REMARK minimizedAffinity -3.36795688
REMARK minimizedRMSD -1
REMARK  1 active torsions:
REMARK  status: ('A' for Active; 'I' for Inactive)
REMARK    1  A    between atoms: C1_2  and  C2_3 
ROOT
ATOM      1  C2  UNL d   1      -0.106   0.067   0.110  0.00  0.00    -0.073 A 
ATOM      2  C3  UNL d   1       0.020   1.458   0.024  0.00  0.00    -0.002 A 
ATOM      3  C4  UNL d   1       1.264   2.065   0.202  0.00  0.00     0.004 A 
ATOM      4  C5  UNL d   1       2.394   1.289   0.460  0.00  0.00    -0.004 A 
ATOM      5  C6  UNL d   1       2.290  -0.104   0.538  0.00  0.00    -0.075 A 
ATOM      6  C7  UNL d   1       3.495  -0.953   0.817  0.00  0.00     0.076 C 
ATOM      7  C8  UNL d   1       1.037  -0.706   0.361  0.00  0.00     0.001 A 
ENDROOT
BRANCH   1   8
ATOM      8  C1  UNL d   1      -1.446  -0.594  -0.087  0.00  0.00     0.053 C 
ATOM      9  C   UNL d   1      -2.172  -0.056  -1.310  0.00  0.00     0.018 C 
ENDBRANCH   1   8
TORSDOF 1
ENDMDL
