MODEL 1
REMARK minimizedAffinity -5.21519756
REMARK minimizedRMSD -1
REMARK  1 active torsions:
REMARK  status: ('A' for Active; 'I' for Inactive)
REMARK    1  A    between atoms: C1_2  and  C2_3 
ROOT
ATOM      1  C2  UNL d   1       1.814  -0.551   0.896  0.00  0.00    -0.073 A 
ATOM      2  C3  UNL d   1       2.445   0.696   0.830  0.00  0.00    -0.002 A 
ATOM      3  C4  UNL d   1       1.779   1.795   0.284  0.00  0.00     0.004 A 
ATOM      4  C5  UNL d   1       0.476   1.660  -0.193  0.00  0.00    -0.004 A 
ATOM      5  C6  UNL d   1      -0.176   0.424  -0.125  0.00  0.00    -0.075 A 
ATOM      6  C7  UNL d   1      -1.577   0.262  -0.636  0.00  0.00     0.076 C 
ATOM      7  C8  UNL d   1       0.500  -0.675   0.422  0.00  0.00     0.001 A 
ENDROOT
BRANCH   1   8
ATOM      8  C1  UNL d   1       2.526  -1.739   1.490  0.00  0.00     0.053 C 
ATOM      9  C   UNL d   1       1.553  -2.777   2.026  0.00  0.00     0.018 C 
ENDBRANCH   1   8
TORSDOF 1
ENDMDL
