MODEL 1
REMARK minimizedAffinity -5.30872869
REMARK minimizedRMSD -1
REMARK  0 active torsions:
REMARK  status: ('A' for Active; 'I' for Inactive)
ROOT
ATOM      1  N1  IND d   1      -2.340   0.733  -5.543  0.00  0.00    -0.196 N 
ATOM      2  C2  IND d   1      -3.279   1.726  -5.521  0.00  0.00     0.054 A 
ATOM      3  C3  IND d   1      -4.517   1.206  -5.672  0.00  0.00    -0.031 A 
ATOM      4  C4  IND d   1      -5.244  -1.256  -5.869  0.00  0.00     0.051 A 
ATOM      5  C5  IND d   1      -4.742  -2.522  -5.974  0.00  0.00    -0.031 A 
ATOM      6  C6  IND d   1      -3.385  -2.774  -5.938  0.00  0.00     0.015 A 
ATOM      7  C7  IND d   1      -2.478  -1.764  -5.782  0.00  0.00    -0.016 A 
ATOM      8  C8  IND d   1      -2.984  -0.476  -5.682  0.00  0.00    -0.047 A 
ATOM      9  C9  IND d   1      -4.357  -0.211  -5.761  0.00  0.00    -0.096 A 
ATOM     10  HN1 IND d   1      -1.489   0.845  -5.480  0.00  0.00     0.298 HD
ENDROOT
TORSDOF 0
ENDMDL
