MODEL 1
REMARK minimizedAffinity 1.34090805
REMARK minimizedRMSD -1
REMARK  0 active torsions:
REMARK  status: ('A' for Active; 'I' for Inactive)
ROOT
ATOM      1  N1  IND d   1       2.671  -2.000  -1.271  0.00  0.00    -0.196 N 
ATOM      2  C2  IND d   1       3.756  -1.661  -2.029  0.00  0.00     0.054 A 
ATOM      3  C3  IND d   1       3.779  -0.326  -2.247  0.00  0.00    -0.031 A 
ATOM      4  C4  IND d   1       2.193   1.501  -1.368  0.00  0.00     0.051 A 
ATOM      5  C5  IND d   1       1.034   1.675  -0.665  0.00  0.00    -0.031 A 
ATOM      6  C6  IND d   1       0.348   0.611  -0.115  0.00  0.00     0.015 A 
ATOM      7  C7  IND d   1       0.805  -0.671  -0.238  0.00  0.00    -0.016 A 
ATOM      8  C8  IND d   1       1.978  -0.852  -0.957  0.00  0.00    -0.047 A 
ATOM      9  C9  IND d   1       2.655   0.220  -1.553  0.00  0.00    -0.096 A 
ATOM     10  HN1 IND d   1       2.457  -2.798  -1.030  0.00  0.00     0.298 HD
ENDROOT
TORSDOF 0
ENDMDL
