MODEL 1
REMARK minimizedAffinity -4.85663843
REMARK minimizedRMSD -1
REMARK  0 active torsions:
REMARK  status: ('A' for Active; 'I' for Inactive)
ROOT
ATOM      1  N1  IND d   1      -5.060  -4.213  -5.999  0.00  0.00    -0.196 N 
ATOM      2  C2  IND d   1      -5.600  -2.994  -5.695  0.00  0.00     0.054 A 
ATOM      3  C3  IND d   1      -4.698  -2.230  -5.040  0.00  0.00    -0.031 A 
ATOM      4  C4  IND d   1      -2.245  -2.739  -4.448  0.00  0.00     0.051 A 
ATOM      5  C5  IND d   1      -1.312  -3.737  -4.488  0.00  0.00    -0.031 A 
ATOM      6  C6  IND d   1      -1.586  -4.969  -5.046  0.00  0.00     0.015 A 
ATOM      7  C7  IND d   1      -2.804  -5.245  -5.599  0.00  0.00    -0.016 A 
ATOM      8  C8  IND d   1      -3.756  -4.237  -5.555  0.00  0.00    -0.047 A 
ATOM      9  C9  IND d   1      -3.498  -2.999  -4.951  0.00  0.00    -0.096 A 
ATOM     10  HN1 IND d   1      -5.466  -4.856  -6.399  0.00  0.00     0.298 HD
ENDROOT
TORSDOF 0
ENDMDL
