MODEL 1
REMARK minimizedAffinity 0.852893293
REMARK minimizedRMSD -1
REMARK  0 active torsions:
REMARK  status: ('A' for Active; 'I' for Inactive)
ROOT
ATOM      1  N1  IND d   1       2.395   1.069   2.120  0.00  0.00    -0.196 N 
ATOM      2  C2  IND d   1       1.390   1.183   1.200  0.00  0.00     0.054 A 
ATOM      3  C3  IND d   1       1.033   2.478   1.051  0.00  0.00    -0.031 A 
ATOM      4  C4  IND d   1       2.032   4.586   2.140  0.00  0.00     0.051 A 
ATOM      5  C5  IND d   1       2.943   4.986   3.077  0.00  0.00    -0.031 A 
ATOM      6  C6  IND d   1       3.737   4.082   3.754  0.00  0.00     0.015 A 
ATOM      7  C7  IND d   1       3.656   2.740   3.510  0.00  0.00    -0.016 A 
ATOM      8  C8  IND d   1       2.726   2.330   2.565  0.00  0.00    -0.047 A 
ATOM      9  C9  IND d   1       1.888   3.239   1.906  0.00  0.00    -0.096 A 
ATOM     10  HN1 IND d   1       2.759   0.334   2.377  0.00  0.00     0.298 HD
ENDROOT
TORSDOF 0
ENDMDL
