MODEL 1
REMARK minimizedAffinity 7.38911486
REMARK minimizedRMSD -1
REMARK  0 active torsions:
REMARK  status: ('A' for Active; 'I' for Inactive)
ROOT
ATOM      1  N1  IND d   1      -0.092  -0.748  -0.561  0.00  0.00    -0.196 N 
ATOM      2  C2  IND d   1      -0.427  -0.551  -1.872  0.00  0.00     0.054 A 
ATOM      3  C3  IND d   1       0.063   0.630  -2.310  0.00  0.00    -0.031 A 
ATOM      4  C4  IND d   1       1.528   2.352  -1.079  0.00  0.00     0.051 A 
ATOM      5  C5  IND d   1       2.064   2.629   0.147  0.00  0.00    -0.031 A 
ATOM      6  C6  IND d   1       1.908   1.777   1.221  0.00  0.00     0.015 A 
ATOM      7  C7  IND d   1       1.217   0.604   1.105  0.00  0.00    -0.016 A 
ATOM      8  C8  IND d   1       0.665   0.323  -0.137  0.00  0.00    -0.047 A 
ATOM      9  C9  IND d   1       0.784   1.204  -1.219  0.00  0.00    -0.096 A 
ATOM     10  HN1 IND d   1      -0.316  -1.425  -0.082  0.00  0.00     0.298 HD
ENDROOT
TORSDOF 0
ENDMDL
