MODEL 1
REMARK minimizedAffinity 4.39927006
REMARK minimizedRMSD -1
REMARK  0 active torsions:
REMARK  status: ('A' for Active; 'I' for Inactive)
ROOT
ATOM      1  N1  IND d   1      -3.919  -4.802  -5.331  0.00  0.00    -0.196 N 
ATOM      2  C2  IND d   1      -4.851  -3.851  -5.642  0.00  0.00     0.054 A 
ATOM      3  C3  IND d   1      -4.405  -2.624  -5.290  0.00  0.00    -0.031 A 
ATOM      4  C4  IND d   1      -2.139  -1.933  -4.284  0.00  0.00     0.051 A 
ATOM      5  C5  IND d   1      -0.975  -2.454  -3.791  0.00  0.00    -0.031 A 
ATOM      6  C6  IND d   1      -0.728  -3.812  -3.789  0.00  0.00     0.015 A 
ATOM      7  C7  IND d   1      -1.634  -4.702  -4.292  0.00  0.00    -0.016 A 
ATOM      8  C8  IND d   1      -2.819  -4.177  -4.787  0.00  0.00    -0.047 A 
ATOM      9  C9  IND d   1      -3.094  -2.804  -4.753  0.00  0.00    -0.096 A 
ATOM     10  HN1 IND d   1      -4.006  -5.649  -5.455  0.00  0.00     0.298 HD
ENDROOT
TORSDOF 0
ENDMDL
