MODEL 1
REMARK minimizedAffinity -0.0785309747
REMARK minimizedRMSD -1
REMARK  0 active torsions:
REMARK  status: ('A' for Active; 'I' for Inactive)
ROOT
ATOM      1  N1  IND d   1      -5.099   3.002  -5.822  0.00  0.00    -0.196 N 
ATOM      2  C2  IND d   1      -5.999   4.018  -5.991  0.00  0.00     0.054 A 
ATOM      3  C3  IND d   1      -5.369   5.214  -5.964  0.00  0.00    -0.031 A 
ATOM      4  C4  IND d   1      -2.856   5.734  -5.758  0.00  0.00     0.051 A 
ATOM      5  C5  IND d   1      -1.646   5.135  -5.546  0.00  0.00    -0.031 A 
ATOM      6  C6  IND d   1      -1.522   3.767  -5.415  0.00  0.00     0.015 A 
ATOM      7  C7  IND d   1      -2.607   2.942  -5.504  0.00  0.00    -0.016 A 
ATOM      8  C8  IND d   1      -3.839   3.547  -5.712  0.00  0.00    -0.047 A 
ATOM      9  C9  IND d   1      -3.976   4.938  -5.803  0.00  0.00    -0.096 A 
ATOM     10  HN1 IND d   1      -5.289   2.164  -5.791  0.00  0.00     0.298 HD
ENDROOT
TORSDOF 0
ENDMDL
