MODEL 1
REMARK minimizedAffinity -3.59098125
REMARK minimizedRMSD -1
REMARK  0 active torsions:
REMARK  status: ('A' for Active; 'I' for Inactive)
ROOT
ATOM      1  N1  IND d   1      -4.870  -4.748  -5.930  0.00  0.00    -0.196 N 
ATOM      2  C2  IND d   1      -5.751  -3.705  -6.000  0.00  0.00     0.054 A 
ATOM      3  C3  IND d   1      -5.249  -2.622  -5.365  0.00  0.00    -0.031 A 
ATOM      4  C4  IND d   1      -2.959  -2.307  -4.230  0.00  0.00     0.051 A 
ATOM      5  C5  IND d   1      -1.827  -2.989  -3.881  0.00  0.00    -0.031 A 
ATOM      6  C6  IND d   1      -1.647  -4.318  -4.206  0.00  0.00     0.015 A 
ATOM      7  C7  IND d   1      -2.591  -5.014  -4.905  0.00  0.00    -0.016 A 
ATOM      8  C8  IND d   1      -3.745  -4.328  -5.255  0.00  0.00    -0.047 A 
ATOM      9  C9  IND d   1      -3.952  -2.991  -4.891  0.00  0.00    -0.096 A 
ATOM     10  HN1 IND d   1      -4.998  -5.534  -6.253  0.00  0.00     0.298 HD
ENDROOT
TORSDOF 0
ENDMDL
