MODEL 1
REMARK minimizedAffinity -1.64401948
REMARK minimizedRMSD -1
REMARK  0 active torsions:
REMARK  status: ('A' for Active; 'I' for Inactive)
ROOT
ATOM      1  N1  IND d   1      -2.601   4.759  -5.928  0.00  0.00    -0.196 N 
ATOM      2  C2  IND d   1      -3.175   6.000  -5.921  0.00  0.00     0.054 A 
ATOM      3  C3  IND d   1      -4.523   5.895  -5.956  0.00  0.00    -0.031 A 
ATOM      4  C4  IND d   1      -6.000   3.786  -5.926  0.00  0.00     0.051 A 
ATOM      5  C5  IND d   1      -5.931   2.422  -5.970  0.00  0.00    -0.031 A 
ATOM      6  C6  IND d   1      -4.724   1.754  -6.000  0.00  0.00     0.015 A 
ATOM      7  C7  IND d   1      -3.536   2.427  -5.975  0.00  0.00    -0.016 A 
ATOM      8  C8  IND d   1      -3.602   3.813  -5.938  0.00  0.00    -0.047 A 
ATOM      9  C9  IND d   1      -4.824   4.498  -5.951  0.00  0.00    -0.096 A 
ATOM     10  HN1 IND d   1      -1.756   4.598  -5.926  0.00  0.00     0.298 HD
ENDROOT
TORSDOF 0
ENDMDL
