MODEL 1
REMARK minimizedAffinity 4.6547904
REMARK minimizedRMSD -1
REMARK  0 active torsions:
REMARK  status: ('A' for Active; 'I' for Inactive)
ROOT
ATOM      1  N1  IND d   1       1.028   1.210   1.194  0.00  0.00    -0.196 N 
ATOM      2  C2  IND d   1       1.290   2.500   0.825  0.00  0.00     0.054 A 
ATOM      3  C3  IND d   1       1.089   2.660  -0.502  0.00  0.00    -0.031 A 
ATOM      4  C4  IND d   1       0.234   0.967  -2.243  0.00  0.00     0.051 A 
ATOM      5  C5  IND d   1      -0.104  -0.349  -2.389  0.00  0.00    -0.031 A 
ATOM      6  C6  IND d   1      -0.084  -1.230  -1.327  0.00  0.00     0.015 A 
ATOM      7  C7  IND d   1       0.265  -0.823  -0.071  0.00  0.00    -0.016 A 
ATOM      8  C8  IND d   1       0.616   0.511   0.081  0.00  0.00    -0.047 A 
ATOM      9  C9  IND d   1       0.639   1.400  -1.002  0.00  0.00    -0.096 A 
ATOM     10  HN1 IND d   1       1.108   0.889   1.987  0.00  0.00     0.298 HD
ENDROOT
TORSDOF 0
ENDMDL
