MODEL 1
REMARK minimizedAffinity 1.4355818
REMARK minimizedRMSD -1
REMARK  0 active torsions:
REMARK  status: ('A' for Active; 'I' for Inactive)
ROOT
ATOM      1  N1  IND d   1      -1.555   3.778  -5.928  0.00  0.00    -0.196 N 
ATOM      2  C2  IND d   1      -0.959   5.008  -5.944  0.00  0.00     0.054 A 
ATOM      3  C3  IND d   1      -1.893   5.983  -5.998  0.00  0.00    -0.031 A 
ATOM      4  C4  IND d   1      -4.461   5.792  -5.966  0.00  0.00     0.051 A 
ATOM      5  C5  IND d   1      -5.473   4.874  -5.993  0.00  0.00    -0.031 A 
ATOM      6  C6  IND d   1      -5.226   3.516  -5.997  0.00  0.00     0.015 A 
ATOM      7  C7  IND d   1      -3.952   3.024  -5.963  0.00  0.00    -0.016 A 
ATOM      8  C8  IND d   1      -2.921   3.953  -5.942  0.00  0.00    -0.047 A 
ATOM      9  C9  IND d   1      -3.165   5.332  -5.981  0.00  0.00    -0.096 A 
ATOM     10  HN1 IND d   1      -1.145   3.022  -5.912  0.00  0.00     0.298 HD
ENDROOT
TORSDOF 0
ENDMDL
