MODEL 1
REMARK minimizedAffinity 0.188596487
REMARK minimizedRMSD -1
REMARK  0 active torsions:
REMARK  status: ('A' for Active; 'I' for Inactive)
ROOT
ATOM      1  N1  IND d   1      -2.363   2.280  -5.912  0.00  0.00    -0.196 N 
ATOM      2  C2  IND d   1      -1.507   3.345  -5.907  0.00  0.00     0.054 A 
ATOM      3  C3  IND d   1      -2.200   4.505  -5.951  0.00  0.00    -0.031 A 
ATOM      4  C4  IND d   1      -4.745   4.892  -5.933  0.00  0.00     0.051 A 
ATOM      5  C5  IND d   1      -5.936   4.224  -5.977  0.00  0.00    -0.031 A 
ATOM      6  C6  IND d   1      -5.999   2.846  -6.000  0.00  0.00     0.015 A 
ATOM      7  C7  IND d   1      -4.868   2.081  -5.967  0.00  0.00    -0.016 A 
ATOM      8  C8  IND d   1      -3.656   2.756  -5.929  0.00  0.00    -0.047 A 
ATOM      9  C9  IND d   1      -3.585   4.155  -5.949  0.00  0.00    -0.096 A 
ATOM     10  HN1 IND d   1      -2.133   1.451  -5.905  0.00  0.00     0.298 HD
ENDROOT
TORSDOF 0
ENDMDL
