MODEL 1
REMARK minimizedAffinity 3.59106541
REMARK minimizedRMSD -1
REMARK  0 active torsions:
REMARK  status: ('A' for Active; 'I' for Inactive)
ROOT
ATOM      1  N1  IND d   1      -0.197  -1.558   0.761  0.00  0.00    -0.196 N 
ATOM      2  C2  IND d   1      -0.572  -2.291  -0.330  0.00  0.00     0.054 A 
ATOM      3  C3  IND d   1      -0.480  -1.544  -1.453  0.00  0.00    -0.031 A 
ATOM      4  C4  IND d   1       0.360   0.872  -1.746  0.00  0.00     0.051 A 
ATOM      5  C5  IND d   1       0.776   1.962  -1.033  0.00  0.00    -0.031 A 
ATOM      6  C6  IND d   1       0.894   1.932   0.341  0.00  0.00     0.015 A 
ATOM      7  C7  IND d   1       0.610   0.804   1.057  0.00  0.00    -0.016 A 
ATOM      8  C8  IND d   1       0.180  -0.302   0.337  0.00  0.00    -0.047 A 
ATOM      9  C9  IND d   1       0.018  -0.266  -1.054  0.00  0.00    -0.096 A 
ATOM     10  HN1 IND d   1      -0.197  -1.834   1.575  0.00  0.00     0.298 HD
ENDROOT
TORSDOF 0
ENDMDL
