MODEL 1
REMARK minimizedAffinity 5.82218122
REMARK minimizedRMSD -1
REMARK  0 active torsions:
REMARK  status: ('A' for Active; 'I' for Inactive)
ROOT
ATOM      1  N1  IND d   1      -4.267  -4.706  -5.588  0.00  0.00    -0.196 N 
ATOM      2  C2  IND d   1      -5.165  -3.729  -5.917  0.00  0.00     0.054 A 
ATOM      3  C3  IND d   1      -4.742  -2.529  -5.461  0.00  0.00    -0.031 A 
ATOM      4  C4  IND d   1      -2.558  -1.920  -4.240  0.00  0.00     0.051 A 
ATOM      5  C5  IND d   1      -1.442  -2.481  -3.687  0.00  0.00    -0.031 A 
ATOM      6  C6  IND d   1      -1.203  -3.839  -3.742  0.00  0.00     0.015 A 
ATOM      7  C7  IND d   1      -2.072  -4.689  -4.366  0.00  0.00    -0.016 A 
ATOM      8  C8  IND d   1      -3.210  -4.125  -4.923  0.00  0.00    -0.047 A 
ATOM      9  C9  IND d   1      -3.478  -2.753  -4.833  0.00  0.00    -0.096 A 
ATOM     10  HN1 IND d   1      -4.349  -5.543  -5.767  0.00  0.00     0.298 HD
ENDROOT
TORSDOF 0
ENDMDL
