MODEL 1
REMARK minimizedAffinity 1.43368375
REMARK minimizedRMSD -1
REMARK  0 active torsions:
REMARK  status: ('A' for Active; 'I' for Inactive)
ROOT
ATOM      1  N1  IND d   1      -4.141  -5.254  -5.273  0.00  0.00    -0.196 N 
ATOM      2  C2  IND d   1      -5.167  -4.383  -5.516  0.00  0.00     0.054 A 
ATOM      3  C3  IND d   1      -4.815  -3.129  -5.156  0.00  0.00    -0.031 A 
ATOM      4  C4  IND d   1      -2.570  -2.259  -4.242  0.00  0.00     0.051 A 
ATOM      5  C5  IND d   1      -1.343  -2.684  -3.818  0.00  0.00    -0.031 A 
ATOM      6  C6  IND d   1      -0.977  -4.014  -3.860  0.00  0.00     0.015 A 
ATOM      7  C7  IND d   1      -1.825  -4.971  -4.341  0.00  0.00    -0.016 A 
ATOM      8  C8  IND d   1      -3.075  -4.544  -4.766  0.00  0.00    -0.047 A 
ATOM      9  C9  IND d   1      -3.467  -3.202  -4.686  0.00  0.00    -0.096 A 
ATOM     10  HN1 IND d   1      -4.160  -6.102  -5.413  0.00  0.00     0.298 HD
ENDROOT
TORSDOF 0
ENDMDL
