MODEL 1
REMARK minimizedAffinity -2.94683051
REMARK minimizedRMSD -1
REMARK  0 active torsions:
REMARK  status: ('A' for Active; 'I' for Inactive)
ROOT
ATOM      1  N1  IND d   1      -5.231  -4.318  -6.000  0.00  0.00    -0.196 N 
ATOM      2  C2  IND d   1      -5.716  -3.040  -5.981  0.00  0.00     0.054 A 
ATOM      3  C3  IND d   1      -4.833  -2.211  -5.381  0.00  0.00    -0.031 A 
ATOM      4  C4  IND d   1      -2.488  -2.717  -4.447  0.00  0.00     0.051 A 
ATOM      5  C5  IND d   1      -1.624  -3.748  -4.205  0.00  0.00    -0.031 A 
ATOM      6  C6  IND d   1      -1.924  -5.048  -4.559  0.00  0.00     0.015 A 
ATOM      7  C7  IND d   1      -3.099  -5.365  -5.180  0.00  0.00    -0.016 A 
ATOM      8  C8  IND d   1      -3.981  -4.321  -5.421  0.00  0.00    -0.047 A 
ATOM      9  C9  IND d   1      -3.701  -3.006  -5.027  0.00  0.00    -0.096 A 
ATOM     10  HN1 IND d   1      -5.639  -5.005  -6.319  0.00  0.00     0.298 HD
ENDROOT
TORSDOF 0
ENDMDL
