MODEL 1
REMARK minimizedAffinity -1.85216427
REMARK minimizedRMSD -1
REMARK  0 active torsions:
REMARK  status: ('A' for Active; 'I' for Inactive)
ROOT
ATOM      1  N1  IND d   1      -2.511   5.475  -5.783  0.00  0.00    -0.196 N 
ATOM      2  C2  IND d   1      -1.497   4.564  -5.677  0.00  0.00     0.054 A 
ATOM      3  C3  IND d   1      -1.995   3.307  -5.656  0.00  0.00    -0.031 A 
ATOM      4  C4  IND d   1      -4.431   2.508  -5.887  0.00  0.00     0.051 A 
ATOM      5  C5  IND d   1      -5.714   2.972  -5.970  0.00  0.00    -0.031 A 
ATOM      6  C6  IND d   1      -6.000   4.322  -5.999  0.00  0.00     0.015 A 
ATOM      7  C7  IND d   1      -5.009   5.261  -5.956  0.00  0.00    -0.016 A 
ATOM      8  C8  IND d   1      -3.706   4.793  -5.864  0.00  0.00    -0.047 A 
ATOM      9  C9  IND d   1      -3.412   3.426  -5.793  0.00  0.00    -0.096 A 
ATOM     10  HN1 IND d   1      -2.418   6.329  -5.797  0.00  0.00     0.298 HD
ENDROOT
TORSDOF 0
ENDMDL
