MODEL 1
REMARK minimizedAffinity 12.7554302
REMARK minimizedRMSD -1
REMARK  0 active torsions:
REMARK  status: ('A' for Active; 'I' for Inactive)
ROOT
ATOM      1  C2' OXE d   1       1.599   2.207  -0.841  0.00  0.00     0.078 C 
ATOM      2  C1' OXE d   1       3.222   2.028   1.443  0.00  0.00     0.078 C 
ATOM      3  C1  OXE d   1       3.004   0.774   0.635  0.00  0.00    -0.078 A 
ATOM      4  C2  OXE d   1       2.171   0.860  -0.454  0.00  0.00    -0.078 A 
ATOM      5  C3  OXE d   1       1.979  -0.255  -1.266  0.00  0.00     0.003 A 
ATOM      6  C4  OXE d   1       2.503  -1.499  -0.896  0.00  0.00    -0.002 A 
ATOM      7  C5  OXE d   1       3.322  -1.618   0.233  0.00  0.00    -0.002 A 
ATOM      8  C6  OXE d   1       3.616  -0.485   0.983  0.00  0.00     0.003 A 
ENDROOT
TORSDOF 0
ENDMDL
