MODEL 1
REMARK minimizedAffinity 3.7406745
REMARK minimizedRMSD -1
REMARK  0 active torsions:
REMARK  status: ('A' for Active; 'I' for Inactive)
ROOT
ATOM      1  C2' OXE d   1      -5.360   2.902  -0.701  0.00  0.00     0.078 C 
ATOM      2  C1' OXE d   1      -3.851   0.559  -0.366  0.00  0.00     0.078 C 
ATOM      3  C1  OXE d   1      -4.578   0.746  -1.674  0.00  0.00    -0.078 A 
ATOM      4  C2  OXE d   1      -5.352   1.874  -1.811  0.00  0.00    -0.078 A 
ATOM      5  C3  OXE d   1      -6.000   2.123  -3.018  0.00  0.00     0.003 A 
ATOM      6  C4  OXE d   1      -5.995   1.162  -4.036  0.00  0.00    -0.002 A 
ATOM      7  C5  OXE d   1      -5.246  -0.012  -3.901  0.00  0.00    -0.002 A 
ATOM      8  C6  OXE d   1      -4.499  -0.215  -2.746  0.00  0.00     0.003 A 
ENDROOT
TORSDOF 0
ENDMDL
