MODEL 1
REMARK minimizedAffinity 12.8276196
REMARK minimizedRMSD -1
REMARK  0 active torsions:
REMARK  status: ('A' for Active; 'I' for Inactive)
ROOT
ATOM      1  C2' OXE d   1      -5.358   5.673   5.621  0.00  0.00     0.078 C 
ATOM      2  C1' OXE d   1      -5.719   2.908   5.293  0.00  0.00     0.078 C 
ATOM      3  C1  OXE d   1      -5.744   3.773   4.057  0.00  0.00    -0.078 A 
ATOM      4  C2  OXE d   1      -5.614   5.130   4.232  0.00  0.00    -0.078 A 
ATOM      5  C3  OXE d   1      -5.576   5.967   3.121  0.00  0.00     0.003 A 
ATOM      6  C4  OXE d   1      -5.823   5.458   1.841  0.00  0.00    -0.002 A 
ATOM      7  C5  OXE d   1      -5.998   4.084   1.645  0.00  0.00    -0.002 A 
ATOM      8  C6  OXE d   1      -5.919   3.225   2.735  0.00  0.00     0.003 A 
ENDROOT
TORSDOF 0
ENDMDL
