MODEL 1
REMARK minimizedAffinity 13.785347
REMARK minimizedRMSD -1
REMARK  0 active torsions:
REMARK  status: ('A' for Active; 'I' for Inactive)
ROOT
ATOM      1  C2' OXE d   1      -5.747   0.125  -0.682  0.00  0.00     0.078 C 
ATOM      2  C1' OXE d   1      -3.861   1.668   0.711  0.00  0.00     0.078 C 
ATOM      3  C1  OXE d   1      -3.412   0.984  -0.556  0.00  0.00    -0.078 A 
ATOM      4  C2  OXE d   1      -4.329   0.194  -1.206  0.00  0.00    -0.078 A 
ATOM      5  C3  OXE d   1      -3.983  -0.416  -2.409  0.00  0.00     0.003 A 
ATOM      6  C4  OXE d   1      -2.667  -0.356  -2.882  0.00  0.00    -0.002 A 
ATOM      7  C5  OXE d   1      -1.707   0.412  -2.214  0.00  0.00    -0.002 A 
ATOM      8  C6  OXE d   1      -2.073   1.121  -1.075  0.00  0.00     0.003 A 
ENDROOT
TORSDOF 0
ENDMDL
