MODEL 1
REMARK minimizedAffinity 13.7830143
REMARK minimizedRMSD -1
REMARK  0 active torsions:
REMARK  status: ('A' for Active; 'I' for Inactive)
ROOT
ATOM      1  C2' OXE d   1       2.206  -1.858  -1.548  0.00  0.00     0.078 C 
ATOM      2  C1' OXE d   1       2.464  -1.839   1.248  0.00  0.00     0.078 C 
ATOM      3  C1  OXE d   1       2.666  -0.536   0.513  0.00  0.00    -0.078 A 
ATOM      4  C2  OXE d   1       2.584  -0.565  -0.858  0.00  0.00    -0.078 A 
ATOM      5  C3  OXE d   1       2.707   0.619  -1.580  0.00  0.00     0.003 A 
ATOM      6  C4  OXE d   1       3.066   1.809  -0.936  0.00  0.00    -0.002 A 
ATOM      7  C5  OXE d   1       3.194   1.851   0.457  0.00  0.00    -0.002 A 
ATOM      8  C6  OXE d   1       2.956   0.699   1.198  0.00  0.00     0.003 A 
ENDROOT
TORSDOF 0
ENDMDL
