MODEL 1
REMARK minimizedAffinity 2.62046504
REMARK minimizedRMSD -1
REMARK  0 active torsions:
REMARK  status: ('A' for Active; 'I' for Inactive)
ROOT
ATOM      1  C2' OXE d   1      -5.326   0.368  -3.826  0.00  0.00     0.078 C 
ATOM      2  C1' OXE d   1      -2.655   0.732  -3.042  0.00  0.00     0.078 C 
ATOM      3  C1  OXE d   1      -3.695   0.606  -1.958  0.00  0.00    -0.078 A 
ATOM      4  C2  OXE d   1      -5.005   0.475  -2.351  0.00  0.00    -0.078 A 
ATOM      5  C3  OXE d   1      -5.999   0.300  -1.391  0.00  0.00     0.003 A 
ATOM      6  C4  OXE d   1      -5.695   0.411  -0.029  0.00  0.00    -0.002 A 
ATOM      7  C5  OXE d   1      -4.372   0.584   0.392  0.00  0.00    -0.002 A 
ATOM      8  C6  OXE d   1      -3.357   0.641  -0.556  0.00  0.00     0.003 A 
ENDROOT
TORSDOF 0
ENDMDL
