MODEL 1
REMARK minimizedAffinity 0.740148902
REMARK minimizedRMSD -1
REMARK  0 active torsions:
REMARK  status: ('A' for Active; 'I' for Inactive)
ROOT
ATOM      1  C2' OXE d   1       2.334   2.432   2.157  0.00  0.00     0.078 C 
ATOM      2  C1' OXE d   1       1.070   1.555   4.505  0.00  0.00     0.078 C 
ATOM      3  C1  OXE d   1       2.323   2.382   4.647  0.00  0.00    -0.078 A 
ATOM      4  C2  OXE d   1       2.961   2.767   3.493  0.00  0.00    -0.078 A 
ATOM      5  C3  OXE d   1       4.090   3.578   3.567  0.00  0.00     0.003 A 
ATOM      6  C4  OXE d   1       4.669   3.875   4.806  0.00  0.00    -0.002 A 
ATOM      7  C5  OXE d   1       4.058   3.459   5.994  0.00  0.00    -0.002 A 
ATOM      8  C6  OXE d   1       2.863   2.750   5.933  0.00  0.00     0.003 A 
ENDROOT
TORSDOF 0
ENDMDL
