MODEL 1
REMARK minimizedAffinity -5.00592661
REMARK minimizedRMSD -1
REMARK  0 active torsions:
REMARK  status: ('A' for Active; 'I' for Inactive)
ROOT
ATOM      1  C   UNL d   1       2.613  -0.644   1.904  0.00  0.00     0.077 C 
ATOM      2  C1  UNL d   1       1.282  -0.483   1.232  0.00  0.00    -0.074 A 
ATOM      3  C2  UNL d   1       1.102  -0.852  -0.104  0.00  0.00    -0.005 A 
ATOM      4  C3  UNL d   1      -0.144  -0.705  -0.713  0.00  0.00     0.006 A 
ATOM      5  C4  UNL d   1      -1.221  -0.188   0.007  0.00  0.00    -0.005 A 
ATOM      6  C5  UNL d   1      -1.061   0.186   1.345  0.00  0.00    -0.074 A 
ATOM      7  C6  UNL d   1      -2.211   0.734   2.137  0.00  0.00     0.077 C 
ATOM      8  C7  UNL d   1       0.193   0.029   1.952  0.00  0.00    -0.001 A 
ENDROOT
TORSDOF 0
ENDMDL
