MODEL 1
REMARK minimizedAffinity -4.59285355
REMARK minimizedRMSD -1
REMARK  0 active torsions:
REMARK  status: ('A' for Active; 'I' for Inactive)
ROOT
ATOM      1  C   UNL d   1       0.938  -1.110  -0.992  0.00  0.00     0.077 C 
ATOM      2  C1  UNL d   1      -0.094  -0.431  -0.141  0.00  0.00    -0.074 A 
ATOM      3  C2  UNL d   1      -1.444  -0.786  -0.229  0.00  0.00    -0.005 A 
ATOM      4  C3  UNL d   1      -2.391  -0.153   0.576  0.00  0.00     0.006 A 
ATOM      5  C4  UNL d   1      -1.999   0.839   1.475  0.00  0.00    -0.005 A 
ATOM      6  C5  UNL d   1      -0.653   1.207   1.577  0.00  0.00    -0.074 A 
ATOM      7  C6  UNL d   1      -0.214   2.264   2.545  0.00  0.00     0.077 C 
ATOM      8  C7  UNL d   1       0.293   0.561   0.770  0.00  0.00    -0.001 A 
ENDROOT
TORSDOF 0
ENDMDL
