MODEL 1
REMARK minimizedAffinity -3.82384634
REMARK minimizedRMSD -1
REMARK  0 active torsions:
REMARK  status: ('A' for Active; 'I' for Inactive)
ROOT
ATOM      1  C   UNL d   1       0.392  -0.707  -2.590  0.00  0.00     0.077 C 
ATOM      2  C1  UNL d   1       0.341  -0.259  -1.160  0.00  0.00    -0.074 A 
ATOM      3  C2  UNL d   1      -0.764   0.443  -0.666  0.00  0.00    -0.005 A 
ATOM      4  C3  UNL d   1      -0.802   0.845   0.669  0.00  0.00     0.006 A 
ATOM      5  C4  UNL d   1       0.262   0.550   1.523  0.00  0.00    -0.005 A 
ATOM      6  C5  UNL d   1       1.374  -0.152   1.047  0.00  0.00    -0.074 A 
ATOM      7  C6  UNL d   1       2.522  -0.486   1.953  0.00  0.00     0.077 C 
ATOM      8  C7  UNL d   1       1.402  -0.558  -0.294  0.00  0.00    -0.001 A 
ENDROOT
TORSDOF 0
ENDMDL
