MODEL 1
REMARK minimizedAffinity -4.22799206
REMARK minimizedRMSD -1
REMARK  0 active torsions:
REMARK  status: ('A' for Active; 'I' for Inactive)
ROOT
ATOM      1  C   UNL d   1       0.733  -1.183  -0.789  0.00  0.00     0.077 C 
ATOM      2  C1  UNL d   1       0.628  -0.600  -2.167  0.00  0.00    -0.074 A 
ATOM      3  C2  UNL d   1       1.589   0.297  -2.642  0.00  0.00    -0.005 A 
ATOM      4  C3  UNL d   1       1.483   0.824  -3.930  0.00  0.00     0.006 A 
ATOM      5  C4  UNL d   1       0.417   0.459  -4.753  0.00  0.00    -0.005 A 
ATOM      6  C5  UNL d   1      -0.553  -0.438  -4.294  0.00  0.00    -0.074 A 
ATOM      7  C6  UNL d   1      -1.700  -0.848  -5.169  0.00  0.00     0.077 C 
ATOM      8  C7  UNL d   1      -0.436  -0.968  -3.002  0.00  0.00    -0.001 A 
ENDROOT
TORSDOF 0
ENDMDL
