MODEL 1
REMARK minimizedAffinity -3.91440034
REMARK minimizedRMSD -1
REMARK  0 active torsions:
REMARK  status: ('A' for Active; 'I' for Inactive)
ROOT
ATOM      1  C   UNL d   1      -0.721   0.408   2.768  0.00  0.00     0.077 C 
ATOM      2  C1  UNL d   1      -1.093   0.449   1.316  0.00  0.00    -0.074 A 
ATOM      3  C2  UNL d   1      -2.286   1.044   0.896  0.00  0.00    -0.005 A 
ATOM      4  C3  UNL d   1      -2.614   1.083  -0.459  0.00  0.00     0.006 A 
ATOM      5  C4  UNL d   1      -1.754   0.528  -1.406  0.00  0.00    -0.005 A 
ATOM      6  C5  UNL d   1      -0.555  -0.071  -1.005  0.00  0.00    -0.074 A 
ATOM      7  C6  UNL d   1       0.386  -0.664  -2.012  0.00  0.00     0.077 C 
ATOM      8  C7  UNL d   1      -0.229  -0.100   0.357  0.00  0.00    -0.001 A 
ENDROOT
TORSDOF 0
ENDMDL
