MODEL 1
REMARK minimizedAffinity -4.54404116
REMARK minimizedRMSD -1
REMARK  0 active torsions:
REMARK  status: ('A' for Active; 'I' for Inactive)
ROOT
ATOM      1  C   UNL d   1      -2.374  -0.719  -0.340  0.00  0.00     0.077 C 
ATOM      2  C1  UNL d   1      -1.376  -0.340   0.714  0.00  0.00    -0.074 A 
ATOM      3  C2  UNL d   1      -1.773   0.350   1.864  0.00  0.00    -0.005 A 
ATOM      4  C3  UNL d   1      -0.836   0.687   2.840  0.00  0.00     0.006 A 
ATOM      5  C4  UNL d   1       0.506   0.339   2.677  0.00  0.00    -0.005 A 
ATOM      6  C5  UNL d   1       0.921  -0.352   1.534  0.00  0.00    -0.074 A 
ATOM      7  C6  UNL d   1       2.357  -0.744   1.348  0.00  0.00     0.077 C 
ATOM      8  C7  UNL d   1      -0.028  -0.694   0.561  0.00  0.00    -0.001 A 
ENDROOT
TORSDOF 0
ENDMDL
