MODEL 1
REMARK minimizedAffinity -3.97816491
REMARK minimizedRMSD -1
REMARK  0 active torsions:
REMARK  status: ('A' for Active; 'I' for Inactive)
ROOT
ATOM      1  C   UNL d   1      -2.802   0.270   1.561  0.00  0.00     0.077 C 
ATOM      2  C1  UNL d   1      -1.327   0.457   1.366  0.00  0.00    -0.074 A 
ATOM      3  C2  UNL d   1      -0.548   1.093   2.338  0.00  0.00    -0.005 A 
ATOM      4  C3  UNL d   1       0.824   1.251   2.146  0.00  0.00     0.006 A 
ATOM      5  C4  UNL d   1       1.431   0.776   0.982  0.00  0.00    -0.005 A 
ATOM      6  C5  UNL d   1       0.668   0.138  -0.000  0.00  0.00    -0.074 A 
ATOM      7  C6  UNL d   1       1.305  -0.387  -1.252  0.00  0.00     0.077 C 
ATOM      8  C7  UNL d   1      -0.709  -0.024   0.203  0.00  0.00    -0.001 A 
ENDROOT
TORSDOF 0
ENDMDL
