MODEL 1
REMARK minimizedAffinity -6.02921581
REMARK minimizedRMSD -1
REMARK  0 active torsions:
REMARK  status: ('A' for Active; 'I' for Inactive)
ROOT
ATOM      1  C   UNL d   1       3.354  -0.592   1.505  0.00  0.00     0.077 C 
ATOM      2  C1  UNL d   1       1.916  -0.347   1.157  0.00  0.00    -0.074 A 
ATOM      3  C2  UNL d   1       1.407  -0.708  -0.094  0.00  0.00    -0.005 A 
ATOM      4  C3  UNL d   1       0.065  -0.482  -0.399  0.00  0.00     0.006 A 
ATOM      5  C4  UNL d   1      -0.780   0.107   0.542  0.00  0.00    -0.005 A 
ATOM      6  C5  UNL d   1      -0.289   0.474   1.799  0.00  0.00    -0.074 A 
ATOM      7  C6  UNL d   1      -1.186   1.098   2.826  0.00  0.00     0.077 C 
ATOM      8  C7  UNL d   1       1.059   0.237   2.101  0.00  0.00    -0.001 A 
ENDROOT
TORSDOF 0
ENDMDL
