MODEL 1
REMARK minimizedAffinity -3.40784121
REMARK minimizedRMSD -1
REMARK  0 active torsions:
REMARK  status: ('A' for Active; 'I' for Inactive)
ROOT
ATOM      1  C   UNL d   1      -1.364   0.360   0.224  0.00  0.00     0.078 C 
ATOM      2  C1  UNL d   1      -0.019  -0.304   0.209  0.00  0.00    -0.077 A 
ATOM      3  C2  UNL d   1       0.319  -1.225  -0.790  0.00  0.00    -0.001 A 
ATOM      4  C3  UNL d   1       1.571  -1.842  -0.786  0.00  0.00     0.003 A 
ATOM      5  C4  UNL d   1       2.495  -1.545   0.214  0.00  0.00    -0.005 A 
ATOM      6  C5  UNL d   1       2.167  -0.631   1.213  0.00  0.00     0.003 A 
ATOM      7  C6  UNL d   1       0.915  -0.013   1.211  0.00  0.00    -0.001 A 
ENDROOT
TORSDOF 0
ENDMDL
