MODEL 1
REMARK minimizedAffinity -4.8355813
REMARK minimizedRMSD -1
REMARK  0 active torsions:
REMARK  status: ('A' for Active; 'I' for Inactive)
ROOT
ATOM      1  C   UNL d   1       2.820  -1.269   1.278  0.00  0.00     0.078 C 
ATOM      2  C1  UNL d   1       1.629  -0.899   0.445  0.00  0.00    -0.077 A 
ATOM      3  C2  UNL d   1       1.115   0.404   0.461  0.00  0.00    -0.001 A 
ATOM      4  C3  UNL d   1      -0.000   0.732  -0.312  0.00  0.00     0.003 A 
ATOM      5  C4  UNL d   1      -0.611  -0.237  -1.106  0.00  0.00    -0.005 A 
ATOM      6  C5  UNL d   1      -0.108  -1.536  -1.126  0.00  0.00     0.003 A 
ATOM      7  C6  UNL d   1       1.007  -1.866  -0.354  0.00  0.00    -0.001 A 
ENDROOT
TORSDOF 0
ENDMDL
