MODEL 1
REMARK minimizedAffinity -5.05835915
REMARK minimizedRMSD -1
REMARK  0 active torsions:
REMARK  status: ('A' for Active; 'I' for Inactive)
ROOT
ATOM      1  C   UNL d   1      -0.292   0.742  -0.210  0.00  0.00     0.078 C 
ATOM      2  C1  UNL d   1       0.952  -0.063   0.019  0.00  0.00    -0.077 A 
ATOM      3  C2  UNL d   1       2.189   0.562   0.215  0.00  0.00    -0.001 A 
ATOM      4  C3  UNL d   1       3.341  -0.200   0.418  0.00  0.00     0.003 A 
ATOM      5  C4  UNL d   1       3.267  -1.592   0.425  0.00  0.00    -0.005 A 
ATOM      6  C5  UNL d   1       2.040  -2.223   0.229  0.00  0.00     0.003 A 
ATOM      7  C6  UNL d   1       0.888  -1.462   0.026  0.00  0.00    -0.001 A 
ENDROOT
TORSDOF 0
ENDMDL
