MODEL 1
REMARK minimizedAffinity -3.77284646
REMARK minimizedRMSD -1
REMARK  0 active torsions:
REMARK  status: ('A' for Active; 'I' for Inactive)
ROOT
ATOM      1  C   UNL d   1       3.478   2.223   0.716  0.00  0.00     0.078 C 
ATOM      2  C1  UNL d   1       2.690   0.973   0.461  0.00  0.00    -0.077 A 
ATOM      3  C2  UNL d   1       3.333  -0.243   0.195  0.00  0.00    -0.001 A 
ATOM      4  C3  UNL d   1       2.586  -1.397  -0.050  0.00  0.00     0.003 A 
ATOM      5  C4  UNL d   1       1.194  -1.346  -0.034  0.00  0.00    -0.005 A 
ATOM      6  C5  UNL d   1       0.546  -0.140   0.227  0.00  0.00     0.003 A 
ATOM      7  C6  UNL d   1       1.291   1.014   0.473  0.00  0.00    -0.001 A 
ENDROOT
TORSDOF 0
ENDMDL
