MODEL 1
REMARK minimizedAffinity -3.64195728
REMARK minimizedRMSD -1
REMARK  0 active torsions:
REMARK  status: ('A' for Active; 'I' for Inactive)
ROOT
ATOM      1  C   UNL d   1       0.011   0.559  -0.760  0.00  0.00     0.078 C 
ATOM      2  C1  UNL d   1       1.443   0.312  -0.390  0.00  0.00    -0.077 A 
ATOM      3  C2  UNL d   1       2.178   1.266   0.324  0.00  0.00    -0.001 A 
ATOM      4  C3  UNL d   1       3.513   1.027   0.653  0.00  0.00     0.003 A 
ATOM      5  C4  UNL d   1       4.125  -0.166   0.271  0.00  0.00    -0.005 A 
ATOM      6  C5  UNL d   1       3.402  -1.120  -0.442  0.00  0.00     0.003 A 
ATOM      7  C6  UNL d   1       2.067  -0.883  -0.771  0.00  0.00    -0.001 A 
ENDROOT
TORSDOF 0
ENDMDL
