MODEL 1
REMARK minimizedAffinity -3.88997841
REMARK minimizedRMSD -1
REMARK  0 active torsions:
REMARK  status: ('A' for Active; 'I' for Inactive)
ROOT
ATOM      1  C   UNL d   1       3.063   1.588   1.146  0.00  0.00     0.078 C 
ATOM      2  C1  UNL d   1       2.164   0.540   0.563  0.00  0.00    -0.077 A 
ATOM      3  C2  UNL d   1       2.666  -0.711   0.184  0.00  0.00    -0.001 A 
ATOM      4  C3  UNL d   1       1.818  -1.674  -0.367  0.00  0.00     0.003 A 
ATOM      5  C4  UNL d   1       0.465  -1.396  -0.545  0.00  0.00    -0.005 A 
ATOM      6  C5  UNL d   1      -0.043  -0.153  -0.173  0.00  0.00     0.003 A 
ATOM      7  C6  UNL d   1       0.802   0.812   0.378  0.00  0.00    -0.001 A 
ENDROOT
TORSDOF 0
ENDMDL
