MODEL 1
REMARK minimizedAffinity -5.14398956
REMARK minimizedRMSD -1
REMARK  0 active torsions:
REMARK  status: ('A' for Active; 'I' for Inactive)
ROOT
ATOM      1  C   UNL d   1       2.781  -1.489   1.051  0.00  0.00     0.078 C 
ATOM      2  C1  UNL d   1       1.782  -0.458   0.618  0.00  0.00    -0.077 A 
ATOM      3  C2  UNL d   1       0.537  -0.834   0.098  0.00  0.00    -0.001 A 
ATOM      4  C3  UNL d   1      -0.379   0.137  -0.310  0.00  0.00     0.003 A 
ATOM      5  C4  UNL d   1      -0.060   1.489  -0.203  0.00  0.00    -0.005 A 
ATOM      6  C5  UNL d   1       1.177   1.872   0.311  0.00  0.00     0.003 A 
ATOM      7  C6  UNL d   1       2.094   0.903   0.720  0.00  0.00    -0.001 A 
ENDROOT
TORSDOF 0
ENDMDL
