MODEL 1
REMARK minimizedAffinity 2.2458787
REMARK minimizedRMSD -1
REMARK  0 active torsions:
REMARK  status: ('A' for Active; 'I' for Inactive)
ROOT
ATOM      1  C4' PXY d   1       3.305  -4.122   4.450  0.00  0.00     0.077 C 
ATOM      2  C1' PXY d   1       0.090  -2.292   0.008  0.00  0.00     0.077 C 
ATOM      3  C1  PXY d   1       0.935  -2.759   1.176  0.00  0.00    -0.082 A 
ATOM      4  C2  PXY d   1       1.487  -3.961   1.145  0.00  0.00     0.003 A 
ATOM      5  C3  PXY d   1       2.228  -4.413   2.206  0.00  0.00     0.003 A 
ATOM      6  C4  PXY d   1       2.451  -3.605   3.289  0.00  0.00    -0.082 A 
ATOM      7  C5  PXY d   1       1.900  -2.373   3.324  0.00  0.00     0.003 A 
ATOM      8  C6  PXY d   1       1.117  -1.949   2.254  0.00  0.00     0.003 A 
ENDROOT
TORSDOF 0
ENDMDL
