MODEL 1
REMARK minimizedAffinity 7.49967909
REMARK minimizedRMSD -1
REMARK  0 active torsions:
REMARK  status: ('A' for Active; 'I' for Inactive)
ROOT
ATOM      1  C4' PXY d   1       2.762  -0.692  -1.620  0.00  0.00     0.077 C 
ATOM      2  C1' PXY d   1       2.687   2.494   3.203  0.00  0.00     0.077 C 
ATOM      3  C1  PXY d   1       2.703   1.648   1.945  0.00  0.00    -0.082 A 
ATOM      4  C2  PXY d   1       3.463   2.009   0.924  0.00  0.00     0.003 A 
ATOM      5  C3  PXY d   1       3.465   1.273  -0.233  0.00  0.00     0.003 A 
ATOM      6  C4  PXY d   1       2.722   0.127  -0.327  0.00  0.00    -0.082 A 
ATOM      7  C5  PXY d   1       1.952  -0.253   0.714  0.00  0.00     0.003 A 
ATOM      8  C6  PXY d   1       1.932   0.530   1.865  0.00  0.00     0.003 A 
ENDROOT
TORSDOF 0
ENDMDL
