MODEL 1
REMARK minimizedAffinity -3.34000206
REMARK minimizedRMSD -1
REMARK  0 active torsions:
REMARK  status: ('A' for Active; 'I' for Inactive)
ROOT
ATOM      1  C4' PXY d   1       1.475  -1.169   4.333  0.00  0.00     0.077 C 
ATOM      2  C1' PXY d   1       1.519  -5.647   0.678  0.00  0.00     0.077 C 
ATOM      3  C1  PXY d   1       1.507  -4.465   1.627  0.00  0.00    -0.082 A 
ATOM      4  C2  PXY d   1       2.053  -4.582   2.826  0.00  0.00     0.003 A 
ATOM      5  C3  PXY d   1       2.022  -3.533   3.708  0.00  0.00     0.003 A 
ATOM      6  C4  PXY d   1       1.473  -2.334   3.339  0.00  0.00    -0.082 A 
ATOM      7  C5  PXY d   1       0.923  -2.203   2.113  0.00  0.00     0.003 A 
ATOM      8  C6  PXY d   1       0.928  -3.293   1.248  0.00  0.00     0.003 A 
ENDROOT
TORSDOF 0
ENDMDL
