MODEL 1
REMARK minimizedAffinity -2.82004857
REMARK minimizedRMSD -1
REMARK  0 active torsions:
REMARK  status: ('A' for Active; 'I' for Inactive)
ROOT
ATOM      1  C4' PXY d   1       5.065  -5.956  -6.000  0.00  0.00     0.077 C 
ATOM      2  C1' PXY d   1       1.357  -6.000  -1.566  0.00  0.00     0.077 C 
ATOM      3  C1  PXY d   1       2.321  -5.994  -2.736  0.00  0.00    -0.082 A 
ATOM      4  C2  PXY d   1       3.624  -5.992  -2.510  0.00  0.00     0.003 A 
ATOM      5  C3  PXY d   1       4.509  -5.954  -3.557  0.00  0.00     0.003 A 
ATOM      6  C4  PXY d   1       4.056  -5.972  -4.849  0.00  0.00    -0.082 A 
ATOM      7  C5  PXY d   1       2.727  -5.985  -5.087  0.00  0.00     0.003 A 
ATOM      8  C6  PXY d   1       1.845  -5.981  -4.011  0.00  0.00     0.003 A 
ENDROOT
TORSDOF 0
ENDMDL
