MODEL 1
REMARK minimizedAffinity 2.93250632
REMARK minimizedRMSD -1
REMARK  0 active torsions:
REMARK  status: ('A' for Active; 'I' for Inactive)
ROOT
ATOM      1  C4' PXY d   1       0.128  -1.742   1.022  0.00  0.00     0.077 C 
ATOM      2  C1' PXY d   1       3.582  -4.554   4.707  0.00  0.00     0.077 C 
ATOM      3  C1  PXY d   1       2.673  -3.808   3.750  0.00  0.00    -0.082 A 
ATOM      4  C2  PXY d   1       2.155  -4.443   2.711  0.00  0.00     0.003 A 
ATOM      5  C3  PXY d   1       1.357  -3.775   1.818  0.00  0.00     0.003 A 
ATOM      6  C4  PXY d   1       1.043  -2.458   2.019  0.00  0.00    -0.082 A 
ATOM      7  C5  PXY d   1       1.559  -1.806   3.083  0.00  0.00     0.003 A 
ATOM      8  C6  PXY d   1       2.401  -2.491   3.955  0.00  0.00     0.003 A 
ENDROOT
TORSDOF 0
ENDMDL
