MODEL 1
REMARK minimizedAffinity 7.26437759
REMARK minimizedRMSD -1
REMARK  0 active torsions:
REMARK  status: ('A' for Active; 'I' for Inactive)
ROOT
ATOM      1  C4' PXY d   1       1.788  -1.477   2.531  0.00  0.00     0.077 C 
ATOM      2  C1' PXY d   1      -2.296  -3.059  -1.242  0.00  0.00     0.077 C 
ATOM      3  C1  PXY d   1      -1.223  -2.657  -0.250  0.00  0.00    -0.082 A 
ATOM      4  C2  PXY d   1      -1.266  -1.459   0.310  0.00  0.00     0.003 A 
ATOM      5  C3  PXY d   1      -0.285  -1.067   1.185  0.00  0.00     0.003 A 
ATOM      6  C4  PXY d   1       0.720  -1.930   1.531  0.00  0.00    -0.082 A 
ATOM      7  C5  PXY d   1       0.764  -3.158   0.972  0.00  0.00     0.003 A 
ATOM      8  C6  PXY d   1      -0.217  -3.521   0.055  0.00  0.00     0.003 A 
ENDROOT
TORSDOF 0
ENDMDL
