MODEL 1
REMARK minimizedAffinity -2.17788672
REMARK minimizedRMSD -1
REMARK  0 active torsions:
REMARK  status: ('A' for Active; 'I' for Inactive)
ROOT
ATOM      1  C4' PXY d   1       4.042  -5.987  -0.226  0.00  0.00     0.077 C 
ATOM      2  C1' PXY d   1       4.437  -5.990  -5.993  0.00  0.00     0.077 C 
ATOM      3  C1  PXY d   1       4.322  -5.984  -4.482  0.00  0.00    -0.082 A 
ATOM      4  C2  PXY d   1       5.419  -5.973  -3.742  0.00  0.00     0.003 A 
ATOM      5  C3  PXY d   1       5.333  -6.000  -2.374  0.00  0.00     0.003 A 
ATOM      6  C4  PXY d   1       4.111  -5.984  -1.756  0.00  0.00    -0.082 A 
ATOM      7  C5  PXY d   1       2.987  -5.985  -2.504  0.00  0.00     0.003 A 
ATOM      8  C6  PXY d   1       3.096  -5.999  -3.891  0.00  0.00     0.003 A 
ENDROOT
TORSDOF 0
ENDMDL
