MODEL 1
REMARK minimizedAffinity 2.74285245
REMARK minimizedRMSD -1
REMARK  0 active torsions:
REMARK  status: ('A' for Active; 'I' for Inactive)
ROOT
ATOM      1  C4' PXY d   1      -3.980  -1.576  -2.895  0.00  0.00     0.077 C 
ATOM      2  C1' PXY d   1       0.618  -2.670   0.433  0.00  0.00     0.077 C 
ATOM      3  C1  PXY d   1      -0.591  -2.396  -0.439  0.00  0.00    -0.082 A 
ATOM      4  C2  PXY d   1      -0.611  -1.321  -1.210  0.00  0.00     0.003 A 
ATOM      5  C3  PXY d   1      -1.710  -1.040  -1.981  0.00  0.00     0.003 A 
ATOM      6  C4  PXY d   1      -2.777  -1.898  -2.004  0.00  0.00    -0.082 A 
ATOM      7  C5  PXY d   1      -2.759  -3.003  -1.229  0.00  0.00     0.003 A 
ATOM      8  C6  PXY d   1      -1.652  -3.248  -0.423  0.00  0.00     0.003 A 
ENDROOT
TORSDOF 0
ENDMDL
