MODEL 1
REMARK minimizedAffinity 6.06995153
REMARK minimizedRMSD -1
REMARK  0 active torsions:
REMARK  status: ('A' for Active; 'I' for Inactive)
ROOT
ATOM      1  C4' PXY d   1       5.103  -2.433   5.262  0.00  0.00     0.077 C 
ATOM      2  C1' PXY d   1       0.427  -0.917   2.220  0.00  0.00     0.077 C 
ATOM      3  C1  PXY d   1       1.646  -1.313   3.029  0.00  0.00    -0.082 A 
ATOM      4  C2  PXY d   1       2.855  -1.127   2.524  0.00  0.00     0.003 A 
ATOM      5  C3  PXY d   1       3.967  -1.510   3.228  0.00  0.00     0.003 A 
ATOM      6  C4  PXY d   1       3.843  -2.039   4.485  0.00  0.00    -0.082 A 
ATOM      7  C5  PXY d   1       2.614  -2.223   5.011  0.00  0.00     0.003 A 
ATOM      8  C6  PXY d   1       1.496  -1.866   4.263  0.00  0.00     0.003 A 
ENDROOT
TORSDOF 0
ENDMDL
