MODEL 1
REMARK minimizedAffinity 11.690484
REMARK minimizedRMSD -1
REMARK  0 active torsions:
REMARK  status: ('A' for Active; 'I' for Inactive)
ROOT
ATOM      1  C4' PXY d   1      -3.392   1.564  -3.310  0.00  0.00     0.077 C 
ATOM      2  C1' PXY d   1      -5.938   4.162   1.182  0.00  0.00     0.077 C 
ATOM      3  C1  PXY d   1      -5.260   3.488   0.006  0.00  0.00    -0.082 A 
ATOM      4  C2  PXY d   1      -5.995   2.917  -0.934  0.00  0.00     0.003 A 
ATOM      5  C3  PXY d   1      -5.398   2.276  -1.988  0.00  0.00     0.003 A 
ATOM      6  C4  PXY d   1      -4.034   2.265  -2.110  0.00  0.00    -0.082 A 
ATOM      7  C5  PXY d   1      -3.277   2.854  -1.160  0.00  0.00     0.003 A 
ATOM      8  C6  PXY d   1      -3.902   3.464  -0.077  0.00  0.00     0.003 A 
ENDROOT
TORSDOF 0
ENDMDL
