MODEL 1
REMARK minimizedAffinity 5.21239853
REMARK minimizedRMSD -1
REMARK  0 active torsions:
REMARK  status: ('A' for Active; 'I' for Inactive)
ROOT
ATOM      1  C4' PXY d   1       2.565   3.166   0.359  0.00  0.00     0.077 C 
ATOM      2  C1' PXY d   1       2.200  -2.023   2.879  0.00  0.00     0.077 C 
ATOM      3  C1  PXY d   1       2.286  -0.658   2.226  0.00  0.00    -0.082 A 
ATOM      4  C2  PXY d   1       2.732  -0.553   0.985  0.00  0.00     0.003 A 
ATOM      5  C3  PXY d   1       2.847   0.677   0.390  0.00  0.00     0.003 A 
ATOM      6  C4  PXY d   1       2.451   1.807   1.055  0.00  0.00    -0.082 A 
ATOM      7  C5  PXY d   1       1.985   1.708   2.318  0.00  0.00     0.003 A 
ATOM      8  C6  PXY d   1       1.915   0.454   2.918  0.00  0.00     0.003 A 
ENDROOT
TORSDOF 0
ENDMDL
