MODEL 1
REMARK minimizedAffinity 9.40980816
REMARK minimizedRMSD -1
REMARK  0 active torsions:
REMARK  status: ('A' for Active; 'I' for Inactive)
ROOT
ATOM      1  C4' PXY d   1      -6.000   3.963  -0.086  0.00  0.00     0.077 C 
ATOM      2  C1' PXY d   1      -0.551   3.144   1.662  0.00  0.00     0.077 C 
ATOM      3  C1  PXY d   1      -1.984   3.356   1.216  0.00  0.00    -0.082 A 
ATOM      4  C2  PXY d   1      -2.305   3.188  -0.057  0.00  0.00     0.003 A 
ATOM      5  C3  PXY d   1      -3.589   3.407  -0.484  0.00  0.00     0.003 A 
ATOM      6  C4  PXY d   1      -4.567   3.750   0.411  0.00  0.00    -0.082 A 
ATOM      7  C5  PXY d   1      -4.250   3.913   1.713  0.00  0.00     0.003 A 
ATOM      8  C6  PXY d   1      -2.932   3.726   2.119  0.00  0.00     0.003 A 
ENDROOT
TORSDOF 0
ENDMDL
