MODEL 1
REMARK minimizedAffinity -2.32181454
REMARK minimizedRMSD -1
REMARK  0 active torsions:
REMARK  status: ('A' for Active; 'I' for Inactive)
ROOT
ATOM      1  C   UNL d   1      -2.616   1.386  -3.642  0.00  0.00     0.023 A 
ATOM      2  C1  UNL d   1      -2.021   0.128  -3.725  0.00  0.00     0.003 A 
ATOM      3  C2  UNL d   1      -1.056  -0.253  -2.791  0.00  0.00     0.048 A 
ATOM      4  C3  UNL d   1      -0.692   0.629  -1.774  0.00  0.00     0.023 A 
ATOM      5  C4  UNL d   1      -1.285   1.890  -1.686  0.00  0.00     0.048 A 
ATOM      6  C5  UNL d   1      -2.249   2.266  -2.624  0.00  0.00     0.003 A 
ATOM      7  I   UNL d   1       0.744   0.065  -0.381  0.00  0.00    -0.146 I 
ENDROOT
TORSDOF 0
ENDMDL
