MODEL 1
REMARK minimizedAffinity -2.45591974
REMARK minimizedRMSD -1
REMARK  0 active torsions:
REMARK  status: ('A' for Active; 'I' for Inactive)
ROOT
ATOM      1  C   UNL d   1       2.152  -2.177   1.105  0.00  0.00     0.023 A 
ATOM      2  C1  UNL d   1       0.776  -2.198   1.330  0.00  0.00     0.003 A 
ATOM      3  C2  UNL d   1      -0.005  -1.091   0.992  0.00  0.00     0.048 A 
ATOM      4  C3  UNL d   1       0.597   0.034   0.429  0.00  0.00     0.023 A 
ATOM      5  C4  UNL d   1       1.974   0.059   0.201  0.00  0.00     0.048 A 
ATOM      6  C5  UNL d   1       2.751  -1.050   0.541  0.00  0.00     0.003 A 
ATOM      7  I   UNL d   1      -0.563   1.683  -0.074  0.00  0.00    -0.146 I 
ENDROOT
TORSDOF 0
ENDMDL
