MODEL 1
REMARK minimizedAffinity -4.75464773
REMARK minimizedRMSD -1
REMARK  0 active torsions:
REMARK  status: ('A' for Active; 'I' for Inactive)
ROOT
ATOM      1  C   UNL d   1       2.100  -2.282   1.085  0.00  0.00     0.023 A 
ATOM      2  C1  UNL d   1       2.613  -1.332   0.201  0.00  0.00     0.003 A 
ATOM      3  C2  UNL d   1       1.769  -0.371  -0.359  0.00  0.00     0.048 A 
ATOM      4  C3  UNL d   1       0.414  -0.364  -0.031  0.00  0.00     0.023 A 
ATOM      5  C4  UNL d   1      -0.104  -1.312   0.854  0.00  0.00     0.048 A 
ATOM      6  C5  UNL d   1       0.743  -2.272   1.411  0.00  0.00     0.003 A 
ATOM      7  I   UNL d   1      -0.843   1.066  -0.863  0.00  0.00    -0.146 I 
ENDROOT
TORSDOF 0
ENDMDL
