MODEL 1
REMARK minimizedAffinity -3.97020316
REMARK minimizedRMSD -1
REMARK  0 active torsions:
REMARK  status: ('A' for Active; 'I' for Inactive)
ROOT
ATOM      1  C   UNL d   1       1.982  -2.571   0.589  0.00  0.00     0.023 A 
ATOM      2  C1  UNL d   1       2.585  -1.365   0.231  0.00  0.00     0.003 A 
ATOM      3  C2  UNL d   1       1.799  -0.237  -0.017  0.00  0.00     0.048 A 
ATOM      4  C3  UNL d   1       0.412  -0.322   0.097  0.00  0.00     0.023 A 
ATOM      5  C4  UNL d   1      -0.195  -1.527   0.456  0.00  0.00     0.048 A 
ATOM      6  C5  UNL d   1       0.594  -2.652   0.702  0.00  0.00     0.003 A 
ATOM      7  I   UNL d   1      -0.759   1.355  -0.271  0.00  0.00    -0.146 I 
ENDROOT
TORSDOF 0
ENDMDL
