MODEL 1
REMARK minimizedAffinity -4.55138779
REMARK minimizedRMSD -1
REMARK  0 active torsions:
REMARK  status: ('A' for Active; 'I' for Inactive)
ROOT
ATOM      1  C   UNL d   1      -1.272   1.090   1.606  0.00  0.00     0.023 A 
ATOM      2  C1  UNL d   1      -0.369   1.380   0.583  0.00  0.00     0.003 A 
ATOM      3  C2  UNL d   1       0.526   0.403   0.142  0.00  0.00     0.048 A 
ATOM      4  C3  UNL d   1       0.512  -0.862   0.727  0.00  0.00     0.023 A 
ATOM      5  C4  UNL d   1      -0.391  -1.158   1.750  0.00  0.00     0.048 A 
ATOM      6  C5  UNL d   1      -1.283  -0.178   2.188  0.00  0.00     0.003 A 
ATOM      7  I   UNL d   1       1.843  -2.318   0.073  0.00  0.00    -0.146 I 
ENDROOT
TORSDOF 0
ENDMDL
