MODEL 1
REMARK minimizedAffinity -2.10911489
REMARK minimizedRMSD -1
REMARK  0 active torsions:
REMARK  status: ('A' for Active; 'I' for Inactive)
ROOT
ATOM      1  C   UNL d   1      -2.601   1.446  -3.552  0.00  0.00     0.023 A 
ATOM      2  C1  UNL d   1      -1.225   1.329  -3.744  0.00  0.00     0.003 A 
ATOM      3  C2  UNL d   1      -0.404   0.919  -2.690  0.00  0.00     0.048 A 
ATOM      4  C3  UNL d   1      -0.967   0.627  -1.449  0.00  0.00     0.023 A 
ATOM      5  C4  UNL d   1      -2.345   0.741  -1.253  0.00  0.00     0.048 A 
ATOM      6  C5  UNL d   1      -3.161   1.153  -2.308  0.00  0.00     0.003 A 
ATOM      7  I   UNL d   1       0.252   0.016   0.120  0.00  0.00    -0.146 I 
ENDROOT
TORSDOF 0
ENDMDL
