MODEL 1
REMARK minimizedAffinity -1.02561259
REMARK minimizedRMSD -1
REMARK  0 active torsions:
REMARK  status: ('A' for Active; 'I' for Inactive)
ROOT
ATOM      1  C   UNL d   1       2.925  -1.034   0.666  0.00  0.00     0.023 A 
ATOM      2  C1  UNL d   1       2.940  -1.070  -0.728  0.00  0.00     0.003 A 
ATOM      3  C2  UNL d   1       1.799  -0.714  -1.449  0.00  0.00     0.048 A 
ATOM      4  C3  UNL d   1       0.646  -0.321  -0.770  0.00  0.00     0.023 A 
ATOM      5  C4  UNL d   1       0.626  -0.282   0.625  0.00  0.00     0.048 A 
ATOM      6  C5  UNL d   1       1.769  -0.641   1.342  0.00  0.00     0.003 A 
ATOM      7  I   UNL d   1      -1.054   0.211  -1.842  0.00  0.00    -0.146 I 
ENDROOT
TORSDOF 0
ENDMDL
