MODEL 1
REMARK minimizedAffinity -2.86616969
REMARK minimizedRMSD -1
REMARK  0 active torsions:
REMARK  status: ('A' for Active; 'I' for Inactive)
ROOT
ATOM      1  C   UNL d   1       0.123   1.758  -0.114  0.00  0.00     0.023 A 
ATOM      2  C1  UNL d   1       1.466   1.392  -0.210  0.00  0.00     0.003 A 
ATOM      3  C2  UNL d   1       1.852   0.076   0.053  0.00  0.00     0.048 A 
ATOM      4  C3  UNL d   1       0.891  -0.869   0.411  0.00  0.00     0.023 A 
ATOM      5  C4  UNL d   1      -0.453  -0.508   0.507  0.00  0.00     0.048 A 
ATOM      6  C5  UNL d   1      -0.835   0.809   0.244  0.00  0.00     0.003 A 
ATOM      7  I   UNL d   1       1.465  -2.828   0.803  0.00  0.00    -0.146 I 
ENDROOT
TORSDOF 0
ENDMDL
