MODEL 1
REMARK minimizedAffinity -2.86279154
REMARK minimizedRMSD -1
REMARK  0 active torsions:
REMARK  status: ('A' for Active; 'I' for Inactive)
ROOT
ATOM      1  C   UNL d   1       1.827  -2.101   0.895  0.00  0.00     0.023 A 
ATOM      2  C1  UNL d   1       2.283  -1.048   0.101  0.00  0.00     0.003 A 
ATOM      3  C2  UNL d   1       1.384  -0.093  -0.378  0.00  0.00     0.048 A 
ATOM      4  C3  UNL d   1       0.030  -0.196  -0.058  0.00  0.00     0.023 A 
ATOM      5  C4  UNL d   1      -0.430  -1.248   0.736  0.00  0.00     0.048 A 
ATOM      6  C5  UNL d   1       0.473  -2.200   1.212  0.00  0.00     0.003 A 
ATOM      7  I   UNL d   1      -1.310   1.224  -0.770  0.00  0.00    -0.146 I 
ENDROOT
TORSDOF 0
ENDMDL
