MODEL 1
REMARK minimizedAffinity -1.63891113
REMARK minimizedRMSD -1
REMARK  0 active torsions:
REMARK  status: ('A' for Active; 'I' for Inactive)
ROOT
ATOM      1  C   UNL d   1      -1.544   0.976   0.969  0.00  0.00     0.023 A 
ATOM      2  C1  UNL d   1      -0.676   1.169  -0.106  0.00  0.00     0.003 A 
ATOM      3  C2  UNL d   1       0.466   0.375  -0.234  0.00  0.00     0.048 A 
ATOM      4  C3  UNL d   1       0.733  -0.611   0.715  0.00  0.00     0.023 A 
ATOM      5  C4  UNL d   1      -0.133  -0.808   1.792  0.00  0.00     0.048 A 
ATOM      6  C5  UNL d   1      -1.273  -0.011   1.917  0.00  0.00     0.003 A 
ATOM      7  I   UNL d   1       2.431  -1.794   0.526  0.00  0.00    -0.146 I 
ENDROOT
TORSDOF 0
ENDMDL
