MODEL 1
REMARK minimizedAffinity -3.70649981
REMARK minimizedRMSD -1
REMARK  0 active torsions:
REMARK  status: ('A' for Active; 'I' for Inactive)
ROOT
ATOM      1  C   UNL d   1       2.052  -2.345   0.781  0.00  0.00     0.023 A 
ATOM      2  C1  UNL d   1       2.578  -1.207   0.169  0.00  0.00     0.003 A 
ATOM      3  C2  UNL d   1       1.738  -0.145  -0.173  0.00  0.00     0.048 A 
ATOM      4  C3  UNL d   1       0.373  -0.227   0.102  0.00  0.00     0.023 A 
ATOM      5  C4  UNL d   1      -0.157  -1.364   0.715  0.00  0.00     0.048 A 
ATOM      6  C5  UNL d   1       0.686  -2.423   1.053  0.00  0.00     0.003 A 
ATOM      7  I   UNL d   1      -0.880   1.352  -0.405  0.00  0.00    -0.146 I 
ENDROOT
TORSDOF 0
ENDMDL
