MODEL 1
REMARK minimizedAffinity -4.75365973
REMARK minimizedRMSD -1
REMARK  0 active torsions:
REMARK  status: ('A' for Active; 'I' for Inactive)
ROOT
ATOM      1  C   UNL d   1       1.310  -1.606   2.100  0.00  0.00     0.023 A 
ATOM      2  C1  UNL d   1       1.981  -1.137   0.970  0.00  0.00     0.003 A 
ATOM      3  C2  UNL d   1       1.342  -0.262   0.090  0.00  0.00     0.048 A 
ATOM      4  C3  UNL d   1       0.031   0.140   0.345  0.00  0.00     0.023 A 
ATOM      5  C4  UNL d   1      -0.644  -0.326   1.474  0.00  0.00     0.048 A 
ATOM      6  C5  UNL d   1      -0.001  -1.201   2.351  0.00  0.00     0.003 A 
ATOM      7  I   UNL d   1      -0.923   1.442  -0.964  0.00  0.00    -0.146 I 
ENDROOT
TORSDOF 0
ENDMDL
