MODEL 1
REMARK minimizedAffinity -3.37647867
REMARK minimizedRMSD -1
REMARK  0 active torsions:
REMARK  status: ('A' for Active; 'I' for Inactive)
ROOT
ATOM      1  C   UNL d   1       2.292  -2.339   1.064  0.00  0.00     0.023 A 
ATOM      2  C1  UNL d   1       2.649  -1.006   1.267  0.00  0.00     0.003 A 
ATOM      3  C2  UNL d   1       1.813   0.018   0.817  0.00  0.00     0.048 A 
ATOM      4  C3  UNL d   1       0.622  -0.297   0.165  0.00  0.00     0.023 A 
ATOM      5  C4  UNL d   1       0.260  -1.630  -0.040  0.00  0.00     0.048 A 
ATOM      6  C5  UNL d   1       1.099  -2.651   0.411  0.00  0.00     0.003 A 
ATOM      7  I   UNL d   1      -0.624   1.225  -0.505  0.00  0.00    -0.146 I 
ENDROOT
TORSDOF 0
ENDMDL
