MODEL 1
REMARK minimizedAffinity 5.25602722
REMARK minimizedRMSD -1
REMARK  1 active torsions:
REMARK  status: ('A' for Active; 'I' for Inactive)
REMARK    1  A    between atoms: C1_2  and  C2_3 
ROOT
ATOM      1  C2  UNL d   1       1.728   3.853  -5.954  0.00  0.00    -0.081 A 
ATOM      2  C3  UNL d   1       2.912   3.106  -5.971  0.00  0.00     0.006 A 
ATOM      3  C4  UNL d   1       4.154   3.746  -5.996  0.00  0.00     0.002 A 
ATOM      4  C5  UNL d   1       4.232   5.143  -5.997  0.00  0.00    -0.080 A 
ATOM      5  C6  UNL d   1       5.559   5.842  -5.994  0.00  0.00     0.076 C 
ATOM      6  C7  UNL d   1       3.049   5.889  -5.999  0.00  0.00     0.002 A 
ATOM      7  C8  UNL d   1       1.808   5.250  -5.974  0.00  0.00     0.006 A 
ENDROOT
BRANCH   1   8
ATOM      8  C1  UNL d   1       0.390   3.166  -5.862  0.00  0.00     0.054 C 
ATOM      9  C   UNL d   1       0.549   1.657  -5.742  0.00  0.00     0.018 C 
ENDBRANCH   1   8
TORSDOF 1
ENDMDL
