MODEL 1
REMARK minimizedAffinity -3.48105979
REMARK minimizedRMSD -1
REMARK  1 active torsions:
REMARK  status: ('A' for Active; 'I' for Inactive)
REMARK    1  A    between atoms: C1_2  and  C2_3 
ROOT
ATOM      1  C2  UNL d   1      -2.040   4.839  -5.979  0.00  0.00    -0.081 A 
ATOM      2  C3  UNL d   1      -1.778   3.464  -5.993  0.00  0.00     0.006 A 
ATOM      3  C4  UNL d   1      -0.463   2.993  -6.000  0.00  0.00     0.002 A 
ATOM      4  C5  UNL d   1       0.611   3.889  -5.985  0.00  0.00    -0.080 A 
ATOM      5  C6  UNL d   1       2.028   3.396  -5.961  0.00  0.00     0.076 C 
ATOM      6  C7  UNL d   1       0.350   5.263  -5.988  0.00  0.00     0.002 A 
ATOM      7  C8  UNL d   1      -0.965   5.734  -5.982  0.00  0.00     0.006 A 
ENDROOT
BRANCH   1   8
ATOM      8  C1  UNL d   1      -3.457   5.349  -5.906  0.00  0.00     0.054 C 
ATOM      9  C   UNL d   1      -4.450   4.205  -5.767  0.00  0.00     0.018 C 
ENDBRANCH   1   8
TORSDOF 1
ENDMDL
