MODEL 1
REMARK minimizedAffinity 1.29023528
REMARK minimizedRMSD -1
REMARK  1 active torsions:
REMARK  status: ('A' for Active; 'I' for Inactive)
REMARK    1  A    between atoms: C1_2  and  C2_3 
ROOT
ATOM      1  C2  UNL d   1      -1.120   3.865  -5.988  0.00  0.00    -0.081 A 
ATOM      2  C3  UNL d   1      -1.137   5.265  -5.991  0.00  0.00     0.006 A 
ATOM      3  C4  UNL d   1      -2.349   5.958  -5.989  0.00  0.00     0.002 A 
ATOM      4  C5  UNL d   1      -3.564   5.265  -5.976  0.00  0.00    -0.080 A 
ATOM      5  C6  UNL d   1      -4.873   5.997  -5.942  0.00  0.00     0.076 C 
ATOM      6  C7  UNL d   1      -3.548   3.866  -5.991  0.00  0.00     0.002 A 
ATOM      7  C8  UNL d   1      -2.336   3.172  -5.994  0.00  0.00     0.006 A 
ENDROOT
BRANCH   1   8
ATOM      8  C1  UNL d   1       0.185   3.114  -5.926  0.00  0.00     0.054 C 
ATOM      9  C   UNL d   1       1.372   4.067  -5.918  0.00  0.00     0.018 C 
ENDBRANCH   1   8
TORSDOF 1
ENDMDL
