MODEL 1
REMARK minimizedAffinity -0.813837945
REMARK minimizedRMSD -1
REMARK  1 active torsions:
REMARK  status: ('A' for Active; 'I' for Inactive)
REMARK    1  A    between atoms: C1_2  and  C2_3 
ROOT
ATOM      1  C2  UNL d   1      -0.055   2.727  -6.000  0.00  0.00    -0.081 A 
ATOM      2  C3  UNL d   1       0.392   4.054  -6.000  0.00  0.00     0.006 A 
ATOM      3  C4  UNL d   1      -0.521   5.109  -5.942  0.00  0.00     0.002 A 
ATOM      4  C5  UNL d   1      -1.895   4.855  -5.876  0.00  0.00    -0.080 A 
ATOM      5  C6  UNL d   1      -2.885   5.979  -5.784  0.00  0.00     0.076 C 
ATOM      6  C7  UNL d   1      -2.343   3.530  -5.894  0.00  0.00     0.002 A 
ATOM      7  C8  UNL d   1      -1.430   2.475  -5.952  0.00  0.00     0.006 A 
ENDROOT
BRANCH   1   8
ATOM      8  C1  UNL d   1       0.930   1.586  -5.996  0.00  0.00     0.054 C 
ATOM      9  C   UNL d   1       2.365   2.094  -6.000  0.00  0.00     0.018 C 
ENDBRANCH   1   8
TORSDOF 1
ENDMDL
