MODEL 1
REMARK minimizedAffinity 6.35439157
REMARK minimizedRMSD -1
REMARK  1 active torsions:
REMARK  status: ('A' for Active; 'I' for Inactive)
REMARK    1  A    between atoms: C1_2  and  C2_3 
ROOT
ATOM      1  C2  UNL d   1      -1.666  -1.910  -0.659  0.00  0.00    -0.081 A 
ATOM      2  C3  UNL d   1      -2.401  -0.719  -0.706  0.00  0.00     0.006 A 
ATOM      3  C4  UNL d   1      -1.950   0.418  -0.032  0.00  0.00     0.002 A 
ATOM      4  C5  UNL d   1      -0.755   0.386   0.694  0.00  0.00    -0.080 A 
ATOM      5  C6  UNL d   1      -0.245   1.609   1.398  0.00  0.00     0.076 C 
ATOM      6  C7  UNL d   1      -0.029  -0.808   0.756  0.00  0.00     0.002 A 
ATOM      7  C8  UNL d   1      -0.480  -1.946   0.082  0.00  0.00     0.006 A 
ENDROOT
BRANCH   1   8
ATOM      8  C1  UNL d   1      -2.115  -3.119  -1.438  0.00  0.00     0.054 C 
ATOM      9  C   UNL d   1      -1.116  -3.478  -2.529  0.00  0.00     0.018 C 
ENDBRANCH   1   8
TORSDOF 1
ENDMDL
