MODEL 1
REMARK minimizedAffinity -3.37313032
REMARK minimizedRMSD -1
REMARK  1 active torsions:
REMARK  status: ('A' for Active; 'I' for Inactive)
REMARK    1  A    between atoms: C1_2  and  C2_3 
ROOT
ATOM      1  C2  UNL d   1       1.643   4.620  -5.993  0.00  0.00    -0.081 A 
ATOM      2  C3  UNL d   1       2.412   3.449  -6.000  0.00  0.00     0.006 A 
ATOM      3  C4  UNL d   1       3.807   3.518  -6.000  0.00  0.00     0.002 A 
ATOM      4  C5  UNL d   1       4.457   4.757  -5.986  0.00  0.00    -0.080 A 
ATOM      5  C6  UNL d   1       5.954   4.845  -5.955  0.00  0.00     0.076 C 
ATOM      6  C7  UNL d   1       3.689   5.926  -5.997  0.00  0.00     0.002 A 
ATOM      7  C8  UNL d   1       2.294   5.858  -5.997  0.00  0.00     0.006 A 
ENDROOT
BRANCH   1   8
ATOM      8  C1  UNL d   1       0.139   4.548  -5.927  0.00  0.00     0.054 C 
ATOM      9  C   UNL d   1      -0.465   5.907  -5.604  0.00  0.00     0.018 C 
ENDBRANCH   1   8
TORSDOF 1
ENDMDL
