MODEL 1
REMARK minimizedAffinity 0.657684743
REMARK minimizedRMSD -1
REMARK  1 active torsions:
REMARK  status: ('A' for Active; 'I' for Inactive)
REMARK    1  A    between atoms: C1_2  and  C2_3 
ROOT
ATOM      1  C2  UNL d   1      -0.221   3.154  -5.920  0.00  0.00    -0.081 A 
ATOM      2  C3  UNL d   1      -1.548   2.713  -5.844  0.00  0.00     0.006 A 
ATOM      3  C4  UNL d   1      -2.601   3.631  -5.850  0.00  0.00     0.002 A 
ATOM      4  C5  UNL d   1      -2.345   5.004  -5.940  0.00  0.00    -0.080 A 
ATOM      5  C6  UNL d   1      -3.467   5.998  -5.978  0.00  0.00     0.076 C 
ATOM      6  C7  UNL d   1      -1.018   5.445  -5.998  0.00  0.00     0.002 A 
ATOM      7  C8  UNL d   1       0.034   4.527  -5.991  0.00  0.00     0.006 A 
ENDROOT
BRANCH   1   8
ATOM      8  C1  UNL d   1       0.914   2.163  -5.978  0.00  0.00     0.054 C 
ATOM      9  C   UNL d   1       2.263   2.867  -5.999  0.00  0.00     0.018 C 
ENDBRANCH   1   8
TORSDOF 1
ENDMDL
