MODEL 1
REMARK minimizedAffinity 6.90126562
REMARK minimizedRMSD -1
REMARK  1 active torsions:
REMARK  status: ('A' for Active; 'I' for Inactive)
REMARK    1  A    between atoms: C1_2  and  C2_3 
ROOT
ATOM      1  C2  UNL d   1      -2.542  -4.054  -1.087  0.00  0.00    -0.081 A 
ATOM      2  C3  UNL d   1      -1.828  -4.987  -1.848  0.00  0.00     0.006 A 
ATOM      3  C4  UNL d   1      -0.696  -4.597  -2.568  0.00  0.00     0.002 A 
ATOM      4  C5  UNL d   1      -0.255  -3.269  -2.532  0.00  0.00    -0.080 A 
ATOM      5  C6  UNL d   1       0.975  -2.843  -3.276  0.00  0.00     0.076 C 
ATOM      6  C7  UNL d   1      -0.979  -2.333  -1.786  0.00  0.00     0.002 A 
ATOM      7  C8  UNL d   1      -2.111  -2.723  -1.067  0.00  0.00     0.006 A 
ENDROOT
BRANCH   1   8
ATOM      8  C1  UNL d   1      -3.725  -4.485  -0.259  0.00  0.00     0.054 C 
ATOM      9  C   UNL d   1      -3.747  -5.995  -0.069  0.00  0.00     0.018 C 
ENDBRANCH   1   8
TORSDOF 1
ENDMDL
