MODEL 1
REMARK minimizedAffinity 0.77967459
REMARK minimizedRMSD -1
REMARK  1 active torsions:
REMARK  status: ('A' for Active; 'I' for Inactive)
REMARK    1  A    between atoms: C1_2  and  C2_3 
ROOT
ATOM      1  C2  UNL d   1      -2.631   4.077  -4.064  0.00  0.00    -0.081 A 
ATOM      2  C3  UNL d   1      -1.423   4.216  -3.372  0.00  0.00     0.006 A 
ATOM      3  C4  UNL d   1      -0.211   3.899  -3.990  0.00  0.00     0.002 A 
ATOM      4  C5  UNL d   1      -0.187   3.445  -5.314  0.00  0.00    -0.080 A 
ATOM      5  C6  UNL d   1       1.109   3.130  -6.000  0.00  0.00     0.076 C 
ATOM      6  C7  UNL d   1      -1.396   3.289  -6.000  0.00  0.00     0.002 A 
ATOM      7  C8  UNL d   1      -2.608   3.605  -5.382  0.00  0.00     0.006 A 
ENDROOT
BRANCH   1   8
ATOM      8  C1  UNL d   1      -3.934   4.480  -3.421  0.00  0.00     0.054 C 
ATOM      9  C   UNL d   1      -4.055   5.993  -3.318  0.00  0.00     0.018 C 
ENDBRANCH   1   8
TORSDOF 1
ENDMDL
