MODEL 1
REMARK minimizedAffinity -1.44072723
REMARK minimizedRMSD -1
REMARK  1 active torsions:
REMARK  status: ('A' for Active; 'I' for Inactive)
REMARK    1  A    between atoms: C1_2  and  C2_3 
ROOT
ATOM      1  C2  UNL d   1      -0.111   3.289  -5.919  0.00  0.00    -0.081 A 
ATOM      2  C3  UNL d   1      -1.400   2.740  -5.911  0.00  0.00     0.006 A 
ATOM      3  C4  UNL d   1      -2.523   3.570  -5.924  0.00  0.00     0.002 A 
ATOM      4  C5  UNL d   1      -2.378   4.961  -5.954  0.00  0.00    -0.080 A 
ATOM      5  C6  UNL d   1      -3.575   5.862  -6.000  0.00  0.00     0.076 C 
ATOM      6  C7  UNL d   1      -1.091   5.510  -5.945  0.00  0.00     0.002 A 
ATOM      7  C8  UNL d   1       0.033   4.680  -5.931  0.00  0.00     0.006 A 
ENDROOT
BRANCH   1   8
ATOM      8  C1  UNL d   1       1.102   2.396  -5.970  0.00  0.00     0.054 C 
ATOM      9  C   UNL d   1       1.946   2.537  -4.711  0.00  0.00     0.018 C 
ENDBRANCH   1   8
TORSDOF 1
ENDMDL
