MODEL 1
REMARK minimizedAffinity 8.37149525
REMARK minimizedRMSD -1
REMARK  1 active torsions:
REMARK  status: ('A' for Active; 'I' for Inactive)
REMARK    1  A    between atoms: C1_2  and  C2_3 
ROOT
ATOM      1  C2  UNL d   1       3.608   3.710  -0.848  0.00  0.00    -0.081 A 
ATOM      2  C3  UNL d   1       2.236   3.437  -0.911  0.00  0.00     0.006 A 
ATOM      3  C4  UNL d   1       1.760   2.372  -1.681  0.00  0.00     0.002 A 
ATOM      4  C5  UNL d   1       2.648   1.559  -2.393  0.00  0.00    -0.080 A 
ATOM      5  C6  UNL d   1       2.153   0.394  -3.198  0.00  0.00     0.076 C 
ATOM      6  C7  UNL d   1       4.017   1.842  -2.344  0.00  0.00     0.002 A 
ATOM      7  C8  UNL d   1       4.493   2.907  -1.576  0.00  0.00     0.006 A 
ENDROOT
BRANCH   1   8
ATOM      8  C1  UNL d   1       4.129   4.817   0.032  0.00  0.00     0.054 C 
ATOM      9  C   UNL d   1       4.563   4.286   1.390  0.00  0.00     0.018 C 
ENDBRANCH   1   8
TORSDOF 1
ENDMDL
