MODEL 1
REMARK minimizedAffinity 6.61726189
REMARK minimizedRMSD -1
REMARK  1 active torsions:
REMARK  status: ('A' for Active; 'I' for Inactive)
REMARK    1  A    between atoms: C1_2  and  C2_3 
ROOT
ATOM      1  C2  UNL d   1       1.888   2.906   1.595  0.00  0.00    -0.081 A 
ATOM      2  C3  UNL d   1       1.071   2.623   0.494  0.00  0.00     0.006 A 
ATOM      3  C4  UNL d   1      -0.273   2.289   0.676  0.00  0.00     0.002 A 
ATOM      4  C5  UNL d   1      -0.825   2.240   1.961  0.00  0.00    -0.080 A 
ATOM      5  C6  UNL d   1      -2.273   1.912   2.169  0.00  0.00     0.076 C 
ATOM      6  C7  UNL d   1      -0.004   2.505   3.063  0.00  0.00     0.002 A 
ATOM      7  C8  UNL d   1       1.340   2.838   2.881  0.00  0.00     0.006 A 
ENDROOT
BRANCH   1   8
ATOM      8  C1  UNL d   1       3.321   3.330   1.398  0.00  0.00     0.054 C 
ATOM      9  C   UNL d   1       4.064   3.401   2.724  0.00  0.00     0.018 C 
ENDBRANCH   1   8
TORSDOF 1
ENDMDL
