MODEL 1
REMARK minimizedAffinity -1.71383214
REMARK minimizedRMSD -1
REMARK  0 active torsions:
REMARK  status: ('A' for Active; 'I' for Inactive)
ROOT
ATOM      1  C   UNL d   1      -0.745   6.000  -2.543  0.00  0.00     0.172 C 
ATOM      2  N   UNL d   1      -0.364   4.982  -1.592  0.00  0.00    -0.070 N 
ATOM      3  C1  UNL d   1       0.712   5.041  -0.747  0.00  0.00    -0.004 A 
ATOM      4  C2  UNL d   1       0.729   3.880  -0.004  0.00  0.00    -0.047 A 
ATOM      5  C3  UNL d   1      -0.373   3.096  -0.418  0.00  0.00    -0.047 A 
ATOM      6  C4  UNL d   1      -1.033   3.801  -1.402  0.00  0.00    -0.004 A 
ENDROOT
TORSDOF 0
ENDMDL
