MODEL 1
REMARK minimizedAffinity 3.5208056
REMARK minimizedRMSD -1
REMARK  0 active torsions:
REMARK  status: ('A' for Active; 'I' for Inactive)
ROOT
ATOM      1  C   UNL d   1      -0.471   2.969   0.946  0.00  0.00     0.172 C 
ATOM      2  N   UNL d   1      -0.515   3.761  -0.261  0.00  0.00    -0.070 N 
ATOM      3  C1  UNL d   1      -1.502   4.648  -0.599  0.00  0.00    -0.004 A 
ATOM      4  C2  UNL d   1      -1.176   5.197  -1.820  0.00  0.00    -0.047 A 
ATOM      5  C3  UNL d   1       0.050   4.621  -2.230  0.00  0.00    -0.047 A 
ATOM      6  C4  UNL d   1       0.436   3.735  -1.246  0.00  0.00    -0.004 A 
ENDROOT
TORSDOF 0
ENDMDL
