MODEL 1
REMARK minimizedAffinity 1.20054531
REMARK minimizedRMSD -1
REMARK  0 active torsions:
REMARK  status: ('A' for Active; 'I' for Inactive)
ROOT
ATOM      1  C   UNL d   1       0.085   5.357  -2.935  0.00  0.00     0.172 C 
ATOM      2  N   UNL d   1       0.099   4.477  -1.791  0.00  0.00    -0.070 N 
ATOM      3  C1  UNL d   1      -0.593   3.300  -1.680  0.00  0.00    -0.004 A 
ATOM      4  C2  UNL d   1      -0.315   2.761  -0.443  0.00  0.00    -0.047 A 
ATOM      5  C3  UNL d   1       0.574   3.645   0.213  0.00  0.00    -0.047 A 
ATOM      6  C4  UNL d   1       0.814   4.698  -0.644  0.00  0.00    -0.004 A 
ENDROOT
TORSDOF 0
ENDMDL
