MODEL 1
REMARK minimizedAffinity 4.77018261
REMARK minimizedRMSD -1
REMARK  0 active torsions:
REMARK  status: ('A' for Active; 'I' for Inactive)
ROOT
ATOM      1  C   UNL d   1       2.941  -1.989   0.026  0.00  0.00     0.172 C 
ATOM      2  N   UNL d   1       4.004  -2.867  -0.401  0.00  0.00    -0.070 N 
ATOM      3  C1  UNL d   1       5.138  -2.484  -1.067  0.00  0.00    -0.004 A 
ATOM      4  C2  UNL d   1       5.897  -3.611  -1.291  0.00  0.00    -0.047 A 
ATOM      5  C3  UNL d   1       5.196  -4.711  -0.742  0.00  0.00    -0.047 A 
ATOM      6  C4  UNL d   1       4.027  -4.222  -0.197  0.00  0.00    -0.004 A 
ENDROOT
TORSDOF 0
ENDMDL
