MODEL 1
REMARK minimizedAffinity 0.434302539
REMARK minimizedRMSD -1
REMARK  0 active torsions:
REMARK  status: ('A' for Active; 'I' for Inactive)
ROOT
ATOM      1  C   UNL d   1       0.070   3.015   0.037  0.00  0.00     0.172 C 
ATOM      2  N   UNL d   1      -0.444   4.053  -0.825  0.00  0.00    -0.070 N 
ATOM      3  C1  UNL d   1      -0.268   4.124  -2.181  0.00  0.00    -0.004 A 
ATOM      4  C2  UNL d   1      -0.910   5.258  -2.631  0.00  0.00    -0.047 A 
ATOM      5  C3  UNL d   1      -1.491   5.891  -1.506  0.00  0.00    -0.047 A 
ATOM      6  C4  UNL d   1      -1.187   5.124  -0.401  0.00  0.00    -0.004 A 
ENDROOT
TORSDOF 0
ENDMDL
