MODEL 1
REMARK minimizedAffinity 1.56981695
REMARK minimizedRMSD -1
REMARK  0 active torsions:
REMARK  status: ('A' for Active; 'I' for Inactive)
ROOT
ATOM      1  C   UNL d   1      -5.982   0.680  -5.468  0.00  0.00     0.172 C 
ATOM      2  N   UNL d   1      -5.986   1.551  -4.316  0.00  0.00    -0.070 N 
ATOM      3  C1  UNL d   1      -5.980   2.920  -4.350  0.00  0.00    -0.004 A 
ATOM      4  C2  UNL d   1      -5.987   3.375  -3.050  0.00  0.00    -0.047 A 
ATOM      5  C3  UNL d   1      -5.997   2.240  -2.204  0.00  0.00    -0.047 A 
ATOM      6  C4  UNL d   1      -5.996   1.124  -3.014  0.00  0.00    -0.004 A 
ENDROOT
TORSDOF 0
ENDMDL
