MODEL 1
REMARK minimizedAffinity 7.43631649
REMARK minimizedRMSD -1
REMARK  0 active torsions:
REMARK  status: ('A' for Active; 'I' for Inactive)
ROOT
ATOM      1  C   UNL d   1      -1.902  -4.763  -2.687  0.00  0.00     0.172 C 
ATOM      2  N   UNL d   1      -0.861  -4.310  -1.794  0.00  0.00    -0.070 N 
ATOM      3  C1  UNL d   1       0.001  -5.117  -1.100  0.00  0.00    -0.004 A 
ATOM      4  C2  UNL d   1       0.838  -4.305  -0.365  0.00  0.00    -0.047 A 
ATOM      5  C3  UNL d   1       0.466  -2.965  -0.626  0.00  0.00    -0.047 A 
ATOM      6  C4  UNL d   1      -0.589  -2.997  -1.514  0.00  0.00    -0.004 A 
ENDROOT
TORSDOF 0
ENDMDL
