MODEL 1
REMARK minimizedAffinity -2.44410276
REMARK minimizedRMSD -1
REMARK  0 active torsions:
REMARK  status: ('A' for Active; 'I' for Inactive)
ROOT
ATOM      1  C   UNL d   1      -1.051   0.528  -1.080  0.00  0.00     0.172 C 
ATOM      2  N   UNL d   1      -0.548   1.878  -0.979  0.00  0.00    -0.070 N 
ATOM      3  C1  UNL d   1      -0.033   2.456   0.150  0.00  0.00    -0.004 A 
ATOM      4  C2  UNL d   1       0.334   3.746  -0.167  0.00  0.00    -0.047 A 
ATOM      5  C3  UNL d   1       0.028   3.951  -1.533  0.00  0.00    -0.047 A 
ATOM      6  C4  UNL d   1      -0.517   2.778  -2.012  0.00  0.00    -0.004 A 
ENDROOT
TORSDOF 0
ENDMDL
