MODEL 1
REMARK minimizedAffinity -0.16641286
REMARK minimizedRMSD -1
REMARK  0 active torsions:
REMARK  status: ('A' for Active; 'I' for Inactive)
ROOT
ATOM      1  C   UNL d   1      -1.483  -0.309   2.665  0.00  0.00     0.020 A 
ATOM      2  C1  UNL d   1      -0.694  -1.339   3.176  0.00  0.00     0.020 A 
ATOM      3  C2  UNL d   1       0.695  -1.286   3.042  0.00  0.00     0.034 A 
ATOM      4  C3  UNL d   1       1.299  -0.201   2.397  0.00  0.00     0.017 A 
ATOM      5  C4  UNL d   1       0.506   0.833   1.885  0.00  0.00     0.017 A 
ATOM      6  C5  UNL d   1      -0.884   0.775   2.021  0.00  0.00     0.034 A 
ATOM      7 Cl   UNL d   1       1.180   2.204   1.076  0.00  0.00    -0.070 Cl
ATOM      8 Cl1  UNL d   1       3.022  -0.201   2.268  0.00  0.00    -0.070 Cl
ENDROOT
TORSDOF 0
ENDMDL
