MODEL 1
REMARK minimizedAffinity 4.62310076
REMARK minimizedRMSD -1
REMARK  0 active torsions:
REMARK  status: ('A' for Active; 'I' for Inactive)
ROOT
ATOM      1  C   UNL d   1       0.893   0.519  -2.348  0.00  0.00     0.020 A 
ATOM      2  C1  UNL d   1       0.212   1.557  -1.713  0.00  0.00     0.020 A 
ATOM      3  C2  UNL d   1      -0.684   1.276  -0.680  0.00  0.00     0.034 A 
ATOM      4  C3  UNL d   1      -0.903  -0.047  -0.279  0.00  0.00     0.017 A 
ATOM      5  C4  UNL d   1      -0.219  -1.089  -0.917  0.00  0.00     0.017 A 
ATOM      6  C5  UNL d   1       0.677  -0.801  -1.951  0.00  0.00     0.034 A 
ATOM      7 Cl   UNL d   1      -0.437  -2.746  -0.478  0.00  0.00    -0.070 Cl
ATOM      8 Cl1  UNL d   1      -2.025  -0.322   1.006  0.00  0.00    -0.070 Cl
ENDROOT
TORSDOF 0
ENDMDL
