MODEL 1
REMARK minimizedAffinity 1.67337966
REMARK minimizedRMSD -1
REMARK  0 active torsions:
REMARK  status: ('A' for Active; 'I' for Inactive)
ROOT
ATOM      1  C   UNL d   1       0.307  -0.035   3.167  0.00  0.00     0.020 A 
ATOM      2  C1  UNL d   1       1.203   0.066   2.103  0.00  0.00     0.020 A 
ATOM      3  C2  UNL d   1       0.734   0.359   0.821  0.00  0.00     0.034 A 
ATOM      4  C3  UNL d   1      -0.635   0.554   0.599  0.00  0.00     0.017 A 
ATOM      5  C4  UNL d   1      -1.533   0.453   1.668  0.00  0.00     0.017 A 
ATOM      6  C5  UNL d   1      -1.058   0.158   2.950  0.00  0.00     0.034 A 
ATOM      7 Cl   UNL d   1      -3.235   0.679   1.472  0.00  0.00    -0.070 Cl
ATOM      8 Cl1  UNL d   1      -1.144   0.914  -1.012  0.00  0.00    -0.070 Cl
ENDROOT
TORSDOF 0
ENDMDL
