MODEL 1
REMARK minimizedAffinity 8.47467613
REMARK minimizedRMSD -1
REMARK  0 active torsions:
REMARK  status: ('A' for Active; 'I' for Inactive)
ROOT
ATOM      1  C   UNL d   1      -3.085  -0.307   2.687  0.00  0.00     0.020 A 
ATOM      2  C1  UNL d   1      -3.621  -0.135   1.411  0.00  0.00     0.020 A 
ATOM      3  C2  UNL d   1      -2.826   0.375   0.383  0.00  0.00     0.034 A 
ATOM      4  C3  UNL d   1      -1.491   0.716   0.628  0.00  0.00     0.017 A 
ATOM      5  C4  UNL d   1      -0.954   0.544   1.909  0.00  0.00     0.017 A 
ATOM      6  C5  UNL d   1      -1.754   0.032   2.935  0.00  0.00     0.034 A 
ATOM      7 Cl   UNL d   1       0.685   0.942   2.288  0.00  0.00    -0.070 Cl
ATOM      8 Cl1  UNL d   1      -0.566   1.342  -0.690  0.00  0.00    -0.070 Cl
ENDROOT
TORSDOF 0
ENDMDL
