MODEL 1
REMARK minimizedAffinity -4.40311956
REMARK minimizedRMSD -1
REMARK  0 active torsions:
REMARK  status: ('A' for Active; 'I' for Inactive)
ROOT
ATOM      1  C   UNL d   1      -1.620  -1.013   5.010  0.00  0.00     0.020 A 
ATOM      2  C1  UNL d   1      -2.801  -0.883   4.280  0.00  0.00     0.020 A 
ATOM      3  C2  UNL d   1      -2.753  -0.502   2.937  0.00  0.00     0.034 A 
ATOM      4  C3  UNL d   1      -1.522  -0.249   2.321  0.00  0.00     0.017 A 
ATOM      5  C4  UNL d   1      -0.338  -0.380   3.055  0.00  0.00     0.017 A 
ATOM      6  C5  UNL d   1      -0.391  -0.762   4.399  0.00  0.00     0.034 A 
ATOM      7 Cl   UNL d   1       1.219  -0.086   2.363  0.00  0.00    -0.070 Cl
ATOM      8 Cl1  UNL d   1      -1.537   0.218   0.657  0.00  0.00    -0.070 Cl
ENDROOT
TORSDOF 0
ENDMDL
