MODEL 1
REMARK minimizedAffinity -1.83529592
REMARK minimizedRMSD -1
REMARK  0 active torsions:
REMARK  status: ('A' for Active; 'I' for Inactive)
ROOT
ATOM      1  C   UNL d   1      -3.448   0.478   0.578  0.00  0.00     0.020 A 
ATOM      2  C1  UNL d   1      -2.094   0.680   0.314  0.00  0.00     0.020 A 
ATOM      3  C2  UNL d   1      -1.136   0.305   1.258  0.00  0.00     0.034 A 
ATOM      4  C3  UNL d   1      -1.530  -0.274   2.470  0.00  0.00     0.017 A 
ATOM      5  C4  UNL d   1      -2.890  -0.476   2.733  0.00  0.00     0.017 A 
ATOM      6  C5  UNL d   1      -3.845  -0.099   1.784  0.00  0.00     0.034 A 
ATOM      7 Cl   UNL d   1      -3.454  -1.185   4.205  0.00  0.00    -0.070 Cl
ATOM      8 Cl1  UNL d   1      -0.292  -0.715   3.591  0.00  0.00    -0.070 Cl
ENDROOT
TORSDOF 0
ENDMDL
