MODEL 1
REMARK minimizedAffinity 2.27510405
REMARK minimizedRMSD -1
REMARK  0 active torsions:
REMARK  status: ('A' for Active; 'I' for Inactive)
ROOT
ATOM      1  C   UNL d   1      -3.345   0.356   2.253  0.00  0.00     0.020 A 
ATOM      2  C1  UNL d   1      -2.569   0.166   3.396  0.00  0.00     0.020 A 
ATOM      3  C2  UNL d   1      -1.182   0.048   3.287  0.00  0.00     0.034 A 
ATOM      4  C3  UNL d   1      -0.566   0.120   2.032  0.00  0.00     0.017 A 
ATOM      5  C4  UNL d   1      -1.345   0.311   0.885  0.00  0.00     0.017 A 
ATOM      6  C5  UNL d   1      -2.734   0.428   1.000  0.00  0.00     0.034 A 
ATOM      7 Cl   UNL d   1      -0.657   0.410  -0.697  0.00  0.00    -0.070 Cl
ATOM      8 Cl1  UNL d   1       1.154  -0.033   1.972  0.00  0.00    -0.070 Cl
ENDROOT
TORSDOF 0
ENDMDL
