MODEL 1
REMARK minimizedAffinity 6.25365114
REMARK minimizedRMSD -1
REMARK  0 active torsions:
REMARK  status: ('A' for Active; 'I' for Inactive)
ROOT
ATOM      1  C   UNL d   1       0.166   1.383   3.756  0.00  0.00     0.020 A 
ATOM      2  C1  UNL d   1       0.124   0.188   3.040  0.00  0.00     0.020 A 
ATOM      3  C2  UNL d   1      -1.006  -0.135   2.286  0.00  0.00     0.034 A 
ATOM      4  C3  UNL d   1      -2.098   0.739   2.246  0.00  0.00     0.017 A 
ATOM      5  C4  UNL d   1      -2.055   1.939   2.964  0.00  0.00     0.017 A 
ATOM      6  C5  UNL d   1      -0.921   2.257   3.718  0.00  0.00     0.034 A 
ATOM      7 Cl   UNL d   1      -3.364   3.067   2.964  0.00  0.00    -0.070 Cl
ATOM      8 Cl1  UNL d   1      -3.463   0.275   1.292  0.00  0.00    -0.070 Cl
ENDROOT
TORSDOF 0
ENDMDL
