MODEL 1
REMARK minimizedAffinity 8.44503593
REMARK minimizedRMSD -1
REMARK  0 active torsions:
REMARK  status: ('A' for Active; 'I' for Inactive)
ROOT
ATOM      1  C   UNL d   1       5.901   0.472   3.707  0.00  0.00     0.020 A 
ATOM      2  C1  UNL d   1       5.577   0.074   2.411  0.00  0.00     0.020 A 
ATOM      3  C2  UNL d   1       5.335  -1.273   2.135  0.00  0.00     0.034 A 
ATOM      4  C3  UNL d   1       5.418  -2.227   3.156  0.00  0.00     0.017 A 
ATOM      5  C4  UNL d   1       5.743  -1.826   4.456  0.00  0.00     0.017 A 
ATOM      6  C5  UNL d   1       5.984  -0.476   4.728  0.00  0.00     0.034 A 
ATOM      7 Cl   UNL d   1       5.864  -2.945   5.768  0.00  0.00    -0.070 Cl
ATOM      8 Cl1  UNL d   1       5.106  -3.876   2.742  0.00  0.00    -0.070 Cl
ENDROOT
TORSDOF 0
ENDMDL
