MODEL 1
REMARK minimizedAffinity 6.15996599
REMARK minimizedRMSD -1
REMARK  0 active torsions:
REMARK  status: ('A' for Active; 'I' for Inactive)
ROOT
ATOM      1  C   UNL d   1      -3.688   1.176   2.491  0.00  0.00     0.020 A 
ATOM      2  C1  UNL d   1      -4.014   0.906   1.163  0.00  0.00     0.020 A 
ATOM      3  C2  UNL d   1      -3.059   0.350   0.309  0.00  0.00     0.034 A 
ATOM      4  C3  UNL d   1      -1.774   0.062   0.783  0.00  0.00     0.017 A 
ATOM      5  C4  UNL d   1      -1.448   0.333   2.117  0.00  0.00     0.017 A 
ATOM      6  C5  UNL d   1      -2.408   0.890   2.967  0.00  0.00     0.034 A 
ATOM      7 Cl   UNL d   1       0.116   0.005   2.775  0.00  0.00    -0.070 Cl
ATOM      8 Cl1  UNL d   1      -0.643  -0.626  -0.328  0.00  0.00    -0.070 Cl
ENDROOT
TORSDOF 0
ENDMDL
