MODEL 1
REMARK minimizedAffinity 4.90005875
REMARK minimizedRMSD -1
REMARK  0 active torsions:
REMARK  status: ('A' for Active; 'I' for Inactive)
ROOT
ATOM      1  C   UNL d   1      -0.722  -0.593  -1.785  0.00  0.00     0.020 A 
ATOM      2  C1  UNL d   1      -0.431  -1.956  -1.783  0.00  0.00     0.020 A 
ATOM      3  C2  UNL d   1      -1.136  -2.820  -0.942  0.00  0.00     0.034 A 
ATOM      4  C3  UNL d   1      -2.136  -2.321  -0.100  0.00  0.00     0.017 A 
ATOM      5  C4  UNL d   1      -2.428  -0.953  -0.102  0.00  0.00     0.017 A 
ATOM      6  C5  UNL d   1      -1.719  -0.092  -0.946  0.00  0.00     0.034 A 
ATOM      7 Cl   UNL d   1      -3.648  -0.263   0.910  0.00  0.00    -0.070 Cl
ATOM      8 Cl1  UNL d   1      -2.968  -3.447   0.914  0.00  0.00    -0.070 Cl
ENDROOT
TORSDOF 0
ENDMDL
