MODEL 1
REMARK minimizedAffinity 5.7264595
REMARK minimizedRMSD -1
REMARK  0 active torsions:
REMARK  status: ('A' for Active; 'I' for Inactive)
ROOT
ATOM      1  C   UNL d   1      -2.669  -0.559  -1.217  0.00  0.00     0.020 A 
ATOM      2  C1  UNL d   1      -1.343  -0.947  -1.025  0.00  0.00     0.020 A 
ATOM      3  C2  UNL d   1      -0.737  -0.770   0.221  0.00  0.00     0.034 A 
ATOM      4  C3  UNL d   1      -1.457  -0.204   1.280  0.00  0.00     0.017 A 
ATOM      5  C4  UNL d   1      -2.787   0.185   1.086  0.00  0.00     0.017 A 
ATOM      6  C5  UNL d   1      -3.389   0.006  -0.163  0.00  0.00     0.034 A 
ATOM      7 Cl   UNL d   1      -3.739   0.891   2.344  0.00  0.00    -0.070 Cl
ATOM      8 Cl1  UNL d   1      -0.645  -0.016   2.793  0.00  0.00    -0.070 Cl
ENDROOT
TORSDOF 0
ENDMDL
