MODEL 1
REMARK minimizedAffinity 7.70593548
REMARK minimizedRMSD -1
REMARK  0 active torsions:
REMARK  status: ('A' for Active; 'I' for Inactive)
ROOT
ATOM      1  C   UNL d   1       1.525   4.219  -3.463  0.00  0.00     0.020 A 
ATOM      2  C1  UNL d   1       2.375   5.096  -4.136  0.00  0.00     0.020 A 
ATOM      3  C2  UNL d   1       3.692   4.721  -4.409  0.00  0.00     0.034 A 
ATOM      4  C3  UNL d   1       4.164   3.466  -4.007  0.00  0.00     0.017 A 
ATOM      5  C4  UNL d   1       3.311   2.586  -3.331  0.00  0.00     0.017 A 
ATOM      6  C5  UNL d   1       1.993   2.967  -3.061  0.00  0.00     0.034 A 
ATOM      7 Cl   UNL d   1       3.821   1.021  -2.805  0.00  0.00    -0.070 Cl
ATOM      8 Cl1  UNL d   1       5.804   3.069  -4.378  0.00  0.00    -0.070 Cl
ENDROOT
TORSDOF 0
ENDMDL
