MODEL 1
REMARK minimizedAffinity 3.84231067
REMARK minimizedRMSD -1
REMARK  0 active torsions:
REMARK  status: ('A' for Active; 'I' for Inactive)
ROOT
ATOM      1  C   UNL d   1      -2.461  -0.822  -0.692  0.00  0.00     0.020 A 
ATOM      2  C1  UNL d   1      -3.566   0.012  -0.859  0.00  0.00     0.020 A 
ATOM      3  C2  UNL d   1      -3.829   1.017   0.074  0.00  0.00     0.034 A 
ATOM      4  C3  UNL d   1      -2.987   1.192   1.177  0.00  0.00     0.017 A 
ATOM      5  C4  UNL d   1      -1.878   0.355   1.344  0.00  0.00     0.017 A 
ATOM      6  C5  UNL d   1      -1.618  -0.650   0.407  0.00  0.00     0.034 A 
ATOM      7 Cl   UNL d   1      -0.792   0.510   2.681  0.00  0.00    -0.070 Cl
ATOM      8 Cl1  UNL d   1      -3.373   2.456   2.291  0.00  0.00    -0.070 Cl
ENDROOT
TORSDOF 0
ENDMDL
