MODEL 1
REMARK minimizedAffinity 16.3297825
REMARK minimizedRMSD -1
REMARK  0 active torsions:
REMARK  status: ('A' for Active; 'I' for Inactive)
ROOT
ATOM      1  C   UNL d   1       1.016   2.084  -0.398  0.00  0.00     0.020 A 
ATOM      2  C1  UNL d   1       1.523   2.398   0.862  0.00  0.00     0.020 A 
ATOM      3  C2  UNL d   1       0.946   1.841   2.006  0.00  0.00     0.034 A 
ATOM      4  C3  UNL d   1      -0.142   0.969   1.891  0.00  0.00     0.017 A 
ATOM      5  C4  UNL d   1      -0.651   0.654   0.626  0.00  0.00     0.017 A 
ATOM      6  C5  UNL d   1      -0.069   1.214  -0.516  0.00  0.00     0.034 A 
ATOM      7 Cl   UNL d   1      -1.991  -0.414   0.404  0.00  0.00    -0.070 Cl
ATOM      8 Cl1  UNL d   1      -0.806   0.317   3.347  0.00  0.00    -0.070 Cl
ENDROOT
TORSDOF 0
ENDMDL
