MODEL 1
REMARK minimizedAffinity 8.24799728
REMARK minimizedRMSD -1
REMARK  0 active torsions:
REMARK  status: ('A' for Active; 'I' for Inactive)
ROOT
ATOM      1  C   UNL d   1      -1.042  -2.304  -2.032  0.00  0.00     0.020 A 
ATOM      2  C1  UNL d   1      -1.083  -0.913  -2.126  0.00  0.00     0.020 A 
ATOM      3  C2  UNL d   1      -2.030  -0.192  -1.396  0.00  0.00     0.034 A 
ATOM      4  C3  UNL d   1      -2.941  -0.860  -0.570  0.00  0.00     0.017 A 
ATOM      5  C4  UNL d   1      -2.900  -2.256  -0.477  0.00  0.00     0.017 A 
ATOM      6  C5  UNL d   1      -1.949  -2.974  -1.210  0.00  0.00     0.034 A 
ATOM      7 Cl   UNL d   1      -3.990  -3.152   0.521  0.00  0.00    -0.070 Cl
ATOM      8 Cl1  UNL d   1      -4.085   0.095   0.304  0.00  0.00    -0.070 Cl
ENDROOT
TORSDOF 0
ENDMDL
