MODEL 1
REMARK minimizedAffinity 6.35984087
REMARK minimizedRMSD -1
REMARK  0 active torsions:
REMARK  status: ('A' for Active; 'I' for Inactive)
ROOT
ATOM      1  C   UNL d   1      -0.552  -2.468  -2.232  0.00  0.00     0.020 A 
ATOM      2  C1  UNL d   1      -0.788  -1.095  -2.297  0.00  0.00     0.020 A 
ATOM      3  C2  UNL d   1      -1.715  -0.505  -1.435  0.00  0.00     0.034 A 
ATOM      4  C3  UNL d   1      -2.410  -1.287  -0.505  0.00  0.00     0.017 A 
ATOM      5  C4  UNL d   1      -2.172  -2.665  -0.441  0.00  0.00     0.017 A 
ATOM      6  C5  UNL d   1      -1.242  -3.251  -1.305  0.00  0.00     0.034 A 
ATOM      7 Cl   UNL d   1      -2.990  -3.695   0.681  0.00  0.00    -0.070 Cl
ATOM      8 Cl1  UNL d   1      -3.541  -0.490   0.529  0.00  0.00    -0.070 Cl
ENDROOT
TORSDOF 0
ENDMDL
