MODEL 1
REMARK minimizedAffinity 2.44710279
REMARK minimizedRMSD -1
REMARK  0 active torsions:
REMARK  status: ('A' for Active; 'I' for Inactive)
ROOT
ATOM      1  C   UNL d   1       1.078   4.629  -3.746  0.00  0.00     0.020 A 
ATOM      2  C1  UNL d   1       1.920   5.446  -4.499  0.00  0.00     0.020 A 
ATOM      3  C2  UNL d   1       3.001   4.890  -5.187  0.00  0.00     0.034 A 
ATOM      4  C3  UNL d   1       3.242   3.512  -5.124  0.00  0.00     0.017 A 
ATOM      5  C4  UNL d   1       2.396   2.693  -4.367  0.00  0.00     0.017 A 
ATOM      6  C5  UNL d   1       1.316   3.255  -3.680  0.00  0.00     0.034 A 
ATOM      7 Cl   UNL d   1       2.630   0.985  -4.241  0.00  0.00    -0.070 Cl
ATOM      8 Cl1  UNL d   1       4.596   2.893  -6.000  0.00  0.00    -0.070 Cl
ENDROOT
TORSDOF 0
ENDMDL
