MODEL 1
REMARK minimizedAffinity 9.90709209
REMARK minimizedRMSD -1
REMARK  1 active torsions:
REMARK  status: ('A' for Active; 'I' for Inactive)
REMARK    1  A    between atoms: C1_2  and  C2_3 
ROOT
ATOM      1  C2  UNL d   1       1.347   0.460   1.312  0.00  0.00    -0.076 A 
ATOM      2  C3  UNL d   1       1.035   1.381   0.298  0.00  0.00     0.004 A 
ATOM      3  C4  UNL d   1      -0.174   2.075   0.306  0.00  0.00    -0.003 A 
ATOM      4  C5  UNL d   1      -1.090   1.858   1.329  0.00  0.00     0.000 A 
ATOM      5  C6  UNL d   1      -0.789   0.961   2.353  0.00  0.00     0.000 A 
ATOM      6  C7  UNL d   1       0.432   0.266   2.369  0.00  0.00    -0.073 A 
ATOM      7  C8  UNL d   1       0.702  -0.695   3.495  0.00  0.00     0.078 C 
ENDROOT
BRANCH   1   8
ATOM      8  C1  UNL d   1       2.662  -0.283   1.236  0.00  0.00     0.053 C 
ATOM      9  C   UNL d   1       2.598  -1.487   0.309  0.00  0.00     0.018 C 
ENDBRANCH   1   8
TORSDOF 1
ENDMDL
