MODEL 1
REMARK minimizedAffinity 5.3965807
REMARK minimizedRMSD -1
REMARK  1 active torsions:
REMARK  status: ('A' for Active; 'I' for Inactive)
REMARK    1  A    between atoms: C1_2  and  C2_3 
ROOT
ATOM      1  C2  UNL d   1      -2.195   0.094  -3.428  0.00  0.00    -0.076 A 
ATOM      2  C3  UNL d   1      -2.281   1.081  -4.425  0.00  0.00     0.004 A 
ATOM      3  C4  UNL d   1      -3.494   1.365  -5.051  0.00  0.00    -0.003 A 
ATOM      4  C5  UNL d   1      -4.640   0.666  -4.690  0.00  0.00     0.000 A 
ATOM      5  C6  UNL d   1      -4.576  -0.305  -3.690  0.00  0.00     0.000 A 
ATOM      6  C7  UNL d   1      -3.365  -0.591  -3.038  0.00  0.00    -0.073 A 
ATOM      7  C8  UNL d   1      -3.353  -1.652  -1.971  0.00  0.00     0.078 C 
ENDROOT
BRANCH   1   8
ATOM      8  C1  UNL d   1      -0.847  -0.189  -2.803  0.00  0.00     0.053 C 
ATOM      9  C   UNL d   1      -0.164  -1.402  -3.415  0.00  0.00     0.018 C 
ENDBRANCH   1   8
TORSDOF 1
ENDMDL
