MODEL 1
REMARK minimizedAffinity 5.69909811
REMARK minimizedRMSD -1
REMARK  1 active torsions:
REMARK  status: ('A' for Active; 'I' for Inactive)
REMARK    1  A    between atoms: C1_2  and  C2_3 
ROOT
ATOM      1  C2  UNL d   1      -3.035  -0.018  -3.779  0.00  0.00    -0.076 A 
ATOM      2  C3  UNL d   1      -3.216   0.904  -4.825  0.00  0.00     0.004 A 
ATOM      3  C4  UNL d   1      -4.393   0.921  -5.571  0.00  0.00    -0.003 A 
ATOM      4  C5  UNL d   1      -5.409   0.016  -5.284  0.00  0.00     0.000 A 
ATOM      5  C6  UNL d   1      -5.254  -0.894  -4.238  0.00  0.00     0.000 A 
ATOM      6  C7  UNL d   1      -4.080  -0.914  -3.466  0.00  0.00    -0.073 A 
ATOM      7  C8  UNL d   1      -3.964  -1.921  -2.355  0.00  0.00     0.078 C 
ENDROOT
BRANCH   1   8
ATOM      8  C1  UNL d   1      -1.727  -0.008  -3.022  0.00  0.00     0.053 C 
ATOM      9  C   UNL d   1      -0.703  -0.965  -3.614  0.00  0.00     0.018 C 
ENDBRANCH   1   8
TORSDOF 1
ENDMDL
