MODEL 1
REMARK minimizedAffinity 9.12228203
REMARK minimizedRMSD -1
REMARK  1 active torsions:
REMARK  status: ('A' for Active; 'I' for Inactive)
REMARK    1  A    between atoms: C1_2  and  C2_3 
ROOT
ATOM      1  C2  UNL d   1      -0.317   1.536   2.008  0.00  0.00    -0.076 A 
ATOM      2  C3  UNL d   1       0.569   0.952   1.086  0.00  0.00     0.004 A 
ATOM      3  C4  UNL d   1       1.334   1.740   0.228  0.00  0.00    -0.003 A 
ATOM      4  C5  UNL d   1       1.227   3.126   0.280  0.00  0.00     0.000 A 
ATOM      5  C6  UNL d   1       0.366   3.723   1.201  0.00  0.00     0.000 A 
ATOM      6  C7  UNL d   1      -0.401   2.943   2.083  0.00  0.00    -0.073 A 
ATOM      7  C8  UNL d   1      -1.317   3.639   3.052  0.00  0.00     0.078 C 
ENDROOT
BRANCH   1   8
ATOM      8  C1  UNL d   1      -1.141   0.629   2.894  0.00  0.00     0.053 C 
ATOM      9  C   UNL d   1      -0.284  -0.208   3.830  0.00  0.00     0.018 C 
ENDBRANCH   1   8
TORSDOF 1
ENDMDL
