MODEL 1
REMARK minimizedAffinity 2.87013054
REMARK minimizedRMSD -1
REMARK  1 active torsions:
REMARK  status: ('A' for Active; 'I' for Inactive)
REMARK    1  A    between atoms: C1_2  and  C2_3 
ROOT
ATOM      1  C2  UNL d   1       2.554   0.829   0.603  0.00  0.00    -0.076 A 
ATOM      2  C3  UNL d   1       1.156   0.846   0.460  0.00  0.00     0.004 A 
ATOM      3  C4  UNL d   1       0.423   2.004   0.714  0.00  0.00    -0.003 A 
ATOM      4  C5  UNL d   1       1.076   3.164   1.115  0.00  0.00     0.000 A 
ATOM      5  C6  UNL d   1       2.464   3.170   1.245  0.00  0.00     0.000 A 
ATOM      6  C7  UNL d   1       3.220   2.016   0.977  0.00  0.00    -0.073 A 
ATOM      7  C8  UNL d   1       4.714   2.078   1.140  0.00  0.00     0.078 C 
ENDROOT
BRANCH   1   8
ATOM      8  C1  UNL d   1       3.294  -0.463   0.340  0.00  0.00     0.053 C 
ATOM      9  C   UNL d   1       2.371  -1.672   0.333  0.00  0.00     0.018 C 
ENDBRANCH   1   8
TORSDOF 1
ENDMDL
