MODEL 1
REMARK minimizedAffinity 7.18391562
REMARK minimizedRMSD -1
REMARK  1 active torsions:
REMARK  status: ('A' for Active; 'I' for Inactive)
REMARK    1  A    between atoms: C1_2  and  C2_3 
ROOT
ATOM      1  C2  UNL d   1       1.847  -0.651  -0.035  0.00  0.00    -0.076 A 
ATOM      2  C3  UNL d   1       2.503  -1.554   0.820  0.00  0.00     0.004 A 
ATOM      3  C4  UNL d   1       2.088  -2.881   0.917  0.00  0.00    -0.003 A 
ATOM      4  C5  UNL d   1       1.011  -3.327   0.159  0.00  0.00     0.000 A 
ATOM      5  C6  UNL d   1       0.360  -2.450  -0.708  0.00  0.00     0.000 A 
ATOM      6  C7  UNL d   1       0.776  -1.113  -0.829  0.00  0.00    -0.073 A 
ATOM      7  C8  UNL d   1       0.034  -0.209  -1.775  0.00  0.00     0.078 C 
ENDROOT
BRANCH   1   8
ATOM      8  C1  UNL d   1       2.325   0.783  -0.078  0.00  0.00     0.053 C 
ATOM      9  C   UNL d   1       1.294   1.756   0.474  0.00  0.00     0.018 C 
ENDBRANCH   1   8
TORSDOF 1
ENDMDL
