MODEL 1
REMARK minimizedAffinity 10.6440887
REMARK minimizedRMSD -1
REMARK  0 active torsions:
REMARK  status: ('A' for Active; 'I' for Inactive)
ROOT
ATOM      1  C   UNL d   1       0.270   3.835  -0.523  0.00  0.00    -0.002 A 
ATOM      2  C1  UNL d   1      -0.393   2.735  -1.048  0.00  0.00     0.010 A 
ATOM      3  C2  UNL d   1      -0.488   1.549  -0.318  0.00  0.00     0.041 A 
ATOM      4  C3  UNL d   1       0.097   1.487   0.962  0.00  0.00    -0.075 A 
ATOM      5  S   UNL d   1       0.105   0.140   2.038  0.00  0.00     0.015 SA
ATOM      6  C4  UNL d   1       0.987   0.994   3.220  0.00  0.00     0.022 A 
ATOM      7  C5  UNL d   1       1.277   2.277   2.820  0.00  0.00     0.026 A 
ATOM      8  C6  UNL d   1       0.769   2.583   1.512  0.00  0.00    -0.082 A 
ATOM      9  C7  UNL d   1       0.849   3.771   0.747  0.00  0.00     0.045 A 
ENDROOT
TORSDOF 0
ENDMDL
