MODEL 1
REMARK minimizedAffinity 3.70724082
REMARK minimizedRMSD -1
REMARK  0 active torsions:
REMARK  status: ('A' for Active; 'I' for Inactive)
ROOT
ATOM      1  C   UNL d   1       4.844  -2.257  -0.584  0.00  0.00    -0.002 A 
ATOM      2  C1  UNL d   1       5.536  -3.445  -0.398  0.00  0.00     0.010 A 
ATOM      3  C2  UNL d   1       5.336  -4.526  -1.259  0.00  0.00     0.041 A 
ATOM      4  C3  UNL d   1       4.420  -4.391  -2.321  0.00  0.00    -0.075 A 
ATOM      5  S   UNL d   1       4.014  -5.580  -3.501  0.00  0.00     0.015 SA
ATOM      6  C4  UNL d   1       2.912  -4.539  -4.280  0.00  0.00     0.022 A 
ATOM      7  C5  UNL d   1       2.844  -3.310  -3.668  0.00  0.00     0.026 A 
ATOM      8  C6  UNL d   1       3.712  -3.204  -2.529  0.00  0.00    -0.082 A 
ATOM      9  C7  UNL d   1       3.936  -2.127  -1.638  0.00  0.00     0.045 A 
ENDROOT
TORSDOF 0
ENDMDL
