MODEL 1
REMARK minimizedAffinity 6.04061317
REMARK minimizedRMSD -1
REMARK  0 active torsions:
REMARK  status: ('A' for Active; 'I' for Inactive)
ROOT
ATOM      1  C   UNL d   1       4.492  -5.679  -1.515  0.00  0.00    -0.002 A 
ATOM      2  C1  UNL d   1       4.798  -5.999  -2.830  0.00  0.00     0.010 A 
ATOM      3  C2  UNL d   1       4.766  -5.021  -3.825  0.00  0.00     0.041 A 
ATOM      4  C3  UNL d   1       4.420  -3.701  -3.472  0.00  0.00    -0.075 A 
ATOM      5  S   UNL d   1       4.317  -2.338  -4.522  0.00  0.00     0.015 SA
ATOM      6  C4  UNL d   1       3.865  -1.298  -3.250  0.00  0.00     0.022 A 
ATOM      7  C5  UNL d   1       3.790  -1.958  -2.046  0.00  0.00     0.026 A 
ATOM      8  C6  UNL d   1       4.109  -3.354  -2.155  0.00  0.00    -0.082 A 
ATOM      9  C7  UNL d   1       4.149  -4.369  -1.169  0.00  0.00     0.045 A 
ENDROOT
TORSDOF 0
ENDMDL
