MODEL 1
REMARK minimizedAffinity 3.70671487
REMARK minimizedRMSD -1
REMARK  0 active torsions:
REMARK  status: ('A' for Active; 'I' for Inactive)
ROOT
ATOM      1  C   UNL d   1       2.991  -1.278  -1.088  0.00  0.00    -0.002 A 
ATOM      2  C1  UNL d   1       2.192  -2.084  -0.290  0.00  0.00     0.010 A 
ATOM      3  C2  UNL d   1       2.165  -3.467  -0.477  0.00  0.00     0.041 A 
ATOM      4  C3  UNL d   1       2.965  -4.033  -1.489  0.00  0.00    -0.075 A 
ATOM      5  S   UNL d   1       3.094  -5.702  -1.900  0.00  0.00     0.015 SA
ATOM      6  C4  UNL d   1       4.214  -5.386  -3.145  0.00  0.00     0.022 A 
ATOM      7  C5  UNL d   1       4.494  -4.045  -3.259  0.00  0.00     0.026 A 
ATOM      8  C6  UNL d   1       3.779  -3.243  -2.306  0.00  0.00    -0.082 A 
ATOM      9  C7  UNL d   1       3.783  -1.843  -2.092  0.00  0.00     0.045 A 
ENDROOT
TORSDOF 0
ENDMDL
