MODEL 1
REMARK minimizedAffinity 13.520896
REMARK minimizedRMSD -1
REMARK  0 active torsions:
REMARK  status: ('A' for Active; 'I' for Inactive)
ROOT
ATOM      1  C   UNL d   1      -2.717   5.986  -2.692  0.00  0.00    -0.002 A 
ATOM      2  C1  UNL d   1      -3.461   4.815  -2.683  0.00  0.00     0.010 A 
ATOM      3  C2  UNL d   1      -2.922   3.635  -2.167  0.00  0.00     0.041 A 
ATOM      4  C3  UNL d   1      -1.611   3.652  -1.653  0.00  0.00    -0.075 A 
ATOM      5  S   UNL d   1      -0.744   2.328  -0.969  0.00  0.00     0.015 SA
ATOM      6  C4  UNL d   1       0.634   3.286  -0.671  0.00  0.00     0.022 A 
ATOM      7  C5  UNL d   1       0.454   4.587  -1.078  0.00  0.00     0.026 A 
ATOM      8  C6  UNL d   1      -0.842   4.820  -1.650  0.00  0.00    -0.082 A 
ATOM      9  C7  UNL d   1      -1.416   6.000  -2.181  0.00  0.00     0.045 A 
ENDROOT
TORSDOF 0
ENDMDL
