MODEL 1
REMARK minimizedAffinity 11.4617558
REMARK minimizedRMSD -1
REMARK  0 active torsions:
REMARK  status: ('A' for Active; 'I' for Inactive)
ROOT
ATOM      1  C   UNL d   1       1.622  -4.669  -0.032  0.00  0.00    -0.002 A 
ATOM      2  C1  UNL d   1       1.633  -5.423  -1.197  0.00  0.00     0.010 A 
ATOM      3  C2  UNL d   1       2.502  -5.103  -2.242  0.00  0.00     0.041 A 
ATOM      4  C3  UNL d   1       3.368  -4.002  -2.095  0.00  0.00    -0.075 A 
ATOM      5  S   UNL d   1       4.518  -3.424  -3.242  0.00  0.00     0.015 SA
ATOM      6  C4  UNL d   1       5.022  -2.162  -2.213  0.00  0.00     0.022 A 
ATOM      7  C5  UNL d   1       4.340  -2.167  -1.019  0.00  0.00     0.026 A 
ATOM      8  C6  UNL d   1       3.376  -3.228  -0.931  0.00  0.00    -0.082 A 
ATOM      9  C7  UNL d   1       2.483  -3.578   0.110  0.00  0.00     0.045 A 
ENDROOT
TORSDOF 0
ENDMDL
