MODEL 1
REMARK minimizedAffinity -4.31788492
REMARK minimizedRMSD -1
REMARK  0 active torsions:
REMARK  status: ('A' for Active; 'I' for Inactive)
ROOT
ATOM      1  C1  BNZ d   1       1.304   0.142   0.983  0.00  0.00     0.000 A 
ATOM      2  C2  BNZ d   1       1.795  -0.090   2.240  0.00  0.00     0.000 A 
ATOM      3  C3  BNZ d   1       0.989  -0.585   3.227  0.00  0.00     0.000 A 
ATOM      4  C4  BNZ d   1      -0.315  -0.810   2.967  0.00  0.00     0.000 A 
ATOM      5  C5  BNZ d   1      -0.828  -0.572   1.707  0.00  0.00     0.000 A 
ATOM      6  C6  BNZ d   1      -0.004  -0.111   0.706  0.00  0.00     0.000 A 
ENDROOT
TORSDOF 0
ENDMDL
