MODEL 1
REMARK minimizedAffinity -4.75091887
REMARK minimizedRMSD -1
REMARK  0 active torsions:
REMARK  status: ('A' for Active; 'I' for Inactive)
ROOT
ATOM      1  C1  BNZ d   1      -0.751   0.004   0.153  0.00  0.00     0.000 A 
ATOM      2  C2  BNZ d   1      -0.907   0.002   1.513  0.00  0.00     0.000 A 
ATOM      3  C3  BNZ d   1       0.138  -0.312   2.337  0.00  0.00     0.000 A 
ATOM      4  C4  BNZ d   1       1.324  -0.661   1.799  0.00  0.00     0.000 A 
ATOM      5  C5  BNZ d   1       1.494  -0.673   0.429  0.00  0.00     0.000 A 
ATOM      6  C6  BNZ d   1       0.451  -0.319  -0.396  0.00  0.00     0.000 A 
ENDROOT
TORSDOF 0
ENDMDL
