MODEL 1
REMARK minimizedAffinity -3.94550371
REMARK minimizedRMSD -1
REMARK  0 active torsions:
REMARK  status: ('A' for Active; 'I' for Inactive)
ROOT
ATOM      1  C1  BNZ d   1       1.670  -0.113   1.228  0.00  0.00     0.000 A 
ATOM      2  C2  BNZ d   1       0.676  -0.068   2.170  0.00  0.00     0.000 A 
ATOM      3  C3  BNZ d   1      -0.636  -0.198   1.810  0.00  0.00     0.000 A 
ATOM      4  C4  BNZ d   1      -0.955  -0.332   0.507  0.00  0.00     0.000 A 
ATOM      5  C5  BNZ d   1       0.034  -0.369  -0.456  0.00  0.00     0.000 A 
ATOM      6  C6  BNZ d   1       1.356  -0.277  -0.086  0.00  0.00     0.000 A 
ENDROOT
TORSDOF 0
ENDMDL
