MODEL 1
REMARK minimizedAffinity -5.08943748
REMARK minimizedRMSD -1
REMARK  0 active torsions:
REMARK  status: ('A' for Active; 'I' for Inactive)
ROOT
ATOM      1  C1  BNZ d   1       0.010  -0.384   2.463  0.00  0.00     0.000 A 
ATOM      2  C2  BNZ d   1      -0.932  -0.063   1.523  0.00  0.00     0.000 A 
ATOM      3  C3  BNZ d   1      -0.635  -0.108   0.190  0.00  0.00     0.000 A 
ATOM      4  C4  BNZ d   1       0.613  -0.436  -0.201  0.00  0.00     0.000 A 
ATOM      5  C5  BNZ d   1       1.578  -0.753   0.735  0.00  0.00     0.000 A 
ATOM      6  C6  BNZ d   1       1.264  -0.744   2.075  0.00  0.00     0.000 A 
ENDROOT
TORSDOF 0
ENDMDL
