MODEL 1
REMARK minimizedAffinity -4.96214819
REMARK minimizedRMSD -1
REMARK  0 active torsions:
REMARK  status: ('A' for Active; 'I' for Inactive)
ROOT
ATOM      1  C1  BNZ d   1      -0.305  -0.230  -0.167  0.00  0.00     0.000 A 
ATOM      2  C2  BNZ d   1      -0.746  -0.293   1.128  0.00  0.00     0.000 A 
ATOM      3  C3  BNZ d   1      -0.028  -0.961   2.080  0.00  0.00     0.000 A 
ATOM      4  C4  BNZ d   1       1.108  -1.597   1.728  0.00  0.00     0.000 A 
ATOM      5  C5  BNZ d   1       1.561  -1.551   0.425  0.00  0.00     0.000 A 
ATOM      6  C6  BNZ d   1       0.855  -0.845  -0.523  0.00  0.00     0.000 A 
ENDROOT
TORSDOF 0
ENDMDL
