MODEL 1
REMARK minimizedAffinity 20.646513
REMARK minimizedRMSD -1
REMARK  0 active torsions:
REMARK  status: ('A' for Active; 'I' for Inactive)
ROOT
ATOM      1  C   UNL d   1       0.066  -1.211   1.800  0.00  0.00    -0.002 A 
ATOM      2  C1  UNL d   1      -0.670  -2.221   1.196  0.00  0.00     0.010 A 
ATOM      3  C2  UNL d   1      -0.041  -3.178   0.398  0.00  0.00     0.041 A 
ATOM      4  C3  UNL d   1       1.355  -3.104   0.217  0.00  0.00    -0.075 A 
ATOM      5  S   UNL d   1       2.339  -4.168  -0.717  0.00  0.00     0.015 SA
ATOM      6  C4  UNL d   1       3.760  -3.308  -0.335  0.00  0.00     0.022 A 
ATOM      7  C5  UNL d   1       3.508  -2.233   0.484  0.00  0.00     0.026 A 
ATOM      8  C6  UNL d   1       2.118  -2.098   0.816  0.00  0.00    -0.082 A 
ATOM      9  C7  UNL d   1       1.450  -1.142   1.619  0.00  0.00     0.045 A 
ENDROOT
TORSDOF 0
ENDMDL
