MODEL 1
REMARK minimizedAffinity 21.2343502
REMARK minimizedRMSD -1
REMARK  0 active torsions:
REMARK  status: ('A' for Active; 'I' for Inactive)
ROOT
ATOM      1  C   UNL d   1       3.746   1.801  -2.274  0.00  0.00    -0.002 A 
ATOM      2  C1  UNL d   1       3.721   3.008  -2.959  0.00  0.00     0.010 A 
ATOM      3  C2  UNL d   1       4.281   4.156  -2.395  0.00  0.00     0.041 A 
ATOM      4  C3  UNL d   1       4.874   4.070  -1.120  0.00  0.00    -0.075 A 
ATOM      5  S   UNL d   1       5.622   5.345  -0.233  0.00  0.00     0.015 SA
ATOM      6  C4  UNL d   1       5.994   4.317   1.075  0.00  0.00     0.022 A 
ATOM      7  C5  UNL d   1       5.565   3.029   0.857  0.00  0.00     0.026 A 
ATOM      8  C6  UNL d   1       4.913   2.865  -0.412  0.00  0.00    -0.082 A 
ATOM      9  C7  UNL d   1       4.336   1.719  -1.010  0.00  0.00     0.045 A 
ENDROOT
TORSDOF 0
ENDMDL
