MODEL 1
REMARK minimizedAffinity 3.75853443
REMARK minimizedRMSD -1
REMARK  0 active torsions:
REMARK  status: ('A' for Active; 'I' for Inactive)
ROOT
ATOM      1  C   UNL d   1      -3.884   1.050   5.834  0.00  0.00    -0.002 A 
ATOM      2  C1  UNL d   1      -2.594   1.388   5.451  0.00  0.00     0.010 A 
ATOM      3  C2  UNL d   1      -2.045   0.875   4.274  0.00  0.00     0.041 A 
ATOM      4  C3  UNL d   1      -2.823   0.009   3.480  0.00  0.00    -0.075 A 
ATOM      5  S   UNL d   1      -2.360  -0.739   1.997  0.00  0.00     0.015 SA
ATOM      6  C4  UNL d   1      -3.865  -1.524   1.838  0.00  0.00     0.022 A 
ATOM      7  C5  UNL d   1      -4.711  -1.234   2.881  0.00  0.00     0.026 A 
ATOM      8  C6  UNL d   1      -4.125  -0.345   3.845  0.00  0.00    -0.082 A 
ATOM      9  C7  UNL d   1      -4.653   0.191   5.044  0.00  0.00     0.045 A 
ENDROOT
TORSDOF 0
ENDMDL
