MODEL 1
REMARK minimizedAffinity 13.4634466
REMARK minimizedRMSD -1
REMARK  0 active torsions:
REMARK  status: ('A' for Active; 'I' for Inactive)
ROOT
ATOM      1  C   UNL d   1      -4.968  -0.349   4.195  0.00  0.00    -0.002 A 
ATOM      2  C1  UNL d   1      -4.092   0.472   4.892  0.00  0.00     0.010 A 
ATOM      3  C2  UNL d   1      -2.753   0.569   4.509  0.00  0.00     0.041 A 
ATOM      4  C3  UNL d   1      -2.305  -0.178   3.402  0.00  0.00    -0.075 A 
ATOM      5  S   UNL d   1      -0.709  -0.216   2.751  0.00  0.00     0.015 SA
ATOM      6  C4  UNL d   1      -1.152  -1.322   1.532  0.00  0.00     0.022 A 
ATOM      7  C5  UNL d   1      -2.481  -1.665   1.606  0.00  0.00     0.026 A 
ATOM      8  C6  UNL d   1      -3.168  -1.011   2.684  0.00  0.00    -0.082 A 
ATOM      9  C7  UNL d   1      -4.520  -1.089   3.098  0.00  0.00     0.045 A 
ENDROOT
TORSDOF 0
ENDMDL
