MODEL 1
REMARK minimizedAffinity 15.5955496
REMARK minimizedRMSD -1
REMARK  0 active torsions:
REMARK  status: ('A' for Active; 'I' for Inactive)
ROOT
ATOM      1  C   UNL d   1       3.404  -0.291   0.685  0.00  0.00    -0.002 A 
ATOM      2  C1  UNL d   1       2.615  -0.968   1.604  0.00  0.00     0.010 A 
ATOM      3  C2  UNL d   1       2.537  -2.362   1.583  0.00  0.00     0.041 A 
ATOM      4  C3  UNL d   1       3.273  -3.071   0.614  0.00  0.00    -0.075 A 
ATOM      5  S   UNL d   1       3.331  -4.781   0.399  0.00  0.00     0.015 SA
ATOM      6  C4  UNL d   1       4.406  -4.653  -0.918  0.00  0.00     0.022 A 
ATOM      7  C5  UNL d   1       4.723  -3.345  -1.200  0.00  0.00     0.026 A 
ATOM      8  C6  UNL d   1       4.076  -2.412  -0.322  0.00  0.00    -0.082 A 
ATOM      9  C7  UNL d   1       4.134  -0.998  -0.275  0.00  0.00     0.045 A 
ENDROOT
TORSDOF 0
ENDMDL
