MODEL 1
REMARK minimizedAffinity 11.133049
REMARK minimizedRMSD -1
REMARK  0 active torsions:
REMARK  status: ('A' for Active; 'I' for Inactive)
ROOT
ATOM      1  C   UNL d   1      -5.949  -3.315  -5.045  0.00  0.00    -0.002 A 
ATOM      2  C1  UNL d   1      -5.965  -2.215  -5.891  0.00  0.00     0.010 A 
ATOM      3  C2  UNL d   1      -5.982  -0.919  -5.371  0.00  0.00     0.041 A 
ATOM      4  C3  UNL d   1      -5.981  -0.746  -3.973  0.00  0.00    -0.075 A 
ATOM      5  S   UNL d   1      -5.999   0.747  -3.111  0.00  0.00     0.015 SA
ATOM      6  C4  UNL d   1      -5.985  -0.040  -1.599  0.00  0.00     0.022 A 
ATOM      7  C5  UNL d   1      -5.967  -1.408  -1.730  0.00  0.00     0.026 A 
ATOM      8  C6  UNL d   1      -5.964  -1.838  -3.101  0.00  0.00    -0.082 A 
ATOM      9  C7  UNL d   1      -5.948  -3.139  -3.658  0.00  0.00     0.045 A 
ENDROOT
TORSDOF 0
ENDMDL
