MODEL 1
REMARK minimizedAffinity 2.07746148
REMARK minimizedRMSD -1
REMARK  0 active torsions:
REMARK  status: ('A' for Active; 'I' for Inactive)
ROOT
ATOM      1  C   UNL d   1       2.288  -5.818  -5.313  0.00  0.00    -0.002 A 
ATOM      2  C1  UNL d   1       2.311  -5.124  -4.111  0.00  0.00     0.010 A 
ATOM      3  C2  UNL d   1       1.135  -4.596  -3.574  0.00  0.00     0.041 A 
ATOM      4  C3  UNL d   1      -0.076  -4.781  -4.270  0.00  0.00    -0.075 A 
ATOM      5  S   UNL d   1      -1.639  -4.224  -3.802  0.00  0.00     0.015 SA
ATOM      6  C4  UNL d   1      -2.374  -4.896  -5.185  0.00  0.00     0.022 A 
ATOM      7  C5  UNL d   1      -1.464  -5.532  -5.995  0.00  0.00     0.026 A 
ATOM      8  C6  UNL d   1      -0.124  -5.477  -5.481  0.00  0.00    -0.082 A 
ATOM      9  C7  UNL d   1       1.085  -6.000  -6.000  0.00  0.00     0.045 A 
ENDROOT
TORSDOF 0
ENDMDL
