MODEL 1
REMARK minimizedAffinity 15.1774492
REMARK minimizedRMSD -1
REMARK  0 active torsions:
REMARK  status: ('A' for Active; 'I' for Inactive)
ROOT
ATOM      1  C   UNL d   1      -4.692   1.198   5.084  0.00  0.00    -0.002 A 
ATOM      2  C1  UNL d   1      -3.372   1.552   4.844  0.00  0.00     0.010 A 
ATOM      3  C2  UNL d   1      -2.958   2.879   4.974  0.00  0.00     0.041 A 
ATOM      4  C3  UNL d   1      -3.901   3.854   5.355  0.00  0.00    -0.075 A 
ATOM      5  S   UNL d   1      -3.622   5.540   5.578  0.00  0.00     0.015 SA
ATOM      6  C4  UNL d   1      -5.248   5.830   5.999  0.00  0.00     0.022 A 
ATOM      7  C5  UNL d   1      -6.000   4.680   5.974  0.00  0.00     0.026 A 
ATOM      8  C6  UNL d   1      -5.236   3.521   5.604  0.00  0.00    -0.082 A 
ATOM      9  C7  UNL d   1      -5.625   2.168   5.462  0.00  0.00     0.045 A 
ENDROOT
TORSDOF 0
ENDMDL
