MODEL 1
REMARK minimizedAffinity 21.3717766
REMARK minimizedRMSD -1
REMARK  0 active torsions:
REMARK  status: ('A' for Active; 'I' for Inactive)
ROOT
ATOM      1  C   UNL d   1      -4.666  -5.527   5.872  0.00  0.00    -0.002 A 
ATOM      2  C1  UNL d   1      -4.083  -4.268   5.902  0.00  0.00     0.010 A 
ATOM      3  C2  UNL d   1      -4.130  -3.437   4.780  0.00  0.00     0.041 A 
ATOM      4  C3  UNL d   1      -4.781  -3.897   3.619  0.00  0.00    -0.075 A 
ATOM      5  S   UNL d   1      -4.964  -3.052   2.127  0.00  0.00     0.015 SA
ATOM      6  C4  UNL d   1      -5.821  -4.342   1.416  0.00  0.00     0.022 A 
ATOM      7  C5  UNL d   1      -5.973  -5.399   2.281  0.00  0.00     0.026 A 
ATOM      8  C6  UNL d   1      -5.377  -5.160   3.565  0.00  0.00    -0.082 A 
ATOM      9  C7  UNL d   1      -5.311  -5.979   4.718  0.00  0.00     0.045 A 
ENDROOT
TORSDOF 0
ENDMDL
