MODEL 1
REMARK minimizedAffinity 9.68047142
REMARK minimizedRMSD -1
REMARK  0 active torsions:
REMARK  status: ('A' for Active; 'I' for Inactive)
ROOT
ATOM      1  C   UNL d   1       1.280  -2.295   2.444  0.00  0.00    -0.002 A 
ATOM      2  C1  UNL d   1       2.187  -1.250   2.338  0.00  0.00     0.010 A 
ATOM      3  C2  UNL d   1       3.187  -1.274   1.363  0.00  0.00     0.041 A 
ATOM      4  C3  UNL d   1       3.258  -2.375   0.487  0.00  0.00    -0.075 A 
ATOM      5  S   UNL d   1       4.396  -2.619  -0.785  0.00  0.00     0.015 SA
ATOM      6  C4  UNL d   1       3.704  -4.115  -1.218  0.00  0.00     0.022 A 
ATOM      7  C5  UNL d   1       2.630  -4.436  -0.422  0.00  0.00     0.026 A 
ATOM      8  C6  UNL d   1       2.355  -3.438   0.573  0.00  0.00    -0.082 A 
ATOM      9  C7  UNL d   1       1.353  -3.385   1.573  0.00  0.00     0.045 A 
ENDROOT
TORSDOF 0
ENDMDL
