MODEL 1
REMARK minimizedAffinity -3.45083547
REMARK minimizedRMSD -1
REMARK  0 active torsions:
REMARK  status: ('A' for Active; 'I' for Inactive)
ROOT
ATOM      1  C   UNL d   1      -0.009  -2.318   0.855  0.00  0.00    -0.002 A 
ATOM      2  C1  UNL d   1      -1.313  -1.846   0.832  0.00  0.00     0.010 A 
ATOM      3  C2  UNL d   1      -1.599  -0.573   0.335  0.00  0.00     0.041 A 
ATOM      4  C3  UNL d   1      -0.542   0.224  -0.146  0.00  0.00    -0.075 A 
ATOM      5  S   UNL d   1      -0.654   1.815  -0.802  0.00  0.00     0.015 SA
ATOM      6  C4  UNL d   1       1.027   1.904  -1.069  0.00  0.00     0.022 A 
ATOM      7  C5  UNL d   1       1.674   0.757  -0.673  0.00  0.00     0.026 A 
ATOM      8  C6  UNL d   1       0.780  -0.230  -0.135  0.00  0.00    -0.082 A 
ATOM      9  C7  UNL d   1       1.037  -1.525   0.377  0.00  0.00     0.045 A 
ENDROOT
TORSDOF 0
ENDMDL
