MODEL 1
REMARK minimizedAffinity 1.55887425
REMARK minimizedRMSD -1
REMARK  0 active torsions:
REMARK  status: ('A' for Active; 'I' for Inactive)
ROOT
ATOM      1  C   UNL d   1      -2.028  -1.477   3.005  0.00  0.00    -0.002 A 
ATOM      2  C1  UNL d   1      -2.351  -0.149   2.763  0.00  0.00     0.010 A 
ATOM      3  C2  UNL d   1      -1.629   0.600   1.832  0.00  0.00     0.041 A 
ATOM      4  C3  UNL d   1      -0.568  -0.015   1.139  0.00  0.00    -0.075 A 
ATOM      5  S   UNL d   1       0.455   0.705  -0.048  0.00  0.00     0.015 SA
ATOM      6  C4  UNL d   1       1.344  -0.733  -0.263  0.00  0.00     0.022 A 
ATOM      7  C5  UNL d   1       0.885  -1.748   0.543  0.00  0.00     0.026 A 
ATOM      8  C6  UNL d   1      -0.224  -1.351   1.364  0.00  0.00    -0.082 A 
ATOM      9  C7  UNL d   1      -0.975  -2.083   2.315  0.00  0.00     0.045 A 
ENDROOT
TORSDOF 0
ENDMDL
