MODEL 1
REMARK minimizedAffinity -3.13308167
REMARK minimizedRMSD -1
REMARK  0 active torsions:
REMARK  status: ('A' for Active; 'I' for Inactive)
ROOT
ATOM      1  C   UNL d   1       0.260  -2.267   0.204  0.00  0.00     0.077 C 
ATOM      2  C1  UNL d   1      -0.416  -0.928   0.218  0.00  0.00    -0.074 A 
ATOM      3  C2  UNL d   1      -0.361  -0.084  -0.896  0.00  0.00    -0.005 A 
ATOM      4  C3  UNL d   1      -1.003   1.155  -0.871  0.00  0.00     0.006 A 
ATOM      5  C4  UNL d   1      -1.704   1.560   0.265  0.00  0.00    -0.005 A 
ATOM      6  C5  UNL d   1      -1.770   0.729   1.388  0.00  0.00    -0.074 A 
ATOM      7  C6  UNL d   1      -2.528   1.145   2.613  0.00  0.00     0.077 C 
ATOM      8  C7  UNL d   1      -1.129  -0.517   1.353  0.00  0.00    -0.001 A 
ENDROOT
TORSDOF 0
ENDMDL
