MODEL 1
REMARK minimizedAffinity -0.770125926
REMARK minimizedRMSD -1
REMARK  0 active torsions:
REMARK  status: ('A' for Active; 'I' for Inactive)
ROOT
ATOM      1  C   UNL d   1      -1.164   0.071   0.582  0.00  0.00     0.077 C 
ATOM      2  C1  UNL d   1       0.046  -0.073  -0.293  0.00  0.00    -0.074 A 
ATOM      3  C2  UNL d   1       0.799  -1.251  -0.290  0.00  0.00    -0.005 A 
ATOM      4  C3  UNL d   1       1.916  -1.374  -1.116  0.00  0.00     0.006 A 
ATOM      5  C4  UNL d   1       2.291  -0.321  -1.952  0.00  0.00    -0.005 A 
ATOM      6  C5  UNL d   1       1.550   0.865  -1.969  0.00  0.00    -0.074 A 
ATOM      7  C6  UNL d   1       1.933   2.002  -2.868  0.00  0.00     0.077 C 
ATOM      8  C7  UNL d   1       0.424   0.978  -1.141  0.00  0.00    -0.001 A 
ENDROOT
TORSDOF 0
ENDMDL
