MODEL 1
REMARK minimizedAffinity -3.41985989
REMARK minimizedRMSD -1
REMARK  0 active torsions:
REMARK  status: ('A' for Active; 'I' for Inactive)
ROOT
ATOM      1  C   UNL d   1      -1.087   0.807   3.201  0.00  0.00     0.077 C 
ATOM      2  C1  UNL d   1      -0.798   0.473   1.768  0.00  0.00    -0.074 A 
ATOM      3  C2  UNL d   1      -1.755   0.693   0.771  0.00  0.00    -0.005 A 
ATOM      4  C3  UNL d   1      -1.468   0.386  -0.559  0.00  0.00     0.006 A 
ATOM      5  C4  UNL d   1      -0.225  -0.144  -0.905  0.00  0.00    -0.005 A 
ATOM      6  C5  UNL d   1       0.744  -0.371   0.077  0.00  0.00    -0.074 A 
ATOM      7  C6  UNL d   1       2.089  -0.931  -0.280  0.00  0.00     0.077 C 
ATOM      8  C7  UNL d   1       0.451  -0.053   1.410  0.00  0.00    -0.001 A 
ENDROOT
TORSDOF 0
ENDMDL
