MODEL 1
REMARK minimizedAffinity -4.5624404
REMARK minimizedRMSD -1
REMARK  0 active torsions:
REMARK  status: ('A' for Active; 'I' for Inactive)
ROOT
ATOM      1  C   UNL d   1       3.298  -0.705  -0.784  0.00  0.00     0.077 C 
ATOM      2  C1  UNL d   1       1.846  -0.899  -0.463  0.00  0.00    -0.074 A 
ATOM      3  C2  UNL d   1       1.337  -2.170  -0.176  0.00  0.00    -0.005 A 
ATOM      4  C3  UNL d   1      -0.014  -2.333   0.131  0.00  0.00     0.006 A 
ATOM      5  C4  UNL d   1      -0.868  -1.230   0.153  0.00  0.00    -0.005 A 
ATOM      6  C5  UNL d   1      -0.377   0.048  -0.131  0.00  0.00    -0.074 A 
ATOM      7  C6  UNL d   1      -1.279   1.246  -0.102  0.00  0.00     0.077 C 
ATOM      8  C7  UNL d   1       0.983   0.205  -0.431  0.00  0.00    -0.001 A 
ENDROOT
TORSDOF 0
ENDMDL
