MODEL 1
REMARK minimizedAffinity -5.47343874
REMARK minimizedRMSD -1
REMARK  0 active torsions:
REMARK  status: ('A' for Active; 'I' for Inactive)
ROOT
ATOM      1  C   UNL d   1       3.022  -0.206  -1.307  0.00  0.00     0.077 C 
ATOM      2  C1  UNL d   1       1.580  -0.169  -0.895  0.00  0.00    -0.074 A 
ATOM      3  C2  UNL d   1       0.862   1.032  -0.898  0.00  0.00    -0.005 A 
ATOM      4  C3  UNL d   1      -0.480   1.049  -0.521  0.00  0.00     0.006 A 
ATOM      5  C4  UNL d   1      -1.118  -0.131  -0.137  0.00  0.00    -0.005 A 
ATOM      6  C5  UNL d   1      -0.416  -1.341  -0.127  0.00  0.00    -0.074 A 
ATOM      7  C6  UNL d   1      -1.089  -2.620   0.273  0.00  0.00     0.077 C 
ATOM      8  C7  UNL d   1       0.931  -1.352  -0.515  0.00  0.00    -0.001 A 
ENDROOT
TORSDOF 0
ENDMDL
