MODEL 1
REMARK minimizedAffinity -4.54405642
REMARK minimizedRMSD -1
REMARK  0 active torsions:
REMARK  status: ('A' for Active; 'I' for Inactive)
ROOT
ATOM      1  C   UNL d   1       2.783   0.202  -1.655  0.00  0.00     0.077 C 
ATOM      2  C1  UNL d   1       1.513  -0.135  -0.932  0.00  0.00    -0.074 A 
ATOM      3  C2  UNL d   1       0.963  -1.419  -1.005  0.00  0.00    -0.005 A 
ATOM      4  C3  UNL d   1      -0.213  -1.721  -0.320  0.00  0.00     0.006 A 
ATOM      5  C4  UNL d   1      -0.851  -0.744   0.445  0.00  0.00    -0.005 A 
ATOM      6  C5  UNL d   1      -0.316   0.546   0.531  0.00  0.00    -0.074 A 
ATOM      7  C6  UNL d   1      -0.983   1.605   1.357  0.00  0.00     0.077 C 
ATOM      8  C7  UNL d   1       0.871   0.839  -0.155  0.00  0.00    -0.001 A 
ENDROOT
TORSDOF 0
ENDMDL
