MODEL 1
REMARK minimizedAffinity -4.89104319
REMARK minimizedRMSD -1
REMARK  0 active torsions:
REMARK  status: ('A' for Active; 'I' for Inactive)
ROOT
ATOM      1  C   UNL d   1      -3.853  -1.382   3.192  0.00  0.00     0.077 C 
ATOM      2  C1  UNL d   1      -2.911  -0.340   2.666  0.00  0.00    -0.074 A 
ATOM      3  C2  UNL d   1      -2.991   0.987   3.101  0.00  0.00    -0.005 A 
ATOM      4  C3  UNL d   1      -2.102   1.943   2.610  0.00  0.00     0.006 A 
ATOM      5  C4  UNL d   1      -1.125   1.583   1.681  0.00  0.00    -0.005 A 
ATOM      6  C5  UNL d   1      -1.029   0.261   1.236  0.00  0.00    -0.074 A 
ATOM      7  C6  UNL d   1       0.022  -0.146   0.245  0.00  0.00     0.077 C 
ATOM      8  C7  UNL d   1      -1.921  -0.696   1.739  0.00  0.00    -0.001 A 
ENDROOT
TORSDOF 0
ENDMDL
