MODEL 1
REMARK minimizedAffinity -4.65348244
REMARK minimizedRMSD -1
REMARK  0 active torsions:
REMARK  status: ('A' for Active; 'I' for Inactive)
ROOT
ATOM      1  C   UNL d   1      -1.686   1.134   4.273  0.00  0.00     0.077 C 
ATOM      2  C1  UNL d   1      -1.730   0.925   2.789  0.00  0.00    -0.074 A 
ATOM      3  C2  UNL d   1      -2.702   1.555   2.003  0.00  0.00    -0.005 A 
ATOM      4  C3  UNL d   1      -2.725   1.359   0.622  0.00  0.00     0.006 A 
ATOM      5  C4  UNL d   1      -1.779   0.533   0.014  0.00  0.00    -0.005 A 
ATOM      6  C5  UNL d   1      -0.800  -0.104   0.783  0.00  0.00    -0.074 A 
ATOM      7  C6  UNL d   1       0.231  -0.987   0.144  0.00  0.00     0.077 C 
ATOM      8  C7  UNL d   1      -0.779   0.104   2.169  0.00  0.00    -0.001 A 
ENDROOT
TORSDOF 0
ENDMDL
