MODEL 1
REMARK minimizedAffinity -3.47006059
REMARK minimizedRMSD -1
REMARK  0 active torsions:
REMARK  status: ('A' for Active; 'I' for Inactive)
ROOT
ATOM      1  C   UNL d   1      -4.134  -1.238   4.027  0.00  0.00     0.077 C 
ATOM      2  C1  UNL d   1      -3.112  -0.286   3.479  0.00  0.00    -0.074 A 
ATOM      3  C2  UNL d   1      -2.475   0.641   4.309  0.00  0.00    -0.005 A 
ATOM      4  C3  UNL d   1      -1.520   1.513   3.786  0.00  0.00     0.006 A 
ATOM      5  C4  UNL d   1      -1.193   1.467   2.431  0.00  0.00    -0.005 A 
ATOM      6  C5  UNL d   1      -1.819   0.545   1.585  0.00  0.00    -0.074 A 
ATOM      7  C6  UNL d   1      -1.472   0.475   0.128  0.00  0.00     0.077 C 
ATOM      8  C7  UNL d   1      -2.773  -0.332   2.119  0.00  0.00    -0.001 A 
ENDROOT
TORSDOF 0
ENDMDL
