MODEL 1
REMARK minimizedAffinity -4.31474829
REMARK minimizedRMSD -1
REMARK  0 active torsions:
REMARK  status: ('A' for Active; 'I' for Inactive)
ROOT
ATOM      1  C   UNL d   1       1.893  -0.480  -0.702  0.00  0.00     0.077 C 
ATOM      2  C1  UNL d   1       0.656   0.366  -0.647  0.00  0.00    -0.074 A 
ATOM      3  C2  UNL d   1       0.510   1.480  -1.480  0.00  0.00    -0.005 A 
ATOM      4  C3  UNL d   1      -0.650   2.252  -1.424  0.00  0.00     0.006 A 
ATOM      5  C4  UNL d   1      -1.674   1.919  -0.537  0.00  0.00    -0.005 A 
ATOM      6  C5  UNL d   1      -1.546   0.807   0.302  0.00  0.00    -0.074 A 
ATOM      7  C6  UNL d   1      -2.642   0.429   1.254  0.00  0.00     0.077 C 
ATOM      8  C7  UNL d   1      -0.380   0.032   0.235  0.00  0.00    -0.001 A 
ENDROOT
TORSDOF 0
ENDMDL
