MODEL 1
REMARK minimizedAffinity -3.55511284
REMARK minimizedRMSD -1
REMARK  0 active torsions:
REMARK  status: ('A' for Active; 'I' for Inactive)
ROOT
ATOM      1  C   UNL d   1       3.291  -0.286  -1.726  0.00  0.00     0.077 C 
ATOM      2  C1  UNL d   1       2.034  -0.716  -1.030  0.00  0.00    -0.074 A 
ATOM      3  C2  UNL d   1       1.692  -2.069  -0.934  0.00  0.00    -0.005 A 
ATOM      4  C3  UNL d   1       0.525  -2.454  -0.275  0.00  0.00     0.006 A 
ATOM      5  C4  UNL d   1      -0.311  -1.493   0.295  0.00  0.00    -0.005 A 
ATOM      6  C5  UNL d   1       0.016  -0.135   0.210  0.00  0.00    -0.074 A 
ATOM      7  C6  UNL d   1      -0.866   0.910   0.826  0.00  0.00     0.077 C 
ATOM      8  C7  UNL d   1       1.194   0.243  -0.448  0.00  0.00    -0.001 A 
ENDROOT
TORSDOF 0
ENDMDL
