MODEL 1
REMARK minimizedAffinity -2.8535974
REMARK minimizedRMSD -1
REMARK  0 active torsions:
REMARK  status: ('A' for Active; 'I' for Inactive)
ROOT
ATOM      1  C   UNL d   1       1.920   2.361  -3.143  0.00  0.00     0.077 C 
ATOM      2  C1  UNL d   1       1.793   1.244  -2.150  0.00  0.00    -0.074 A 
ATOM      3  C2  UNL d   1       2.712   0.191  -2.131  0.00  0.00    -0.005 A 
ATOM      4  C3  UNL d   1       2.587  -0.836  -1.195  0.00  0.00     0.006 A 
ATOM      5  C4  UNL d   1       1.542  -0.820  -0.270  0.00  0.00    -0.005 A 
ATOM      6  C5  UNL d   1       0.614   0.226  -0.273  0.00  0.00    -0.074 A 
ATOM      7  C6  UNL d   1      -0.509   0.264   0.721  0.00  0.00     0.077 C 
ATOM      8  C7  UNL d   1       0.751   1.258  -1.212  0.00  0.00    -0.001 A 
ENDROOT
TORSDOF 0
ENDMDL
