MODEL 1
REMARK minimizedAffinity -4.99823189
REMARK minimizedRMSD -1
REMARK  0 active torsions:
REMARK  status: ('A' for Active; 'I' for Inactive)
ROOT
ATOM      1  C   UNL d   1      -1.121   0.250   0.428  0.00  0.00     0.077 C 
ATOM      2  C1  UNL d   1      -1.977   0.373   1.654  0.00  0.00    -0.074 A 
ATOM      3  C2  UNL d   1      -2.214   1.619   2.243  0.00  0.00    -0.005 A 
ATOM      4  C3  UNL d   1      -3.020   1.719   3.377  0.00  0.00     0.006 A 
ATOM      5  C4  UNL d   1      -3.597   0.576   3.932  0.00  0.00    -0.005 A 
ATOM      6  C5  UNL d   1      -3.372  -0.678   3.356  0.00  0.00    -0.074 A 
ATOM      7  C6  UNL d   1      -3.992  -1.916   3.934  0.00  0.00     0.077 C 
ATOM      8  C7  UNL d   1      -2.566  -0.770   2.213  0.00  0.00    -0.001 A 
ENDROOT
TORSDOF 0
ENDMDL
