MODEL 1
REMARK minimizedAffinity -2.47979522
REMARK minimizedRMSD -1
REMARK  1 active torsions:
REMARK  status: ('A' for Active; 'I' for Inactive)
REMARK    1  A    between atoms: C3_4  and  O_7 
ROOT
ATOM      1  C   UNL d   1       4.521  -5.625  -3.391  0.00  0.00    -0.033 A 
ATOM      2  C1  UNL d   1       3.469  -4.842  -2.911  0.00  0.00     0.039 A 
ATOM      3  C2  UNL d   1       2.455  -4.426  -3.776  0.00  0.00    -0.080 A 
ATOM      4  C3  UNL d   1       2.503  -4.801  -5.116  0.00  0.00     0.150 A 
ATOM      5  C4  UNL d   1       3.546  -5.584  -5.600  0.00  0.00    -0.007 A 
ATOM      6  C5  UNL d   1       4.558  -5.998  -4.735  0.00  0.00     0.039 A 
ENDROOT
BRANCH   4   7
ATOM      7  O   UNL d   1       1.539  -4.415  -5.999  0.00  0.00    -0.526 OA
ATOM      8  H5  UNL d   1       0.898  -3.854  -5.529  0.00  0.00     0.418 HD
ENDBRANCH   4   7
TORSDOF 1
ENDMDL
