MODEL 1
REMARK minimizedAffinity -1.58862996
REMARK minimizedRMSD -1
REMARK  1 active torsions:
REMARK  status: ('A' for Active; 'I' for Inactive)
REMARK    1  A    between atoms: C3_4  and  O_7 
ROOT
ATOM      1  C   UNL d   1      -5.155   1.531   1.510  0.00  0.00    -0.033 A 
ATOM      2  C1  UNL d   1      -5.993   0.677   0.790  0.00  0.00     0.039 A 
ATOM      3  C2  UNL d   1      -5.946   0.661  -0.605  0.00  0.00    -0.080 A 
ATOM      4  C3  UNL d   1      -5.056   1.502  -1.268  0.00  0.00     0.150 A 
ATOM      5  C4  UNL d   1      -4.215   2.353  -0.557  0.00  0.00    -0.007 A 
ATOM      6  C5  UNL d   1      -4.265   2.368   0.836  0.00  0.00     0.039 A 
ENDROOT
BRANCH   4   7
ATOM      7  O   UNL d   1      -4.977   1.525  -2.628  0.00  0.00    -0.526 OA
ATOM      8  H5  UNL d   1      -5.636   0.907  -2.986  0.00  0.00     0.418 HD
ENDBRANCH   4   7
TORSDOF 1
ENDMDL
