MODEL 1
REMARK minimizedAffinity 0.172335401
REMARK minimizedRMSD -1
REMARK  1 active torsions:
REMARK  status: ('A' for Active; 'I' for Inactive)
REMARK    1  A    between atoms: C3_4  and  O_7 
ROOT
ATOM      1  C   UNL d   1       1.543  -1.933   3.345  0.00  0.00    -0.033 A 
ATOM      2  C1  UNL d   1       0.990  -1.133   2.343  0.00  0.00     0.039 A 
ATOM      3  C2  UNL d   1       0.728  -1.672   1.082  0.00  0.00    -0.080 A 
ATOM      4  C3  UNL d   1       1.022  -3.011   0.837  0.00  0.00     0.150 A 
ATOM      5  C4  UNL d   1       1.569  -3.815   1.832  0.00  0.00    -0.007 A 
ATOM      6  C5  UNL d   1       1.831  -3.274   3.090  0.00  0.00     0.039 A 
ENDROOT
BRANCH   4   7
ATOM      7  O   UNL d   1       0.788  -3.581  -0.379  0.00  0.00    -0.526 OA
ATOM      8  H5  UNL d   1       0.435  -2.899  -0.975  0.00  0.00     0.418 HD
ENDBRANCH   4   7
TORSDOF 1
ENDMDL
