MODEL 1
REMARK minimizedAffinity -1.03747213
REMARK minimizedRMSD -1
REMARK  1 active torsions:
REMARK  status: ('A' for Active; 'I' for Inactive)
REMARK    1  A    between atoms: C3_4  and  O_7 
ROOT
ATOM      1  C   UNL d   1      -6.000   3.531  -0.894  0.00  0.00    -0.033 A 
ATOM      2  C1  UNL d   1      -6.000   2.233  -1.409  0.00  0.00     0.039 A 
ATOM      3  C2  UNL d   1      -5.622   1.160  -0.600  0.00  0.00    -0.080 A 
ATOM      4  C3  UNL d   1      -5.247   1.397   0.720  0.00  0.00     0.150 A 
ATOM      5  C4  UNL d   1      -5.249   2.687   1.240  0.00  0.00    -0.007 A 
ATOM      6  C5  UNL d   1      -5.626   3.758   0.430  0.00  0.00     0.039 A 
ENDROOT
BRANCH   4   7
ATOM      7  O   UNL d   1      -4.866   0.382   1.546  0.00  0.00    -0.526 OA
ATOM      8  H5  UNL d   1      -4.886  -0.449   1.042  0.00  0.00     0.418 HD
ENDBRANCH   4   7
TORSDOF 1
ENDMDL
