MODEL 1
REMARK minimizedAffinity -0.604719639
REMARK minimizedRMSD -1
REMARK  1 active torsions:
REMARK  status: ('A' for Active; 'I' for Inactive)
REMARK    1  A    between atoms: C3_4  and  O_7 
ROOT
ATOM      1  C   UNL d   1       2.698   2.121   2.261  0.00  0.00    -0.033 A 
ATOM      2  C1  UNL d   1       2.140   1.867   3.515  0.00  0.00     0.039 A 
ATOM      3  C2  UNL d   1       1.807   0.562   3.882  0.00  0.00    -0.080 A 
ATOM      4  C3  UNL d   1       2.039  -0.480   2.988  0.00  0.00     0.150 A 
ATOM      5  C4  UNL d   1       2.599  -0.234   1.738  0.00  0.00    -0.007 A 
ATOM      6  C5  UNL d   1       2.929   1.070   1.373  0.00  0.00     0.039 A 
ENDROOT
BRANCH   4   7
ATOM      7  O   UNL d   1       1.727  -1.770   3.299  0.00  0.00    -0.526 OA
ATOM      8  H5  UNL d   1       1.322  -1.783   4.182  0.00  0.00     0.418 HD
ENDBRANCH   4   7
TORSDOF 1
ENDMDL
