MODEL 1
REMARK minimizedAffinity -0.669970632
REMARK minimizedRMSD -1
REMARK  1 active torsions:
REMARK  status: ('A' for Active; 'I' for Inactive)
REMARK    1  A    between atoms: C3_4  and  O_7 
ROOT
ATOM      1  C   UNL d   1      -4.925   3.759   1.328  0.00  0.00    -0.033 A 
ATOM      2  C1  UNL d   1      -4.125   2.637   1.100  0.00  0.00     0.039 A 
ATOM      3  C2  UNL d   1      -4.263   1.909  -0.084  0.00  0.00    -0.080 A 
ATOM      4  C3  UNL d   1      -5.202   2.313  -1.029  0.00  0.00     0.150 A 
ATOM      5  C4  UNL d   1      -5.999   3.431  -0.809  0.00  0.00    -0.007 A 
ATOM      6  C5  UNL d   1      -5.861   4.157   0.373  0.00  0.00     0.039 A 
ENDROOT
BRANCH   4   7
ATOM      7  O   UNL d   1      -5.376   1.631  -2.197  0.00  0.00    -0.526 OA
ATOM      8  H5  UNL d   1      -4.778   0.865  -2.198  0.00  0.00     0.418 HD
ENDBRANCH   4   7
TORSDOF 1
ENDMDL
