MODEL 1
REMARK minimizedAffinity 10.1539297
REMARK minimizedRMSD -1
REMARK  0 active torsions:
REMARK  status: ('A' for Active; 'I' for Inactive)
ROOT
ATOM      1  C   UNL d   1       0.959   0.902  -3.173  0.00  0.00     0.020 A 
ATOM      2  C1  UNL d   1       0.453   0.214  -2.071  0.00  0.00     0.020 A 
ATOM      3  C2  UNL d   1       1.316  -0.493  -1.232  0.00  0.00     0.034 A 
ATOM      4  C3  UNL d   1       2.691  -0.515  -1.494  0.00  0.00     0.017 A 
ATOM      5  C4  UNL d   1       3.198   0.175  -2.601  0.00  0.00     0.017 A 
ATOM      6  C5  UNL d   1       2.329   0.882  -3.438  0.00  0.00     0.034 A 
ATOM      7 Cl   UNL d   1       4.882   0.194  -2.989  0.00  0.00    -0.070 Cl
ATOM      8 Cl1  UNL d   1       3.701  -1.411  -0.415  0.00  0.00    -0.070 Cl
ENDROOT
TORSDOF 0
ENDMDL
