MODEL 1
REMARK minimizedAffinity 12.878149
REMARK minimizedRMSD -1
REMARK  0 active torsions:
REMARK  status: ('A' for Active; 'I' for Inactive)
ROOT
ATOM      1  C   UNL d   1      -2.716  -1.526   0.672  0.00  0.00     0.020 A 
ATOM      2  C1  UNL d   1      -1.948  -0.430   0.283  0.00  0.00     0.020 A 
ATOM      3  C2  UNL d   1      -1.823   0.672   1.132  0.00  0.00     0.034 A 
ATOM      4  C3  UNL d   1      -2.467   0.680   2.375  0.00  0.00     0.017 A 
ATOM      5  C4  UNL d   1      -3.238  -0.421   2.765  0.00  0.00     0.017 A 
ATOM      6  C5  UNL d   1      -3.360  -1.521   1.911  0.00  0.00     0.034 A 
ATOM      7 Cl   UNL d   1      -4.062  -0.484   4.282  0.00  0.00    -0.070 Cl
ATOM      8 Cl1  UNL d   1      -2.268   2.076   3.374  0.00  0.00    -0.070 Cl
ENDROOT
TORSDOF 0
ENDMDL
