MODEL 1
REMARK minimizedAffinity 1.88255799
REMARK minimizedRMSD -1
REMARK  0 active torsions:
REMARK  status: ('A' for Active; 'I' for Inactive)
ROOT
ATOM      1  C   UNL d   1      -4.166   5.999   5.423  0.00  0.00     0.020 A 
ATOM      2  C1  UNL d   1      -2.995   5.272   5.632  0.00  0.00     0.020 A 
ATOM      3  C2  UNL d   1      -2.526   4.405   4.643  0.00  0.00     0.034 A 
ATOM      4  C3  UNL d   1      -3.228   4.262   3.441  0.00  0.00     0.017 A 
ATOM      5  C4  UNL d   1      -4.404   4.992   3.232  0.00  0.00     0.017 A 
ATOM      6  C5  UNL d   1      -4.869   5.859   4.226  0.00  0.00     0.034 A 
ATOM      7 Cl   UNL d   1      -5.325   4.869   1.775  0.00  0.00    -0.070 Cl
ATOM      8 Cl1  UNL d   1      -2.589   3.173   2.262  0.00  0.00    -0.070 Cl
ENDROOT
TORSDOF 0
ENDMDL
