MODEL 1
REMARK minimizedAffinity 14.8835411
REMARK minimizedRMSD -1
REMARK  0 active torsions:
REMARK  status: ('A' for Active; 'I' for Inactive)
ROOT
ATOM      1  C   UNL d   1      -3.375  -2.034   0.918  0.00  0.00     0.020 A 
ATOM      2  C1  UNL d   1      -2.699  -0.979   0.306  0.00  0.00     0.020 A 
ATOM      3  C2  UNL d   1      -2.514   0.223   0.991  0.00  0.00     0.034 A 
ATOM      4  C3  UNL d   1      -3.006   0.375   2.292  0.00  0.00     0.017 A 
ATOM      5  C4  UNL d   1      -3.685  -0.684   2.906  0.00  0.00     0.017 A 
ATOM      6  C5  UNL d   1      -3.867  -1.886   2.215  0.00  0.00     0.034 A 
ATOM      7 Cl   UNL d   1      -4.321  -0.573   4.509  0.00  0.00    -0.070 Cl
ATOM      8 Cl1  UNL d   1      -2.742   1.889   3.080  0.00  0.00    -0.070 Cl
ENDROOT
TORSDOF 0
ENDMDL
