MODEL 1
REMARK minimizedAffinity -2.97369719
REMARK minimizedRMSD -1
REMARK  0 active torsions:
REMARK  status: ('A' for Active; 'I' for Inactive)
ROOT
ATOM      1  C   UNL d   1       4.379  -4.585   5.261  0.00  0.00     0.020 A 
ATOM      2  C1  UNL d   1       5.521  -4.264   5.993  0.00  0.00     0.020 A 
ATOM      3  C2  UNL d   1       6.000  -2.952   6.000  0.00  0.00     0.034 A 
ATOM      4  C3  UNL d   1       5.336  -1.957   5.274  0.00  0.00     0.017 A 
ATOM      5  C4  UNL d   1       4.189  -2.280   4.539  0.00  0.00     0.017 A 
ATOM      6  C5  UNL d   1       3.714  -3.596   4.536  0.00  0.00     0.034 A 
ATOM      7 Cl   UNL d   1       3.316  -1.106   3.619  0.00  0.00    -0.070 Cl
ATOM      8 Cl1  UNL d   1       5.984  -0.356   5.328  0.00  0.00    -0.070 Cl
ENDROOT
TORSDOF 0
ENDMDL
