MODEL 1
REMARK minimizedAffinity 12.8146257
REMARK minimizedRMSD -1
REMARK  0 active torsions:
REMARK  status: ('A' for Active; 'I' for Inactive)
ROOT
ATOM      1  C   UNL d   1       4.410  -5.973   5.252  0.00  0.00     0.020 A 
ATOM      2  C1  UNL d   1       5.580  -5.624   5.925  0.00  0.00     0.020 A 
ATOM      3  C2  UNL d   1       5.985  -4.288   5.973  0.00  0.00     0.034 A 
ATOM      4  C3  UNL d   1       5.220  -3.297   5.346  0.00  0.00     0.017 A 
ATOM      5  C4  UNL d   1       4.046  -3.649   4.671  0.00  0.00     0.017 A 
ATOM      6  C5  UNL d   1       3.645  -4.988   4.626  0.00  0.00     0.034 A 
ATOM      7 Cl   UNL d   1       3.050  -2.483   3.874  0.00  0.00    -0.070 Cl
ATOM      8 Cl1  UNL d   1       5.781  -1.666   5.446  0.00  0.00    -0.070 Cl
ENDROOT
TORSDOF 0
ENDMDL
