MODEL 1
REMARK minimizedAffinity 0.145287558
REMARK minimizedRMSD -1
REMARK  0 active torsions:
REMARK  status: ('A' for Active; 'I' for Inactive)
ROOT
ATOM      1  C   UNL d   1      -2.760   5.496   4.673  0.00  0.00     0.020 A 
ATOM      2  C1  UNL d   1      -4.122   5.651   4.927  0.00  0.00     0.020 A 
ATOM      3  C2  UNL d   1      -5.043   5.554   3.881  0.00  0.00     0.034 A 
ATOM      4  C3  UNL d   1      -4.602   5.301   2.577  0.00  0.00     0.017 A 
ATOM      5  C4  UNL d   1      -3.235   5.145   2.323  0.00  0.00     0.017 A 
ATOM      6  C5  UNL d   1      -2.317   5.243   3.373  0.00  0.00     0.034 A 
ATOM      7 Cl   UNL d   1      -2.616   4.831   0.740  0.00  0.00    -0.070 Cl
ATOM      8 Cl1  UNL d   1      -5.796   5.193   1.332  0.00  0.00    -0.070 Cl
ENDROOT
TORSDOF 0
ENDMDL
