MODEL 1
REMARK minimizedAffinity 11.3585939
REMARK minimizedRMSD -1
REMARK  0 active torsions:
REMARK  status: ('A' for Active; 'I' for Inactive)
ROOT
ATOM      1  C   UNL d   1       1.383  -0.187  -1.515  0.00  0.00     0.020 A 
ATOM      2  C1  UNL d   1       0.710  -0.825  -2.556  0.00  0.00     0.020 A 
ATOM      3  C2  UNL d   1       0.502  -0.160  -3.766  0.00  0.00     0.034 A 
ATOM      4  C3  UNL d   1       0.969   1.149  -3.938  0.00  0.00     0.017 A 
ATOM      5  C4  UNL d   1       1.644   1.789  -2.893  0.00  0.00     0.017 A 
ATOM      6  C5  UNL d   1       1.849   1.118  -1.684  0.00  0.00     0.034 A 
ATOM      7 Cl   UNL d   1       2.249   3.402  -3.031  0.00  0.00    -0.070 Cl
ATOM      8 Cl1  UNL d   1       0.678   1.911  -5.461  0.00  0.00    -0.070 Cl
ENDROOT
TORSDOF 0
ENDMDL
