MODEL 1
REMARK minimizedAffinity 0.955652475
REMARK minimizedRMSD -1
REMARK  0 active torsions:
REMARK  status: ('A' for Active; 'I' for Inactive)
ROOT
ATOM      1  C   UNL d   1       4.917  -5.994   5.599  0.00  0.00     0.020 A 
ATOM      2  C1  UNL d   1       3.524  -5.981   5.545  0.00  0.00     0.020 A 
ATOM      3  C2  UNL d   1       2.873  -5.974   4.310  0.00  0.00     0.034 A 
ATOM      4  C3  UNL d   1       3.615  -5.980   3.123  0.00  0.00     0.017 A 
ATOM      5  C4  UNL d   1       5.013  -5.992   3.178  0.00  0.00     0.017 A 
ATOM      6  C5  UNL d   1       5.660  -6.000   4.418  0.00  0.00     0.034 A 
ATOM      7 Cl   UNL d   1       5.997  -6.000   1.757  0.00  0.00    -0.070 Cl
ATOM      8 Cl1  UNL d   1       2.744  -5.971   1.631  0.00  0.00    -0.070 Cl
ENDROOT
TORSDOF 0
ENDMDL
