MODEL 1
REMARK minimizedAffinity 11.4881029
REMARK minimizedRMSD -1
REMARK  0 active torsions:
REMARK  status: ('A' for Active; 'I' for Inactive)
ROOT
ATOM      1  C   UNL d   1      -3.531   0.562   2.003  0.00  0.00     0.020 A 
ATOM      2  C1  UNL d   1      -2.513   0.777   2.931  0.00  0.00     0.020 A 
ATOM      3  C2  UNL d   1      -2.301   2.057   3.449  0.00  0.00     0.034 A 
ATOM      4  C3  UNL d   1      -3.107   3.125   3.039  0.00  0.00     0.017 A 
ATOM      5  C4  UNL d   1      -4.128   2.907   2.108  0.00  0.00     0.017 A 
ATOM      6  C5  UNL d   1      -4.337   1.624   1.592  0.00  0.00     0.034 A 
ATOM      7 Cl   UNL d   1      -5.164   4.176   1.554  0.00  0.00    -0.070 Cl
ATOM      8 Cl1  UNL d   1      -2.787   4.680   3.721  0.00  0.00    -0.070 Cl
ENDROOT
TORSDOF 0
ENDMDL
