MODEL 1
REMARK minimizedAffinity 13.1719961
REMARK minimizedRMSD -1
REMARK  0 active torsions:
REMARK  status: ('A' for Active; 'I' for Inactive)
ROOT
ATOM      1  C   UNL d   1      -0.519   0.772  -1.640  0.00  0.00     0.020 A 
ATOM      2  C1  UNL d   1      -0.165   1.633  -2.678  0.00  0.00     0.020 A 
ATOM      3  C2  UNL d   1       1.123   1.588  -3.214  0.00  0.00     0.034 A 
ATOM      4  C3  UNL d   1       2.063   0.679  -2.713  0.00  0.00     0.017 A 
ATOM      5  C4  UNL d   1       1.706  -0.185  -1.671  0.00  0.00     0.017 A 
ATOM      6  C5  UNL d   1       0.415  -0.135  -1.138  0.00  0.00     0.034 A 
ATOM      7 Cl   UNL d   1       2.811  -1.333  -1.000  0.00  0.00    -0.070 Cl
ATOM      8 Cl1  UNL d   1       3.637   0.677  -3.424  0.00  0.00    -0.070 Cl
ENDROOT
TORSDOF 0
ENDMDL
