MODEL 1
REMARK minimizedAffinity 10.3284159
REMARK minimizedRMSD -1
REMARK  0 active torsions:
REMARK  status: ('A' for Active; 'I' for Inactive)
ROOT
ATOM      1  C   UNL d   1      -1.633   5.076   5.998  0.00  0.00     0.020 A 
ATOM      2  C1  UNL d   1      -2.677   5.998   5.947  0.00  0.00     0.020 A 
ATOM      3  C2  UNL d   1      -3.727   5.814   5.045  0.00  0.00     0.034 A 
ATOM      4  C3  UNL d   1      -3.735   4.706   4.190  0.00  0.00     0.017 A 
ATOM      5  C4  UNL d   1      -2.686   3.781   4.242  0.00  0.00     0.017 A 
ATOM      6  C5  UNL d   1      -1.637   3.970   5.148  0.00  0.00     0.034 A 
ATOM      7 Cl   UNL d   1      -2.626   2.389   3.220  0.00  0.00    -0.070 Cl
ATOM      8 Cl1  UNL d   1      -5.065   4.541   3.100  0.00  0.00    -0.070 Cl
ENDROOT
TORSDOF 0
ENDMDL
