MODEL 1
REMARK minimizedAffinity 8.97613525
REMARK minimizedRMSD -1
REMARK  0 active torsions:
REMARK  status: ('A' for Active; 'I' for Inactive)
ROOT
ATOM      1  C   UNL d   1       2.036  -1.037  -1.492  0.00  0.00     0.020 A 
ATOM      2  C1  UNL d   1       2.311   0.328  -1.552  0.00  0.00     0.020 A 
ATOM      3  C2  UNL d   1       2.056   1.041  -2.725  0.00  0.00     0.034 A 
ATOM      4  C3  UNL d   1       1.525   0.389  -3.844  0.00  0.00     0.017 A 
ATOM      5  C4  UNL d   1       1.249  -0.982  -3.783  0.00  0.00     0.017 A 
ATOM      6  C5  UNL d   1       1.507  -1.691  -2.605  0.00  0.00     0.034 A 
ATOM      7 Cl   UNL d   1       0.593  -1.855  -5.122  0.00  0.00    -0.070 Cl
ATOM      8 Cl1  UNL d   1       1.234   1.333  -5.261  0.00  0.00    -0.070 Cl
ENDROOT
TORSDOF 0
ENDMDL
