MODEL 1
REMARK minimizedAffinity 10.7373781
REMARK minimizedRMSD -1
REMARK  0 active torsions:
REMARK  status: ('A' for Active; 'I' for Inactive)
ROOT
ATOM      1  C   UNL d   1       1.691   0.508  -1.992  0.00  0.00     0.020 A 
ATOM      2  C1  UNL d   1       0.916   0.170  -3.100  0.00  0.00     0.020 A 
ATOM      3  C2  UNL d   1       0.910   0.995  -4.227  0.00  0.00     0.034 A 
ATOM      4  C3  UNL d   1       1.681   2.163  -4.247  0.00  0.00     0.017 A 
ATOM      5  C4  UNL d   1       2.459   2.502  -3.135  0.00  0.00     0.017 A 
ATOM      6  C5  UNL d   1       2.461   1.672  -2.009  0.00  0.00     0.034 A 
ATOM      7 Cl   UNL d   1       3.436   3.927  -3.086  0.00  0.00    -0.070 Cl
ATOM      8 Cl1  UNL d   1       1.626   3.137  -5.674  0.00  0.00    -0.070 Cl
ENDROOT
TORSDOF 0
ENDMDL
