MODEL 1
REMARK minimizedAffinity 6.42064238
REMARK minimizedRMSD -1
REMARK  0 active torsions:
REMARK  status: ('A' for Active; 'I' for Inactive)
ROOT
ATOM      1  C   UNL d   1       2.280   0.423  -1.245  0.00  0.00     0.020 A 
ATOM      2  C1  UNL d   1       1.756   1.326  -2.169  0.00  0.00     0.020 A 
ATOM      3  C2  UNL d   1       1.285   0.868  -3.402  0.00  0.00     0.034 A 
ATOM      4  C3  UNL d   1       1.338  -0.495  -3.714  0.00  0.00     0.017 A 
ATOM      5  C4  UNL d   1       1.863  -1.400  -2.785  0.00  0.00     0.017 A 
ATOM      6  C5  UNL d   1       2.333  -0.937  -1.552  0.00  0.00     0.034 A 
ATOM      7 Cl   UNL d   1       1.961  -3.098  -3.097  0.00  0.00    -0.070 Cl
ATOM      8 Cl1  UNL d   1       0.738  -0.991  -5.256  0.00  0.00    -0.070 Cl
ENDROOT
TORSDOF 0
ENDMDL
