MODEL 1
REMARK minimizedAffinity 15.194562
REMARK minimizedRMSD -1
REMARK  0 active torsions:
REMARK  status: ('A' for Active; 'I' for Inactive)
ROOT
ATOM      1  C   UNL d   1      -5.453   0.010   4.651  0.00  0.00     0.020 A 
ATOM      2  C1  UNL d   1      -4.165   0.518   4.486  0.00  0.00     0.020 A 
ATOM      3  C2  UNL d   1      -3.422   0.181   3.352  0.00  0.00     0.034 A 
ATOM      4  C3  UNL d   1      -3.967  -0.666   2.380  0.00  0.00     0.017 A 
ATOM      5  C4  UNL d   1      -5.260  -1.175   2.547  0.00  0.00     0.017 A 
ATOM      6  C5  UNL d   1      -5.999  -0.834   3.684  0.00  0.00     0.034 A 
ATOM      7 Cl   UNL d   1      -5.999  -2.225   1.391  0.00  0.00    -0.070 Cl
ATOM      8 Cl1  UNL d   1      -2.992  -1.040   1.003  0.00  0.00    -0.070 Cl
ENDROOT
TORSDOF 0
ENDMDL
