MODEL 1
REMARK minimizedAffinity 3.51229787
REMARK minimizedRMSD -1
REMARK  0 active torsions:
REMARK  status: ('A' for Active; 'I' for Inactive)
ROOT
ATOM      1  C   UNL d   1       1.432   0.832  -3.279  0.00  0.00     0.020 A 
ATOM      2  C1  UNL d   1       1.170   0.712  -1.914  0.00  0.00     0.020 A 
ATOM      3  C2  UNL d   1       1.550   1.731  -1.038  0.00  0.00     0.034 A 
ATOM      4  C3  UNL d   1       2.195   2.874  -1.525  0.00  0.00     0.017 A 
ATOM      5  C4  UNL d   1       2.458   2.993  -2.895  0.00  0.00     0.017 A 
ATOM      6  C5  UNL d   1       2.075   1.970  -3.767  0.00  0.00     0.034 A 
ATOM      7 Cl   UNL d   1       3.249   4.374  -3.570  0.00  0.00    -0.070 Cl
ATOM      8 Cl1  UNL d   1       2.637   4.094  -0.385  0.00  0.00    -0.070 Cl
ENDROOT
TORSDOF 0
ENDMDL
