MODEL 1
REMARK minimizedAffinity -0.993335903
REMARK minimizedRMSD -1
REMARK  0 active torsions:
REMARK  status: ('A' for Active; 'I' for Inactive)
ROOT
ATOM      1  C   UNL d   1      -2.105  -1.645   2.153  0.00  0.00    -0.002 A 
ATOM      2  C1  UNL d   1      -1.181  -1.123   3.046  0.00  0.00     0.010 A 
ATOM      3  C2  UNL d   1      -0.106  -0.358   2.589  0.00  0.00     0.041 A 
ATOM      4  C3  UNL d   1       0.024  -0.122   1.206  0.00  0.00    -0.075 A 
ATOM      5  S   UNL d   1       1.258   0.787   0.418  0.00  0.00     0.015 SA
ATOM      6  C4  UNL d   1       0.587   0.505  -1.123  0.00  0.00     0.022 A 
ATOM      7  C5  UNL d   1      -0.552  -0.263  -1.056  0.00  0.00     0.026 A 
ATOM      8  C6  UNL d   1      -0.895  -0.636   0.287  0.00  0.00    -0.082 A 
ATOM      9  C7  UNL d   1      -1.974  -1.409   0.782  0.00  0.00     0.045 A 
ENDROOT
TORSDOF 0
ENDMDL
