MODEL 1
REMARK minimizedAffinity -3.73902225
REMARK minimizedRMSD -1
REMARK  0 active torsions:
REMARK  status: ('A' for Active; 'I' for Inactive)
ROOT
ATOM      1  C   UNL d   1      -0.775   0.686  -1.849  0.00  0.00    -0.002 A 
ATOM      2  C1  UNL d   1      -1.901   0.282  -1.146  0.00  0.00     0.010 A 
ATOM      3  C2  UNL d   1      -1.814  -0.032   0.212  0.00  0.00     0.041 A 
ATOM      4  C3  UNL d   1      -0.566   0.070   0.858  0.00  0.00    -0.075 A 
ATOM      5  S   UNL d   1      -0.222  -0.262   2.514  0.00  0.00     0.015 SA
ATOM      6  C4  UNL d   1       1.427   0.126   2.326  0.00  0.00     0.022 A 
ATOM      7  C5  UNL d   1       1.725   0.501   1.038  0.00  0.00     0.026 A 
ATOM      8  C6  UNL d   1       0.581   0.476   0.170  0.00  0.00    -0.082 A 
ATOM      9  C7  UNL d   1       0.462   0.786  -1.206  0.00  0.00     0.045 A 
ENDROOT
TORSDOF 0
ENDMDL
