MODEL 1
REMARK minimizedAffinity -0.618821859
REMARK minimizedRMSD -1
REMARK  0 active torsions:
REMARK  status: ('A' for Active; 'I' for Inactive)
ROOT
ATOM      1  C   UNL d   1       1.234   0.279   2.476  0.00  0.00    -0.002 A 
ATOM      2  C1  UNL d   1      -0.114   0.087   2.747  0.00  0.00     0.010 A 
ATOM      3  C2  UNL d   1      -1.032  -0.071   1.708  0.00  0.00     0.041 A 
ATOM      4  C3  UNL d   1      -0.569  -0.034   0.378  0.00  0.00    -0.075 A 
ATOM      5  S   UNL d   1      -1.511  -0.205  -1.056  0.00  0.00     0.015 SA
ATOM      6  C4  UNL d   1      -0.148  -0.028  -2.063  0.00  0.00     0.022 A 
ATOM      7  C5  UNL d   1       1.007   0.158  -1.340  0.00  0.00     0.026 A 
ATOM      8  C6  UNL d   1       0.783   0.157   0.079  0.00  0.00    -0.082 A 
ATOM      9  C7  UNL d   1       1.689   0.315   1.155  0.00  0.00     0.045 A 
ENDROOT
TORSDOF 0
ENDMDL
