MODEL 1
REMARK minimizedAffinity -1.8595165
REMARK minimizedRMSD -1
REMARK  0 active torsions:
REMARK  status: ('A' for Active; 'I' for Inactive)
ROOT
ATOM      1  C   UNL d   1       0.096  -0.272   1.639  0.00  0.00    -0.002 A 
ATOM      2  C1  UNL d   1      -0.844   0.225   0.747  0.00  0.00     0.010 A 
ATOM      3  C2  UNL d   1      -0.809  -0.143  -0.599  0.00  0.00     0.041 A 
ATOM      4  C3  UNL d   1       0.194  -1.029  -1.038  0.00  0.00    -0.075 A 
ATOM      5  S   UNL d   1       0.432  -1.619  -2.640  0.00  0.00     0.015 SA
ATOM      6  C4  UNL d   1       1.786  -2.545  -2.178  0.00  0.00     0.022 A 
ATOM      7  C5  UNL d   1       2.064  -2.419  -0.838  0.00  0.00     0.026 A 
ATOM      8  C6  UNL d   1       1.151  -1.543  -0.158  0.00  0.00    -0.082 A 
ATOM      9  C7  UNL d   1       1.090  -1.150   1.200  0.00  0.00     0.045 A 
ENDROOT
TORSDOF 0
ENDMDL
