MODEL 1
REMARK minimizedAffinity -2.45073318
REMARK minimizedRMSD -1
REMARK  0 active torsions:
REMARK  status: ('A' for Active; 'I' for Inactive)
ROOT
ATOM      1  C   UNL d   1       0.338  -0.601  -1.243  0.00  0.00    -0.002 A 
ATOM      2  C1  UNL d   1       0.646   0.714  -0.923  0.00  0.00     0.010 A 
ATOM      3  C2  UNL d   1       0.536   1.169   0.392  0.00  0.00     0.041 A 
ATOM      4  C3  UNL d   1       0.111   0.271   1.391  0.00  0.00    -0.075 A 
ATOM      5  S   UNL d   1      -0.096   0.606   3.070  0.00  0.00     0.015 SA
ATOM      6  C4  UNL d   1      -0.596  -0.989   3.403  0.00  0.00     0.022 A 
ATOM      7  C5  UNL d   1      -0.611  -1.771   2.272  0.00  0.00     0.026 A 
ATOM      8  C6  UNL d   1      -0.203  -1.058   1.094  0.00  0.00    -0.082 A 
ATOM      9  C7  UNL d   1      -0.083  -1.489  -0.249  0.00  0.00     0.045 A 
ENDROOT
TORSDOF 0
ENDMDL
