MODEL 1
REMARK minimizedAffinity -3.84845948
REMARK minimizedRMSD -1
REMARK  0 active torsions:
REMARK  status: ('A' for Active; 'I' for Inactive)
ROOT
ATOM      1  C   UNL d   1      -0.387  -0.388   3.050  0.00  0.00    -0.002 A 
ATOM      2  C1  UNL d   1      -1.491  -1.044   2.527  0.00  0.00     0.010 A 
ATOM      3  C2  UNL d   1      -1.758  -1.005   1.157  0.00  0.00     0.041 A 
ATOM      4  C3  UNL d   1      -0.886  -0.290   0.313  0.00  0.00    -0.075 A 
ATOM      5  S   UNL d   1      -1.013  -0.104  -1.396  0.00  0.00     0.015 SA
ATOM      6  C4  UNL d   1       0.398   0.850  -1.472  0.00  0.00     0.022 A 
ATOM      7  C5  UNL d   1       0.964   1.033  -0.233  0.00  0.00     0.026 A 
ATOM      8  C6  UNL d   1       0.234   0.379   0.816  0.00  0.00    -0.082 A 
ATOM      9  C7  UNL d   1       0.476   0.321   2.210  0.00  0.00     0.045 A 
ENDROOT
TORSDOF 0
ENDMDL
