MODEL 1
REMARK minimizedAffinity 0.357157439
REMARK minimizedRMSD -1
REMARK  0 active torsions:
REMARK  status: ('A' for Active; 'I' for Inactive)
ROOT
ATOM      1  C   UNL d   1       1.352   0.325   2.146  0.00  0.00    -0.002 A 
ATOM      2  C1  UNL d   1       0.313  -0.213   2.892  0.00  0.00     0.010 A 
ATOM      3  C2  UNL d   1      -0.994  -0.202   2.401  0.00  0.00     0.041 A 
ATOM      4  C3  UNL d   1      -1.241   0.362   1.133  0.00  0.00    -0.075 A 
ATOM      5  S   UNL d   1      -2.761   0.484   0.329  0.00  0.00     0.015 SA
ATOM      6  C4  UNL d   1      -2.066   1.252  -1.025  0.00  0.00     0.022 A 
ATOM      7  C5  UNL d   1      -0.709   1.419  -0.883  0.00  0.00     0.026 A 
ATOM      8  C6  UNL d   1      -0.211   0.908   0.363  0.00  0.00    -0.082 A 
ATOM      9  C7  UNL d   1       1.103   0.883   0.889  0.00  0.00     0.045 A 
ENDROOT
TORSDOF 0
ENDMDL
