MODEL 1
REMARK minimizedAffinity -1.65397322
REMARK minimizedRMSD -1
REMARK  0 active torsions:
REMARK  status: ('A' for Active; 'I' for Inactive)
ROOT
ATOM      1  C   UNL d   1       0.559  -0.336   2.657  0.00  0.00    -0.002 A 
ATOM      2  C1  UNL d   1       1.464  -0.015   1.654  0.00  0.00     0.010 A 
ATOM      3  C2  UNL d   1       1.015   0.381   0.393  0.00  0.00     0.041 A 
ATOM      4  C3  UNL d   1      -0.372   0.452   0.154  0.00  0.00    -0.075 A 
ATOM      5  S   UNL d   1      -1.151   0.913  -1.313  0.00  0.00     0.015 SA
ATOM      6  C4  UNL d   1      -2.704   0.696  -0.643  0.00  0.00     0.022 A 
ATOM      7  C5  UNL d   1      -2.647   0.281   0.666  0.00  0.00     0.026 A 
ATOM      8  C6  UNL d   1      -1.302   0.135   1.148  0.00  0.00    -0.082 A 
ATOM      9  C7  UNL d   1      -0.815  -0.265   2.416  0.00  0.00     0.045 A 
ENDROOT
TORSDOF 0
ENDMDL
