MODEL 1
REMARK minimizedAffinity -3.76208711
REMARK minimizedRMSD -1
REMARK  0 active torsions:
REMARK  status: ('A' for Active; 'I' for Inactive)
ROOT
ATOM      1  C   UNL d   1       0.342   0.420   2.695  0.00  0.00    -0.002 A 
ATOM      2  C1  UNL d   1      -0.217  -0.841   2.545  0.00  0.00     0.010 A 
ATOM      3  C2  UNL d   1      -0.409  -1.386   1.274  0.00  0.00     0.041 A 
ATOM      4  C3  UNL d   1      -0.024  -0.635   0.145  0.00  0.00    -0.075 A 
ATOM      5  S   UNL d   1      -0.163  -1.100  -1.509  0.00  0.00     0.015 SA
ATOM      6  C4  UNL d   1       0.518   0.364  -2.055  0.00  0.00     0.022 A 
ATOM      7  C5  UNL d   1       0.848   1.199  -1.014  0.00  0.00     0.026 A 
ATOM      8  C6  UNL d   1       0.542   0.636   0.271  0.00  0.00    -0.082 A 
ATOM      9  C7  UNL d   1       0.723   1.161   1.574  0.00  0.00     0.045 A 
ENDROOT
TORSDOF 0
ENDMDL
