MODEL 1
REMARK minimizedAffinity -2.72954869
REMARK minimizedRMSD -1
REMARK  0 active torsions:
REMARK  status: ('A' for Active; 'I' for Inactive)
ROOT
ATOM      1  C   UNL d   1       0.573  -0.723  -1.238  0.00  0.00    -0.002 A 
ATOM      2  C1  UNL d   1       1.195   0.468  -0.889  0.00  0.00     0.010 A 
ATOM      3  C2  UNL d   1       1.113   0.955   0.417  0.00  0.00     0.041 A 
ATOM      4  C3  UNL d   1       0.392   0.218   1.376  0.00  0.00    -0.075 A 
ATOM      5  S   UNL d   1       0.158   0.619   3.037  0.00  0.00     0.015 SA
ATOM      6  C4  UNL d   1      -0.771  -0.781   3.322  0.00  0.00     0.022 A 
ATOM      7  C5  UNL d   1      -0.910  -1.547   2.189  0.00  0.00     0.026 A 
ATOM      8  C6  UNL d   1      -0.241  -0.985   1.049  0.00  0.00    -0.082 A 
ATOM      9  C7  UNL d   1      -0.141  -1.452  -0.283  0.00  0.00     0.045 A 
ENDROOT
TORSDOF 0
ENDMDL
