MODEL 1
REMARK minimizedAffinity -2.16900539
REMARK minimizedRMSD -1
REMARK  0 active torsions:
REMARK  status: ('A' for Active; 'I' for Inactive)
ROOT
ATOM      1  C   UNL d   1      -0.653  -0.805   3.019  0.00  0.00    -0.002 A 
ATOM      2  C1  UNL d   1       0.040   0.396   3.027  0.00  0.00     0.010 A 
ATOM      3  C2  UNL d   1       0.524   0.945   1.837  0.00  0.00     0.041 A 
ATOM      4  C3  UNL d   1       0.294   0.260   0.628  0.00  0.00    -0.075 A 
ATOM      5  S   UNL d   1       0.792   0.743  -0.951  0.00  0.00     0.015 SA
ATOM      6  C4  UNL d   1       0.094  -0.635  -1.673  0.00  0.00     0.022 A 
ATOM      7  C5  UNL d   1      -0.507  -1.454  -0.747  0.00  0.00     0.026 A 
ATOM      8  C6  UNL d   1      -0.403  -0.951   0.595  0.00  0.00    -0.082 A 
ATOM      9  C7  UNL d   1      -0.879  -1.482   1.817  0.00  0.00     0.045 A 
ENDROOT
TORSDOF 0
ENDMDL
