MODEL 1
REMARK minimizedAffinity 2.37135005
REMARK minimizedRMSD -1
REMARK  0 active torsions:
REMARK  status: ('A' for Active; 'I' for Inactive)
ROOT
ATOM      1  C   UNL d   1       0.087   1.079   3.278  0.00  0.00    -0.002 A 
ATOM      2  C1  UNL d   1      -0.710  -0.055   3.206  0.00  0.00     0.010 A 
ATOM      3  C2  UNL d   1      -0.844  -0.753   2.005  0.00  0.00     0.041 A 
ATOM      4  C3  UNL d   1      -0.155  -0.290   0.867  0.00  0.00    -0.075 A 
ATOM      5  S   UNL d   1      -0.168  -0.986  -0.711  0.00  0.00     0.015 SA
ATOM      6  C4  UNL d   1       0.884   0.205  -1.326  0.00  0.00     0.022 A 
ATOM      7  C5  UNL d   1       1.247   1.119  -0.365  0.00  0.00     0.026 A 
ATOM      8  C6  UNL d   1       0.654   0.848   0.915  0.00  0.00    -0.082 A 
ATOM      9  C7  UNL d   1       0.769   1.535   2.147  0.00  0.00     0.045 A 
ENDROOT
TORSDOF 0
ENDMDL
