MODEL 1
REMARK minimizedAffinity 0.216511816
REMARK minimizedRMSD -1
REMARK  0 active torsions:
REMARK  status: ('A' for Active; 'I' for Inactive)
ROOT
ATOM      1  O1  BZF d   1       0.584  -2.523   2.689  0.00  0.00    -0.204 OA
ATOM      2  C2  BZF d   1       1.550  -3.400   2.232  0.00  0.00     0.174 A 
ATOM      3  C3  BZF d   1       1.945  -3.069   0.986  0.00  0.00    -0.012 A 
ATOM      4  C3A BZF d   1       1.246  -1.859   0.678  0.00  0.00    -0.107 A 
ATOM      5  C4  BZF d   1       1.231  -1.034  -0.410  0.00  0.00     0.055 A 
ATOM      6  C5  BZF d   1       0.382   0.027  -0.423  0.00  0.00    -0.016 A 
ATOM      7  C6  BZF d   1      -0.469   0.289   0.631  0.00  0.00     0.022 A 
ATOM      8  C7  BZF d   1      -0.487  -0.498   1.734  0.00  0.00     0.029 A 
ATOM      9  C7A BZF d   1       0.394  -1.552   1.764  0.00  0.00     0.058 A 
ENDROOT
TORSDOF 0
ENDMDL
