MODEL 1
REMARK minimizedAffinity -3.73429823
REMARK minimizedRMSD -1
REMARK  0 active torsions:
REMARK  status: ('A' for Active; 'I' for Inactive)
ROOT
ATOM      1  O1  BZF d   1       0.462  -0.564  -1.068  0.00  0.00    -0.204 OA
ATOM      2  C2  BZF d   1       1.472  -1.506  -1.017  0.00  0.00     0.174 A 
ATOM      3  C3  BZF d   1       1.682  -1.915   0.250  0.00  0.00    -0.012 A 
ATOM      4  C3A BZF d   1       0.683  -1.251   1.030  0.00  0.00    -0.107 A 
ATOM      5  C4  BZF d   1       0.367  -1.264   2.359  0.00  0.00     0.055 A 
ATOM      6  C5  BZF d   1      -0.619  -0.446   2.811  0.00  0.00    -0.016 A 
ATOM      7  C6  BZF d   1      -1.305   0.401   1.965  0.00  0.00     0.022 A 
ATOM      8  C7  BZF d   1      -1.031   0.445   0.639  0.00  0.00     0.029 A 
ATOM      9  C7A BZF d   1      -0.057  -0.405   0.173  0.00  0.00     0.058 A 
ENDROOT
TORSDOF 0
ENDMDL
