MODEL 1
REMARK minimizedAffinity -3.68091011
REMARK minimizedRMSD -1
REMARK  0 active torsions:
REMARK  status: ('A' for Active; 'I' for Inactive)
ROOT
ATOM      1  O1  BZF d   1       0.488  -1.055  -1.586  0.00  0.00    -0.204 OA
ATOM      2  C2  BZF d   1       1.666  -1.763  -1.443  0.00  0.00     0.174 A 
ATOM      3  C3  BZF d   1       1.935  -1.986  -0.141  0.00  0.00    -0.012 A 
ATOM      4  C3A BZF d   1       0.811  -1.460   0.571  0.00  0.00    -0.107 A 
ATOM      5  C4  BZF d   1       0.485  -1.397   1.896  0.00  0.00     0.055 A 
ATOM      6  C5  BZF d   1      -0.653  -0.752   2.266  0.00  0.00    -0.016 A 
ATOM      7  C6  BZF d   1      -1.483  -0.155   1.340  0.00  0.00     0.022 A 
ATOM      8  C7  BZF d   1      -1.203  -0.195   0.014  0.00  0.00     0.029 A 
ATOM      9  C7A BZF d   1      -0.072  -0.875  -0.366  0.00  0.00     0.058 A 
ENDROOT
TORSDOF 0
ENDMDL
