MODEL 1
REMARK minimizedAffinity -1.39213002
REMARK minimizedRMSD -1
REMARK  0 active torsions:
REMARK  status: ('A' for Active; 'I' for Inactive)
ROOT
ATOM      1  O1  BZF d   1      -1.655   2.576  -2.913  0.00  0.00    -0.204 OA
ATOM      2  C2  BZF d   1      -0.521   3.334  -3.128  0.00  0.00     0.174 A 
ATOM      3  C3  BZF d   1       0.551   2.770  -2.535  0.00  0.00    -0.012 A 
ATOM      4  C3A BZF d   1       0.074   1.537  -1.989  0.00  0.00    -0.107 A 
ATOM      5  C4  BZF d   1       0.671   0.524  -1.294  0.00  0.00     0.055 A 
ATOM      6  C5  BZF d   1      -0.092  -0.506  -0.842  0.00  0.00    -0.016 A 
ATOM      7  C6  BZF d   1      -1.453  -0.552  -1.061  0.00  0.00     0.022 A 
ATOM      8  C7  BZF d   1      -2.089   0.427  -1.749  0.00  0.00     0.029 A 
ATOM      9  C7A BZF d   1      -1.316   1.453  -2.236  0.00  0.00     0.058 A 
ENDROOT
TORSDOF 0
ENDMDL
