MODEL 1
REMARK minimizedAffinity -4.45011997
REMARK minimizedRMSD -1
REMARK  0 active torsions:
REMARK  status: ('A' for Active; 'I' for Inactive)
ROOT
ATOM      1  O1  BZF d   1      -1.445   3.197  -1.174  0.00  0.00    -0.204 OA
ATOM      2  C2  BZF d   1      -1.219   3.126  -2.535  0.00  0.00     0.174 A 
ATOM      3  C3  BZF d   1      -0.728   1.917  -2.875  0.00  0.00    -0.012 A 
ATOM      4  C3A BZF d   1      -0.728   1.156  -1.664  0.00  0.00    -0.107 A 
ATOM      5  C4  BZF d   1      -0.367  -0.126  -1.360  0.00  0.00     0.055 A 
ATOM      6  C5  BZF d   1      -0.420  -0.538  -0.066  0.00  0.00    -0.016 A 
ATOM      7  C6  BZF d   1      -0.823   0.305   0.949  0.00  0.00     0.022 A 
ATOM      8  C7  BZF d   1      -1.195   1.583   0.696  0.00  0.00     0.029 A 
ATOM      9  C7A BZF d   1      -1.175   1.993  -0.615  0.00  0.00     0.058 A 
ENDROOT
TORSDOF 0
ENDMDL
