MODEL 1
REMARK minimizedAffinity -4.10750961
REMARK minimizedRMSD -1
REMARK  0 active torsions:
REMARK  status: ('A' for Active; 'I' for Inactive)
ROOT
ATOM      1  O1  BZF d   1      -0.878   0.413  -0.940  0.00  0.00    -0.204 OA
ATOM      2  C2  BZF d   1      -0.095   0.015  -2.006  0.00  0.00     0.174 A 
ATOM      3  C3  BZF d   1       0.898  -0.799  -1.593  0.00  0.00    -0.012 A 
ATOM      4  C3A BZF d   1       0.669  -0.991  -0.193  0.00  0.00    -0.107 A 
ATOM      5  C4  BZF d   1       1.311  -1.713   0.772  0.00  0.00     0.055 A 
ATOM      6  C5  BZF d   1       0.876  -1.629   2.057  0.00  0.00    -0.016 A 
ATOM      7  C6  BZF d   1      -0.191  -0.830   2.412  0.00  0.00     0.022 A 
ATOM      8  C7  BZF d   1      -0.862  -0.100   1.488  0.00  0.00     0.029 A 
ATOM      9  C7A BZF d   1      -0.446  -0.208   0.184  0.00  0.00     0.058 A 
ENDROOT
TORSDOF 0
ENDMDL
