MODEL 1
REMARK minimizedAffinity -2.74974108
REMARK minimizedRMSD -1
REMARK  0 active torsions:
REMARK  status: ('A' for Active; 'I' for Inactive)
ROOT
ATOM      1  O1  BZF d   1      -1.504   3.410  -0.945  0.00  0.00    -0.204 OA
ATOM      2  C2  BZF d   1      -1.733   3.500  -2.304  0.00  0.00     0.174 A 
ATOM      3  C3  BZF d   1      -1.389   2.353  -2.924  0.00  0.00    -0.012 A 
ATOM      4  C3A BZF d   1      -1.001   1.460  -1.875  0.00  0.00    -0.107 A 
ATOM      5  C4  BZF d   1      -0.571   0.164  -1.856  0.00  0.00     0.055 A 
ATOM      6  C5  BZF d   1      -0.203  -0.392  -0.672  0.00  0.00    -0.016 A 
ATOM      7  C6  BZF d   1      -0.247   0.318   0.509  0.00  0.00     0.022 A 
ATOM      8  C7  BZF d   1      -0.672   1.605   0.541  0.00  0.00     0.029 A 
ATOM      9  C7A BZF d   1      -1.075   2.160  -0.648  0.00  0.00     0.058 A 
ENDROOT
TORSDOF 0
ENDMDL
