MODEL 1
REMARK minimizedAffinity -1.63774133
REMARK minimizedRMSD -1
REMARK  0 active torsions:
REMARK  status: ('A' for Active; 'I' for Inactive)
ROOT
ATOM      1  O1  BZF d   1       1.927  -1.519  -0.004  0.00  0.00    -0.204 OA
ATOM      2  C2  BZF d   1       1.790  -1.158  -1.330  0.00  0.00     0.174 A 
ATOM      3  C3  BZF d   1       0.580  -0.605  -1.553  0.00  0.00    -0.012 A 
ATOM      4  C3A BZF d   1      -0.045  -0.537  -0.267  0.00  0.00    -0.107 A 
ATOM      5  C4  BZF d   1      -1.253  -0.070   0.166  0.00  0.00     0.055 A 
ATOM      6  C5  BZF d   1      -1.588  -0.218   1.475  0.00  0.00    -0.016 A 
ATOM      7  C6  BZF d   1      -0.742  -0.831   2.376  0.00  0.00     0.022 A 
ATOM      8  C7  BZF d   1       0.469  -1.305   1.994  0.00  0.00     0.029 A 
ATOM      9  C7A BZF d   1       0.824  -1.128   0.679  0.00  0.00     0.058 A 
ENDROOT
TORSDOF 0
ENDMDL
