MODEL 1
REMARK minimizedAffinity 9.72077179
REMARK minimizedRMSD -1
REMARK  1 active torsions:
REMARK  status: ('A' for Active; 'I' for Inactive)
REMARK    1  A    between atoms: C3_4  and  O_7 
ROOT
ATOM      1  C   UNL d   1       0.293   2.079  -1.001  0.00  0.00    -0.033 A 
ATOM      2  C1  UNL d   1       0.778   1.416   0.129  0.00  0.00     0.039 A 
ATOM      3  C2  UNL d   1       0.018   1.381   1.300  0.00  0.00    -0.080 A 
ATOM      4  C3  UNL d   1      -1.223   2.012   1.328  0.00  0.00     0.150 A 
ATOM      5  C4  UNL d   1      -1.713   2.671   0.205  0.00  0.00    -0.007 A 
ATOM      6  C5  UNL d   1      -0.953   2.705  -0.963  0.00  0.00     0.039 A 
ENDROOT
BRANCH   4   7
ATOM      7  O   UNL d   1      -1.998   2.009   2.449  0.00  0.00    -0.526 OA
ATOM      8  H5  UNL d   1      -1.519   1.541   3.153  0.00  0.00     0.418 HD
ENDBRANCH   4   7
TORSDOF 1
ENDMDL
