MODEL 1
REMARK minimizedAffinity 8.08246994
REMARK minimizedRMSD -1
REMARK  1 active torsions:
REMARK  status: ('A' for Active; 'I' for Inactive)
REMARK    1  A    between atoms: C3_4  and  O_7 
ROOT
ATOM      1  C   UNL d   1      -2.353   4.955  -1.658  0.00  0.00    -0.033 A 
ATOM      2  C1  UNL d   1      -1.961   5.416  -0.399  0.00  0.00     0.039 A 
ATOM      3  C2  UNL d   1      -2.924   5.770   0.548  0.00  0.00    -0.080 A 
ATOM      4  C3  UNL d   1      -4.274   5.657   0.225  0.00  0.00     0.150 A 
ATOM      5  C4  UNL d   1      -4.672   5.195  -1.026  0.00  0.00    -0.007 A 
ATOM      6  C5  UNL d   1      -3.708   4.843  -1.970  0.00  0.00     0.039 A 
ENDROOT
BRANCH   4   7
ATOM      7  O   UNL d   1      -5.250   5.995   1.114  0.00  0.00    -0.526 OA
ATOM      8  H5  UNL d   1      -4.827   6.325   1.925  0.00  0.00     0.418 HD
ENDBRANCH   4   7
TORSDOF 1
ENDMDL
