MODEL 1
REMARK minimizedAffinity 1.0570029
REMARK minimizedRMSD -1
REMARK  1 active torsions:
REMARK  status: ('A' for Active; 'I' for Inactive)
REMARK    1  A    between atoms: N_2  and  C1_3 
ROOT
ATOM      1  C1  UNL d   1       0.022  -5.989  -4.552  0.00  0.00     0.143 A 
ATOM      2  C2  UNL d   1       0.538  -5.964  -3.252  0.00  0.00    -0.057 A 
ATOM      3  C3  UNL d   1      -0.306  -5.984  -2.135  0.00  0.00     0.033 A 
ATOM      4  C4  UNL d   1      -1.687  -5.999  -2.300  0.00  0.00    -0.042 A 
ATOM      5  C5  UNL d   1      -2.223  -5.999  -3.583  0.00  0.00     0.033 A 
ATOM      6  C6  UNL d   1      -1.375  -5.986  -4.694  0.00  0.00    -0.057 A 
ENDROOT
BRANCH   1   7
ATOM      7  N   UNL d   1       0.805  -5.872  -5.703  0.00  0.00    -0.732 N 
ATOM      8  C   UNL d   1       2.245  -5.999  -5.630  0.00  0.00     0.284 C 
ATOM      9  H3  UNL d   1       0.387  -6.334  -6.507  0.00  0.00     0.395 HD
ENDBRANCH   1   7
TORSDOF 1
ENDMDL
