MODEL 1
REMARK minimizedAffinity 0.0526191667
REMARK minimizedRMSD -1
REMARK  1 active torsions:
REMARK  status: ('A' for Active; 'I' for Inactive)
REMARK    1  A    between atoms: N_2  and  C1_3 
ROOT
ATOM      1  C1  UNL d   1      -0.151  -5.941  -5.006  0.00  0.00     0.143 A 
ATOM      2  C2  UNL d   1       0.132  -5.946  -3.636  0.00  0.00    -0.057 A 
ATOM      3  C3  UNL d   1      -0.893  -5.989  -2.683  0.00  0.00     0.033 A 
ATOM      4  C4  UNL d   1      -2.225  -6.000  -3.085  0.00  0.00    -0.042 A 
ATOM      5  C5  UNL d   1      -2.530  -5.970  -4.441  0.00  0.00     0.033 A 
ATOM      6  C6  UNL d   1      -1.502  -5.933  -5.388  0.00  0.00    -0.057 A 
ENDROOT
BRANCH   1   7
ATOM      7  N   UNL d   1       0.820  -5.799  -6.000  0.00  0.00    -0.732 N 
ATOM      8  C   UNL d   1       2.223  -5.973  -5.690  0.00  0.00     0.284 C 
ATOM      9  H3  UNL d   1       0.535  -6.215  -6.884  0.00  0.00     0.395 HD
ENDBRANCH   1   7
TORSDOF 1
ENDMDL
