MODEL 1
REMARK minimizedAffinity -0.164307773
REMARK minimizedRMSD -1
REMARK  1 active torsions:
REMARK  status: ('A' for Active; 'I' for Inactive)
REMARK    1  A    between atoms: N_2  and  C1_3 
ROOT
ATOM      1  C1  UNL d   1       0.626  -5.908  -5.289  0.00  0.00     0.143 A 
ATOM      2  C2  UNL d   1      -0.585  -5.936  -5.990  0.00  0.00    -0.057 A 
ATOM      3  C3  UNL d   1      -1.813  -5.964  -5.318  0.00  0.00     0.033 A 
ATOM      4  C4  UNL d   1      -1.851  -5.994  -3.928  0.00  0.00    -0.042 A 
ATOM      5  C5  UNL d   1      -0.660  -5.993  -3.211  0.00  0.00     0.033 A 
ATOM      6  C6  UNL d   1       0.563  -5.957  -3.888  0.00  0.00    -0.057 A 
ENDROOT
BRANCH   1   7
ATOM      7  N   UNL d   1       1.880  -5.978  -5.900  0.00  0.00    -0.732 N 
ATOM      8  C   UNL d   1       2.728  -4.809  -5.980  0.00  0.00     0.284 C 
ATOM      9  H3  UNL d   1       2.376  -6.837  -5.671  0.00  0.00     0.395 HD
ENDBRANCH   1   7
TORSDOF 1
ENDMDL
