MODEL 1
REMARK minimizedAffinity 0.671966791
REMARK minimizedRMSD -1
REMARK  1 active torsions:
REMARK  status: ('A' for Active; 'I' for Inactive)
REMARK    1  A    between atoms: N_2  and  C1_3 
ROOT
ATOM      1  C1  UNL d   1      -0.319  -5.828  -3.582  0.00  0.00     0.143 A 
ATOM      2  C2  UNL d   1       1.069  -5.901  -3.418  0.00  0.00    -0.057 A 
ATOM      3  C3  UNL d   1       1.928  -5.959  -4.521  0.00  0.00     0.033 A 
ATOM      4  C4  UNL d   1       1.412  -5.975  -5.813  0.00  0.00    -0.042 A 
ATOM      5  C5  UNL d   1       0.035  -5.928  -5.999  0.00  0.00     0.033 A 
ATOM      6  C6  UNL d   1      -0.818  -5.864  -4.893  0.00  0.00    -0.057 A 
ENDROOT
BRANCH   1   7
ATOM      7  N   UNL d   1      -1.230  -5.868  -2.524  0.00  0.00    -0.732 N 
ATOM      8  C   UNL d   1      -2.646  -5.687  -2.764  0.00  0.00     0.284 C 
ATOM      9  H3  UNL d   1      -1.013  -6.599  -1.851  0.00  0.00     0.395 HD
ENDBRANCH   1   7
TORSDOF 1
ENDMDL
