MODEL 1
REMARK minimizedAffinity 3.05174232
REMARK minimizedRMSD -1
REMARK  1 active torsions:
REMARK  status: ('A' for Active; 'I' for Inactive)
REMARK    1  A    between atoms: N_2  and  C1_3 
ROOT
ATOM      1  C1  UNL d   1       5.404   2.307  -1.549  0.00  0.00     0.143 A 
ATOM      2  C2  UNL d   1       6.000   3.495  -1.112  0.00  0.00    -0.057 A 
ATOM      3  C3  UNL d   1       5.313   4.390  -0.283  0.00  0.00     0.033 A 
ATOM      4  C4  UNL d   1       4.003   4.125   0.102  0.00  0.00    -0.042 A 
ATOM      5  C5  UNL d   1       3.381   2.963  -0.341  0.00  0.00     0.033 A 
ATOM      6  C6  UNL d   1       4.075   2.070  -1.164  0.00  0.00    -0.057 A 
ENDROOT
BRANCH   1   7
ATOM      7  N   UNL d   1       5.999   1.426  -2.455  0.00  0.00    -0.732 N 
ATOM      8  C   UNL d   1       5.911  -0.005  -2.257  0.00  0.00     0.284 C 
ATOM      9  H3  UNL d   1       5.877   1.720  -3.421  0.00  0.00     0.395 HD
ENDBRANCH   1   7
TORSDOF 1
ENDMDL
