MODEL 1
REMARK minimizedAffinity 3.41003847
REMARK minimizedRMSD -1
REMARK  1 active torsions:
REMARK  status: ('A' for Active; 'I' for Inactive)
REMARK    1  A    between atoms: N_2  and  C1_3 
ROOT
ATOM      1  C1  UNL d   1       1.011   0.146  -0.770  0.00  0.00     0.143 A 
ATOM      2  C2  UNL d   1       0.379  -0.615   0.219  0.00  0.00    -0.057 A 
ATOM      3  C3  UNL d   1       1.069  -1.039   1.361  0.00  0.00     0.033 A 
ATOM      4  C4  UNL d   1       2.417  -0.733   1.520  0.00  0.00    -0.042 A 
ATOM      5  C5  UNL d   1       3.072   0.001   0.537  0.00  0.00     0.033 A 
ATOM      6  C6  UNL d   1       2.375   0.427  -0.597  0.00  0.00    -0.057 A 
ENDROOT
BRANCH   1   7
ATOM      7  N   UNL d   1       0.405   0.514  -1.974  0.00  0.00    -0.732 N 
ATOM      8  C   UNL d   1      -1.013   0.800  -2.029  0.00  0.00     0.284 C 
ATOM      9  H3  UNL d   1       0.980   1.153  -2.519  0.00  0.00     0.395 HD
ENDBRANCH   1   7
TORSDOF 1
ENDMDL
