MODEL 1
REMARK minimizedAffinity 0.0182722136
REMARK minimizedRMSD -1
REMARK  1 active torsions:
REMARK  status: ('A' for Active; 'I' for Inactive)
REMARK    1  A    between atoms: N_2  and  C1_3 
ROOT
ATOM      1  C1  UNL d   1      -0.530  -6.000  -4.123  0.00  0.00     0.143 A 
ATOM      2  C2  UNL d   1      -0.890  -5.987  -2.771  0.00  0.00    -0.057 A 
ATOM      3  C3  UNL d   1      -2.233  -6.000  -2.377  0.00  0.00     0.033 A 
ATOM      4  C4  UNL d   1      -3.245  -5.996  -3.332  0.00  0.00    -0.042 A 
ATOM      5  C5  UNL d   1      -2.911  -5.983  -4.681  0.00  0.00     0.033 A 
ATOM      6  C6  UNL d   1      -1.567  -5.977  -5.069  0.00  0.00    -0.057 A 
ENDROOT
BRANCH   1   7
ATOM      7  N   UNL d   1       0.786  -5.889  -4.579  0.00  0.00    -0.732 N 
ATOM      8  C   UNL d   1       1.087  -5.985  -5.991  0.00  0.00     0.284 C 
ATOM      9  H3  UNL d   1       1.306  -5.162  -4.092  0.00  0.00     0.395 HD
ENDBRANCH   1   7
TORSDOF 1
ENDMDL
