MODEL 1
REMARK minimizedAffinity 3.53354883
REMARK minimizedRMSD -1
REMARK  1 active torsions:
REMARK  status: ('A' for Active; 'I' for Inactive)
REMARK    1  A    between atoms: N_2  and  C1_3 
ROOT
ATOM      1  C1  UNL d   1       0.489  -2.325   1.034  0.00  0.00     0.143 A 
ATOM      2  C2  UNL d   1      -0.318  -1.926  -0.037  0.00  0.00    -0.057 A 
ATOM      3  C3  UNL d   1      -0.209  -0.645  -0.590  0.00  0.00     0.033 A 
ATOM      4  C4  UNL d   1       0.693   0.273  -0.062  0.00  0.00    -0.042 A 
ATOM      5  C5  UNL d   1       1.488  -0.094   1.018  0.00  0.00     0.033 A 
ATOM      6  C6  UNL d   1       1.379  -1.377   1.562  0.00  0.00    -0.057 A 
ENDROOT
BRANCH   1   7
ATOM      7  N   UNL d   1       0.359  -3.551   1.691  0.00  0.00    -0.732 N 
ATOM      8  C   UNL d   1       0.041  -3.601   3.102  0.00  0.00     0.284 C 
ATOM      9  H3  UNL d   1      -0.132  -4.243   1.129  0.00  0.00     0.395 HD
ENDBRANCH   1   7
TORSDOF 1
ENDMDL
