MODEL 1
REMARK minimizedAffinity -2.03376031
REMARK minimizedRMSD -1
REMARK  1 active torsions:
REMARK  status: ('A' for Active; 'I' for Inactive)
REMARK    1  A    between atoms: N_2  and  C1_3 
ROOT
ATOM      1  C1  UNL d   1      -0.725  -5.842  -3.566  0.00  0.00     0.143 A 
ATOM      2  C2  UNL d   1       0.665  -5.998  -3.587  0.00  0.00    -0.057 A 
ATOM      3  C3  UNL d   1       1.384  -5.939  -4.788  0.00  0.00     0.033 A 
ATOM      4  C4  UNL d   1       0.719  -5.750  -5.995  0.00  0.00    -0.042 A 
ATOM      5  C5  UNL d   1      -0.665  -5.617  -6.000  0.00  0.00     0.033 A 
ATOM      6  C6  UNL d   1      -1.376  -5.671  -4.797  0.00  0.00    -0.057 A 
ENDROOT
BRANCH   1   7
ATOM      7  N   UNL d   1      -1.506  -5.989  -2.417  0.00  0.00    -0.732 N 
ATOM      8  C   UNL d   1      -2.951  -5.999  -2.505  0.00  0.00     0.284 C 
ATOM      9  H3  UNL d   1      -1.124  -6.677  -1.773  0.00  0.00     0.395 HD
ENDBRANCH   1   7
TORSDOF 1
ENDMDL
