MODEL 1
REMARK minimizedAffinity 2.51855421
REMARK minimizedRMSD -1
REMARK  1 active torsions:
REMARK  status: ('A' for Active; 'I' for Inactive)
REMARK    1  A    between atoms: N_2  and  C1_3 
ROOT
ATOM      1  C1  UNL d   1       1.538  -1.492   3.281  0.00  0.00     0.143 A 
ATOM      2  C2  UNL d   1       2.731  -0.778   3.438  0.00  0.00    -0.057 A 
ATOM      3  C3  UNL d   1       3.230   0.036   2.414  0.00  0.00     0.033 A 
ATOM      4  C4  UNL d   1       2.557   0.127   1.200  0.00  0.00    -0.042 A 
ATOM      5  C5  UNL d   1       1.383  -0.593   1.012  0.00  0.00     0.033 A 
ATOM      6  C6  UNL d   1       0.887  -1.399   2.042  0.00  0.00    -0.057 A 
ENDROOT
BRANCH   1   7
ATOM      7  N   UNL d   1       1.043  -2.395   4.225  0.00  0.00    -0.732 N 
ATOM      8  C   UNL d   1       1.541  -2.389   5.584  0.00  0.00     0.284 C 
ATOM      9  H3  UNL d   1       0.035  -2.519   4.152  0.00  0.00     0.395 HD
ENDBRANCH   1   7
TORSDOF 1
ENDMDL
