MODEL 1
REMARK minimizedAffinity 0.486813545
REMARK minimizedRMSD -1
REMARK  1 active torsions:
REMARK  status: ('A' for Active; 'I' for Inactive)
REMARK    1  A    between atoms: N_2  and  C1_3 
ROOT
ATOM      1  C1  UNL d   1      -2.698  -5.902  -3.433  0.00  0.00     0.143 A 
ATOM      2  C2  UNL d   1      -1.542  -5.971  -2.648  0.00  0.00    -0.057 A 
ATOM      3  C3  UNL d   1      -0.269  -5.999  -3.232  0.00  0.00     0.033 A 
ATOM      4  C4  UNL d   1      -0.131  -5.987  -4.616  0.00  0.00    -0.042 A 
ATOM      5  C5  UNL d   1      -1.268  -5.943  -5.416  0.00  0.00     0.033 A 
ATOM      6  C6  UNL d   1      -2.536  -5.909  -4.827  0.00  0.00    -0.057 A 
ENDROOT
BRANCH   1   7
ATOM      7  N   UNL d   1      -3.994  -5.971  -2.916  0.00  0.00    -0.732 N 
ATOM      8  C   UNL d   1      -4.217  -6.000  -1.486  0.00  0.00     0.284 C 
ATOM      9  H3  UNL d   1      -4.648  -5.382  -3.427  0.00  0.00     0.395 HD
ENDBRANCH   1   7
TORSDOF 1
ENDMDL
