MODEL 1
REMARK minimizedAffinity -2.35706449
REMARK minimizedRMSD -1
REMARK  1 active torsions:
REMARK  status: ('A' for Active; 'I' for Inactive)
REMARK    1  A    between atoms: N_2  and  C1_3 
ROOT
ATOM      1  C1  UNL d   1      -0.989  -6.000  -3.840  0.00  0.00     0.143 A 
ATOM      2  C2  UNL d   1      -1.092  -5.989  -2.445  0.00  0.00    -0.057 A 
ATOM      3  C3  UNL d   1      -2.339  -6.000  -1.808  0.00  0.00     0.033 A 
ATOM      4  C4  UNL d   1      -3.510  -5.993  -2.559  0.00  0.00    -0.042 A 
ATOM      5  C5  UNL d   1      -3.432  -5.978  -3.947  0.00  0.00     0.033 A 
ATOM      6  C6  UNL d   1      -2.184  -5.974  -4.577  0.00  0.00    -0.057 A 
ENDROOT
BRANCH   1   7
ATOM      7  N   UNL d   1       0.219  -5.890  -4.532  0.00  0.00    -0.732 N 
ATOM      8  C   UNL d   1       0.245  -5.913  -5.979  0.00  0.00     0.284 C 
ATOM      9  H3  UNL d   1       0.844  -5.203  -4.116  0.00  0.00     0.395 HD
ENDBRANCH   1   7
TORSDOF 1
ENDMDL
