MODEL 1
REMARK minimizedAffinity -1.66733789
REMARK minimizedRMSD -1
REMARK  1 active torsions:
REMARK  status: ('A' for Active; 'I' for Inactive)
REMARK    1  A    between atoms: N_2  and  C1_3 
ROOT
ATOM      1  C1  UNL d   1      -1.257  -5.999  -3.562  0.00  0.00     0.143 A 
ATOM      2  C2  UNL d   1      -1.912  -5.986  -4.798  0.00  0.00    -0.057 A 
ATOM      3  C3  UNL d   1      -1.196  -5.930  -6.000  0.00  0.00     0.033 A 
ATOM      4  C4  UNL d   1       0.193  -5.855  -5.985  0.00  0.00    -0.042 A 
ATOM      5  C5  UNL d   1       0.865  -5.841  -4.768  0.00  0.00     0.033 A 
ATOM      6  C6  UNL d   1       0.143  -5.904  -3.571  0.00  0.00    -0.057 A 
ENDROOT
BRANCH   1   7
ATOM      7  N   UNL d   1      -1.917  -5.954  -2.331  0.00  0.00    -0.732 N 
ATOM      8  C   UNL d   1      -3.362  -5.999  -2.267  0.00  0.00     0.284 C 
ATOM      9  H3  UNL d   1      -1.451  -6.515  -1.621  0.00  0.00     0.395 HD
ENDBRANCH   1   7
TORSDOF 1
ENDMDL
