MODEL 1
REMARK minimizedAffinity -1.61400855
REMARK minimizedRMSD -1
REMARK  0 active torsions:
REMARK  status: ('A' for Active; 'I' for Inactive)
ROOT
ATOM      1  C   UNL d   1      -0.902  -2.265   0.588  0.00  0.00     0.023 A 
ATOM      2  C1  UNL d   1      -0.766  -1.709  -0.684  0.00  0.00     0.003 A 
ATOM      3  C2  UNL d   1      -0.267  -0.413  -0.831  0.00  0.00     0.048 A 
ATOM      4  C3  UNL d   1       0.095   0.321   0.298  0.00  0.00     0.023 A 
ATOM      5  C4  UNL d   1      -0.039  -0.232   1.573  0.00  0.00     0.048 A 
ATOM      6  C5  UNL d   1      -0.539  -1.527   1.715  0.00  0.00     0.003 A 
ATOM      7  I   UNL d   1       0.838   2.250   0.081  0.00  0.00    -0.146 I 
ENDROOT
TORSDOF 0
ENDMDL
