MODEL 1
REMARK minimizedAffinity -1.59058583
REMARK minimizedRMSD -1
REMARK  0 active torsions:
REMARK  status: ('A' for Active; 'I' for Inactive)
ROOT
ATOM      1  C   UNL d   1       1.737   3.237   0.183  0.00  0.00     0.023 A 
ATOM      2  C1  UNL d   1       1.228   2.338  -0.754  0.00  0.00     0.003 A 
ATOM      3  C2  UNL d   1       0.545   1.196  -0.329  0.00  0.00     0.048 A 
ATOM      4  C3  UNL d   1       0.374   0.961   1.035  0.00  0.00     0.023 A 
ATOM      5  C4  UNL d   1       0.881   1.858   1.976  0.00  0.00     0.048 A 
ATOM      6  C5  UNL d   1       1.564   2.998   1.546  0.00  0.00     0.003 A 
ATOM      7  I   UNL d   1      -0.642  -0.738   1.670  0.00  0.00    -0.146 I 
ENDROOT
TORSDOF 0
ENDMDL
