MODEL 1
REMARK minimizedAffinity -1.09267366
REMARK minimizedRMSD -1
REMARK  0 active torsions:
REMARK  status: ('A' for Active; 'I' for Inactive)
ROOT
ATOM      1  C   UNL d   1      -0.664  -1.073   0.830  0.00  0.00     0.023 A 
ATOM      2  C1  UNL d   1      -0.283  -0.686  -0.455  0.00  0.00     0.003 A 
ATOM      3  C2  UNL d   1       0.206   0.602  -0.682  0.00  0.00     0.048 A 
ATOM      4  C3  UNL d   1       0.312   1.498   0.381  0.00  0.00     0.023 A 
ATOM      5  C4  UNL d   1      -0.066   1.115   1.668  0.00  0.00     0.048 A 
ATOM      6  C5  UNL d   1      -0.555  -0.173   1.890  0.00  0.00     0.003 A 
ATOM      7  I   UNL d   1       1.040   3.416   0.045  0.00  0.00    -0.146 I 
ENDROOT
TORSDOF 0
ENDMDL
