MODEL 1
REMARK minimizedAffinity -1.84898102
REMARK minimizedRMSD -1
REMARK  0 active torsions:
REMARK  status: ('A' for Active; 'I' for Inactive)
ROOT
ATOM      1  C   UNL d   1      -1.047  -2.423   0.251  0.00  0.00     0.023 A 
ATOM      2  C1  UNL d   1      -1.071  -1.732   1.462  0.00  0.00     0.003 A 
ATOM      3  C2  UNL d   1      -0.596  -0.420   1.528  0.00  0.00     0.048 A 
ATOM      4  C3  UNL d   1      -0.099   0.194   0.379  0.00  0.00     0.023 A 
ATOM      5  C4  UNL d   1      -0.073  -0.494  -0.835  0.00  0.00     0.048 A 
ATOM      6  C5  UNL d   1      -0.548  -1.805  -0.896  0.00  0.00     0.003 A 
ATOM      7  I   UNL d   1       0.608   2.146   0.476  0.00  0.00    -0.146 I 
ENDROOT
TORSDOF 0
ENDMDL
