MODEL 1
REMARK minimizedAffinity -2.55873275
REMARK minimizedRMSD -1
REMARK  0 active torsions:
REMARK  status: ('A' for Active; 'I' for Inactive)
ROOT
ATOM      1  C   UNL d   1      -0.748  -1.858   1.303  0.00  0.00     0.023 A 
ATOM      2  C1  UNL d   1       0.066  -1.258   2.263  0.00  0.00     0.003 A 
ATOM      3  C2  UNL d   1       0.690  -0.039   1.988  0.00  0.00     0.048 A 
ATOM      4  C3  UNL d   1       0.495   0.574   0.751  0.00  0.00     0.023 A 
ATOM      5  C4  UNL d   1      -0.320  -0.023  -0.213  0.00  0.00     0.048 A 
ATOM      6  C5  UNL d   1      -0.941  -1.242   0.066  0.00  0.00     0.003 A 
ATOM      7  I   UNL d   1       1.423   2.387   0.339  0.00  0.00    -0.146 I 
ENDROOT
TORSDOF 0
ENDMDL
