MODEL 1
REMARK minimizedAffinity -4.17373562
REMARK minimizedRMSD -1
REMARK  0 active torsions:
REMARK  status: ('A' for Active; 'I' for Inactive)
ROOT
ATOM      1  C   UNL d   1       0.979   2.728  -0.212  0.00  0.00     0.023 A 
ATOM      2  C1  UNL d   1       1.753   1.779   0.455  0.00  0.00     0.003 A 
ATOM      3  C2  UNL d   1       1.216   0.527   0.760  0.00  0.00     0.048 A 
ATOM      4  C3  UNL d   1      -0.096   0.230   0.393  0.00  0.00     0.023 A 
ATOM      5  C4  UNL d   1      -0.875   1.176  -0.276  0.00  0.00     0.048 A 
ATOM      6  C5  UNL d   1      -0.333   2.427  -0.577  0.00  0.00     0.003 A 
ATOM      7  I   UNL d   1      -0.899  -1.633   0.845  0.00  0.00    -0.146 I 
ENDROOT
TORSDOF 0
ENDMDL
