MODEL 1
REMARK minimizedAffinity -3.27533507
REMARK minimizedRMSD -1
REMARK  0 active torsions:
REMARK  status: ('A' for Active; 'I' for Inactive)
ROOT
ATOM      1  C   UNL d   1      -0.391  -1.324   0.710  0.00  0.00     0.023 A 
ATOM      2  C1  UNL d   1       0.837  -1.126   1.342  0.00  0.00     0.003 A 
ATOM      3  C2  UNL d   1       1.442   0.132   1.317  0.00  0.00     0.048 A 
ATOM      4  C3  UNL d   1       0.813   1.189   0.661  0.00  0.00     0.023 A 
ATOM      5  C4  UNL d   1      -0.417   0.997   0.028  0.00  0.00     0.048 A 
ATOM      6  C5  UNL d   1      -1.017  -0.263   0.054  0.00  0.00     0.003 A 
ATOM      7  I   UNL d   1       1.711   3.063   0.623  0.00  0.00    -0.146 I 
ENDROOT
TORSDOF 0
ENDMDL
