MODEL 1
REMARK minimizedAffinity -1.16375291
REMARK minimizedRMSD -1
REMARK  0 active torsions:
REMARK  status: ('A' for Active; 'I' for Inactive)
ROOT
ATOM      1  C   UNL d   1      -0.921  -1.598   0.299  0.00  0.00     0.023 A 
ATOM      2  C1  UNL d   1      -1.000  -0.771   1.421  0.00  0.00     0.003 A 
ATOM      3  C2  UNL d   1      -0.432   0.504   1.391  0.00  0.00     0.048 A 
ATOM      4  C3  UNL d   1       0.212   0.947   0.236  0.00  0.00     0.023 A 
ATOM      5  C4  UNL d   1       0.292   0.125  -0.889  0.00  0.00     0.048 A 
ATOM      6  C5  UNL d   1      -0.276  -1.150  -0.854  0.00  0.00     0.003 A 
ATOM      7  I   UNL d   1       1.058   2.845   0.189  0.00  0.00    -0.146 I 
ENDROOT
TORSDOF 0
ENDMDL
