MODEL 1
REMARK minimizedAffinity -3.75820994
REMARK minimizedRMSD -1
REMARK  0 active torsions:
REMARK  status: ('A' for Active; 'I' for Inactive)
ROOT
ATOM      1  C   UNL d   1      -0.619  -1.424   0.911  0.00  0.00     0.023 A 
ATOM      2  C1  UNL d   1      -0.685  -0.650  -0.247  0.00  0.00     0.003 A 
ATOM      3  C2  UNL d   1      -0.034   0.584  -0.302  0.00  0.00     0.048 A 
ATOM      4  C3  UNL d   1       0.683   1.037   0.806  0.00  0.00     0.023 A 
ATOM      5  C4  UNL d   1       0.752   0.265   1.966  0.00  0.00     0.048 A 
ATOM      6  C5  UNL d   1       0.099  -0.967   2.017  0.00  0.00     0.003 A 
ATOM      7  I   UNL d   1       1.653   2.873   0.727  0.00  0.00    -0.146 I 
ENDROOT
TORSDOF 0
ENDMDL
