MODEL 1
REMARK minimizedAffinity -2.92170238
REMARK minimizedRMSD -1
REMARK  0 active torsions:
REMARK  status: ('A' for Active; 'I' for Inactive)
ROOT
ATOM      1  C   UNL d   1       1.050   2.996   0.937  0.00  0.00     0.023 A 
ATOM      2  C1  UNL d   1       0.140   2.739  -0.089  0.00  0.00     0.003 A 
ATOM      3  C2  UNL d   1      -0.346   1.445  -0.284  0.00  0.00     0.048 A 
ATOM      4  C3  UNL d   1       0.080   0.413   0.551  0.00  0.00     0.023 A 
ATOM      5  C4  UNL d   1       0.989   0.666   1.580  0.00  0.00     0.048 A 
ATOM      6  C5  UNL d   1       1.473   1.961   1.771  0.00  0.00     0.003 A 
ATOM      7  I   UNL d   1      -0.643  -1.514   0.263  0.00  0.00    -0.146 I 
ENDROOT
TORSDOF 0
ENDMDL
