MODEL 1
REMARK minimizedAffinity -1.55903995
REMARK minimizedRMSD -1
REMARK  0 active torsions:
REMARK  status: ('A' for Active; 'I' for Inactive)
ROOT
ATOM      1  C   UNL d   1      -0.859  -2.621  -0.197  0.00  0.00     0.023 A 
ATOM      2  C1  UNL d   1      -1.092  -1.919   0.985  0.00  0.00     0.003 A 
ATOM      3  C2  UNL d   1      -0.741  -0.571   1.080  0.00  0.00     0.048 A 
ATOM      4  C3  UNL d   1      -0.158   0.070  -0.013  0.00  0.00     0.023 A 
ATOM      5  C4  UNL d   1       0.076  -0.628  -1.199  0.00  0.00     0.048 A 
ATOM      6  C5  UNL d   1      -0.276  -1.976  -1.288  0.00  0.00     0.003 A 
ATOM      7  I   UNL d   1       0.365   2.077   0.125  0.00  0.00    -0.146 I 
ENDROOT
TORSDOF 0
ENDMDL
