MODEL 1
REMARK minimizedAffinity -3.4721334
REMARK minimizedRMSD -1
REMARK  0 active torsions:
REMARK  status: ('A' for Active; 'I' for Inactive)
ROOT
ATOM      1  C   UNL d   1      -0.607  -0.219   0.563  0.00  0.00     0.023 A 
ATOM      2  C1  UNL d   1      -0.586   0.698  -0.488  0.00  0.00     0.003 A 
ATOM      3  C2  UNL d   1       0.209   1.843  -0.402  0.00  0.00     0.048 A 
ATOM      4  C3  UNL d   1       0.982   2.063   0.738  0.00  0.00     0.023 A 
ATOM      5  C4  UNL d   1       0.965   1.148   1.791  0.00  0.00     0.048 A 
ATOM      6  C5  UNL d   1       0.167   0.005   1.701  0.00  0.00     0.003 A 
ATOM      7  I   UNL d   1       2.166   3.766   0.869  0.00  0.00    -0.146 I 
ENDROOT
TORSDOF 0
ENDMDL
