MODEL 1
REMARK minimizedAffinity -1.59817588
REMARK minimizedRMSD -1
REMARK  0 active torsions:
REMARK  status: ('A' for Active; 'I' for Inactive)
ROOT
ATOM      1  C   UNL d   1      -1.016  -0.106   1.464  0.00  0.00     0.023 A 
ATOM      2  C1  UNL d   1      -1.350  -1.457   1.360  0.00  0.00     0.003 A 
ATOM      3  C2  UNL d   1      -1.047  -2.165   0.196  0.00  0.00     0.048 A 
ATOM      4  C3  UNL d   1      -0.411  -1.516  -0.862  0.00  0.00     0.023 A 
ATOM      5  C4  UNL d   1      -0.074  -0.165  -0.763  0.00  0.00     0.048 A 
ATOM      6  C5  UNL d   1      -0.379   0.539   0.403  0.00  0.00     0.003 A 
ATOM      7  I   UNL d   1       0.040  -2.568  -2.597  0.00  0.00    -0.146 I 
ENDROOT
TORSDOF 0
ENDMDL
