MODEL 1
REMARK minimizedAffinity -3.20818686
REMARK minimizedRMSD -1
REMARK  0 active torsions:
REMARK  status: ('A' for Active; 'I' for Inactive)
ROOT
ATOM      1  C   UNL d   1      -1.384  -0.348   0.796  0.00  0.00     0.023 A 
ATOM      2  C1  UNL d   1      -0.158  -0.511   1.441  0.00  0.00     0.003 A 
ATOM      3  C2  UNL d   1       0.845   0.448   1.290  0.00  0.00     0.048 A 
ATOM      4  C3  UNL d   1       0.615   1.569   0.492  0.00  0.00     0.023 A 
ATOM      5  C4  UNL d   1      -0.610   1.737  -0.154  0.00  0.00     0.048 A 
ATOM      6  C5  UNL d   1      -1.610   0.774  -0.001  0.00  0.00     0.003 A 
ATOM      7  I   UNL d   1       2.107   2.999   0.266  0.00  0.00    -0.146 I 
ENDROOT
TORSDOF 0
ENDMDL
