MODEL 1
REMARK minimizedAffinity 0.556625843
REMARK minimizedRMSD -1
REMARK  0 active torsions:
REMARK  status: ('A' for Active; 'I' for Inactive)
ROOT
ATOM      1  C   UNL d   1      -0.668  -0.843   1.795  0.00  0.00     0.023 A 
ATOM      2  C1  UNL d   1      -0.183  -0.067   0.743  0.00  0.00     0.003 A 
ATOM      3  C2  UNL d   1      -0.163  -0.582  -0.555  0.00  0.00     0.048 A 
ATOM      4  C3  UNL d   1      -0.630  -1.874  -0.793  0.00  0.00     0.023 A 
ATOM      5  C4  UNL d   1      -1.117  -2.654   0.256  0.00  0.00     0.048 A 
ATOM      6  C5  UNL d   1      -1.134  -2.135   1.552  0.00  0.00     0.003 A 
ATOM      7  I   UNL d   1      -0.601  -2.642  -2.724  0.00  0.00    -0.146 I 
ENDROOT
TORSDOF 0
ENDMDL
