MODEL 1
REMARK minimizedAffinity -3.06446838
REMARK minimizedRMSD -1
REMARK  0 active torsions:
REMARK  status: ('A' for Active; 'I' for Inactive)
ROOT
ATOM      1  C   UNL d   1      -0.676  -1.478   0.768  0.00  0.00     0.023 A 
ATOM      2  C1  UNL d   1       0.150  -0.973   1.772  0.00  0.00     0.003 A 
ATOM      3  C2  UNL d   1       0.786   0.258   1.602  0.00  0.00     0.048 A 
ATOM      4  C3  UNL d   1       0.590   0.981   0.425  0.00  0.00     0.023 A 
ATOM      5  C4  UNL d   1      -0.236   0.480  -0.582  0.00  0.00     0.048 A 
ATOM      6  C5  UNL d   1      -0.869  -0.752  -0.408  0.00  0.00     0.003 A 
ATOM      7  I   UNL d   1       1.536   2.814   0.169  0.00  0.00    -0.146 I 
ENDROOT
TORSDOF 0
ENDMDL
