MODEL 1
REMARK minimizedAffinity -3.42942119
REMARK minimizedRMSD -1
REMARK  0 active torsions:
REMARK  status: ('A' for Active; 'I' for Inactive)
ROOT
ATOM      1  C   UNL d   1      -0.519  -0.648   0.040  0.00  0.00     0.023 A 
ATOM      2  C1  UNL d   1      -0.606   0.314  -0.966  0.00  0.00     0.003 A 
ATOM      3  C2  UNL d   1       0.093   1.517  -0.846  0.00  0.00     0.048 A 
ATOM      4  C3  UNL d   1       0.879   1.751   0.282  0.00  0.00     0.023 A 
ATOM      5  C4  UNL d   1       0.969   0.790   1.291  0.00  0.00     0.048 A 
ATOM      6  C5  UNL d   1       0.267  -0.410   1.167  0.00  0.00     0.003 A 
ATOM      7  I   UNL d   1       1.921   3.540   0.463  0.00  0.00    -0.146 I 
ENDROOT
TORSDOF 0
ENDMDL
