MODEL 1
REMARK minimizedAffinity -1.2199235
REMARK minimizedRMSD -1
REMARK  0 active torsions:
REMARK  status: ('A' for Active; 'I' for Inactive)
ROOT
ATOM      1  C   UNL d   1      -0.497   2.822   1.530  0.00  0.00     0.023 A 
ATOM      2  C1  UNL d   1       0.319   1.883   2.160  0.00  0.00     0.003 A 
ATOM      3  C2  UNL d   1       0.531   0.634   1.572  0.00  0.00     0.048 A 
ATOM      4  C3  UNL d   1      -0.075   0.332   0.353  0.00  0.00     0.023 A 
ATOM      5  C4  UNL d   1      -0.892   1.270  -0.282  0.00  0.00     0.048 A 
ATOM      6  C5  UNL d   1      -1.102   2.517   0.311  0.00  0.00     0.003 A 
ATOM      7  I   UNL d   1       0.239  -1.525  -0.525  0.00  0.00    -0.146 I 
ENDROOT
TORSDOF 0
ENDMDL
