MODEL 1
REMARK minimizedAffinity -2.97949862
REMARK minimizedRMSD -1
REMARK  0 active torsions:
REMARK  status: ('A' for Active; 'I' for Inactive)
ROOT
ATOM      1  C   UNL d   1      -0.609   1.871   2.012  0.00  0.00     0.023 A 
ATOM      2  C1  UNL d   1       0.286   0.843   2.309  0.00  0.00     0.003 A 
ATOM      3  C2  UNL d   1       0.407  -0.250   1.449  0.00  0.00     0.048 A 
ATOM      4  C3  UNL d   1      -0.369  -0.308   0.292  0.00  0.00     0.023 A 
ATOM      5  C4  UNL d   1      -1.265   0.718  -0.011  0.00  0.00     0.048 A 
ATOM      6  C5  UNL d   1      -1.384   1.808   0.853  0.00  0.00     0.003 A 
ATOM      7  I   UNL d   1      -0.189  -1.934  -0.991  0.00  0.00    -0.146 I 
ENDROOT
TORSDOF 0
ENDMDL
