MODEL 1
REMARK minimizedAffinity -2.65709209
REMARK minimizedRMSD -1
REMARK  0 active torsions:
REMARK  status: ('A' for Active; 'I' for Inactive)
ROOT
ATOM      1  C   UNL d   1       1.065   0.185  -2.523  0.00  0.00     0.023 A 
ATOM      2  C1  UNL d   1       1.517  -0.608  -1.469  0.00  0.00     0.003 A 
ATOM      3  C2  UNL d   1       1.156  -0.299  -0.156  0.00  0.00     0.048 A 
ATOM      4  C3  UNL d   1       0.342   0.804   0.096  0.00  0.00     0.023 A 
ATOM      5  C4  UNL d   1      -0.114   1.600  -0.956  0.00  0.00     0.048 A 
ATOM      6  C5  UNL d   1       0.250   1.288  -2.267  0.00  0.00     0.003 A 
ATOM      7  I   UNL d   1      -0.197   1.266   2.049  0.00  0.00    -0.146 I 
ENDROOT
TORSDOF 0
ENDMDL
