MODEL 1
REMARK minimizedAffinity -3.79254746
REMARK minimizedRMSD -1
REMARK  0 active torsions:
REMARK  status: ('A' for Active; 'I' for Inactive)
ROOT
ATOM      1  C   UNL d   1      -0.021  -3.089  -2.138  0.00  0.00     0.023 A 
ATOM      2  C1  UNL d   1      -1.148  -2.884  -1.342  0.00  0.00     0.003 A 
ATOM      3  C2  UNL d   1      -1.200  -1.797  -0.468  0.00  0.00     0.048 A 
ATOM      4  C3  UNL d   1      -0.122  -0.916  -0.395  0.00  0.00     0.023 A 
ATOM      5  C4  UNL d   1       1.008  -1.116  -1.190  0.00  0.00     0.048 A 
ATOM      6  C5  UNL d   1       1.056  -2.205  -2.062  0.00  0.00     0.003 A 
ATOM      7  I   UNL d   1      -0.197   0.704   0.904  0.00  0.00    -0.146 I 
ENDROOT
TORSDOF 0
ENDMDL
