MODEL 1
REMARK minimizedAffinity -4.01570415
REMARK minimizedRMSD -1
REMARK  0 active torsions:
REMARK  status: ('A' for Active; 'I' for Inactive)
ROOT
ATOM      1  C   UNL d   1      -1.055   2.154   1.985  0.00  0.00     0.023 A 
ATOM      2  C1  UNL d   1      -1.510   2.174   0.666  0.00  0.00     0.003 A 
ATOM      3  C2  UNL d   1      -0.983   1.280  -0.269  0.00  0.00     0.048 A 
ATOM      4  C3  UNL d   1      -0.003   0.369   0.122  0.00  0.00     0.023 A 
ATOM      5  C4  UNL d   1       0.455   0.345   1.441  0.00  0.00     0.048 A 
ATOM      6  C5  UNL d   1      -0.074   1.241   2.372  0.00  0.00     0.003 A 
ATOM      7  I   UNL d   1       0.782  -0.962  -1.268  0.00  0.00    -0.146 I 
ENDROOT
TORSDOF 0
ENDMDL
