MODEL 1
REMARK minimizedAffinity -3.00747895
REMARK minimizedRMSD -1
REMARK  0 active torsions:
REMARK  status: ('A' for Active; 'I' for Inactive)
ROOT
ATOM      1  C   UNL d   1       0.506  -0.394  -1.484  0.00  0.00     0.023 A 
ATOM      2  C1  UNL d   1       0.255   0.931  -1.839  0.00  0.00     0.003 A 
ATOM      3  C2  UNL d   1      -0.106   1.860  -0.861  0.00  0.00     0.048 A 
ATOM      4  C3  UNL d   1      -0.213   1.457   0.470  0.00  0.00     0.023 A 
ATOM      5  C4  UNL d   1       0.039   0.132   0.829  0.00  0.00     0.048 A 
ATOM      6  C5  UNL d   1       0.398  -0.793  -0.152  0.00  0.00     0.003 A 
ATOM      7  I   UNL d   1      -0.749   2.838   1.927  0.00  0.00    -0.146 I 
ENDROOT
TORSDOF 0
ENDMDL
