MODEL 1
REMARK minimizedAffinity -2.85890412
REMARK minimizedRMSD -1
REMARK  0 active torsions:
REMARK  status: ('A' for Active; 'I' for Inactive)
ROOT
ATOM      1  C4' PXY d   1      -0.339   1.242   4.118  0.00  0.00     0.077 C 
ATOM      2  C1' PXY d   1      -1.006   0.130  -1.516  0.00  0.00     0.077 C 
ATOM      3  C1  PXY d   1      -0.836   0.433  -0.040  0.00  0.00    -0.082 A 
ATOM      4  C2  PXY d   1       0.084  -0.212   0.659  0.00  0.00     0.003 A 
ATOM      5  C3  PXY d   1       0.229   0.027   2.001  0.00  0.00     0.003 A 
ATOM      6  C4  PXY d   1      -0.539   0.975   2.623  0.00  0.00    -0.082 A 
ATOM      7  C5  PXY d   1      -1.473   1.645   1.915  0.00  0.00     0.003 A 
ATOM      8  C6  PXY d   1      -1.632   1.358   0.562  0.00  0.00     0.003 A 
ENDROOT
TORSDOF 0
ENDMDL
