MODEL 1
REMARK minimizedAffinity -4.11068344
REMARK minimizedRMSD -1
REMARK  0 active torsions:
REMARK  status: ('A' for Active; 'I' for Inactive)
ROOT
ATOM      1  C4' PXY d   1       1.285  -1.728  -0.987  0.00  0.00     0.077 C 
ATOM      2  C1' PXY d   1      -2.029   2.089   1.818  0.00  0.00     0.077 C 
ATOM      3  C1  PXY d   1      -1.164   1.093   1.071  0.00  0.00    -0.082 A 
ATOM      4  C2  PXY d   1      -0.845  -0.056   1.644  0.00  0.00     0.003 A 
ATOM      5  C3  PXY d   1      -0.038  -0.954   0.996  0.00  0.00     0.003 A 
ATOM      6  C4  PXY d   1       0.406  -0.697  -0.274  0.00  0.00    -0.082 A 
ATOM      7  C5  PXY d   1       0.077   0.469  -0.870  0.00  0.00     0.003 A 
ATOM      8  C6  PXY d   1      -0.711   1.386  -0.178  0.00  0.00     0.003 A 
ENDROOT
TORSDOF 0
ENDMDL
