MODEL 1
REMARK minimizedAffinity -1.6742512
REMARK minimizedRMSD -1
REMARK  0 active torsions:
REMARK  status: ('A' for Active; 'I' for Inactive)
ROOT
ATOM      1  C4' PXY d   1      -0.212   2.116  -1.545  0.00  0.00     0.077 C 
ATOM      2  C1' PXY d   1      -1.157  -0.620   3.459  0.00  0.00     0.077 C 
ATOM      3  C1  PXY d   1      -0.922   0.101   2.146  0.00  0.00    -0.082 A 
ATOM      4  C2  PXY d   1       0.108  -0.240   1.388  0.00  0.00     0.003 A 
ATOM      5  C3  PXY d   1       0.354   0.423   0.213  0.00  0.00     0.003 A 
ATOM      6  C4  PXY d   1      -0.493   1.409  -0.216  0.00  0.00    -0.082 A 
ATOM      7  C5  PXY d   1      -1.552   1.756   0.547  0.00  0.00     0.003 A 
ATOM      8  C6  PXY d   1      -1.760   1.099   1.756  0.00  0.00     0.003 A 
ENDROOT
TORSDOF 0
ENDMDL
