MODEL 1
REMARK minimizedAffinity -3.45937896
REMARK minimizedRMSD -1
REMARK  0 active torsions:
REMARK  status: ('A' for Active; 'I' for Inactive)
ROOT
ATOM      1  C4' PXY d   1      -2.143   2.399   1.453  0.00  0.00     0.077 C 
ATOM      2  C1' PXY d   1       1.177  -1.221  -1.595  0.00  0.00     0.077 C 
ATOM      3  C1  PXY d   1       0.312  -0.262  -0.801  0.00  0.00    -0.082 A 
ATOM      4  C2  PXY d   1      -0.199  -0.647   0.356  0.00  0.00     0.003 A 
ATOM      5  C3  PXY d   1      -1.010   0.197   1.071  0.00  0.00     0.003 A 
ATOM      6  C4  PXY d   1      -1.256   1.467   0.622  0.00  0.00    -0.082 A 
ATOM      7  C5  PXY d   1      -0.729   1.871  -0.553  0.00  0.00     0.003 A 
ATOM      8  C6  PXY d   1       0.058   0.985  -1.283  0.00  0.00     0.003 A 
ENDROOT
TORSDOF 0
ENDMDL
