MODEL 1
REMARK minimizedAffinity -3.58186722
REMARK minimizedRMSD -1
REMARK  0 active torsions:
REMARK  status: ('A' for Active; 'I' for Inactive)
ROOT
ATOM      1  C4' PXY d   1       1.396  -1.275  -0.052  0.00  0.00     0.077 C 
ATOM      2  C1' PXY d   1      -2.741   2.594   1.098  0.00  0.00     0.077 C 
ATOM      3  C1  PXY d   1      -1.658   1.582   0.784  0.00  0.00    -0.082 A 
ATOM      4  C2  PXY d   1      -1.388   0.621   1.653  0.00  0.00     0.003 A 
ATOM      5  C3  PXY d   1      -0.389  -0.283   1.399  0.00  0.00     0.003 A 
ATOM      6  C4  PXY d   1       0.304  -0.237   0.219  0.00  0.00    -0.082 A 
ATOM      7  C5  PXY d   1       0.028   0.733  -0.677  0.00  0.00     0.003 A 
ATOM      8  C6  PXY d   1      -0.962   1.667  -0.382  0.00  0.00     0.003 A 
ENDROOT
TORSDOF 0
ENDMDL
