MODEL 1
REMARK minimizedAffinity -3.81725764
REMARK minimizedRMSD -1
REMARK  0 active torsions:
REMARK  status: ('A' for Active; 'I' for Inactive)
ROOT
ATOM      1  C4' PXY d   1      -1.026   1.545   2.627  0.00  0.00     0.077 C 
ATOM      2  C1' PXY d   1       0.663  -1.959  -1.649  0.00  0.00     0.077 C 
ATOM      3  C1  PXY d   1       0.220  -1.030  -0.536  0.00  0.00    -0.082 A 
ATOM      4  C2  PXY d   1       0.431  -1.373   0.724  0.00  0.00     0.003 A 
ATOM      5  C3  PXY d   1       0.008  -0.559   1.744  0.00  0.00     0.003 A 
ATOM      6  C4  PXY d   1      -0.588   0.642   1.470  0.00  0.00    -0.082 A 
ATOM      7  C5  PXY d   1      -0.797   1.004   0.187  0.00  0.00     0.003 A 
ATOM      8  C6  PXY d   1      -0.397   0.146  -0.833  0.00  0.00     0.003 A 
ENDROOT
TORSDOF 0
ENDMDL
