MODEL 1
REMARK minimizedAffinity -4.00265598
REMARK minimizedRMSD -1
REMARK  0 active torsions:
REMARK  status: ('A' for Active; 'I' for Inactive)
ROOT
ATOM      1  C4' PXY d   1      -1.006   1.498   2.189  0.00  0.00     0.077 C 
ATOM      2  C1' PXY d   1       0.223  -1.687  -2.476  0.00  0.00     0.077 C 
ATOM      3  C1  PXY d   1      -0.102  -0.841  -1.260  0.00  0.00    -0.082 A 
ATOM      4  C2  PXY d   1       0.388  -1.180  -0.078  0.00  0.00     0.003 A 
ATOM      5  C3  PXY d   1       0.078  -0.445   1.037  0.00  0.00     0.003 A 
ATOM      6  C4  PXY d   1      -0.697   0.679   0.933  0.00  0.00    -0.082 A 
ATOM      7  C5  PXY d   1      -1.192   1.037  -0.271  0.00  0.00     0.003 A 
ATOM      8  C6  PXY d   1      -0.900   0.254  -1.384  0.00  0.00     0.003 A 
ENDROOT
TORSDOF 0
ENDMDL
