MODEL 1
REMARK minimizedAffinity -3.62206173
REMARK minimizedRMSD -1
REMARK  0 active torsions:
REMARK  status: ('A' for Active; 'I' for Inactive)
ROOT
ATOM      1  C4' PXY d   1      -0.795   0.307   1.609  0.00  0.00     0.077 C 
ATOM      2  C1' PXY d   1       1.913  -1.877  -3.008  0.00  0.00     0.077 C 
ATOM      3  C1  PXY d   1       1.209  -1.293  -1.799  0.00  0.00    -0.082 A 
ATOM      4  C2  PXY d   1       0.818  -2.092  -0.820  0.00  0.00     0.003 A 
ATOM      5  C3  PXY d   1       0.151  -1.585   0.265  0.00  0.00     0.003 A 
ATOM      6  C4  PXY d   1      -0.071  -0.238   0.374  0.00  0.00    -0.082 A 
ATOM      7  C5  PXY d   1       0.334   0.586  -0.616  0.00  0.00     0.003 A 
ATOM      8  C6  PXY d   1       0.973   0.045  -1.728  0.00  0.00     0.003 A 
ENDROOT
TORSDOF 0
ENDMDL
