MODEL 1
REMARK minimizedAffinity -3.42223454
REMARK minimizedRMSD -1
REMARK  0 active torsions:
REMARK  status: ('A' for Active; 'I' for Inactive)
ROOT
ATOM      1  C4' PXY d   1      -2.711   2.145   1.545  0.00  0.00     0.077 C 
ATOM      2  C1' PXY d   1       1.561  -0.980  -0.778  0.00  0.00     0.077 C 
ATOM      3  C1  PXY d   1       0.438  -0.170  -0.161  0.00  0.00    -0.082 A 
ATOM      4  C2  PXY d   1      -0.120   0.808  -0.854  0.00  0.00     0.003 A 
ATOM      5  C3  PXY d   1      -1.116   1.571  -0.299  0.00  0.00     0.003 A 
ATOM      6  C4  PXY d   1      -1.580   1.295   0.959  0.00  0.00    -0.082 A 
ATOM      7  C5  PXY d   1      -1.023   0.291   1.668  0.00  0.00     0.003 A 
ATOM      8  C6  PXY d   1       0.014  -0.445   1.103  0.00  0.00     0.003 A 
ENDROOT
TORSDOF 0
ENDMDL
