MODEL 1
REMARK minimizedAffinity -4.56690359
REMARK minimizedRMSD -1
REMARK  0 active torsions:
REMARK  status: ('A' for Active; 'I' for Inactive)
ROOT
ATOM      1  C4' PXY d   1       1.082  -1.356  -1.582  0.00  0.00     0.077 C 
ATOM      2  C1' PXY d   1      -1.473   2.158   2.231  0.00  0.00     0.077 C 
ATOM      3  C1  PXY d   1      -0.797   1.230   1.241  0.00  0.00    -0.082 A 
ATOM      4  C2  PXY d   1      -0.659   1.608  -0.020  0.00  0.00     0.003 A 
ATOM      5  C3  PXY d   1      -0.078   0.769  -0.935  0.00  0.00     0.003 A 
ATOM      6  C4  PXY d   1       0.414  -0.448  -0.546  0.00  0.00    -0.082 A 
ATOM      7  C5  PXY d   1       0.286  -0.836   0.741  0.00  0.00     0.003 A 
ATOM      8  C6  PXY d   1      -0.343   0.014   1.646  0.00  0.00     0.003 A 
ENDROOT
TORSDOF 0
ENDMDL
