MODEL 1
REMARK minimizedAffinity -3.91905117
REMARK minimizedRMSD -1
REMARK  0 active torsions:
REMARK  status: ('A' for Active; 'I' for Inactive)
ROOT
ATOM      1  C4' PXY d   1       1.425  -1.176  -0.039  0.00  0.00     0.077 C 
ATOM      2  C1' PXY d   1      -2.506   2.672   1.737  0.00  0.00     0.077 C 
ATOM      3  C1  PXY d   1      -1.471   1.661   1.284  0.00  0.00    -0.082 A 
ATOM      4  C2  PXY d   1      -1.013   1.706   0.043  0.00  0.00     0.003 A 
ATOM      5  C3  PXY d   1      -0.101   0.780  -0.393  0.00  0.00     0.003 A 
ATOM      6  C4  PXY d   1       0.387  -0.169   0.465  0.00  0.00    -0.082 A 
ATOM      7  C5  PXY d   1      -0.068  -0.215   1.735  0.00  0.00     0.003 A 
ATOM      8  C6  PXY d   1      -1.024   0.709   2.146  0.00  0.00     0.003 A 
ENDROOT
TORSDOF 0
ENDMDL
