MODEL 1
REMARK minimizedAffinity -5.26554155
REMARK minimizedRMSD -1
REMARK  0 active torsions:
REMARK  status: ('A' for Active; 'I' for Inactive)
ROOT
ATOM      1  C4' PXY d   1      -2.015   1.840   1.646  0.00  0.00     0.077 C 
ATOM      2  C1' PXY d   1       2.403   0.183  -1.693  0.00  0.00     0.077 C 
ATOM      3  C1  PXY d   1       1.241   0.605  -0.815  0.00  0.00    -0.082 A 
ATOM      4  C2  PXY d   1       0.685   1.792  -0.992  0.00  0.00     0.003 A 
ATOM      5  C3  PXY d   1      -0.345   2.203  -0.185  0.00  0.00     0.003 A 
ATOM      6  C4  PXY d   1      -0.847   1.368   0.777  0.00  0.00    -0.082 A 
ATOM      7  C5  PXY d   1      -0.292   0.150   0.956  0.00  0.00     0.003 A 
ATOM      8  C6  PXY d   1       0.780  -0.231   0.155  0.00  0.00     0.003 A 
ENDROOT
TORSDOF 0
ENDMDL
