MODEL 1
REMARK minimizedAffinity -1.58434784
REMARK minimizedRMSD -1
REMARK  0 active torsions:
REMARK  status: ('A' for Active; 'I' for Inactive)
ROOT
ATOM      1  C4' PXY d   1       1.405  -4.535  -1.358  0.00  0.00     0.077 C 
ATOM      2  C1' PXY d   1      -0.211   0.878  -0.133  0.00  0.00     0.077 C 
ATOM      3  C1  PXY d   1       0.202  -0.543  -0.461  0.00  0.00    -0.082 A 
ATOM      4  C2  PXY d   1       1.061  -1.173   0.324  0.00  0.00     0.003 A 
ATOM      5  C3  PXY d   1       1.470  -2.447   0.025  0.00  0.00     0.003 A 
ATOM      6  C4  PXY d   1       0.953  -3.103  -1.060  0.00  0.00    -0.082 A 
ATOM      7  C5  PXY d   1       0.068  -2.471  -1.860  0.00  0.00     0.003 A 
ATOM      8  C6  PXY d   1      -0.303  -1.163  -1.562  0.00  0.00     0.003 A 
ENDROOT
TORSDOF 0
ENDMDL
