MODEL 1
REMARK minimizedAffinity -4.17686987
REMARK minimizedRMSD -1
REMARK  0 active torsions:
REMARK  status: ('A' for Active; 'I' for Inactive)
ROOT
ATOM      1  C4' PXY d   1      -1.998   1.680   2.202  0.00  0.00     0.077 C 
ATOM      2  C1' PXY d   1       1.285  -1.815  -1.027  0.00  0.00     0.077 C 
ATOM      3  C1  PXY d   1       0.421  -0.908  -0.172  0.00  0.00    -0.082 A 
ATOM      4  C2  PXY d   1      -0.070   0.206  -0.690  0.00  0.00     0.003 A 
ATOM      5  C3  PXY d   1      -0.826   1.053   0.078  0.00  0.00     0.003 A 
ATOM      6  C4  PXY d   1      -1.128   0.730   1.373  0.00  0.00    -0.082 A 
ATOM      7  C5  PXY d   1      -0.641  -0.410   1.906  0.00  0.00     0.003 A 
ATOM      8  C6  PXY d   1       0.160  -1.236   1.122  0.00  0.00     0.003 A 
ENDROOT
TORSDOF 0
ENDMDL
