MODEL 1
REMARK minimizedAffinity -3.02844715
REMARK minimizedRMSD -1
REMARK  0 active torsions:
REMARK  status: ('A' for Active; 'I' for Inactive)
ROOT
ATOM      1  C4' PXY d   1      -2.327   1.538   1.926  0.00  0.00     0.077 C 
ATOM      2  C1' PXY d   1       1.817  -1.363  -0.873  0.00  0.00     0.077 C 
ATOM      3  C1  PXY d   1       0.732  -0.609  -0.128  0.00  0.00    -0.082 A 
ATOM      4  C2  PXY d   1      -0.219   0.009  -0.809  0.00  0.00     0.003 A 
ATOM      5  C3  PXY d   1      -1.190   0.722  -0.152  0.00  0.00     0.003 A 
ATOM      6  C4  PXY d   1      -1.217   0.757   1.216  0.00  0.00    -0.082 A 
ATOM      7  C5  PXY d   1      -0.256   0.120   1.918  0.00  0.00     0.003 A 
ATOM      8  C6  PXY d   1       0.744  -0.564   1.232  0.00  0.00     0.003 A 
ENDROOT
TORSDOF 0
ENDMDL
