MODEL 1
REMARK minimizedAffinity -3.11472654
REMARK minimizedRMSD -1
REMARK  0 active torsions:
REMARK  status: ('A' for Active; 'I' for Inactive)
ROOT
ATOM      1  C4' PXY d   1      -1.573  -0.233   3.808  0.00  0.00     0.077 C 
ATOM      2  C1' PXY d   1      -0.355   1.676  -1.510  0.00  0.00     0.077 C 
ATOM      3  C1  PXY d   1      -0.681   1.187  -0.113  0.00  0.00    -0.082 A 
ATOM      4  C2  PXY d   1       0.112   0.304   0.473  0.00  0.00     0.003 A 
ATOM      5  C3  PXY d   1      -0.185  -0.173   1.723  0.00  0.00     0.003 A 
ATOM      6  C4  PXY d   1      -1.277   0.297   2.402  0.00  0.00    -0.082 A 
ATOM      7  C5  PXY d   1      -2.086   1.205   1.816  0.00  0.00     0.003 A 
ATOM      8  C6  PXY d   1      -1.789   1.646   0.530  0.00  0.00     0.003 A 
ENDROOT
TORSDOF 0
ENDMDL
