MODEL 1
REMARK minimizedAffinity -3.92093992
REMARK minimizedRMSD -1
REMARK  0 active torsions:
REMARK  status: ('A' for Active; 'I' for Inactive)
ROOT
ATOM      1  C4' PXY d   1       0.790  -4.430  -0.114  0.00  0.00     0.077 C 
ATOM      2  C1' PXY d   1       0.606   1.298  -0.874  0.00  0.00     0.077 C 
ATOM      3  C1  PXY d   1       0.654  -0.206  -0.688  0.00  0.00    -0.082 A 
ATOM      4  C2  PXY d   1       0.204  -0.740   0.436  0.00  0.00     0.003 A 
ATOM      5  C3  PXY d   1       0.270  -2.096   0.634  0.00  0.00     0.003 A 
ATOM      6  C4  PXY d   1       0.752  -2.917  -0.350  0.00  0.00    -0.082 A 
ATOM      7  C5  PXY d   1       1.203  -2.380  -1.503  0.00  0.00     0.003 A 
ATOM      8  C6  PXY d   1       1.166  -0.999  -1.668  0.00  0.00     0.003 A 
ENDROOT
TORSDOF 0
ENDMDL
