MODEL 1
REMARK minimizedAffinity -5.17301178
REMARK minimizedRMSD -1
REMARK  0 active torsions:
REMARK  status: ('A' for Active; 'I' for Inactive)
ROOT
ATOM      1  C4' PXY d   1       0.740  -1.368  -0.769  0.00  0.00     0.077 C 
ATOM      2  C1' PXY d   1      -2.336   3.009   1.420  0.00  0.00     0.077 C 
ATOM      3  C1  PXY d   1      -1.529   1.855   0.858  0.00  0.00    -0.082 A 
ATOM      4  C2  PXY d   1      -0.809   2.033  -0.238  0.00  0.00     0.003 A 
ATOM      5  C3  PXY d   1      -0.099   0.992  -0.778  0.00  0.00     0.003 A 
ATOM      6  C4  PXY d   1      -0.083  -0.229  -0.160  0.00  0.00    -0.082 A 
ATOM      7  C5  PXY d   1      -0.806  -0.416   0.964  0.00  0.00     0.003 A 
ATOM      8  C6  PXY d   1      -1.553   0.642   1.473  0.00  0.00     0.003 A 
ENDROOT
TORSDOF 0
ENDMDL
