MODEL 1
REMARK minimizedAffinity -4.75317574
REMARK minimizedRMSD -1
REMARK  0 active torsions:
REMARK  status: ('A' for Active; 'I' for Inactive)
ROOT
ATOM      1  C4' PXY d   1       0.921  -1.504  -1.130  0.00  0.00     0.077 C 
ATOM      2  C1' PXY d   1      -2.328   2.198   1.895  0.00  0.00     0.077 C 
ATOM      3  C1  PXY d   1      -1.470   1.223   1.113  0.00  0.00    -0.082 A 
ATOM      4  C2  PXY d   1      -1.202   1.464  -0.160  0.00  0.00     0.003 A 
ATOM      5  C3  PXY d   1      -0.455   0.576  -0.891  0.00  0.00     0.003 A 
ATOM      6  C4  PXY d   1       0.067  -0.542  -0.299  0.00  0.00    -0.082 A 
ATOM      7  C5  PXY d   1      -0.193  -0.789   1.002  0.00  0.00     0.003 A 
ATOM      8  C6  PXY d   1      -0.988   0.103   1.716  0.00  0.00     0.003 A 
ENDROOT
TORSDOF 0
ENDMDL
