MODEL 1
REMARK minimizedAffinity -3.33382988
REMARK minimizedRMSD -1
REMARK  0 active torsions:
REMARK  status: ('A' for Active; 'I' for Inactive)
ROOT
ATOM      1  C4' PXY d   1      -2.460   2.077   1.746  0.00  0.00     0.077 C 
ATOM      2  C1' PXY d   1       1.305  -1.383  -0.950  0.00  0.00     0.077 C 
ATOM      3  C1  PXY d   1       0.314  -0.486  -0.235  0.00  0.00    -0.082 A 
ATOM      4  C2  PXY d   1      -0.167   0.580  -0.854  0.00  0.00     0.003 A 
ATOM      5  C3  PXY d   1      -1.040   1.420  -0.211  0.00  0.00     0.003 A 
ATOM      6  C4  PXY d   1      -1.465   1.137   1.059  0.00  0.00    -0.082 A 
ATOM      7  C5  PXY d   1      -0.986   0.046   1.694  0.00  0.00     0.003 A 
ATOM      8  C6  PXY d   1      -0.070  -0.771   1.039  0.00  0.00     0.003 A 
ENDROOT
TORSDOF 0
ENDMDL
