MODEL 1
REMARK minimizedAffinity 7.69357729
REMARK minimizedRMSD -1
REMARK  3 active torsions:
REMARK  status: ('A' for Active; 'I' for Inactive)
REMARK    1  A    between atoms: C3'_2  and  C2'_3 
REMARK    2  A    between atoms: C2'_3  and  C1'_4 
REMARK    3  A    between atoms: C1'_4  and  C1_5 
ROOT
ATOM      1  C1  N4B d   1      -1.468  -0.121   2.509  0.00  0.00    -0.075 A 
ATOM      2  C2  N4B d   1      -1.929  -1.044   1.545  0.00  0.00     0.002 A 
ATOM      3  C3  N4B d   1      -2.989  -0.719   0.735  0.00  0.00     0.002 A 
ATOM      4  C4  N4B d   1      -3.614   0.511   0.883  0.00  0.00    -0.004 A 
ATOM      5  C5  N4B d   1      -3.146   1.407   1.800  0.00  0.00     0.002 A 
ATOM      6  C6  N4B d   1      -2.079   1.094   2.618  0.00  0.00     0.002 A 
ENDROOT
BRANCH   1   7
ATOM      7  C1' N4B d   1      -0.368  -0.465   3.475  0.00  0.00     0.057 C 
BRANCH   7   8
ATOM      8  C2' N4B d   1       0.698  -1.283   2.750  0.00  0.00     0.009 C 
BRANCH   8   9
ATOM      9  C3' N4B d   1       1.438  -2.215   3.694  0.00  0.00     0.004 C 
ATOM     10  C4' N4B d   1       0.818  -3.579   3.766  0.00  0.00     0.003 C 
ENDBRANCH   8   9
ENDBRANCH   7   8
ENDBRANCH   1   7
TORSDOF 3
ENDMDL
