MODEL 1
REMARK minimizedAffinity 18.2730217
REMARK minimizedRMSD -1
REMARK  3 active torsions:
REMARK  status: ('A' for Active; 'I' for Inactive)
REMARK    1  A    between atoms: C3'_2  and  C2'_3 
REMARK    2  A    between atoms: C2'_3  and  C1'_4 
REMARK    3  A    between atoms: C1'_4  and  C1_5 
ROOT
ATOM      1  C1  N4B d   1       3.788   3.260  -3.351  0.00  0.00    -0.075 A 
ATOM      2  C2  N4B d   1       4.856   3.994  -2.789  0.00  0.00     0.002 A 
ATOM      3  C3  N4B d   1       5.877   4.443  -3.590  0.00  0.00     0.002 A 
ATOM      4  C4  N4B d   1       5.861   4.157  -4.947  0.00  0.00    -0.004 A 
ATOM      5  C5  N4B d   1       4.813   3.470  -5.486  0.00  0.00     0.002 A 
ATOM      6  C6  N4B d   1       3.778   3.015  -4.694  0.00  0.00     0.002 A 
ENDROOT
BRANCH   1   7
ATOM      7  C1' N4B d   1       2.693   2.674  -2.502  0.00  0.00     0.057 C 
BRANCH   7   8
ATOM      8  C2' N4B d   1       1.354   2.873  -3.205  0.00  0.00     0.009 C 
BRANCH   8   9
ATOM      9  C3' N4B d   1       0.865   4.307  -3.103  0.00  0.00     0.004 C 
ATOM     10  C4' N4B d   1      -0.283   4.597  -4.023  0.00  0.00     0.003 C 
ENDBRANCH   8   9
ENDBRANCH   7   8
ENDBRANCH   1   7
TORSDOF 3
ENDMDL
