MODEL 1
REMARK minimizedAffinity 10.2238398
REMARK minimizedRMSD -1
REMARK  3 active torsions:
REMARK  status: ('A' for Active; 'I' for Inactive)
REMARK    1  A    between atoms: C3'_2  and  C2'_3 
REMARK    2  A    between atoms: C2'_3  and  C1'_4 
REMARK    3  A    between atoms: C1'_4  and  C1_5 
ROOT
ATOM      1  C1  N4B d   1      -3.932   0.586   1.914  0.00  0.00    -0.075 A 
ATOM      2  C2  N4B d   1      -3.453   1.124   3.129  0.00  0.00     0.002 A 
ATOM      3  C3  N4B d   1      -2.248   0.706   3.637  0.00  0.00     0.002 A 
ATOM      4  C4  N4B d   1      -1.516  -0.259   2.961  0.00  0.00    -0.004 A 
ATOM      5  C5  N4B d   1      -1.974  -0.756   1.776  0.00  0.00     0.002 A 
ATOM      6  C6  N4B d   1      -3.182  -0.341   1.251  0.00  0.00     0.002 A 
ENDROOT
BRANCH   1   7
ATOM      7  C1' N4B d   1      -5.284   0.950   1.363  0.00  0.00     0.057 C 
BRANCH   7   8
ATOM      8  C2' N4B d   1      -5.622   0.012   0.208  0.00  0.00     0.009 C 
BRANCH   8   9
ATOM      9  C3' N4B d   1      -5.679   0.746  -1.121  0.00  0.00     0.004 C 
ATOM     10  C4' N4B d   1      -6.000  -0.161  -2.272  0.00  0.00     0.003 C 
ENDBRANCH   8   9
ENDBRANCH   7   8
ENDBRANCH   1   7
TORSDOF 3
ENDMDL
