MODEL 1
REMARK minimizedAffinity 18.2926197
REMARK minimizedRMSD -1
REMARK  3 active torsions:
REMARK  status: ('A' for Active; 'I' for Inactive)
REMARK    1  A    between atoms: C3'_2  and  C2'_3 
REMARK    2  A    between atoms: C2'_3  and  C1'_4 
REMARK    3  A    between atoms: C1'_4  and  C1_5 
ROOT
ATOM      1  C1  N4B d   1      -2.977   5.462  -3.812  0.00  0.00    -0.075 A 
ATOM      2  C2  N4B d   1      -3.097   5.415  -5.218  0.00  0.00     0.002 A 
ATOM      3  C3  N4B d   1      -1.973   5.299  -5.999  0.00  0.00     0.002 A 
ATOM      4  C4  N4B d   1      -0.724   5.246  -5.399  0.00  0.00    -0.004 A 
ATOM      5  C5  N4B d   1      -0.619   5.266  -4.039  0.00  0.00     0.002 A 
ATOM      6  C6  N4B d   1      -1.740   5.379  -3.242  0.00  0.00     0.002 A 
ENDROOT
BRANCH   1   7
ATOM      7  C1' N4B d   1      -4.170   5.675  -2.920  0.00  0.00     0.057 C 
BRANCH   7   8
ATOM      8  C2' N4B d   1      -3.756   5.454  -1.468  0.00  0.00     0.009 C 
BRANCH   8   9
ATOM      9  C3' N4B d   1      -4.891   4.888  -0.633  0.00  0.00     0.004 C 
ATOM     10  C4' N4B d   1      -5.213   3.464  -0.979  0.00  0.00     0.003 C 
ENDBRANCH   8   9
ENDBRANCH   7   8
ENDBRANCH   1   7
TORSDOF 3
ENDMDL
