MODEL 1
REMARK minimizedAffinity 14.4898796
REMARK minimizedRMSD -1
REMARK  3 active torsions:
REMARK  status: ('A' for Active; 'I' for Inactive)
REMARK    1  A    between atoms: C3'_2  and  C2'_3 
REMARK    2  A    between atoms: C2'_3  and  C1'_4 
REMARK    3  A    between atoms: C1'_4  and  C1_5 
ROOT
ATOM      1  C1  N4B d   1       5.863   4.735  -1.972  0.00  0.00    -0.075 A 
ATOM      2  C2  N4B d   1       5.878   5.972  -1.291  0.00  0.00     0.002 A 
ATOM      3  C3  N4B d   1       5.933   6.000   0.081  0.00  0.00     0.002 A 
ATOM      4  C4  N4B d   1       5.954   4.809   0.791  0.00  0.00    -0.004 A 
ATOM      5  C5  N4B d   1       5.965   3.618   0.125  0.00  0.00     0.002 A 
ATOM      6  C6  N4B d   1       5.914   3.575  -1.254  0.00  0.00     0.002 A 
ENDROOT
BRANCH   1   7
ATOM      7  C1' N4B d   1       5.717   4.654  -3.467  0.00  0.00     0.057 C 
BRANCH   7   8
ATOM      8  C2' N4B d   1       4.665   3.604  -3.811  0.00  0.00     0.009 C 
BRANCH   8   9
ATOM      9  C3' N4B d   1       3.488   3.643  -2.851  0.00  0.00     0.004 C 
ATOM     10  C4' N4B d   1       2.724   2.353  -2.816  0.00  0.00     0.003 C 
ENDBRANCH   8   9
ENDBRANCH   7   8
ENDBRANCH   1   7
TORSDOF 3
ENDMDL
