MODEL 1
REMARK minimizedAffinity 14.8914042
REMARK minimizedRMSD -1
REMARK  3 active torsions:
REMARK  status: ('A' for Active; 'I' for Inactive)
REMARK    1  A    between atoms: C3'_2  and  C2'_3 
REMARK    2  A    between atoms: C2'_3  and  C1'_4 
REMARK    3  A    between atoms: C1'_4  and  C1_5 
ROOT
ATOM      1  C1  N4B d   1      -3.204  -5.279  -5.021  0.00  0.00    -0.075 A 
ATOM      2  C2  N4B d   1      -3.952  -5.999  -5.979  0.00  0.00     0.002 A 
ATOM      3  C3  N4B d   1      -5.323  -5.917  -5.982  0.00  0.00     0.002 A 
ATOM      4  C4  N4B d   1      -5.966  -5.139  -5.031  0.00  0.00    -0.004 A 
ATOM      5  C5  N4B d   1      -5.236  -4.426  -4.126  0.00  0.00     0.002 A 
ATOM      6  C6  N4B d   1      -3.857  -4.496  -4.113  0.00  0.00     0.002 A 
ENDROOT
BRANCH   1   7
ATOM      7  C1' N4B d   1      -1.709  -5.405  -4.924  0.00  0.00     0.057 C 
BRANCH   7   8
ATOM      8  C2' N4B d   1      -1.293  -5.307  -3.459  0.00  0.00     0.009 C 
BRANCH   8   9
ATOM      9  C3' N4B d   1      -0.532  -4.025  -3.168  0.00  0.00     0.004 C 
ATOM     10  C4' N4B d   1      -1.273  -3.109  -2.240  0.00  0.00     0.003 C 
ENDBRANCH   8   9
ENDBRANCH   7   8
ENDBRANCH   1   7
TORSDOF 3
ENDMDL
