MODEL 1
REMARK minimizedAffinity 11.3805819
REMARK minimizedRMSD -1
REMARK  3 active torsions:
REMARK  status: ('A' for Active; 'I' for Inactive)
REMARK    1  A    between atoms: C3'_2  and  C2'_3 
REMARK    2  A    between atoms: C2'_3  and  C1'_4 
REMARK    3  A    between atoms: C1'_4  and  C1_5 
ROOT
ATOM      1  C1  N4B d   1      -3.406   0.390   0.630  0.00  0.00    -0.075 A 
ATOM      2  C2  N4B d   1      -3.672   0.944  -0.641  0.00  0.00     0.002 A 
ATOM      3  C3  N4B d   1      -4.962   1.247  -1.001  0.00  0.00     0.002 A 
ATOM      4  C4  N4B d   1      -6.000   0.988  -0.118  0.00  0.00    -0.004 A 
ATOM      5  C5  N4B d   1      -5.731   0.476   1.117  0.00  0.00     0.002 A 
ATOM      6  C6  N4B d   1      -4.439   0.170   1.494  0.00  0.00     0.002 A 
ENDROOT
BRANCH   1   7
ATOM      7  C1' N4B d   1      -2.022  -0.037   1.036  0.00  0.00     0.057 C 
BRANCH   7   8
ATOM      8  C2' N4B d   1      -2.125  -1.166   2.058  0.00  0.00     0.009 C 
BRANCH   8   9
ATOM      9  C3' N4B d   1      -1.462  -0.802   3.375  0.00  0.00     0.004 C 
ATOM     10  C4' N4B d   1      -2.376  -0.052   4.298  0.00  0.00     0.003 C 
ENDBRANCH   8   9
ENDBRANCH   7   8
ENDBRANCH   1   7
TORSDOF 3
ENDMDL
