MODEL 1
REMARK minimizedAffinity 8.69491768
REMARK minimizedRMSD -1
REMARK  0 active torsions:
REMARK  status: ('A' for Active; 'I' for Inactive)
ROOT
ATOM      1  C2' OXE d   1      -0.584  -5.930   0.615  0.00  0.00     0.078 C 
ATOM      2  C1' OXE d   1      -2.510  -5.977   2.656  0.00  0.00     0.078 C 
ATOM      3  C1  OXE d   1      -1.057  -5.963   3.061  0.00  0.00    -0.078 A 
ATOM      4  C2  OXE d   1      -0.121  -5.987   2.055  0.00  0.00    -0.078 A 
ATOM      5  C3  OXE d   1       1.233  -5.920   2.372  0.00  0.00     0.003 A 
ATOM      6  C4  OXE d   1       1.652  -5.984   3.706  0.00  0.00    -0.002 A 
ATOM      7  C5  OXE d   1       0.716  -6.000   4.745  0.00  0.00    -0.002 A 
ATOM      8  C6  OXE d   1      -0.640  -5.947   4.441  0.00  0.00     0.003 A 
ENDROOT
TORSDOF 0
ENDMDL
