MODEL 1
REMARK minimizedAffinity 2.69389582
REMARK minimizedRMSD -1
REMARK  0 active torsions:
REMARK  status: ('A' for Active; 'I' for Inactive)
ROOT
ATOM      1  C2' OXE d   1       2.622  -5.884   5.987  0.00  0.00     0.078 C 
ATOM      2  C1' OXE d   1       4.066  -5.874   3.580  0.00  0.00     0.078 C 
ATOM      3  C1  OXE d   1       2.561  -5.897   3.497  0.00  0.00    -0.078 A 
ATOM      4  C2  OXE d   1       1.863  -5.949   4.680  0.00  0.00    -0.078 A 
ATOM      5  C3  OXE d   1       0.471  -5.917   4.661  0.00  0.00     0.003 A 
ATOM      6  C4  OXE d   1      -0.223  -5.988   3.448  0.00  0.00    -0.002 A 
ATOM      7  C5  OXE d   1       0.469  -5.976   2.232  0.00  0.00    -0.002 A 
ATOM      8  C6  OXE d   1       1.856  -5.888   2.239  0.00  0.00     0.003 A 
ENDROOT
TORSDOF 0
ENDMDL
