MODEL 1
REMARK minimizedAffinity 2.97261834
REMARK minimizedRMSD -1
REMARK  0 active torsions:
REMARK  status: ('A' for Active; 'I' for Inactive)
ROOT
ATOM      1  C2' OXE d   1      -0.956  -1.444   1.944  0.00  0.00     0.078 C 
ATOM      2  C1' OXE d   1      -1.205   1.349   2.058  0.00  0.00     0.078 C 
ATOM      3  C1  OXE d   1       0.177   0.773   1.878  0.00  0.00    -0.078 A 
ATOM      4  C2  OXE d   1       0.295  -0.596   1.870  0.00  0.00    -0.078 A 
ATOM      5  C3  OXE d   1       1.540  -1.180   1.652  0.00  0.00     0.003 A 
ATOM      6  C4  OXE d   1       2.693  -0.388   1.595  0.00  0.00    -0.002 A 
ATOM      7  C5  OXE d   1       2.600   1.007   1.641  0.00  0.00    -0.002 A 
ATOM      8  C6  OXE d   1       1.348   1.603   1.739  0.00  0.00     0.003 A 
ENDROOT
TORSDOF 0
ENDMDL
