MODEL 1
REMARK minimizedAffinity 6.61783457
REMARK minimizedRMSD -1
REMARK  0 active torsions:
REMARK  status: ('A' for Active; 'I' for Inactive)
ROOT
ATOM      1  C2' OXE d   1       1.634   1.954   1.510  0.00  0.00     0.078 C 
ATOM      2  C1' OXE d   1       1.270  -0.303  -0.119  0.00  0.00     0.078 C 
ATOM      3  C1  OXE d   1       0.328  -0.116   1.044  0.00  0.00    -0.078 A 
ATOM      4  C2  OXE d   1       0.543   0.966   1.864  0.00  0.00    -0.078 A 
ATOM      5  C3  OXE d   1      -0.330   1.216   2.919  0.00  0.00     0.003 A 
ATOM      6  C4  OXE d   1      -1.331   0.292   3.244  0.00  0.00    -0.002 A 
ATOM      7  C5  OXE d   1      -1.541  -0.837   2.446  0.00  0.00    -0.002 A 
ATOM      8  C6  OXE d   1      -0.749  -1.033   1.320  0.00  0.00     0.003 A 
ENDROOT
TORSDOF 0
ENDMDL
