MODEL 1
REMARK minimizedAffinity 9.92604542
REMARK minimizedRMSD -1
REMARK  0 active torsions:
REMARK  status: ('A' for Active; 'I' for Inactive)
ROOT
ATOM      1  C2' OXE d   1       0.384  -2.881  -6.000  0.00  0.00     0.078 C 
ATOM      2  C1' OXE d   1       1.001  -1.307  -3.759  0.00  0.00     0.078 C 
ATOM      3  C1  OXE d   1      -0.391  -1.879  -3.855  0.00  0.00    -0.078 A 
ATOM      4  C2  OXE d   1      -0.699  -2.609  -4.978  0.00  0.00    -0.078 A 
ATOM      5  C3  OXE d   1      -1.951  -3.206  -5.091  0.00  0.00     0.003 A 
ATOM      6  C4  OXE d   1      -2.950  -2.942  -4.145  0.00  0.00    -0.002 A 
ATOM      7  C5  OXE d   1      -2.670  -2.168  -3.014  0.00  0.00    -0.002 A 
ATOM      8  C6  OXE d   1      -1.386  -1.666  -2.833  0.00  0.00     0.003 A 
ENDROOT
TORSDOF 0
ENDMDL
