MODEL 1
REMARK minimizedAffinity 12.367445
REMARK minimizedRMSD -1
REMARK  0 active torsions:
REMARK  status: ('A' for Active; 'I' for Inactive)
ROOT
ATOM      1  C2' OXE d   1       1.891   3.755  -5.253  0.00  0.00     0.078 C 
ATOM      2  C1' OXE d   1       1.811   2.572  -2.709  0.00  0.00     0.078 C 
ATOM      3  C1  OXE d   1       2.686   1.929  -3.756  0.00  0.00    -0.078 A 
ATOM      4  C2  OXE d   1       2.682   2.488  -5.012  0.00  0.00    -0.078 A 
ATOM      5  C3  OXE d   1       3.513   1.967  -6.000  0.00  0.00     0.003 A 
ATOM      6  C4  OXE d   1       4.234   0.789  -5.771  0.00  0.00    -0.002 A 
ATOM      7  C5  OXE d   1       4.221   0.181  -4.511  0.00  0.00    -0.002 A 
ATOM      8  C6  OXE d   1       3.487   0.762  -3.483  0.00  0.00     0.003 A 
ENDROOT
TORSDOF 0
ENDMDL
