MODEL 1
REMARK minimizedAffinity -2.15826035
REMARK minimizedRMSD -1
REMARK  0 active torsions:
REMARK  status: ('A' for Active; 'I' for Inactive)
ROOT
ATOM      1  C2' OXE d   1       2.981  -5.902   2.623  0.00  0.00     0.078 C 
ATOM      2  C1' OXE d   1       1.822  -5.877   5.180  0.00  0.00     0.078 C 
ATOM      3  C1  OXE d   1       0.898  -5.932   3.989  0.00  0.00    -0.078 A 
ATOM      4  C2  OXE d   1       1.473  -5.897   2.741  0.00  0.00    -0.078 A 
ATOM      5  C3  OXE d   1       0.669  -6.000   1.609  0.00  0.00     0.003 A 
ATOM      6  C4  OXE d   1      -0.726  -5.984   1.726  0.00  0.00    -0.002 A 
ATOM      7  C5  OXE d   1      -1.333  -5.981   2.986  0.00  0.00    -0.002 A 
ATOM      8  C6  OXE d   1      -0.536  -5.998   4.126  0.00  0.00     0.003 A 
ENDROOT
TORSDOF 0
ENDMDL
