MODEL 1
REMARK minimizedAffinity 4.80819178
REMARK minimizedRMSD -1
REMARK  0 active torsions:
REMARK  status: ('A' for Active; 'I' for Inactive)
ROOT
ATOM      1  C2' OXE d   1       1.356  -5.946   1.293  0.00  0.00     0.078 C 
ATOM      2  C1' OXE d   1      -0.900  -5.975  -0.378  0.00  0.00     0.078 C 
ATOM      3  C1  OXE d   1      -1.128  -5.965   1.113  0.00  0.00    -0.078 A 
ATOM      4  C2  OXE d   1      -0.019  -5.997   1.923  0.00  0.00    -0.078 A 
ATOM      5  C3  OXE d   1      -0.172  -5.934   3.305  0.00  0.00     0.003 A 
ATOM      6  C4  OXE d   1      -1.447  -5.992   3.880  0.00  0.00    -0.002 A 
ATOM      7  C5  OXE d   1      -2.590  -5.999   3.074  0.00  0.00    -0.002 A 
ATOM      8  C6  OXE d   1      -2.449  -5.943   1.692  0.00  0.00     0.003 A 
ENDROOT
TORSDOF 0
ENDMDL
