MODEL 1
REMARK minimizedAffinity 4.22841406
REMARK minimizedRMSD -1
REMARK  0 active torsions:
REMARK  status: ('A' for Active; 'I' for Inactive)
ROOT
ATOM      1  C2' OXE d   1       2.811  -5.887   3.425  0.00  0.00     0.078 C 
ATOM      2  C1' OXE d   1       1.122  -5.864   5.667  0.00  0.00     0.078 C 
ATOM      3  C1  OXE d   1       0.480  -5.925   4.304  0.00  0.00    -0.078 A 
ATOM      4  C2  OXE d   1       1.313  -5.889   3.211  0.00  0.00    -0.078 A 
ATOM      5  C3  OXE d   1       0.776  -5.998   1.931  0.00  0.00     0.003 A 
ATOM      6  C4  OXE d   1      -0.612  -5.990   1.742  0.00  0.00    -0.002 A 
ATOM      7  C5  OXE d   1      -1.478  -5.987   2.840  0.00  0.00    -0.002 A 
ATOM      8  C6  OXE d   1      -0.949  -5.998   4.126  0.00  0.00     0.003 A 
ENDROOT
TORSDOF 0
ENDMDL
