MODEL 1
REMARK minimizedAffinity 4.10981798
REMARK minimizedRMSD -1
REMARK  0 active torsions:
REMARK  status: ('A' for Active; 'I' for Inactive)
ROOT
ATOM      1  C2' OXE d   1       3.744  -5.998   3.392  0.00  0.00     0.078 C 
ATOM      2  C1' OXE d   1       1.999  -5.977   5.591  0.00  0.00     0.078 C 
ATOM      3  C1  OXE d   1       1.391  -5.980   4.211  0.00  0.00    -0.078 A 
ATOM      4  C2  OXE d   1       2.252  -5.943   3.141  0.00  0.00    -0.078 A 
ATOM      5  C3  OXE d   1       1.745  -5.999   1.845  0.00  0.00     0.003 A 
ATOM      6  C4  OXE d   1       0.365  -5.938   1.621  0.00  0.00    -0.002 A 
ATOM      7  C5  OXE d   1      -0.530  -5.935   2.697  0.00  0.00    -0.002 A 
ATOM      8  C6  OXE d   1      -0.034  -5.999   3.995  0.00  0.00     0.003 A 
ENDROOT
TORSDOF 0
ENDMDL
