MODEL 1
REMARK minimizedAffinity 3.88575029
REMARK minimizedRMSD -1
REMARK  0 active torsions:
REMARK  status: ('A' for Active; 'I' for Inactive)
ROOT
ATOM      1  C2' OXE d   1      -0.809  -5.923   0.347  0.00  0.00     0.078 C 
ATOM      2  C1' OXE d   1      -2.044  -5.962   2.867  0.00  0.00     0.078 C 
ATOM      3  C1  OXE d   1      -0.536  -5.954   2.823  0.00  0.00    -0.078 A 
ATOM      4  C2  OXE d   1       0.060  -5.982   1.585  0.00  0.00    -0.078 A 
ATOM      5  C3  OXE d   1       1.447  -5.921   1.486  0.00  0.00     0.003 A 
ATOM      6  C4  OXE d   1       2.243  -5.986   2.636  0.00  0.00    -0.002 A 
ATOM      7  C5  OXE d   1       1.656  -5.998   3.906  0.00  0.00    -0.002 A 
ATOM      8  C6  OXE d   1       0.272  -5.939   4.017  0.00  0.00     0.003 A 
ENDROOT
TORSDOF 0
ENDMDL
