MODEL 1
REMARK minimizedAffinity 8.15208721
REMARK minimizedRMSD -1
REMARK  0 active torsions:
REMARK  status: ('A' for Active; 'I' for Inactive)
ROOT
ATOM      1  C2' OXE d   1      -4.128  -1.600  -2.405  0.00  0.00     0.078 C 
ATOM      2  C1' OXE d   1      -1.936   0.139  -2.630  0.00  0.00     0.078 C 
ATOM      3  C1  OXE d   1      -1.870  -1.174  -3.369  0.00  0.00    -0.078 A 
ATOM      4  C2  OXE d   1      -2.927  -2.039  -3.215  0.00  0.00    -0.078 A 
ATOM      5  C3  OXE d   1      -2.942  -3.240  -3.918  0.00  0.00     0.003 A 
ATOM      6  C4  OXE d   1      -1.824  -3.643  -4.658  0.00  0.00    -0.002 A 
ATOM      7  C5  OXE d   1      -0.720  -2.794  -4.795  0.00  0.00    -0.002 A 
ATOM      8  C6  OXE d   1      -0.745  -1.541  -4.193  0.00  0.00     0.003 A 
ENDROOT
TORSDOF 0
ENDMDL
