MODEL 1
REMARK minimizedAffinity 5.85783672
REMARK minimizedRMSD -1
REMARK  0 active torsions:
REMARK  status: ('A' for Active; 'I' for Inactive)
ROOT
ATOM      1  C2' OXE d   1       1.196  -5.945   5.838  0.00  0.00     0.078 C 
ATOM      2  C1' OXE d   1       3.090  -5.995   3.766  0.00  0.00     0.078 C 
ATOM      3  C1  OXE d   1       1.631  -5.974   3.385  0.00  0.00    -0.078 A 
ATOM      4  C2  OXE d   1       0.710  -5.997   4.406  0.00  0.00    -0.078 A 
ATOM      5  C3  OXE d   1      -0.648  -5.924   4.111  0.00  0.00     0.003 A 
ATOM      6  C4  OXE d   1      -1.089  -5.982   2.783  0.00  0.00    -0.002 A 
ATOM      7  C5  OXE d   1      -0.169  -6.000   1.730  0.00  0.00    -0.002 A 
ATOM      8  C6  OXE d   1       1.192  -5.953   2.012  0.00  0.00     0.003 A 
ENDROOT
TORSDOF 0
ENDMDL
