MODEL 1
REMARK minimizedAffinity 8.08104229
REMARK minimizedRMSD -1
REMARK  0 active torsions:
REMARK  status: ('A' for Active; 'I' for Inactive)
ROOT
ATOM      1  C2' OXE d   1       0.788  -3.352  -4.782  0.00  0.00     0.078 C 
ATOM      2  C1' OXE d   1       1.512  -1.183  -3.154  0.00  0.00     0.078 C 
ATOM      3  C1  OXE d   1       0.090  -1.679  -3.073  0.00  0.00    -0.078 A 
ATOM      4  C2  OXE d   1      -0.268  -2.711  -3.908  0.00  0.00    -0.078 A 
ATOM      5  C3  OXE d   1      -1.552  -3.243  -3.835  0.00  0.00     0.003 A 
ATOM      6  C4  OXE d   1      -2.526  -2.637  -3.030  0.00  0.00    -0.002 A 
ATOM      7  C5  OXE d   1      -2.193  -1.560  -2.202  0.00  0.00    -0.002 A 
ATOM      8  C6  OXE d   1      -0.882  -1.097  -2.180  0.00  0.00     0.003 A 
ENDROOT
TORSDOF 0
ENDMDL
