MODEL 1
REMARK minimizedAffinity 2.17505217
REMARK minimizedRMSD -1
REMARK  0 active torsions:
REMARK  status: ('A' for Active; 'I' for Inactive)
ROOT
ATOM      1  C2' OXE d   1      -2.090  -4.286  -3.717  0.00  0.00     0.078 C 
ATOM      2  C1' OXE d   1      -3.501  -1.896  -3.296  0.00  0.00     0.078 C 
ATOM      3  C1  OXE d   1      -2.028  -1.798  -3.609  0.00  0.00    -0.078 A 
ATOM      4  C2  OXE d   1      -1.336  -2.975  -3.767  0.00  0.00    -0.078 A 
ATOM      5  C3  OXE d   1       0.012  -2.941  -4.111  0.00  0.00     0.003 A 
ATOM      6  C4  OXE d   1       0.704  -1.724  -4.146  0.00  0.00    -0.002 A 
ATOM      7  C5  OXE d   1       0.026  -0.516  -3.948  0.00  0.00    -0.002 A 
ATOM      8  C6  OXE d   1      -1.345  -0.533  -3.721  0.00  0.00     0.003 A 
ENDROOT
TORSDOF 0
ENDMDL
