MODEL 1
REMARK minimizedAffinity 7.56486511
REMARK minimizedRMSD -1
REMARK  0 active torsions:
REMARK  status: ('A' for Active; 'I' for Inactive)
ROOT
ATOM      1  C2' OXE d   1       0.947  -5.946   5.306  0.00  0.00     0.078 C 
ATOM      2  C1' OXE d   1       2.579  -5.999   3.023  0.00  0.00     0.078 C 
ATOM      3  C1  OXE d   1       1.085  -5.976   2.819  0.00  0.00    -0.078 A 
ATOM      4  C2  OXE d   1       0.293  -5.997   3.942  0.00  0.00    -0.078 A 
ATOM      5  C3  OXE d   1      -1.090  -5.922   3.811  0.00  0.00     0.003 A 
ATOM      6  C4  OXE d   1      -1.687  -5.979   2.546  0.00  0.00    -0.002 A 
ATOM      7  C5  OXE d   1      -0.900  -5.998   1.390  0.00  0.00    -0.002 A 
ATOM      8  C6  OXE d   1       0.485  -5.954   1.508  0.00  0.00     0.003 A 
ENDROOT
TORSDOF 0
ENDMDL
