MODEL 1
REMARK minimizedAffinity 9.62377167
REMARK minimizedRMSD -1
REMARK  0 active torsions:
REMARK  status: ('A' for Active; 'I' for Inactive)
ROOT
ATOM      1  C2' OXE d   1      -3.935  -1.522  -2.444  0.00  0.00     0.078 C 
ATOM      2  C1' OXE d   1      -1.894   0.399  -2.301  0.00  0.00     0.078 C 
ATOM      3  C1  OXE d   1      -1.622  -0.858  -3.088  0.00  0.00    -0.078 A 
ATOM      4  C2  OXE d   1      -2.610  -1.814  -3.114  0.00  0.00    -0.078 A 
ATOM      5  C3  OXE d   1      -2.432  -2.969  -3.870  0.00  0.00     0.003 A 
ATOM      6  C4  OXE d   1      -1.199  -3.235  -4.478  0.00  0.00    -0.002 A 
ATOM      7  C5  OXE d   1      -0.166  -2.293  -4.431  0.00  0.00    -0.002 A 
ATOM      8  C6  OXE d   1      -0.376  -1.084  -3.777  0.00  0.00     0.003 A 
ENDROOT
TORSDOF 0
ENDMDL
