MODEL 1
REMARK minimizedAffinity 3.09522629
REMARK minimizedRMSD -1
REMARK  0 active torsions:
REMARK  status: ('A' for Active; 'I' for Inactive)
ROOT
ATOM      1  C2' OXE d   1      -2.828  -5.990   3.269  0.00  0.00     0.078 C 
ATOM      2  C1' OXE d   1      -1.510  -5.970   0.791  0.00  0.00     0.078 C 
ATOM      3  C1  OXE d   1      -0.662  -5.976   2.038  0.00  0.00    -0.078 A 
ATOM      4  C2  OXE d   1      -1.315  -5.938   3.246  0.00  0.00    -0.078 A 
ATOM      5  C3  OXE d   1      -0.582  -5.997   4.428  0.00  0.00     0.003 A 
ATOM      6  C4  OXE d   1       0.816  -5.938   4.399  0.00  0.00    -0.002 A 
ATOM      7  C5  OXE d   1       1.501  -5.935   3.179  0.00  0.00    -0.002 A 
ATOM      8  C6  OXE d   1       0.779  -5.997   1.992  0.00  0.00     0.003 A 
ENDROOT
TORSDOF 0
ENDMDL
