MODEL 1
REMARK minimizedAffinity -0.19384177
REMARK minimizedRMSD -1
REMARK  0 active torsions:
REMARK  status: ('A' for Active; 'I' for Inactive)
ROOT
ATOM      1  C2' OXE d   1      -0.390  -5.974   4.595  0.00  0.00     0.078 C 
ATOM      2  C1' OXE d   1       0.491  -5.984   1.929  0.00  0.00     0.078 C 
ATOM      3  C1  OXE d   1       1.537  -5.975   3.016  0.00  0.00    -0.078 A 
ATOM      4  C2  OXE d   1       1.097  -5.923   4.317  0.00  0.00    -0.078 A 
ATOM      5  C3  OXE d   1       2.019  -5.969   5.358  0.00  0.00     0.003 A 
ATOM      6  C4  OXE d   1       3.393  -5.911   5.092  0.00  0.00    -0.002 A 
ATOM      7  C5  OXE d   1       3.862  -5.924   3.774  0.00  0.00    -0.002 A 
ATOM      8  C6  OXE d   1       2.950  -5.998   2.727  0.00  0.00     0.003 A 
ENDROOT
TORSDOF 0
ENDMDL
