MODEL 1
REMARK minimizedAffinity 5.66278028
REMARK minimizedRMSD -1
REMARK  0 active torsions:
REMARK  status: ('A' for Active; 'I' for Inactive)
ROOT
ATOM      1  C2' OXE d   1      -2.050  -5.914   0.405  0.00  0.00     0.078 C 
ATOM      2  C1' OXE d   1      -3.182  -5.913   2.974  0.00  0.00     0.078 C 
ATOM      3  C1  OXE d   1      -1.677  -5.927   2.868  0.00  0.00    -0.078 A 
ATOM      4  C2  OXE d   1      -1.132  -5.974   1.607  0.00  0.00    -0.078 A 
ATOM      5  C3  OXE d   1       0.250  -5.933   1.452  0.00  0.00     0.003 A 
ATOM      6  C4  OXE d   1       1.091  -5.999   2.569  0.00  0.00    -0.002 A 
ATOM      7  C5  OXE d   1       0.557  -5.992   3.862  0.00  0.00    -0.002 A 
ATOM      8  C6  OXE d   1      -0.822  -5.913   4.029  0.00  0.00     0.003 A 
ENDROOT
TORSDOF 0
ENDMDL
