MODEL 1
REMARK minimizedAffinity 12.6964931
REMARK minimizedRMSD -1
REMARK  0 active torsions:
REMARK  status: ('A' for Active; 'I' for Inactive)
ROOT
ATOM      1  C   UNL d   1      -0.110   1.924  -0.568  0.00  0.00     0.124 A 
ATOM      2  C1  UNL d   1      -0.498   2.959   0.271  0.00  0.00     0.062 A 
ATOM      3  C2  UNL d   1       0.318   3.343   1.331  0.00  0.00     0.162 A 
ATOM      4  C3  UNL d   1       1.531   2.692   1.558  0.00  0.00    -0.034 A 
ATOM      5  C4  UNL d   1       1.913   1.651   0.710  0.00  0.00     0.162 A 
ATOM      6  C5  UNL d   1       1.094   1.271  -0.348  0.00  0.00     0.062 A 
ATOM      7  F   UNL d   1       1.470   0.271  -1.159  0.00  0.00    -0.097 F 
ATOM      8  F1  UNL d   1       3.072   1.004   0.899  0.00  0.00    -0.096 F 
ATOM      9  I   UNL d   1       2.753   3.263   3.142  0.00  0.00    -0.060 I 
ATOM     10  F2  UNL d   1      -0.081   4.347   2.127  0.00  0.00    -0.096 F 
ATOM     11  F3  UNL d   1      -1.662   3.591   0.061  0.00  0.00    -0.097 F 
ATOM     12  F4  UNL d   1      -0.898   1.556  -1.587  0.00  0.00    -0.092 F 
ENDROOT
TORSDOF 0
ENDMDL
