MODEL 1
REMARK minimizedAffinity 24.3244877
REMARK minimizedRMSD -1
REMARK  0 active torsions:
REMARK  status: ('A' for Active; 'I' for Inactive)
ROOT
ATOM      1  C   UNL d   1      -2.078   0.720  -1.389  0.00  0.00     0.124 A 
ATOM      2  C1  UNL d   1      -1.282   1.725  -0.858  0.00  0.00     0.062 A 
ATOM      3  C2  UNL d   1       0.091   1.537  -0.729  0.00  0.00     0.162 A 
ATOM      4  C3  UNL d   1       0.678   0.338  -1.133  0.00  0.00    -0.034 A 
ATOM      5  C4  UNL d   1      -0.129  -0.669  -1.665  0.00  0.00     0.162 A 
ATOM      6  C5  UNL d   1      -1.501  -0.476  -1.792  0.00  0.00     0.062 A 
ATOM      7  F   UNL d   1      -2.268  -1.449  -2.306  0.00  0.00    -0.097 F 
ATOM      8  F1  UNL d   1       0.402  -1.835  -2.064  0.00  0.00    -0.096 F 
ATOM      9  I   UNL d   1       2.730   0.052  -0.942  0.00  0.00    -0.060 I 
ATOM     10  F2  UNL d   1       0.836   2.526  -0.212  0.00  0.00    -0.096 F 
ATOM     11  F3  UNL d   1      -1.837   2.882  -0.467  0.00  0.00    -0.097 F 
ATOM     12  F4  UNL d   1      -3.399   0.904  -1.511  0.00  0.00    -0.092 F 
ENDROOT
TORSDOF 0
ENDMDL
