MODEL 1
REMARK minimizedAffinity 18.8265285
REMARK minimizedRMSD -1
REMARK  0 active torsions:
REMARK  status: ('A' for Active; 'I' for Inactive)
ROOT
ATOM      1  C   UNL d   1       2.559  -0.399  -0.554  0.00  0.00     0.124 A 
ATOM      2  C1  UNL d   1       2.870  -0.620  -1.889  0.00  0.00     0.062 A 
ATOM      3  C2  UNL d   1       3.848   0.146  -2.515  0.00  0.00     0.162 A 
ATOM      4  C3  UNL d   1       4.524   1.141  -1.808  0.00  0.00    -0.034 A 
ATOM      5  C4  UNL d   1       4.205   1.357  -0.466  0.00  0.00     0.162 A 
ATOM      6  C5  UNL d   1       3.227   0.589   0.156  0.00  0.00     0.062 A 
ATOM      7  F   UNL d   1       2.928   0.803   1.445  0.00  0.00    -0.097 F 
ATOM      8  F1  UNL d   1       4.835   2.305   0.244  0.00  0.00    -0.096 F 
ATOM      9  I   UNL d   1       5.987   2.289  -2.742  0.00  0.00    -0.060 I 
ATOM     10  F2  UNL d   1       4.128  -0.089  -3.806  0.00  0.00    -0.096 F 
ATOM     11  F3  UNL d   1       2.225  -1.573  -2.577  0.00  0.00    -0.097 F 
ATOM     12  F4  UNL d   1       1.616  -1.138   0.046  0.00  0.00    -0.092 F 
ENDROOT
TORSDOF 0
ENDMDL
