MODEL 1
REMARK minimizedAffinity 17.597393
REMARK minimizedRMSD -1
REMARK  0 active torsions:
REMARK  status: ('A' for Active; 'I' for Inactive)
ROOT
ATOM      1  C   UNL d   1       2.971   3.649   4.734  0.00  0.00     0.124 A 
ATOM      2  C1  UNL d   1       1.810   3.163   4.147  0.00  0.00     0.062 A 
ATOM      3  C2  UNL d   1       1.828   2.711   2.831  0.00  0.00     0.162 A 
ATOM      4  C3  UNL d   1       3.011   2.741   2.092  0.00  0.00    -0.034 A 
ATOM      5  C4  UNL d   1       4.174   3.232   2.689  0.00  0.00     0.162 A 
ATOM      6  C5  UNL d   1       4.151   3.683   4.004  0.00  0.00     0.062 A 
ATOM      7  F   UNL d   1       5.273   4.153   4.570  0.00  0.00    -0.097 F 
ATOM      8  F1  UNL d   1       5.328   3.276   2.007  0.00  0.00    -0.096 F 
ATOM      9  I   UNL d   1       3.042   2.065   0.124  0.00  0.00    -0.060 I 
ATOM     10  F2  UNL d   1       0.692   2.246   2.289  0.00  0.00    -0.096 F 
ATOM     11  F3  UNL d   1       0.669   3.130   4.849  0.00  0.00    -0.097 F 
ATOM     12  F4  UNL d   1       2.950   4.085   6.000  0.00  0.00    -0.092 F 
ENDROOT
TORSDOF 0
ENDMDL
