MODEL 1
REMARK minimizedAffinity 24.2257462
REMARK minimizedRMSD -1
REMARK  0 active torsions:
REMARK  status: ('A' for Active; 'I' for Inactive)
ROOT
ATOM      1  C   UNL d   1       2.897   3.143   4.933  0.00  0.00     0.124 A 
ATOM      2  C1  UNL d   1       1.583   2.698   4.890  0.00  0.00     0.062 A 
ATOM      3  C2  UNL d   1       0.784   2.981   3.786  0.00  0.00     0.162 A 
ATOM      4  C3  UNL d   1       1.297   3.713   2.714  0.00  0.00    -0.034 A 
ATOM      5  C4  UNL d   1       2.619   4.157   2.765  0.00  0.00     0.162 A 
ATOM      6  C5  UNL d   1       3.414   3.871   3.871  0.00  0.00     0.062 A 
ATOM      7  F   UNL d   1       4.683   4.302   3.910  0.00  0.00    -0.097 F 
ATOM      8  F1  UNL d   1       3.145   4.862   1.753  0.00  0.00    -0.096 F 
ATOM      9  I   UNL d   1       0.105   4.138   1.062  0.00  0.00    -0.060 I 
ATOM     10  F2  UNL d   1      -0.483   2.539   3.771  0.00  0.00    -0.096 F 
ATOM     11  F3  UNL d   1       1.081   1.995   5.915  0.00  0.00    -0.097 F 
ATOM     12  F4  UNL d   1       3.663   2.870   5.996  0.00  0.00    -0.092 F 
ENDROOT
TORSDOF 0
ENDMDL
