MODEL 1
REMARK minimizedAffinity 1.78560352
REMARK minimizedRMSD -1
REMARK  0 active torsions:
REMARK  status: ('A' for Active; 'I' for Inactive)
ROOT
ATOM      1  C   UNL d   1       2.346   3.362   3.092  0.00  0.00     0.124 A 
ATOM      2  C1  UNL d   1       1.803   4.076   4.152  0.00  0.00     0.062 A 
ATOM      3  C2  UNL d   1       2.627   4.829   4.982  0.00  0.00     0.162 A 
ATOM      4  C3  UNL d   1       4.003   4.874   4.756  0.00  0.00    -0.034 A 
ATOM      5  C4  UNL d   1       4.541   4.153   3.689  0.00  0.00     0.162 A 
ATOM      6  C5  UNL d   1       3.714   3.401   2.862  0.00  0.00     0.062 A 
ATOM      7  F   UNL d   1       4.239   2.712   1.838  0.00  0.00    -0.097 F 
ATOM      8  F1  UNL d   1       5.860   4.174   3.443  0.00  0.00    -0.096 F 
ATOM      9  I   UNL d   1       5.239   6.000   5.996  0.00  0.00    -0.060 I 
ATOM     10  F2  UNL d   1       2.076   5.509   5.999  0.00  0.00    -0.096 F 
ATOM     11  F3  UNL d   1       0.482   4.039   4.377  0.00  0.00    -0.097 F 
ATOM     12  F4  UNL d   1       1.551   2.637   2.295  0.00  0.00    -0.092 F 
ENDROOT
TORSDOF 0
ENDMDL
