MODEL 1
REMARK minimizedAffinity 10.0546904
REMARK minimizedRMSD -1
REMARK  0 active torsions:
REMARK  status: ('A' for Active; 'I' for Inactive)
ROOT
ATOM      1  C   UNL d   1       2.591   1.604   0.421  0.00  0.00     0.124 A 
ATOM      2  C1  UNL d   1       1.780   1.164  -0.617  0.00  0.00     0.062 A 
ATOM      3  C2  UNL d   1       0.486   1.657  -0.751  0.00  0.00     0.162 A 
ATOM      4  C3  UNL d   1      -0.007   2.597   0.154  0.00  0.00    -0.034 A 
ATOM      5  C4  UNL d   1       0.814   3.034   1.196  0.00  0.00     0.162 A 
ATOM      6  C5  UNL d   1       2.107   2.538   1.326  0.00  0.00     0.062 A 
ATOM      7  F   UNL d   1       2.888   2.964   2.329  0.00  0.00    -0.097 F 
ATOM      8  F1  UNL d   1       0.372   3.937   2.083  0.00  0.00    -0.096 F 
ATOM      9  I   UNL d   1      -1.942   3.337  -0.044  0.00  0.00    -0.060 I 
ATOM     10  F2  UNL d   1      -0.275   1.214  -1.763  0.00  0.00    -0.096 F 
ATOM     11  F3  UNL d   1       2.245   0.261  -1.492  0.00  0.00    -0.097 F 
ATOM     12  F4  UNL d   1       3.835   1.127   0.548  0.00  0.00    -0.092 F 
ENDROOT
TORSDOF 0
ENDMDL
