MODEL 1
REMARK minimizedAffinity 11.9350586
REMARK minimizedRMSD -1
REMARK  0 active torsions:
REMARK  status: ('A' for Active; 'I' for Inactive)
ROOT
ATOM      1  C   UNL d   1      -1.596   3.572   0.904  0.00  0.00     0.124 A 
ATOM      2  C1  UNL d   1      -0.436   2.902   0.542  0.00  0.00     0.062 A 
ATOM      3  C2  UNL d   1      -0.501   1.793  -0.296  0.00  0.00     0.162 A 
ATOM      4  C3  UNL d   1      -1.731   1.347  -0.779  0.00  0.00    -0.034 A 
ATOM      5  C4  UNL d   1      -2.894   2.025  -0.410  0.00  0.00     0.162 A 
ATOM      6  C5  UNL d   1      -2.824   3.134   0.428  0.00  0.00     0.062 A 
ATOM      7  F   UNL d   1      -3.946   3.780   0.777  0.00  0.00    -0.097 F 
ATOM      8  F1  UNL d   1      -4.093   1.623  -0.856  0.00  0.00    -0.096 F 
ATOM      9  I   UNL d   1      -1.832  -0.312  -2.033  0.00  0.00    -0.060 I 
ATOM     10  F2  UNL d   1       0.636   1.165  -0.630  0.00  0.00    -0.096 F 
ATOM     11  F3  UNL d   1       0.751   3.324   1.001  0.00  0.00    -0.097 F 
ATOM     12  F4  UNL d   1      -1.531   4.639   1.711  0.00  0.00    -0.092 F 
ENDROOT
TORSDOF 0
ENDMDL
