MODEL 1
REMARK minimizedAffinity 4.15220976
REMARK minimizedRMSD -1
REMARK  0 active torsions:
REMARK  status: ('A' for Active; 'I' for Inactive)
ROOT
ATOM      1  C   UNL d   1       2.079  -5.259   0.258  0.00  0.00     0.078 C 
ATOM      2  C1  UNL d   1       1.817  -3.826   0.614  0.00  0.00    -0.077 A 
ATOM      3  C2  UNL d   1       2.813  -3.036   1.200  0.00  0.00    -0.001 A 
ATOM      4  C3  UNL d   1       2.553  -1.706   1.535  0.00  0.00     0.003 A 
ATOM      5  C4  UNL d   1       1.297  -1.156   1.289  0.00  0.00    -0.005 A 
ATOM      6  C5  UNL d   1       0.298  -1.936   0.708  0.00  0.00     0.003 A 
ATOM      7  C6  UNL d   1       0.557  -3.265   0.373  0.00  0.00    -0.001 A 
ENDROOT
TORSDOF 0
ENDMDL
