MODEL 1
REMARK minimizedAffinity 4.18140364
REMARK minimizedRMSD -1
REMARK  0 active torsions:
REMARK  status: ('A' for Active; 'I' for Inactive)
ROOT
ATOM      1  C   UNL d   1       4.872  -2.424   5.398  0.00  0.00     0.078 C 
ATOM      2  C1  UNL d   1       4.885  -2.396   3.899  0.00  0.00    -0.077 A 
ATOM      3  C2  UNL d   1       3.830  -2.943   3.159  0.00  0.00    -0.001 A 
ATOM      4  C3  UNL d   1       3.860  -2.919   1.763  0.00  0.00     0.003 A 
ATOM      5  C4  UNL d   1       4.943  -2.350   1.096  0.00  0.00    -0.005 A 
ATOM      6  C5  UNL d   1       5.999  -1.805   1.825  0.00  0.00     0.003 A 
ATOM      7  C6  UNL d   1       5.971  -1.829   3.220  0.00  0.00    -0.001 A 
ENDROOT
TORSDOF 0
ENDMDL
