MODEL 1
REMARK minimizedAffinity 6.61424589
REMARK minimizedRMSD -1
REMARK  0 active torsions:
REMARK  status: ('A' for Active; 'I' for Inactive)
ROOT
ATOM      1  C   UNL d   1      -0.658  -1.736   2.287  0.00  0.00     0.078 C 
ATOM      2  C1  UNL d   1       0.567  -2.318   1.649  0.00  0.00    -0.077 A 
ATOM      3  C2  UNL d   1       1.834  -1.772   1.889  0.00  0.00    -0.001 A 
ATOM      4  C3  UNL d   1       2.965  -2.318   1.281  0.00  0.00     0.003 A 
ATOM      5  C4  UNL d   1       2.841  -3.412   0.427  0.00  0.00    -0.005 A 
ATOM      6  C5  UNL d   1       1.585  -3.961   0.180  0.00  0.00     0.003 A 
ATOM      7  C6  UNL d   1       0.452  -3.416   0.788  0.00  0.00    -0.001 A 
ENDROOT
TORSDOF 0
ENDMDL
