MODEL 1
REMARK minimizedAffinity 1.90793002
REMARK minimizedRMSD -1
REMARK  0 active torsions:
REMARK  status: ('A' for Active; 'I' for Inactive)
ROOT
ATOM      1  C   UNL d   1       0.817  -5.221   0.704  0.00  0.00     0.078 C 
ATOM      2  C1  UNL d   1       1.263  -3.795   0.580  0.00  0.00    -0.077 A 
ATOM      3  C2  UNL d   1       1.998  -3.363  -0.531  0.00  0.00    -0.001 A 
ATOM      4  C3  UNL d   1       2.415  -2.035  -0.628  0.00  0.00     0.003 A 
ATOM      5  C4  UNL d   1       2.102  -1.127   0.382  0.00  0.00    -0.005 A 
ATOM      6  C5  UNL d   1       1.372  -1.548   1.492  0.00  0.00     0.003 A 
ATOM      7  C6  UNL d   1       0.955  -2.876   1.591  0.00  0.00    -0.001 A 
ENDROOT
TORSDOF 0
ENDMDL
