MODEL 1
REMARK minimizedAffinity 4.92878771
REMARK minimizedRMSD -1
REMARK  0 active torsions:
REMARK  status: ('A' for Active; 'I' for Inactive)
ROOT
ATOM      1  C   UNL d   1      -0.765  -1.121   1.288  0.00  0.00     0.078 C 
ATOM      2  C1  UNL d   1      -1.920  -1.007   0.338  0.00  0.00    -0.077 A 
ATOM      3  C2  UNL d   1      -3.067  -1.795   0.499  0.00  0.00    -0.001 A 
ATOM      4  C3  UNL d   1      -4.130  -1.685  -0.399  0.00  0.00     0.003 A 
ATOM      5  C4  UNL d   1      -4.056  -0.790  -1.464  0.00  0.00    -0.005 A 
ATOM      6  C5  UNL d   1      -2.918  -0.004  -1.634  0.00  0.00     0.003 A 
ATOM      7  C6  UNL d   1      -1.854  -0.113  -0.737  0.00  0.00    -0.001 A 
ENDROOT
TORSDOF 0
ENDMDL
