MODEL 1
REMARK minimizedAffinity 6.21947479
REMARK minimizedRMSD -1
REMARK  0 active torsions:
REMARK  status: ('A' for Active; 'I' for Inactive)
ROOT
ATOM      1  C   UNL d   1      -0.569  -1.488   1.563  0.00  0.00     0.078 C 
ATOM      2  C1  UNL d   1       0.719  -2.158   1.190  0.00  0.00    -0.077 A 
ATOM      3  C2  UNL d   1       0.770  -3.534   0.935  0.00  0.00    -0.001 A 
ATOM      4  C3  UNL d   1       1.979  -4.145   0.598  0.00  0.00     0.003 A 
ATOM      5  C4  UNL d   1       3.146  -3.389   0.514  0.00  0.00    -0.005 A 
ATOM      6  C5  UNL d   1       3.106  -2.019   0.768  0.00  0.00     0.003 A 
ATOM      7  C6  UNL d   1       1.898  -1.406   1.105  0.00  0.00    -0.001 A 
ENDROOT
TORSDOF 0
ENDMDL
