MODEL 1
REMARK minimizedAffinity 4.71965122
REMARK minimizedRMSD -1
REMARK  0 active torsions:
REMARK  status: ('A' for Active; 'I' for Inactive)
ROOT
ATOM      1  C   UNL d   1      -5.198   1.867  -4.867  0.00  0.00     0.078 C 
ATOM      2  C1  UNL d   1      -3.732   2.048  -4.609  0.00  0.00    -0.077 A 
ATOM      3  C2  UNL d   1      -3.272   2.542  -3.383  0.00  0.00    -0.001 A 
ATOM      4  C3  UNL d   1      -1.905   2.714  -3.160  0.00  0.00     0.003 A 
ATOM      5  C4  UNL d   1      -0.987   2.396  -4.159  0.00  0.00    -0.005 A 
ATOM      6  C5  UNL d   1      -1.436   1.906  -5.384  0.00  0.00     0.003 A 
ATOM      7  C6  UNL d   1      -2.803   1.733  -5.609  0.00  0.00    -0.001 A 
ENDROOT
TORSDOF 0
ENDMDL
