MODEL 1
REMARK minimizedAffinity 9.84152603
REMARK minimizedRMSD -1
REMARK  0 active torsions:
REMARK  status: ('A' for Active; 'I' for Inactive)
ROOT
ATOM      1  C   UNL d   1      -5.920   1.914  -5.716  0.00  0.00     0.078 C 
ATOM      2  C1  UNL d   1      -5.945   0.528  -5.144  0.00  0.00    -0.077 A 
ATOM      3  C2  UNL d   1      -5.914   0.320  -3.759  0.00  0.00    -0.001 A 
ATOM      4  C3  UNL d   1      -5.928  -0.976  -3.240  0.00  0.00     0.003 A 
ATOM      5  C4  UNL d   1      -5.972  -2.073  -4.099  0.00  0.00    -0.005 A 
ATOM      6  C5  UNL d   1      -6.000  -1.875  -5.477  0.00  0.00     0.003 A 
ATOM      7  C6  UNL d   1      -5.986  -0.580  -5.998  0.00  0.00    -0.001 A 
ENDROOT
TORSDOF 0
ENDMDL
