MODEL 1
REMARK minimizedAffinity 4.65570068
REMARK minimizedRMSD -1
REMARK  0 active torsions:
REMARK  status: ('A' for Active; 'I' for Inactive)
ROOT
ATOM      1  C   UNL d   1      -1.185  -2.169   1.929  0.00  0.00     0.078 C 
ATOM      2  C1  UNL d   1      -0.081  -2.868   1.194  0.00  0.00    -0.077 A 
ATOM      3  C2  UNL d   1       0.984  -2.149   0.637  0.00  0.00    -0.001 A 
ATOM      4  C3  UNL d   1       2.000  -2.812  -0.052  0.00  0.00     0.003 A 
ATOM      5  C4  UNL d   1       1.961  -4.198  -0.193  0.00  0.00    -0.005 A 
ATOM      6  C5  UNL d   1       0.904  -4.922   0.355  0.00  0.00     0.003 A 
ATOM      7  C6  UNL d   1      -0.113  -4.261   1.045  0.00  0.00    -0.001 A 
ENDROOT
TORSDOF 0
ENDMDL
