MODEL 1
REMARK minimizedAffinity -4.14482403
REMARK minimizedRMSD -1
REMARK  1 active torsions:
REMARK  status: ('A' for Active; 'I' for Inactive)
REMARK    1  A    between atoms: C1_2  and  C2_3 
ROOT
ATOM      1  C2  UNL d   1       1.465  -3.166   3.740  0.00  0.00    -0.073 A 
ATOM      2  C3  UNL d   1       0.654  -2.840   2.648  0.00  0.00    -0.002 A 
ATOM      3  C4  UNL d   1       1.001  -1.787   1.801  0.00  0.00     0.004 A 
ATOM      4  C5  UNL d   1       2.166  -1.054   2.032  0.00  0.00    -0.004 A 
ATOM      5  C6  UNL d   1       2.996  -1.372   3.112  0.00  0.00    -0.075 A 
ATOM      6  C7  UNL d   1       4.251  -0.593   3.376  0.00  0.00     0.076 C 
ATOM      7  C8  UNL d   1       2.639  -2.430   3.960  0.00  0.00     0.001 A 
ENDROOT
BRANCH   1   8
ATOM      8  C1  UNL d   1       1.097  -4.306   4.654  0.00  0.00     0.053 C 
ATOM      9  C   UNL d   1       1.693  -5.625   4.188  0.00  0.00     0.018 C 
ENDBRANCH   1   8
TORSDOF 1
ENDMDL
