MODEL 1
REMARK minimizedAffinity -5.42009115
REMARK minimizedRMSD -1
REMARK  1 active torsions:
REMARK  status: ('A' for Active; 'I' for Inactive)
REMARK    1  A    between atoms: C1_2  and  C2_3 
ROOT
ATOM      1  C2  UNL d   1      -1.839  -6.000  -3.013  0.00  0.00    -0.073 A 
ATOM      2  C3  UNL d   1      -3.062  -5.996  -3.693  0.00  0.00    -0.002 A 
ATOM      3  C4  UNL d   1      -4.264  -6.000  -2.983  0.00  0.00     0.004 A 
ATOM      4  C5  UNL d   1      -4.255  -6.000  -1.588  0.00  0.00    -0.004 A 
ATOM      5  C6  UNL d   1      -3.042  -5.991  -0.890  0.00  0.00    -0.075 A 
ATOM      6  C7  UNL d   1      -3.016  -5.993   0.610  0.00  0.00     0.076 C 
ATOM      7  C8  UNL d   1      -1.840  -5.991  -1.611  0.00  0.00     0.001 A 
ENDROOT
BRANCH   1   8
ATOM      8  C1  UNL d   1      -0.539  -5.989  -3.775  0.00  0.00     0.053 C 
ATOM      9  C   UNL d   1      -0.730  -5.561  -5.222  0.00  0.00     0.018 C 
ENDBRANCH   1   8
TORSDOF 1
ENDMDL
