MODEL 1
REMARK minimizedAffinity -6.28457546
REMARK minimizedRMSD -1
REMARK  1 active torsions:
REMARK  status: ('A' for Active; 'I' for Inactive)
REMARK    1  A    between atoms: C1_2  and  C2_3 
ROOT
ATOM      1  C2  UNL d   1       1.285  -3.913   3.997  0.00  0.00    -0.073 A 
ATOM      2  C3  UNL d   1       1.927  -2.672   4.075  0.00  0.00    -0.002 A 
ATOM      3  C4  UNL d   1       1.876  -1.783   3.000  0.00  0.00     0.004 A 
ATOM      4  C5  UNL d   1       1.178  -2.122   1.841  0.00  0.00    -0.004 A 
ATOM      5  C6  UNL d   1       0.521  -3.353   1.748  0.00  0.00    -0.075 A 
ATOM      6  C7  UNL d   1      -0.232  -3.734   0.507  0.00  0.00     0.076 C 
ATOM      7  C8  UNL d   1       0.578  -4.241   2.831  0.00  0.00     0.001 A 
ENDROOT
BRANCH   1   8
ATOM      8  C1  UNL d   1       1.331  -4.873   5.157  0.00  0.00     0.053 C 
ATOM      9  C   UNL d   1       2.592  -4.701   5.989  0.00  0.00     0.018 C 
ENDBRANCH   1   8
TORSDOF 1
ENDMDL
