MODEL 1
REMARK minimizedAffinity -4.59173155
REMARK minimizedRMSD -1
REMARK  1 active torsions:
REMARK  status: ('A' for Active; 'I' for Inactive)
REMARK    1  A    between atoms: C1_2  and  C2_3 
ROOT
ATOM      1  C2  UNL d   1      -1.381  -5.451  -3.140  0.00  0.00    -0.073 A 
ATOM      2  C3  UNL d   1      -2.487  -5.811  -3.919  0.00  0.00    -0.002 A 
ATOM      3  C4  UNL d   1      -3.736  -6.000  -3.326  0.00  0.00     0.004 A 
ATOM      4  C5  UNL d   1      -3.894  -5.825  -1.952  0.00  0.00    -0.004 A 
ATOM      5  C6  UNL d   1      -2.804  -5.455  -1.158  0.00  0.00    -0.075 A 
ATOM      6  C7  UNL d   1      -2.957  -5.265   0.323  0.00  0.00     0.076 C 
ATOM      7  C8  UNL d   1      -1.552  -5.269  -1.760  0.00  0.00     0.001 A 
ENDROOT
BRANCH   1   8
ATOM      8  C1  UNL d   1      -0.032  -5.240  -3.777  0.00  0.00     0.053 C 
ATOM      9  C   UNL d   1      -0.111  -5.246  -5.295  0.00  0.00     0.018 C 
ENDBRANCH   1   8
TORSDOF 1
ENDMDL
