MODEL 1
REMARK minimizedAffinity -1.386778
REMARK minimizedRMSD -1
REMARK  1 active torsions:
REMARK  status: ('A' for Active; 'I' for Inactive)
REMARK    1  A    between atoms: C1_2  and  C2_3 
ROOT
ATOM      1  C2  UNL d   1      -1.272  -5.986  -3.158  0.00  0.00    -0.073 A 
ATOM      2  C3  UNL d   1      -1.915  -5.995  -4.400  0.00  0.00    -0.002 A 
ATOM      3  C4  UNL d   1      -1.170  -5.991  -5.580  0.00  0.00     0.004 A 
ATOM      4  C5  UNL d   1       0.224  -5.987  -5.530  0.00  0.00    -0.004 A 
ATOM      5  C6  UNL d   1       0.886  -5.990  -4.297  0.00  0.00    -0.075 A 
ATOM      6  C7  UNL d   1       2.384  -5.983  -4.226  0.00  0.00     0.076 C 
ATOM      7  C8  UNL d   1       0.130  -5.991  -3.117  0.00  0.00     0.001 A 
ENDROOT
BRANCH   1   8
ATOM      8  C1  UNL d   1      -2.073  -5.996  -1.881  0.00  0.00     0.053 C 
ATOM      9  C   UNL d   1      -3.561  -5.822  -2.140  0.00  0.00     0.018 C 
ENDBRANCH   1   8
TORSDOF 1
ENDMDL
