MODEL 1
REMARK minimizedAffinity -6.68374014
REMARK minimizedRMSD -1
REMARK  1 active torsions:
REMARK  status: ('A' for Active; 'I' for Inactive)
REMARK    1  A    between atoms: C1_2  and  C2_3 
ROOT
ATOM      1  C2  UNL d   1       1.354  -3.687   3.810  0.00  0.00    -0.073 A 
ATOM      2  C3  UNL d   1       2.073  -2.503   4.009  0.00  0.00    -0.002 A 
ATOM      3  C4  UNL d   1       2.115  -1.528   3.011  0.00  0.00     0.004 A 
ATOM      4  C5  UNL d   1       1.434  -1.724   1.809  0.00  0.00    -0.004 A 
ATOM      5  C6  UNL d   1       0.701  -2.896   1.597  0.00  0.00    -0.075 A 
ATOM      6  C7  UNL d   1      -0.034  -3.123   0.309  0.00  0.00     0.076 C 
ATOM      7  C8  UNL d   1       0.666  -3.871   2.602  0.00  0.00     0.001 A 
ENDROOT
BRANCH   1   8
ATOM      8  C1  UNL d   1       1.300  -4.740   4.887  0.00  0.00     0.053 C 
ATOM      9  C   UNL d   1       2.333  -4.494   5.976  0.00  0.00     0.018 C 
ENDBRANCH   1   8
TORSDOF 1
ENDMDL
