MODEL 1
REMARK minimizedAffinity -0.633819461
REMARK minimizedRMSD -1
REMARK  1 active torsions:
REMARK  status: ('A' for Active; 'I' for Inactive)
REMARK    1  A    between atoms: C1_2  and  C2_3 
ROOT
ATOM      1  C2  UNL d   1      -3.830   0.719  -2.622  0.00  0.00    -0.073 A 
ATOM      2  C3  UNL d   1      -3.842  -0.575  -3.156  0.00  0.00    -0.002 A 
ATOM      3  C4  UNL d   1      -4.320  -1.645  -2.398  0.00  0.00     0.004 A 
ATOM      4  C5  UNL d   1      -4.795  -1.432  -1.104  0.00  0.00    -0.004 A 
ATOM      5  C6  UNL d   1      -4.802  -0.145  -0.558  0.00  0.00    -0.075 A 
ATOM      6  C7  UNL d   1      -5.309   0.100   0.833  0.00  0.00     0.076 C 
ATOM      7  C8  UNL d   1      -4.319   0.924  -1.324  0.00  0.00     0.001 A 
ENDROOT
BRANCH   1   8
ATOM      8  C1  UNL d   1      -3.322   1.879  -3.439  0.00  0.00     0.053 C 
ATOM      9  C   UNL d   1      -1.820   2.063  -3.294  0.00  0.00     0.018 C 
ENDBRANCH   1   8
TORSDOF 1
ENDMDL
