MODEL 1
REMARK minimizedAffinity 10.4897528
REMARK minimizedRMSD -1
REMARK  1 active torsions:
REMARK  status: ('A' for Active; 'I' for Inactive)
REMARK    1  A    between atoms: C1_2  and  C2_3 
ROOT
ATOM      1  C2  UNL d   1       0.671   0.276  -1.643  0.00  0.00    -0.073 A 
ATOM      2  C3  UNL d   1       1.430   0.770  -0.576  0.00  0.00    -0.002 A 
ATOM      3  C4  UNL d   1       1.514   0.055   0.620  0.00  0.00     0.004 A 
ATOM      4  C5  UNL d   1       0.847  -1.162   0.758  0.00  0.00    -0.004 A 
ATOM      5  C6  UNL d   1       0.093  -1.678  -0.301  0.00  0.00    -0.075 A 
ATOM      6  C7  UNL d   1      -0.632  -2.985  -0.167  0.00  0.00     0.076 C 
ATOM      7  C8  UNL d   1       0.012  -0.953  -1.498  0.00  0.00     0.001 A 
ENDROOT
BRANCH   1   8
ATOM      8  C1  UNL d   1       0.583   1.041  -2.938  0.00  0.00     0.053 C 
ATOM      9  C   UNL d   1      -0.360   2.229  -2.836  0.00  0.00     0.018 C 
ENDBRANCH   1   8
TORSDOF 1
ENDMDL
