MODEL 1
REMARK minimizedAffinity 4.1700654
REMARK minimizedRMSD -1
REMARK  1 active torsions:
REMARK  status: ('A' for Active; 'I' for Inactive)
REMARK    1  A    between atoms: C1_2  and  C2_3 
ROOT
ATOM      1  C2  UNL d   1      -3.185  -4.467  -5.714  0.00  0.00    -0.077 A 
ATOM      2  C3  UNL d   1      -3.895  -5.642  -5.999  0.00  0.00     0.002 A 
ATOM      3  C4  UNL d   1      -5.272  -5.706  -5.779  0.00  0.00     0.002 A 
ATOM      4  C5  UNL d   1      -5.952  -4.599  -5.277  0.00  0.00    -0.004 A 
ATOM      5  C6  UNL d   1      -5.255  -3.426  -4.988  0.00  0.00     0.002 A 
ATOM      6  C7  UNL d   1      -3.878  -3.361  -5.206  0.00  0.00     0.002 A 
ENDROOT
BRANCH   1   7
ATOM      7  C1  UNL d   1      -1.708  -4.380  -5.996  0.00  0.00     0.055 C 
ATOM      8  C   UNL d   1      -1.062  -5.758  -5.997  0.00  0.00     0.019 C 
ENDBRANCH   1   7
TORSDOF 1
ENDMDL
