MODEL 1
REMARK minimizedAffinity -0.0785271972
REMARK minimizedRMSD -1
REMARK  1 active torsions:
REMARK  status: ('A' for Active; 'I' for Inactive)
REMARK    1  A    between atoms: C1_2  and  C2_3 
ROOT
ATOM      1  C2  UNL d   1      -5.515  -3.510  -3.694  0.00  0.00    -0.077 A 
ATOM      2  C3  UNL d   1      -4.625  -2.974  -4.635  0.00  0.00     0.002 A 
ATOM      3  C4  UNL d   1      -4.213  -3.734  -5.732  0.00  0.00     0.002 A 
ATOM      4  C5  UNL d   1      -4.690  -5.032  -5.900  0.00  0.00    -0.004 A 
ATOM      5  C6  UNL d   1      -5.575  -5.575  -4.968  0.00  0.00     0.002 A 
ATOM      6  C7  UNL d   1      -5.986  -4.817  -3.871  0.00  0.00     0.002 A 
ENDROOT
BRANCH   1   7
ATOM      7  C1  UNL d   1      -5.998  -2.675  -2.538  0.00  0.00     0.055 C 
ATOM      8  C   UNL d   1      -5.177  -2.938  -1.284  0.00  0.00     0.019 C 
ENDBRANCH   1   7
TORSDOF 1
ENDMDL
