MODEL 1
REMARK minimizedAffinity 0.931930244
REMARK minimizedRMSD -1
REMARK  1 active torsions:
REMARK  status: ('A' for Active; 'I' for Inactive)
REMARK    1  A    between atoms: C1_2  and  C2_3 
ROOT
ATOM      1  C2  UNL d   1      -5.123  -3.811   0.965  0.00  0.00    -0.077 A 
ATOM      2  C3  UNL d   1      -4.938  -4.087  -0.397  0.00  0.00     0.002 A 
ATOM      3  C4  UNL d   1      -4.162  -5.176  -0.797  0.00  0.00     0.002 A 
ATOM      4  C5  UNL d   1      -3.569  -6.000   0.157  0.00  0.00    -0.004 A 
ATOM      5  C6  UNL d   1      -3.746  -5.732   1.514  0.00  0.00     0.002 A 
ATOM      6  C7  UNL d   1      -4.520  -4.643   1.916  0.00  0.00     0.002 A 
ENDROOT
BRANCH   1   7
ATOM      7  C1  UNL d   1      -6.000  -2.665   1.400  0.00  0.00     0.055 C 
ATOM      8  C   UNL d   1      -5.989  -1.540   0.375  0.00  0.00     0.019 C 
ENDBRANCH   1   7
TORSDOF 1
ENDMDL
