MODEL 1
REMARK minimizedAffinity 13.0214787
REMARK minimizedRMSD -1
REMARK  1 active torsions:
REMARK  status: ('A' for Active; 'I' for Inactive)
REMARK    1  A    between atoms: C1_2  and  C2_3 
ROOT
ATOM      1  C2  UNL d   1       2.670   1.023  -4.964  0.00  0.00    -0.077 A 
ATOM      2  C3  UNL d   1       2.434   1.538  -3.681  0.00  0.00     0.002 A 
ATOM      3  C4  UNL d   1       1.815   0.751  -2.708  0.00  0.00     0.002 A 
ATOM      4  C5  UNL d   1       1.431  -0.555  -3.005  0.00  0.00    -0.004 A 
ATOM      5  C6  UNL d   1       1.660  -1.075  -4.279  0.00  0.00     0.002 A 
ATOM      6  C7  UNL d   1       2.278  -0.290  -5.253  0.00  0.00     0.002 A 
ENDROOT
BRANCH   1   7
ATOM      7  C1  UNL d   1       3.382   1.853  -6.000  0.00  0.00     0.055 C 
ATOM      8  C   UNL d   1       3.833   3.188  -5.426  0.00  0.00     0.019 C 
ENDBRANCH   1   7
TORSDOF 1
ENDMDL
