MODEL 1
REMARK minimizedAffinity 3.41305041
REMARK minimizedRMSD -1
REMARK  1 active torsions:
REMARK  status: ('A' for Active; 'I' for Inactive)
REMARK    1  A    between atoms: C1_2  and  C2_3 
ROOT
ATOM      1  C2  UNL d   1      -5.325  -3.942   1.155  0.00  0.00    -0.077 A 
ATOM      2  C3  UNL d   1      -4.844  -5.225   1.449  0.00  0.00     0.002 A 
ATOM      3  C4  UNL d   1      -4.179  -5.970   0.474  0.00  0.00     0.002 A 
ATOM      4  C5  UNL d   1      -3.985  -5.440  -0.800  0.00  0.00    -0.004 A 
ATOM      5  C6  UNL d   1      -4.462  -4.165  -1.103  0.00  0.00     0.002 A 
ATOM      6  C7  UNL d   1      -5.129  -3.419  -0.130  0.00  0.00     0.002 A 
ENDROOT
BRANCH   1   7
ATOM      7  C1  UNL d   1      -6.000  -3.117   2.220  0.00  0.00     0.055 C 
ATOM      8  C   UNL d   1      -5.845  -3.752   3.594  0.00  0.00     0.019 C 
ENDBRANCH   1   7
TORSDOF 1
ENDMDL
