MODEL 1
REMARK minimizedAffinity 10.6401834
REMARK minimizedRMSD -1
REMARK  1 active torsions:
REMARK  status: ('A' for Active; 'I' for Inactive)
REMARK    1  A    between atoms: C1_2  and  C2_3 
ROOT
ATOM      1  C2  UNL d   1       1.814   3.719  -3.043  0.00  0.00    -0.077 A 
ATOM      2  C3  UNL d   1       2.703   2.919  -3.774  0.00  0.00     0.002 A 
ATOM      3  C4  UNL d   1       3.424   3.458  -4.842  0.00  0.00     0.002 A 
ATOM      4  C5  UNL d   1       3.266   4.799  -5.185  0.00  0.00    -0.004 A 
ATOM      5  C6  UNL d   1       2.382   5.603  -4.465  0.00  0.00     0.002 A 
ATOM      6  C7  UNL d   1       1.660   5.065  -3.399  0.00  0.00     0.002 A 
ENDROOT
BRANCH   1   7
ATOM      7  C1  UNL d   1       1.072   3.152  -1.861  0.00  0.00     0.055 C 
ATOM      8  C   UNL d   1       1.559   1.751  -1.522  0.00  0.00     0.019 C 
ENDBRANCH   1   7
TORSDOF 1
ENDMDL
