MODEL 1
REMARK minimizedAffinity 10.2762222
REMARK minimizedRMSD -1
REMARK  1 active torsions:
REMARK  status: ('A' for Active; 'I' for Inactive)
REMARK    1  A    between atoms: C1_2  and  C2_3 
ROOT
ATOM      1  C2  UNL d   1       2.300   0.434  -4.498  0.00  0.00    -0.077 A 
ATOM      2  C3  UNL d   1       1.302   0.895  -5.368  0.00  0.00     0.002 A 
ATOM      3  C4  UNL d   1       0.444  -0.008  -5.999  0.00  0.00     0.002 A 
ATOM      4  C5  UNL d   1       0.573  -1.375  -5.764  0.00  0.00    -0.004 A 
ATOM      5  C6  UNL d   1       1.564  -1.843  -4.903  0.00  0.00     0.002 A 
ATOM      6  C7  UNL d   1       2.424  -0.942  -4.272  0.00  0.00     0.002 A 
ENDROOT
BRANCH   1   7
ATOM      7  C1  UNL d   1       3.195   1.409  -3.778  0.00  0.00     0.055 C 
ATOM      8  C   UNL d   1       3.695   2.499  -4.716  0.00  0.00     0.019 C 
ENDBRANCH   1   7
TORSDOF 1
ENDMDL
