MODEL 1
REMARK minimizedAffinity 11.7531796
REMARK minimizedRMSD -1
REMARK  1 active torsions:
REMARK  status: ('A' for Active; 'I' for Inactive)
REMARK    1  A    between atoms: C1_2  and  C2_3 
ROOT
ATOM      1  C2  UNL d   1       3.529   4.521  -4.888  0.00  0.00    -0.077 A 
ATOM      2  C3  UNL d   1       3.058   3.336  -5.472  0.00  0.00     0.002 A 
ATOM      3  C4  UNL d   1       3.955   2.404  -5.999  0.00  0.00     0.002 A 
ATOM      4  C5  UNL d   1       5.326   2.645  -5.944  0.00  0.00    -0.004 A 
ATOM      5  C6  UNL d   1       5.803   3.822  -5.367  0.00  0.00     0.002 A 
ATOM      6  C7  UNL d   1       4.909   4.755  -4.841  0.00  0.00     0.002 A 
ENDROOT
BRANCH   1   7
ATOM      7  C1  UNL d   1       2.566   5.504  -4.274  0.00  0.00     0.055 C 
ATOM      8  C   UNL d   1       1.753   4.861  -3.161  0.00  0.00     0.019 C 
ENDBRANCH   1   7
TORSDOF 1
ENDMDL
