MODEL 1
REMARK minimizedAffinity 4.00656176
REMARK minimizedRMSD -1
REMARK  1 active torsions:
REMARK  status: ('A' for Active; 'I' for Inactive)
REMARK    1  A    between atoms: C1_2  and  C2_3 
ROOT
ATOM      1  C2  UNL d   1      -3.631  -1.021   0.641  0.00  0.00    -0.077 A 
ATOM      2  C3  UNL d   1      -4.518   0.064   0.592  0.00  0.00     0.002 A 
ATOM      3  C4  UNL d   1      -4.092   1.341   0.961  0.00  0.00     0.002 A 
ATOM      4  C5  UNL d   1      -2.777   1.546   1.375  0.00  0.00    -0.004 A 
ATOM      5  C6  UNL d   1      -1.889   0.473   1.429  0.00  0.00     0.002 A 
ATOM      6  C7  UNL d   1      -2.313  -0.804   1.063  0.00  0.00     0.002 A 
ENDROOT
BRANCH   1   7
ATOM      7  C1  UNL d   1      -4.076  -2.391   0.197  0.00  0.00     0.055 C 
ATOM      8  C   UNL d   1      -2.909  -3.368   0.166  0.00  0.00     0.019 C 
ENDBRANCH   1   7
TORSDOF 1
ENDMDL
