MODEL 1
REMARK minimizedAffinity 7.50319719
REMARK minimizedRMSD -1
REMARK  1 active torsions:
REMARK  status: ('A' for Active; 'I' for Inactive)
REMARK    1  A    between atoms: C1_2  and  C2_3 
ROOT
ATOM      1  C2  UNL d   1      -0.632   0.786   2.455  0.00  0.00    -0.077 A 
ATOM      2  C3  UNL d   1      -0.844  -0.585   2.655  0.00  0.00     0.002 A 
ATOM      3  C4  UNL d   1      -2.023  -1.189   2.211  0.00  0.00     0.002 A 
ATOM      4  C5  UNL d   1      -2.995  -0.431   1.562  0.00  0.00    -0.004 A 
ATOM      5  C6  UNL d   1      -2.793   0.934   1.361  0.00  0.00     0.002 A 
ATOM      6  C7  UNL d   1      -1.617   1.540   1.804  0.00  0.00     0.002 A 
ENDROOT
BRANCH   1   7
ATOM      7  C1  UNL d   1       0.660   1.430   2.888  0.00  0.00     0.055 C 
ATOM      8  C   UNL d   1       0.445   2.879   3.301  0.00  0.00     0.019 C 
ENDBRANCH   1   7
TORSDOF 1
ENDMDL
