MODEL 1
REMARK minimizedAffinity 11.4458704
REMARK minimizedRMSD -1
REMARK  1 active torsions:
REMARK  status: ('A' for Active; 'I' for Inactive)
REMARK    1  A    between atoms: C1_2  and  C2_3 
ROOT
ATOM      1  C2  UNL d   1       2.477   3.846  -2.314  0.00  0.00    -0.077 A 
ATOM      2  C3  UNL d   1       2.225   5.168  -2.706  0.00  0.00     0.002 A 
ATOM      3  C4  UNL d   1       2.891   5.719  -3.803  0.00  0.00     0.002 A 
ATOM      4  C5  UNL d   1       3.809   4.953  -4.519  0.00  0.00    -0.004 A 
ATOM      5  C6  UNL d   1       4.068   3.638  -4.136  0.00  0.00     0.002 A 
ATOM      6  C7  UNL d   1       3.404   3.086  -3.039  0.00  0.00     0.002 A 
ENDROOT
BRANCH   1   7
ATOM      7  C1  UNL d   1       1.723   3.235  -1.162  0.00  0.00     0.055 C 
ATOM      8  C   UNL d   1       1.460   1.754  -1.396  0.00  0.00     0.019 C 
ENDBRANCH   1   7
TORSDOF 1
ENDMDL
