MODEL 1
REMARK minimizedAffinity -5.83856773
REMARK minimizedRMSD -1
REMARK  1 active torsions:
REMARK  status: ('A' for Active; 'I' for Inactive)
REMARK    1  A    between atoms: C3_4  and  O_7 
ROOT
ATOM      1  C   UNL d   1      -1.432   1.058   2.311  0.00  0.00    -0.033 A 
ATOM      2  C1  UNL d   1      -1.059   0.496   1.088  0.00  0.00     0.039 A 
ATOM      3  C2  UNL d   1       0.180  -0.134   0.956  0.00  0.00    -0.080 A 
ATOM      4  C3  UNL d   1       1.035  -0.196   2.053  0.00  0.00     0.150 A 
ATOM      5  C4  UNL d   1       0.668   0.358   3.275  0.00  0.00    -0.007 A 
ATOM      6  C5  UNL d   1      -0.569   0.987   3.405  0.00  0.00     0.039 A 
ENDROOT
BRANCH   4   7
ATOM      7  O   UNL d   1       2.256  -0.796   1.972  0.00  0.00    -0.526 OA
ATOM      8  H5  UNL d   1       2.386  -1.108   1.060  0.00  0.00     0.418 HD
ENDBRANCH   4   7
TORSDOF 1
ENDMDL
