MODEL 1
REMARK minimizedAffinity -4.20184851
REMARK minimizedRMSD -1
REMARK  1 active torsions:
REMARK  status: ('A' for Active; 'I' for Inactive)
REMARK    1  A    between atoms: C3_4  and  O_7 
ROOT
ATOM      1  C   UNL d   1      -1.375   0.859   1.704  0.00  0.00    -0.033 A 
ATOM      2  C1  UNL d   1      -0.747   0.366   0.558  0.00  0.00     0.039 A 
ATOM      3  C2  UNL d   1       0.571  -0.089   0.623  0.00  0.00    -0.080 A 
ATOM      4  C3  UNL d   1       1.250  -0.046   1.837  0.00  0.00     0.150 A 
ATOM      5  C4  UNL d   1       0.630   0.440   2.984  0.00  0.00    -0.007 A 
ATOM      6  C5  UNL d   1      -0.686   0.894   2.917  0.00  0.00     0.039 A 
ENDROOT
BRANCH   4   7
ATOM      7  O   UNL d   1       2.539  -0.475   1.948  0.00  0.00    -0.526 OA
ATOM      8  H5  UNL d   1       2.847  -0.756   1.070  0.00  0.00     0.418 HD
ENDBRANCH   4   7
TORSDOF 1
ENDMDL
