MODEL 1
REMARK minimizedAffinity -5.17189074
REMARK minimizedRMSD -1
REMARK  1 active torsions:
REMARK  status: ('A' for Active; 'I' for Inactive)
REMARK    1  A    between atoms: C3_4  and  O_7 
ROOT
ATOM      1  C   UNL d   1       0.206  -0.773   0.103  0.00  0.00    -0.033 A 
ATOM      2  C1  UNL d   1       1.220  -0.637   1.052  0.00  0.00     0.039 A 
ATOM      3  C2  UNL d   1       1.028   0.179   2.169  0.00  0.00    -0.080 A 
ATOM      4  C3  UNL d   1      -0.181   0.850   2.326  0.00  0.00     0.150 A 
ATOM      5  C4  UNL d   1      -1.198   0.715   1.386  0.00  0.00    -0.007 A 
ATOM      6  C5  UNL d   1      -1.004  -0.098   0.271  0.00  0.00     0.039 A 
ENDROOT
BRANCH   4   7
ATOM      7  O   UNL d   1      -0.413   1.661   3.397  0.00  0.00    -0.526 OA
ATOM      8  H5  UNL d   1       0.388   1.680   3.947  0.00  0.00     0.418 HD
ENDBRANCH   4   7
TORSDOF 1
ENDMDL
