MODEL 1
REMARK minimizedAffinity -0.710283279
REMARK minimizedRMSD -1
REMARK  1 active torsions:
REMARK  status: ('A' for Active; 'I' for Inactive)
REMARK    1  A    between atoms: C3_4  and  O_7 
ROOT
ATOM      1  C   UNL d   1      -5.830  -5.963   4.900  0.00  0.00    -0.033 A 
ATOM      2  C1  UNL d   1      -5.077  -5.540   3.803  0.00  0.00     0.039 A 
ATOM      3  C2  UNL d   1      -4.495  -4.271   3.802  0.00  0.00    -0.080 A 
ATOM      4  C3  UNL d   1      -4.673  -3.436   4.902  0.00  0.00     0.150 A 
ATOM      5  C4  UNL d   1      -5.418  -3.853   6.000  0.00  0.00    -0.007 A 
ATOM      6  C5  UNL d   1      -5.999  -5.121   5.999  0.00  0.00     0.039 A 
ENDROOT
BRANCH   4   7
ATOM      7  O   UNL d   1      -4.128  -2.187   4.944  0.00  0.00    -0.526 OA
ATOM      8  H5  UNL d   1      -3.665  -2.025   4.106  0.00  0.00     0.418 HD
ENDBRANCH   4   7
TORSDOF 1
ENDMDL
