MODEL 1
REMARK minimizedAffinity 6.45185471
REMARK minimizedRMSD -1
REMARK  1 active torsions:
REMARK  status: ('A' for Active; 'I' for Inactive)
REMARK    1  A    between atoms: C3_4  and  O_7 
ROOT
ATOM      1  C   UNL d   1       4.556   4.755  -3.726  0.00  0.00    -0.033 A 
ATOM      2  C1  UNL d   1       4.464   3.674  -4.605  0.00  0.00     0.039 A 
ATOM      3  C2  UNL d   1       3.521   2.668  -4.382  0.00  0.00    -0.080 A 
ATOM      4  C3  UNL d   1       2.678   2.756  -3.278  0.00  0.00     0.150 A 
ATOM      5  C4  UNL d   1       2.762   3.832  -2.400  0.00  0.00    -0.007 A 
ATOM      6  C5  UNL d   1       3.704   4.835  -2.624  0.00  0.00     0.039 A 
ENDROOT
BRANCH   4   7
ATOM      7  O   UNL d   1       1.745   1.797  -3.015  0.00  0.00    -0.526 OA
ATOM      8  H5  UNL d   1       1.821   1.101  -3.689  0.00  0.00     0.418 HD
ENDBRANCH   4   7
TORSDOF 1
ENDMDL
