MODEL 1
REMARK minimizedAffinity 7.29790545
REMARK minimizedRMSD -1
REMARK  1 active torsions:
REMARK  status: ('A' for Active; 'I' for Inactive)
REMARK    1  A    between atoms: C3_4  and  O_7 
ROOT
ATOM      1  C   UNL d   1       2.547   0.121   1.187  0.00  0.00    -0.033 A 
ATOM      2  C1  UNL d   1       3.458  -0.003   2.238  0.00  0.00     0.039 A 
ATOM      3  C2  UNL d   1       4.318   1.053   2.547  0.00  0.00    -0.080 A 
ATOM      4  C3  UNL d   1       4.256   2.225   1.800  0.00  0.00     0.150 A 
ATOM      5  C4  UNL d   1       3.348   2.357   0.754  0.00  0.00    -0.007 A 
ATOM      6  C5  UNL d   1       2.491   1.302   0.446  0.00  0.00     0.039 A 
ENDROOT
BRANCH   4   7
ATOM      7  O   UNL d   1       5.078   3.281   2.061  0.00  0.00    -0.526 OA
ATOM      8  H5  UNL d   1       5.671   3.036   2.790  0.00  0.00     0.418 HD
ENDBRANCH   4   7
TORSDOF 1
ENDMDL
