MODEL 1
REMARK minimizedAffinity -3.05908465
REMARK minimizedRMSD -1
REMARK  1 active torsions:
REMARK  status: ('A' for Active; 'I' for Inactive)
REMARK    1  A    between atoms: C3_4  and  O_7 
ROOT
ATOM      1  C   UNL d   1       5.998  -4.452  -1.202  0.00  0.00    -0.033 A 
ATOM      2  C1  UNL d   1       5.300  -5.613  -0.863  0.00  0.00     0.039 A 
ATOM      3  C2  UNL d   1       3.962  -5.536  -0.472  0.00  0.00    -0.080 A 
ATOM      4  C3  UNL d   1       3.334  -4.295  -0.425  0.00  0.00     0.150 A 
ATOM      5  C4  UNL d   1       4.022  -3.135  -0.765  0.00  0.00    -0.007 A 
ATOM      6  C5  UNL d   1       5.359  -3.213  -1.154  0.00  0.00     0.039 A 
ENDROOT
BRANCH   4   7
ATOM      7  O   UNL d   1       2.031  -4.169  -0.046  0.00  0.00    -0.526 OA
ATOM      8  H5  UNL d   1       1.692  -5.049   0.188  0.00  0.00     0.418 HD
ENDBRANCH   4   7
TORSDOF 1
ENDMDL
