MODEL 1
REMARK minimizedAffinity 10.3370132
REMARK minimizedRMSD -1
REMARK  1 active torsions:
REMARK  status: ('A' for Active; 'I' for Inactive)
REMARK    1  A    between atoms: C3_4  and  O_7 
ROOT
ATOM      1  C   UNL d   1      -1.667  -1.626   1.070  0.00  0.00    -0.033 A 
ATOM      2  C1  UNL d   1      -2.835  -0.870   1.185  0.00  0.00     0.039 A 
ATOM      3  C2  UNL d   1      -2.907   0.170   2.113  0.00  0.00    -0.080 A 
ATOM      4  C3  UNL d   1      -1.805   0.445   2.918  0.00  0.00     0.150 A 
ATOM      5  C4  UNL d   1      -0.637  -0.302   2.806  0.00  0.00    -0.007 A 
ATOM      6  C5  UNL d   1      -0.567  -1.341   1.879  0.00  0.00     0.039 A 
ENDROOT
BRANCH   4   7
ATOM      7  O   UNL d   1      -1.830   1.447   3.842  0.00  0.00    -0.526 OA
ATOM      8  H5  UNL d   1      -2.710   1.858   3.827  0.00  0.00     0.418 HD
ENDBRANCH   4   7
TORSDOF 1
ENDMDL
