MODEL 1
REMARK minimizedAffinity 9.85277367
REMARK minimizedRMSD -1
REMARK  1 active torsions:
REMARK  status: ('A' for Active; 'I' for Inactive)
REMARK    1  A    between atoms: C3_4  and  O_7 
ROOT
ATOM      1  C   UNL d   1       0.438   3.522  -2.394  0.00  0.00    -0.033 A 
ATOM      2  C1  UNL d   1       0.342   4.854  -1.987  0.00  0.00     0.039 A 
ATOM      3  C2  UNL d   1       1.498   5.613  -1.798  0.00  0.00    -0.080 A 
ATOM      4  C3  UNL d   1       2.742   5.030  -2.021  0.00  0.00     0.150 A 
ATOM      5  C4  UNL d   1       2.845   3.704  -2.430  0.00  0.00    -0.007 A 
ATOM      6  C5  UNL d   1       1.690   2.947  -2.617  0.00  0.00     0.039 A 
ENDROOT
BRANCH   4   7
ATOM      7  O   UNL d   1       3.899   5.729  -1.845  0.00  0.00    -0.526 OA
ATOM      8  H5  UNL d   1       3.674   6.622  -1.534  0.00  0.00     0.418 HD
ENDBRANCH   4   7
TORSDOF 1
ENDMDL
