MODEL 1
REMARK minimizedAffinity 3.70418096
REMARK minimizedRMSD -1
REMARK  1 active torsions:
REMARK  status: ('A' for Active; 'I' for Inactive)
REMARK    1  A    between atoms: C3_4  and  O_7 
ROOT
ATOM      1  C   UNL d   1      -5.913   0.253   0.040  0.00  0.00    -0.033 A 
ATOM      2  C1  UNL d   1      -5.927   1.217  -0.970  0.00  0.00     0.039 A 
ATOM      3  C2  UNL d   1      -5.957   0.825  -2.310  0.00  0.00    -0.080 A 
ATOM      4  C3  UNL d   1      -5.975  -0.531  -2.626  0.00  0.00     0.150 A 
ATOM      5  C4  UNL d   1      -5.965  -1.496  -1.624  0.00  0.00    -0.007 A 
ATOM      6  C5  UNL d   1      -5.934  -1.103  -0.287  0.00  0.00     0.039 A 
ENDROOT
BRANCH   4   7
ATOM      7  O   UNL d   1      -6.000  -0.961  -3.919  0.00  0.00    -0.526 OA
ATOM      8  H5  UNL d   1      -5.974  -0.184  -4.502  0.00  0.00     0.418 HD
ENDBRANCH   4   7
TORSDOF 1
ENDMDL
