MODEL 1
REMARK minimizedAffinity 9.70283222
REMARK minimizedRMSD -1
REMARK  1 active torsions:
REMARK  status: ('A' for Active; 'I' for Inactive)
REMARK    1  A    between atoms: C3_4  and  O_7 
ROOT
ATOM      1  C   UNL d   1      -0.754   4.507  -1.836  0.00  0.00    -0.033 A 
ATOM      2  C1  UNL d   1      -1.952   5.155  -2.143  0.00  0.00     0.039 A 
ATOM      3  C2  UNL d   1      -2.360   5.280  -3.472  0.00  0.00    -0.080 A 
ATOM      4  C3  UNL d   1      -1.561   4.754  -4.484  0.00  0.00     0.150 A 
ATOM      5  C4  UNL d   1      -0.368   4.104  -4.185  0.00  0.00    -0.007 A 
ATOM      6  C5  UNL d   1       0.037   3.980  -2.857  0.00  0.00     0.039 A 
ENDROOT
BRANCH   4   7
ATOM      7  O   UNL d   1      -1.915   4.856  -5.797  0.00  0.00    -0.526 OA
ATOM      8  H5  UNL d   1      -2.747   5.354  -5.853  0.00  0.00     0.418 HD
ENDBRANCH   4   7
TORSDOF 1
ENDMDL
