MODEL 1
REMARK minimizedAffinity 12.4997902
REMARK minimizedRMSD -1
REMARK  1 active torsions:
REMARK  status: ('A' for Active; 'I' for Inactive)
REMARK    1  A    between atoms: C3_4  and  O_7 
ROOT
ATOM      1  C   UNL d   1      -5.172   0.627  -0.552  0.00  0.00    -0.033 A 
ATOM      2  C1  UNL d   1      -5.759   1.632  -1.324  0.00  0.00     0.039 A 
ATOM      3  C2  UNL d   1      -5.997   1.420  -2.683  0.00  0.00    -0.080 A 
ATOM      4  C3  UNL d   1      -5.646   0.202  -3.258  0.00  0.00     0.150 A 
ATOM      5  C4  UNL d   1      -5.065  -0.805  -2.494  0.00  0.00    -0.007 A 
ATOM      6  C5  UNL d   1      -4.826  -0.592  -1.137  0.00  0.00     0.039 A 
ENDROOT
BRANCH   4   7
ATOM      7  O   UNL d   1      -5.856  -0.049  -4.581  0.00  0.00    -0.526 OA
ATOM      8  H5  UNL d   1      -6.237   0.747  -4.989  0.00  0.00     0.418 HD
ENDBRANCH   4   7
TORSDOF 1
ENDMDL
