MODEL 1
REMARK minimizedAffinity 10.8266439
REMARK minimizedRMSD -1
REMARK  1 active torsions:
REMARK  status: ('A' for Active; 'I' for Inactive)
REMARK    1  A    between atoms: C3_4  and  O_7 
ROOT
ATOM      1  C   UNL d   1      -5.317   2.119   0.540  0.00  0.00    -0.033 A 
ATOM      2  C1  UNL d   1      -5.544   2.743  -0.688  0.00  0.00     0.039 A 
ATOM      3  C2  UNL d   1      -5.653   1.979  -1.852  0.00  0.00    -0.080 A 
ATOM      4  C3  UNL d   1      -5.534   0.594  -1.774  0.00  0.00     0.150 A 
ATOM      5  C4  UNL d   1      -5.312  -0.034  -0.553  0.00  0.00    -0.007 A 
ATOM      6  C5  UNL d   1      -5.203   0.730   0.608  0.00  0.00     0.039 A 
ENDROOT
BRANCH   4   7
ATOM      7  O   UNL d   1      -5.628  -0.193  -2.883  0.00  0.00    -0.526 OA
ATOM      8  H5  UNL d   1      -5.753   0.380  -3.657  0.00  0.00     0.418 HD
ENDBRANCH   4   7
TORSDOF 1
ENDMDL
