MODEL 1
REMARK minimizedAffinity 9.96742249
REMARK minimizedRMSD -1
REMARK  1 active torsions:
REMARK  status: ('A' for Active; 'I' for Inactive)
REMARK    1  A    between atoms: C3_4  and  O_7 
ROOT
ATOM      1  C   UNL d   1       5.305   5.212  -2.578  0.00  0.00    -0.033 A 
ATOM      2  C1  UNL d   1       5.999   5.178  -3.789  0.00  0.00     0.039 A 
ATOM      3  C2  UNL d   1       5.519   4.407  -4.849  0.00  0.00    -0.080 A 
ATOM      4  C3  UNL d   1       4.344   3.678  -4.687  0.00  0.00     0.150 A 
ATOM      5  C4  UNL d   1       3.645   3.711  -3.485  0.00  0.00    -0.007 A 
ATOM      6  C5  UNL d   1       4.127   4.480  -2.426  0.00  0.00     0.039 A 
ENDROOT
BRANCH   4   7
ATOM      7  O   UNL d   1       3.839   2.908  -5.692  0.00  0.00    -0.526 OA
ATOM      8  H5  UNL d   1       4.442   2.960  -6.452  0.00  0.00     0.418 HD
ENDBRANCH   4   7
TORSDOF 1
ENDMDL
