MODEL 1
REMARK minimizedAffinity 8.9851675
REMARK minimizedRMSD -1
REMARK  1 active torsions:
REMARK  status: ('A' for Active; 'I' for Inactive)
REMARK    1  A    between atoms: C3_4  and  O_7 
ROOT
ATOM      1  C   UNL d   1      -0.690   4.300  -0.853  0.00  0.00    -0.033 A 
ATOM      2  C1  UNL d   1      -2.047   4.540  -1.078  0.00  0.00     0.039 A 
ATOM      3  C2  UNL d   1      -2.529   4.665  -2.382  0.00  0.00    -0.080 A 
ATOM      4  C3  UNL d   1      -1.646   4.546  -3.451  0.00  0.00     0.150 A 
ATOM      5  C4  UNL d   1      -0.293   4.303  -3.235  0.00  0.00    -0.007 A 
ATOM      6  C5  UNL d   1       0.186   4.180  -1.931  0.00  0.00     0.039 A 
ENDROOT
BRANCH   4   7
ATOM      7  O   UNL d   1      -2.068   4.664  -4.742  0.00  0.00    -0.526 OA
ATOM      8  H5  UNL d   1      -3.020   4.859  -4.737  0.00  0.00     0.418 HD
ENDBRANCH   4   7
TORSDOF 1
ENDMDL
