MODEL 1
REMARK minimizedAffinity 6.34303999
REMARK minimizedRMSD -1
REMARK  1 active torsions:
REMARK  status: ('A' for Active; 'I' for Inactive)
REMARK    1  A    between atoms: C3_4  and  O_7 
ROOT
ATOM      1  C   UNL d   1      -1.836  -1.104   1.857  0.00  0.00    -0.033 A 
ATOM      2  C1  UNL d   1      -2.964  -0.317   1.618  0.00  0.00     0.039 A 
ATOM      3  C2  UNL d   1      -3.367   0.633   2.558  0.00  0.00    -0.080 A 
ATOM      4  C3  UNL d   1      -2.633   0.787   3.731  0.00  0.00     0.150 A 
ATOM      5  C4  UNL d   1      -1.506   0.009   3.974  0.00  0.00    -0.007 A 
ATOM      6  C5  UNL d   1      -1.106  -0.940   3.035  0.00  0.00     0.039 A 
ENDROOT
BRANCH   4   7
ATOM      7  O   UNL d   1      -2.990   1.698   4.680  0.00  0.00    -0.526 OA
ATOM      8  H5  UNL d   1      -3.804   2.143   4.390  0.00  0.00     0.418 HD
ENDBRANCH   4   7
TORSDOF 1
ENDMDL
