MODEL 1
REMARK minimizedAffinity 3.06129718
REMARK minimizedRMSD -1
REMARK  1 active torsions:
REMARK  status: ('A' for Active; 'I' for Inactive)
REMARK    1  A    between atoms: C3_4  and  O_7 
ROOT
ATOM      1  C   UNL d   1      -2.620   1.134   5.798  0.00  0.00    -0.033 A 
ATOM      2  C1  UNL d   1      -1.688   0.114   6.000  0.00  0.00     0.039 A 
ATOM      3  C2  UNL d   1      -1.218  -0.629   4.915  0.00  0.00    -0.080 A 
ATOM      4  C3  UNL d   1      -1.687  -0.342   3.636  0.00  0.00     0.150 A 
ATOM      5  C4  UNL d   1      -2.612   0.675   3.427  0.00  0.00    -0.007 A 
ATOM      6  C5  UNL d   1      -3.081   1.416   4.512  0.00  0.00     0.039 A 
ENDROOT
BRANCH   4   7
ATOM      7  O   UNL d   1      -1.261  -1.043   2.547  0.00  0.00    -0.526 OA
ATOM      8  H5  UNL d   1      -0.645  -1.732   2.846  0.00  0.00     0.418 HD
ENDBRANCH   4   7
TORSDOF 1
ENDMDL
