MODEL 1
REMARK minimizedAffinity 6.65368938
REMARK minimizedRMSD -1
REMARK  1 active torsions:
REMARK  status: ('A' for Active; 'I' for Inactive)
REMARK    1  A    between atoms: C3_4  and  O_7 
ROOT
ATOM      1  C   UNL d   1       0.565   5.308  -2.310  0.00  0.00    -0.033 A 
ATOM      2  C1  UNL d   1       0.033   4.075  -2.691  0.00  0.00     0.039 A 
ATOM      3  C2  UNL d   1       0.882   3.008  -2.991  0.00  0.00    -0.080 A 
ATOM      4  C3  UNL d   1       2.260   3.187  -2.907  0.00  0.00     0.150 A 
ATOM      5  C4  UNL d   1       2.797   4.412  -2.524  0.00  0.00    -0.007 A 
ATOM      6  C5  UNL d   1       1.948   5.476  -2.226  0.00  0.00     0.039 A 
ENDROOT
BRANCH   4   7
ATOM      7  O   UNL d   1       3.129   2.177  -3.195  0.00  0.00    -0.526 OA
ATOM      8  H5  UNL d   1       2.616   1.399  -3.471  0.00  0.00     0.418 HD
ENDBRANCH   4   7
TORSDOF 1
ENDMDL
