MODEL 1
REMARK minimizedAffinity 5.15032482
REMARK minimizedRMSD -1
REMARK  1 active torsions:
REMARK  status: ('A' for Active; 'I' for Inactive)
REMARK    1  A    between atoms: C3_4  and  O_7 
ROOT
ATOM      1  C   UNL d   1      -5.316   1.173   0.413  0.00  0.00    -0.033 A 
ATOM      2  C1  UNL d   1      -5.619   1.892  -0.744  0.00  0.00     0.039 A 
ATOM      3  C2  UNL d   1      -5.854   1.219  -1.945  0.00  0.00    -0.080 A 
ATOM      4  C3  UNL d   1      -5.783  -0.171  -1.975  0.00  0.00     0.150 A 
ATOM      5  C4  UNL d   1      -5.485  -0.894  -0.825  0.00  0.00    -0.007 A 
ATOM      6  C5  UNL d   1      -5.250  -0.220   0.373  0.00  0.00     0.039 A 
ENDROOT
BRANCH   4   7
ATOM      7  O   UNL d   1      -6.000  -0.871  -3.124  0.00  0.00    -0.526 OA
ATOM      8  H5  UNL d   1      -6.166  -0.238  -3.843  0.00  0.00     0.418 HD
ENDBRANCH   4   7
TORSDOF 1
ENDMDL
