MODEL 1
REMARK minimizedAffinity 6.07408333
REMARK minimizedRMSD -1
REMARK  0 active torsions:
REMARK  status: ('A' for Active; 'I' for Inactive)
ROOT
ATOM      1  C   UNL d   1       4.162   0.603  -5.253  0.00  0.00    -0.002 A 
ATOM      2  C1  UNL d   1       5.306   1.219  -5.740  0.00  0.00     0.010 A 
ATOM      3  C2  UNL d   1       5.318   2.591  -6.000  0.00  0.00     0.041 A 
ATOM      4  C3  UNL d   1       4.151   3.341  -5.757  0.00  0.00    -0.075 A 
ATOM      5  S   UNL d   1       3.934   5.034  -5.999  0.00  0.00     0.015 SA
ATOM      6  C4  UNL d   1       2.318   4.980  -5.461  0.00  0.00     0.022 A 
ATOM      7  C5  UNL d   1       1.937   3.709  -5.101  0.00  0.00     0.026 A 
ATOM      8  C6  UNL d   1       2.987   2.743  -5.265  0.00  0.00    -0.082 A 
ATOM      9  C7  UNL d   1       3.006   1.350  -5.013  0.00  0.00     0.045 A 
ENDROOT
TORSDOF 0
ENDMDL
