MODEL 1
REMARK minimizedAffinity 6.3710084
REMARK minimizedRMSD -1
REMARK  0 active torsions:
REMARK  status: ('A' for Active; 'I' for Inactive)
ROOT
ATOM      1  C   UNL d   1       5.695   3.749  -5.539  0.00  0.00    -0.002 A 
ATOM      2  C1  UNL d   1       5.460   2.637  -4.743  0.00  0.00     0.010 A 
ATOM      3  C2  UNL d   1       4.157   2.279  -4.388  0.00  0.00     0.041 A 
ATOM      4  C3  UNL d   1       3.084   3.065  -4.853  0.00  0.00    -0.075 A 
ATOM      5  S   UNL d   1       1.406   2.819  -4.546  0.00  0.00     0.015 SA
ATOM      6  C4  UNL d   1       0.961   4.183  -5.465  0.00  0.00     0.022 A 
ATOM      7  C5  UNL d   1       2.054   4.824  -6.000  0.00  0.00     0.026 A 
ATOM      8  C6  UNL d   1       3.296   4.190  -5.656  0.00  0.00    -0.082 A 
ATOM      9  C7  UNL d   1       4.628   4.526  -5.997  0.00  0.00     0.045 A 
ENDROOT
TORSDOF 0
ENDMDL
