MODEL 1
REMARK minimizedAffinity -3.21232295
REMARK minimizedRMSD -1
REMARK  0 active torsions:
REMARK  status: ('A' for Active; 'I' for Inactive)
ROOT
ATOM      1  C   UNL d   1       5.039   3.882  -5.587  0.00  0.00    -0.002 A 
ATOM      2  C1  UNL d   1       4.486   2.830  -4.870  0.00  0.00     0.010 A 
ATOM      3  C2  UNL d   1       3.127   2.826  -4.550  0.00  0.00     0.041 A 
ATOM      4  C3  UNL d   1       2.325   3.907  -4.968  0.00  0.00    -0.075 A 
ATOM      5  S   UNL d   1       0.636   4.116  -4.690  0.00  0.00     0.015 SA
ATOM      6  C4  UNL d   1       0.609   5.606  -5.518  0.00  0.00     0.022 A 
ATOM      7  C5  UNL d   1       1.850   5.950  -6.000  0.00  0.00     0.026 A 
ATOM      8  C6  UNL d   1       2.859   4.977  -5.691  0.00  0.00    -0.082 A 
ATOM      9  C7  UNL d   1       4.240   4.952  -6.000  0.00  0.00     0.045 A 
ENDROOT
TORSDOF 0
ENDMDL
