MODEL 1
REMARK minimizedAffinity -0.914500535
REMARK minimizedRMSD -1
REMARK  0 active torsions:
REMARK  status: ('A' for Active; 'I' for Inactive)
ROOT
ATOM      1  C   UNL d   1       4.945   3.001  -5.426  0.00  0.00    -0.002 A 
ATOM      2  C1  UNL d   1       5.185   4.319  -5.788  0.00  0.00     0.010 A 
ATOM      3  C2  UNL d   1       4.124   5.205  -5.987  0.00  0.00     0.041 A 
ATOM      4  C3  UNL d   1       2.805   4.740  -5.812  0.00  0.00    -0.075 A 
ATOM      5  S   UNL d   1       1.350   5.645  -6.000  0.00  0.00     0.015 SA
ATOM      6  C4  UNL d   1       0.377   4.304  -5.603  0.00  0.00     0.022 A 
ATOM      7  C5  UNL d   1       1.127   3.185  -5.331  0.00  0.00     0.026 A 
ATOM      8  C6  UNL d   1       2.539   3.418  -5.447  0.00  0.00    -0.082 A 
ATOM      9  C7  UNL d   1       3.636   2.544  -5.253  0.00  0.00     0.045 A 
ENDROOT
TORSDOF 0
ENDMDL
