MODEL 1
REMARK minimizedAffinity -0.875359893
REMARK minimizedRMSD -1
REMARK  0 active torsions:
REMARK  status: ('A' for Active; 'I' for Inactive)
ROOT
ATOM      1  C   UNL d   1       5.267   4.015  -4.900  0.00  0.00    -0.002 A 
ATOM      2  C1  UNL d   1       4.857   2.902  -5.620  0.00  0.00     0.010 A 
ATOM      3  C2  UNL d   1       3.521   2.754  -6.000  0.00  0.00     0.041 A 
ATOM      4  C3  UNL d   1       2.596   3.755  -5.642  0.00  0.00    -0.075 A 
ATOM      5  S   UNL d   1       0.910   3.787  -6.000  0.00  0.00     0.015 SA
ATOM      6  C4  UNL d   1       0.694   5.280  -5.206  0.00  0.00     0.022 A 
ATOM      7  C5  UNL d   1       1.870   5.756  -4.675  0.00  0.00     0.026 A 
ATOM      8  C6  UNL d   1       2.985   4.886  -4.918  0.00  0.00    -0.082 A 
ATOM      9  C7  UNL d   1       4.346   5.006  -4.547  0.00  0.00     0.045 A 
ENDROOT
TORSDOF 0
ENDMDL
