MODEL 1
REMARK minimizedAffinity -0.684127748
REMARK minimizedRMSD -1
REMARK  0 active torsions:
REMARK  status: ('A' for Active; 'I' for Inactive)
ROOT
ATOM      1  C   UNL d   1       0.927   5.515  -5.913  0.00  0.00    -0.002 A 
ATOM      2  C1  UNL d   1       0.688   4.153  -5.790  0.00  0.00     0.010 A 
ATOM      3  C2  UNL d   1       1.750   3.248  -5.742  0.00  0.00     0.041 A 
ATOM      4  C3  UNL d   1       3.068   3.738  -5.818  0.00  0.00    -0.075 A 
ATOM      5  S   UNL d   1       4.525   2.816  -5.778  0.00  0.00     0.015 SA
ATOM      6  C4  UNL d   1       5.498   4.208  -5.922  0.00  0.00     0.022 A 
ATOM      7  C5  UNL d   1       4.747   5.357  -6.000  0.00  0.00     0.026 A 
ATOM      8  C6  UNL d   1       3.334   5.105  -5.941  0.00  0.00    -0.082 A 
ATOM      9  C7  UNL d   1       2.236   5.998  -5.988  0.00  0.00     0.045 A 
ENDROOT
TORSDOF 0
ENDMDL
