MODEL 1
REMARK minimizedAffinity -1.68301964
REMARK minimizedRMSD -1
REMARK  0 active torsions:
REMARK  status: ('A' for Active; 'I' for Inactive)
ROOT
ATOM      1  C   UNL d   1       4.875   3.003  -5.395  0.00  0.00    -0.002 A 
ATOM      2  C1  UNL d   1       5.176   4.299  -5.789  0.00  0.00     0.010 A 
ATOM      3  C2  UNL d   1       4.158   5.232  -5.999  0.00  0.00     0.041 A 
ATOM      4  C3  UNL d   1       2.820   4.836  -5.803  0.00  0.00    -0.075 A 
ATOM      5  S   UNL d   1       1.410   5.808  -6.000  0.00  0.00     0.015 SA
ATOM      6  C4  UNL d   1       0.375   4.526  -5.565  0.00  0.00     0.022 A 
ATOM      7  C5  UNL d   1       1.071   3.377  -5.274  0.00  0.00     0.026 A 
ATOM      8  C6  UNL d   1       2.492   3.537  -5.406  0.00  0.00    -0.082 A 
ATOM      9  C7  UNL d   1       3.547   2.614  -5.202  0.00  0.00     0.045 A 
ENDROOT
TORSDOF 0
ENDMDL
