MODEL 1
REMARK minimizedAffinity -0.513099611
REMARK minimizedRMSD -1
REMARK  0 active torsions:
REMARK  status: ('A' for Active; 'I' for Inactive)
ROOT
ATOM      1  C   UNL d   1       5.978   3.848  -5.970  0.00  0.00    -0.002 A 
ATOM      2  C1  UNL d   1       5.822   5.227  -5.967  0.00  0.00     0.010 A 
ATOM      3  C2  UNL d   1       4.548   5.798  -5.975  0.00  0.00     0.041 A 
ATOM      4  C3  UNL d   1       3.422   4.952  -5.984  0.00  0.00    -0.075 A 
ATOM      5  S   UNL d   1       1.765   5.427  -5.993  0.00  0.00     0.015 SA
ATOM      6  C4  UNL d   1       1.224   3.810  -6.000  0.00  0.00     0.022 A 
ATOM      7  C5  UNL d   1       2.269   2.917  -5.995  0.00  0.00     0.026 A 
ATOM      8  C6  UNL d   1       3.553   3.560  -5.985  0.00  0.00    -0.082 A 
ATOM      9  C7  UNL d   1       4.858   3.012  -5.978  0.00  0.00     0.045 A 
ENDROOT
TORSDOF 0
ENDMDL
