MODEL 1
REMARK minimizedAffinity -1.80756807
REMARK minimizedRMSD -1
REMARK  0 active torsions:
REMARK  status: ('A' for Active; 'I' for Inactive)
ROOT
ATOM      1  C   UNL d   1       5.613   2.514  -5.964  0.00  0.00    -0.002 A 
ATOM      2  C1  UNL d   1       5.997   3.848  -5.953  0.00  0.00     0.010 A 
ATOM      3  C2  UNL d   1       5.039   4.863  -5.958  0.00  0.00     0.041 A 
ATOM      4  C3  UNL d   1       3.675   4.512  -5.973  0.00  0.00    -0.075 A 
ATOM      5  S   UNL d   1       2.325   5.585  -5.981  0.00  0.00     0.015 SA
ATOM      6  C4  UNL d   1       1.207   4.299  -5.999  0.00  0.00     0.022 A 
ATOM      7  C5  UNL d   1       1.831   3.074  -6.000  0.00  0.00     0.026 A 
ATOM      8  C6  UNL d   1       3.263   3.176  -5.984  0.00  0.00    -0.082 A 
ATOM      9  C7  UNL d   1       4.259   2.170  -5.979  0.00  0.00     0.045 A 
ENDROOT
TORSDOF 0
ENDMDL
