MODEL 1
REMARK minimizedAffinity -3.34985113
REMARK minimizedRMSD -1
REMARK  0 active torsions:
REMARK  status: ('A' for Active; 'I' for Inactive)
ROOT
ATOM      1  C   UNL d   1       5.824   3.024  -5.993  0.00  0.00    -0.002 A 
ATOM      2  C1  UNL d   1       4.916   1.974  -5.992  0.00  0.00     0.010 A 
ATOM      3  C2  UNL d   1       3.542   2.224  -5.991  0.00  0.00     0.041 A 
ATOM      4  C3  UNL d   1       3.092   3.558  -5.994  0.00  0.00    -0.075 A 
ATOM      5  S   UNL d   1       1.456   4.103  -5.994  0.00  0.00     0.015 SA
ATOM      6  C4  UNL d   1       1.924   5.742  -5.997  0.00  0.00     0.022 A 
ATOM      7  C5  UNL d   1       3.291   5.888  -5.997  0.00  0.00     0.026 A 
ATOM      8  C6  UNL d   1       3.986   4.632  -5.996  0.00  0.00    -0.082 A 
ATOM      9  C7  UNL d   1       5.373   4.347  -5.996  0.00  0.00     0.045 A 
ENDROOT
TORSDOF 0
ENDMDL
