MODEL 1
REMARK minimizedAffinity 12.2063169
REMARK minimizedRMSD -1
REMARK  0 active torsions:
REMARK  status: ('A' for Active; 'I' for Inactive)
ROOT
ATOM      1  C   UNL d   1       5.534   4.785   4.086  0.00  0.00     0.023 A 
ATOM      2  C1  UNL d   1       4.847   3.717   3.509  0.00  0.00     0.003 A 
ATOM      3  C2  UNL d   1       3.462   3.785   3.341  0.00  0.00     0.048 A 
ATOM      4  C3  UNL d   1       2.771   4.924   3.752  0.00  0.00     0.023 A 
ATOM      5  C4  UNL d   1       3.455   5.996   4.330  0.00  0.00     0.048 A 
ATOM      6  C5  UNL d   1       4.839   5.923   4.496  0.00  0.00     0.003 A 
ATOM      7  I   UNL d   1       0.710   5.028   3.503  0.00  0.00    -0.146 I 
ENDROOT
TORSDOF 0
ENDMDL
