MODEL 1
REMARK minimizedAffinity 8.94486618
REMARK minimizedRMSD -1
REMARK  0 active torsions:
REMARK  status: ('A' for Active; 'I' for Inactive)
ROOT
ATOM      1  C   UNL d   1       1.836  -0.715  -0.744  0.00  0.00     0.023 A 
ATOM      2  C1  UNL d   1       2.623  -0.949   0.383  0.00  0.00     0.003 A 
ATOM      3  C2  UNL d   1       2.711   0.017   1.388  0.00  0.00     0.048 A 
ATOM      4  C3  UNL d   1       2.008   1.215   1.259  0.00  0.00     0.023 A 
ATOM      5  C4  UNL d   1       1.218   1.453   0.133  0.00  0.00     0.048 A 
ATOM      6  C5  UNL d   1       1.134   0.484  -0.869  0.00  0.00     0.003 A 
ATOM      7  I   UNL d   1       2.136   2.654   2.753  0.00  0.00    -0.146 I 
ENDROOT
TORSDOF 0
ENDMDL
