MODEL 1
REMARK minimizedAffinity 8.9962635
REMARK minimizedRMSD -1
REMARK  0 active torsions:
REMARK  status: ('A' for Active; 'I' for Inactive)
ROOT
ATOM      1  C   UNL d   1      -3.945   5.626   0.571  0.00  0.00     0.023 A 
ATOM      2  C1  UNL d   1      -5.312   5.881   0.682  0.00  0.00     0.003 A 
ATOM      3  C2  UNL d   1      -5.904   5.988   1.943  0.00  0.00     0.048 A 
ATOM      4  C3  UNL d   1      -5.122   5.840   3.088  0.00  0.00     0.023 A 
ATOM      5  C4  UNL d   1      -3.754   5.586   2.982  0.00  0.00     0.048 A 
ATOM      6  C5  UNL d   1      -3.167   5.479   1.719  0.00  0.00     0.003 A 
ATOM      7  I   UNL d   1      -6.000   6.000   4.965  0.00  0.00    -0.146 I 
ENDROOT
TORSDOF 0
ENDMDL
