MODEL 1
REMARK minimizedAffinity 3.97314525
REMARK minimizedRMSD -1
REMARK  0 active torsions:
REMARK  status: ('A' for Active; 'I' for Inactive)
ROOT
ATOM      1  C   UNL d   1      -1.632   2.247  -1.115  0.00  0.00     0.023 A 
ATOM      2  C1  UNL d   1      -0.781   3.332  -0.901  0.00  0.00     0.003 A 
ATOM      3  C2  UNL d   1       0.262   3.231   0.022  0.00  0.00     0.048 A 
ATOM      4  C3  UNL d   1       0.450   2.042   0.726  0.00  0.00     0.023 A 
ATOM      5  C4  UNL d   1      -0.398   0.954   0.514  0.00  0.00     0.048 A 
ATOM      6  C5  UNL d   1      -1.440   1.059  -0.409  0.00  0.00     0.003 A 
ATOM      7  I   UNL d   1       2.002   1.890   2.100  0.00  0.00    -0.146 I 
ENDROOT
TORSDOF 0
ENDMDL
