MODEL 1
REMARK minimizedAffinity 3.56016731
REMARK minimizedRMSD -1
REMARK  0 active torsions:
REMARK  status: ('A' for Active; 'I' for Inactive)
ROOT
ATOM      1  C   UNL d   1       3.219   2.044   0.294  0.00  0.00     0.023 A 
ATOM      2  C1  UNL d   1       1.907   1.621   0.511  0.00  0.00     0.003 A 
ATOM      3  C2  UNL d   1       1.555   0.290   0.279  0.00  0.00     0.048 A 
ATOM      4  C3  UNL d   1       2.519  -0.613  -0.168  0.00  0.00     0.023 A 
ATOM      5  C4  UNL d   1       3.832  -0.194  -0.385  0.00  0.00     0.048 A 
ATOM      6  C5  UNL d   1       4.180   1.138  -0.153  0.00  0.00     0.003 A 
ATOM      7  I   UNL d   1       1.996  -2.595  -0.514  0.00  0.00    -0.146 I 
ENDROOT
TORSDOF 0
ENDMDL
