MODEL 1
REMARK minimizedAffinity 1.78817189
REMARK minimizedRMSD -1
REMARK  0 active torsions:
REMARK  status: ('A' for Active; 'I' for Inactive)
ROOT
ATOM      1  C   UNL d   1       2.349  -1.922  -0.239  0.00  0.00     0.023 A 
ATOM      2  C1  UNL d   1       0.986  -1.795  -0.505  0.00  0.00     0.003 A 
ATOM      3  C2  UNL d   1       0.165  -2.924  -0.507  0.00  0.00     0.048 A 
ATOM      4  C3  UNL d   1       0.714  -4.178  -0.240  0.00  0.00     0.023 A 
ATOM      5  C4  UNL d   1       2.077  -4.310   0.029  0.00  0.00     0.048 A 
ATOM      6  C5  UNL d   1       2.894  -3.178   0.028  0.00  0.00     0.003 A 
ATOM      7  I   UNL d   1      -0.506  -5.861  -0.241  0.00  0.00    -0.146 I 
ENDROOT
TORSDOF 0
ENDMDL
