MODEL 1
REMARK minimizedAffinity 4.39611435
REMARK minimizedRMSD -1
REMARK  0 active torsions:
REMARK  status: ('A' for Active; 'I' for Inactive)
ROOT
ATOM      1  C   UNL d   1      -0.335   1.200  -1.431  0.00  0.00     0.023 A 
ATOM      2  C1  UNL d   1       0.915   0.961  -0.862  0.00  0.00     0.003 A 
ATOM      3  C2  UNL d   1       1.319  -0.347  -0.585  0.00  0.00     0.048 A 
ATOM      4  C3  UNL d   1       0.467  -1.411  -0.880  0.00  0.00     0.023 A 
ATOM      5  C4  UNL d   1      -0.785  -1.176  -1.451  0.00  0.00     0.048 A 
ATOM      6  C5  UNL d   1      -1.184   0.133  -1.725  0.00  0.00     0.003 A 
ATOM      7  I   UNL d   1       1.066  -3.358  -0.470  0.00  0.00    -0.146 I 
ENDROOT
TORSDOF 0
ENDMDL
