MODEL 1
REMARK minimizedAffinity 0.481963694
REMARK minimizedRMSD -1
REMARK  0 active torsions:
REMARK  status: ('A' for Active; 'I' for Inactive)
ROOT
ATOM      1  C   UNL d   1      -2.681   0.869  -2.593  0.00  0.00     0.023 A 
ATOM      2  C1  UNL d   1      -2.215  -0.244  -1.894  0.00  0.00     0.003 A 
ATOM      3  C2  UNL d   1      -2.986  -0.802  -0.872  0.00  0.00     0.048 A 
ATOM      4  C3  UNL d   1      -4.223  -0.241  -0.555  0.00  0.00     0.023 A 
ATOM      5  C4  UNL d   1      -4.693   0.873  -1.252  0.00  0.00     0.048 A 
ATOM      6  C5  UNL d   1      -3.919   1.427  -2.273  0.00  0.00     0.003 A 
ATOM      7  I   UNL d   1      -5.372  -1.069   0.966  0.00  0.00    -0.146 I 
ENDROOT
TORSDOF 0
ENDMDL
