MODEL 1
REMARK minimizedAffinity -1.9510951
REMARK minimizedRMSD -1
REMARK  0 active torsions:
REMARK  status: ('A' for Active; 'I' for Inactive)
ROOT
ATOM      1  C   UNL d   1       1.215   0.794  -1.360  0.00  0.00     0.023 A 
ATOM      2  C1  UNL d   1       0.043   0.048  -1.229  0.00  0.00     0.003 A 
ATOM      3  C2  UNL d   1       0.103  -1.347  -1.197  0.00  0.00     0.048 A 
ATOM      4  C3  UNL d   1       1.337  -1.989  -1.295  0.00  0.00     0.023 A 
ATOM      5  C4  UNL d   1       2.511  -1.246  -1.425  0.00  0.00     0.048 A 
ATOM      6  C5  UNL d   1       2.447   0.148  -1.458  0.00  0.00     0.003 A 
ATOM      7  I   UNL d   1       1.427  -4.065  -1.248  0.00  0.00    -0.146 I 
ENDROOT
TORSDOF 0
ENDMDL
