MODEL 1
REMARK minimizedAffinity 7.93650341
REMARK minimizedRMSD -1
REMARK  0 active torsions:
REMARK  status: ('A' for Active; 'I' for Inactive)
ROOT
ATOM      1  C   UNL d   1      -4.538  -1.948   2.201  0.00  0.00     0.124 A 
ATOM      2  C1  UNL d   1      -3.409  -1.405   2.797  0.00  0.00     0.062 A 
ATOM      3  C2  UNL d   1      -2.647  -0.457   2.120  0.00  0.00     0.162 A 
ATOM      4  C3  UNL d   1      -3.014  -0.044   0.839  0.00  0.00    -0.034 A 
ATOM      5  C4  UNL d   1      -4.151  -0.596   0.246  0.00  0.00     0.162 A 
ATOM      6  C5  UNL d   1      -4.909  -1.543   0.926  0.00  0.00     0.062 A 
ATOM      7  F   UNL d   1      -6.000  -2.067   0.349  0.00  0.00    -0.097 F 
ATOM      8  F1  UNL d   1      -4.532  -0.222  -0.985  0.00  0.00    -0.096 F 
ATOM      9  I   UNL d   1      -1.878   1.373  -0.177  0.00  0.00    -0.060 I 
ATOM     10  F2  UNL d   1      -1.560   0.051   2.720  0.00  0.00    -0.096 F 
ATOM     11  F3  UNL d   1      -3.048  -1.796   4.028  0.00  0.00    -0.097 F 
ATOM     12  F4  UNL d   1      -5.268  -2.861   2.854  0.00  0.00    -0.092 F 
ENDROOT
TORSDOF 0
ENDMDL
