MODEL 1
REMARK minimizedAffinity 5.7483902
REMARK minimizedRMSD -1
REMARK  0 active torsions:
REMARK  status: ('A' for Active; 'I' for Inactive)
ROOT
ATOM      1  C   UNL d   1      -3.305   1.286  -0.223  0.00  0.00     0.124 A 
ATOM      2  C1  UNL d   1      -3.636   0.038   0.287  0.00  0.00     0.062 A 
ATOM      3  C2  UNL d   1      -3.409  -0.252   1.630  0.00  0.00     0.162 A 
ATOM      4  C3  UNL d   1      -2.850   0.709   2.472  0.00  0.00    -0.034 A 
ATOM      5  C4  UNL d   1      -2.519   1.961   1.952  0.00  0.00     0.162 A 
ATOM      6  C5  UNL d   1      -2.747   2.246   0.609  0.00  0.00     0.062 A 
ATOM      7  F   UNL d   1      -2.426   3.452   0.118  0.00  0.00    -0.097 F 
ATOM      8  F1  UNL d   1      -1.979   2.908   2.734  0.00  0.00    -0.096 F 
ATOM      9  I   UNL d   1      -2.510   0.280   4.480  0.00  0.00    -0.060 I 
ATOM     10  F2  UNL d   1      -3.739  -1.466   2.096  0.00  0.00    -0.096 F 
ATOM     11  F3  UNL d   1      -4.174  -0.892  -0.515  0.00  0.00    -0.097 F 
ATOM     12  F4  UNL d   1      -3.522   1.561  -1.515  0.00  0.00    -0.092 F 
ENDROOT
TORSDOF 0
ENDMDL
