MODEL 1
REMARK minimizedAffinity 8.91004562
REMARK minimizedRMSD -1
REMARK  0 active torsions:
REMARK  status: ('A' for Active; 'I' for Inactive)
ROOT
ATOM      1  C   UNL d   1       4.175  -0.671   3.157  0.00  0.00     0.124 A 
ATOM      2  C1  UNL d   1       4.030   0.398   2.284  0.00  0.00     0.062 A 
ATOM      3  C2  UNL d   1       4.550   1.646   2.614  0.00  0.00     0.162 A 
ATOM      4  C3  UNL d   1       5.221   1.832   3.823  0.00  0.00    -0.034 A 
ATOM      5  C4  UNL d   1       5.361   0.752   4.697  0.00  0.00     0.162 A 
ATOM      6  C5  UNL d   1       4.840  -0.493   4.362  0.00  0.00     0.062 A 
ATOM      7  F   UNL d   1       4.980  -1.525   5.207  0.00  0.00    -0.097 F 
ATOM      8  F1  UNL d   1       6.000   0.896   5.867  0.00  0.00    -0.096 F 
ATOM      9  I   UNL d   1       6.000   3.697   4.320  0.00  0.00    -0.060 I 
ATOM     10  F2  UNL d   1       4.396   2.662   1.751  0.00  0.00    -0.096 F 
ATOM     11  F3  UNL d   1       3.388   0.229   1.120  0.00  0.00    -0.097 F 
ATOM     12  F4  UNL d   1       3.673  -1.871   2.838  0.00  0.00    -0.092 F 
ENDROOT
TORSDOF 0
ENDMDL
