MODEL 1
REMARK minimizedAffinity 10.0596762
REMARK minimizedRMSD -1
REMARK  0 active torsions:
REMARK  status: ('A' for Active; 'I' for Inactive)
ROOT
ATOM      1  C   UNL d   1      -4.507  -1.590   2.280  0.00  0.00     0.124 A 
ATOM      2  C1  UNL d   1      -4.897  -1.154   1.021  0.00  0.00     0.062 A 
ATOM      3  C2  UNL d   1      -4.146  -0.193   0.349  0.00  0.00     0.162 A 
ATOM      4  C3  UNL d   1      -2.997   0.338   0.935  0.00  0.00    -0.034 A 
ATOM      5  C4  UNL d   1      -2.612  -0.104   2.202  0.00  0.00     0.162 A 
ATOM      6  C5  UNL d   1      -3.366  -1.065   2.869  0.00  0.00     0.062 A 
ATOM      7  F   UNL d   1      -2.988  -1.484   4.085  0.00  0.00    -0.097 F 
ATOM      8  F1  UNL d   1      -1.513   0.386   2.794  0.00  0.00    -0.096 F 
ATOM      9  I   UNL d   1      -1.872   1.775  -0.066  0.00  0.00    -0.060 I 
ATOM     10  F2  UNL d   1      -4.546   0.209  -0.866  0.00  0.00    -0.096 F 
ATOM     11  F3  UNL d   1      -6.000  -1.659   0.450  0.00  0.00    -0.097 F 
ATOM     12  F4  UNL d   1      -5.232  -2.513   2.924  0.00  0.00    -0.092 F 
ENDROOT
TORSDOF 0
ENDMDL
