MODEL 1
REMARK minimizedAffinity 8.29491329
REMARK minimizedRMSD -1
REMARK  0 active torsions:
REMARK  status: ('A' for Active; 'I' for Inactive)
ROOT
ATOM      1  C   UNL d   1       5.069   1.535   3.371  0.00  0.00     0.124 A 
ATOM      2  C1  UNL d   1       4.249   1.515   2.251  0.00  0.00     0.062 A 
ATOM      3  C2  UNL d   1       3.566   0.353   1.905  0.00  0.00     0.162 A 
ATOM      4  C3  UNL d   1       3.700  -0.799   2.679  0.00  0.00    -0.034 A 
ATOM      5  C4  UNL d   1       4.527  -0.772   3.803  0.00  0.00     0.162 A 
ATOM      6  C5  UNL d   1       5.207   0.392   4.146  0.00  0.00     0.062 A 
ATOM      7  F   UNL d   1       5.999   0.410   5.228  0.00  0.00    -0.097 F 
ATOM      8  F1  UNL d   1       4.678  -1.862   4.570  0.00  0.00    -0.096 F 
ATOM      9  I   UNL d   1       2.681  -2.539   2.164  0.00  0.00    -0.060 I 
ATOM     10  F2  UNL d   1       2.781   0.362   0.817  0.00  0.00    -0.096 F 
ATOM     11  F3  UNL d   1       4.114   2.618   1.501  0.00  0.00    -0.097 F 
ATOM     12  F4  UNL d   1       5.725   2.655   3.702  0.00  0.00    -0.092 F 
ENDROOT
TORSDOF 0
ENDMDL
