MODEL 1
REMARK minimizedAffinity -5.53409386
REMARK minimizedRMSD -1
REMARK  0 active torsions:
REMARK  status: ('A' for Active; 'I' for Inactive)
ROOT
ATOM      1  C   UNL d   1       1.936  -1.345  -3.190  0.00  0.00     0.124 A 
ATOM      2  C1  UNL d   1       3.193  -1.814  -2.832  0.00  0.00     0.062 A 
ATOM      3  C2  UNL d   1       4.320  -1.409  -3.541  0.00  0.00     0.162 A 
ATOM      4  C3  UNL d   1       4.196  -0.528  -4.616  0.00  0.00    -0.034 A 
ATOM      5  C4  UNL d   1       2.929  -0.061  -4.971  0.00  0.00     0.162 A 
ATOM      6  C5  UNL d   1       1.806  -0.469  -4.259  0.00  0.00     0.062 A 
ATOM      7  F   UNL d   1       0.593  -0.014  -4.606  0.00  0.00    -0.097 F 
ATOM      8  F1  UNL d   1       2.775   0.787  -5.998  0.00  0.00    -0.096 F 
ATOM      9  I   UNL d   1       5.879   0.080  -5.678  0.00  0.00    -0.060 I 
ATOM     10  F2  UNL d   1       5.521  -1.879  -3.173  0.00  0.00    -0.096 F 
ATOM     11  F3  UNL d   1       3.321  -2.662  -1.801  0.00  0.00    -0.097 F 
ATOM     12  F4  UNL d   1       0.854  -1.737  -2.507  0.00  0.00    -0.092 F 
ENDROOT
TORSDOF 0
ENDMDL
