MODEL 1
REMARK minimizedAffinity 0.488876998
REMARK minimizedRMSD -1
REMARK  0 active torsions:
REMARK  status: ('A' for Active; 'I' for Inactive)
ROOT
ATOM      1  C   UNL d   1      -2.885   1.299   3.009  0.00  0.00     0.124 A 
ATOM      2  C1  UNL d   1      -3.213  -0.020   3.293  0.00  0.00     0.062 A 
ATOM      3  C2  UNL d   1      -2.922  -1.026   2.377  0.00  0.00     0.162 A 
ATOM      4  C3  UNL d   1      -2.298  -0.718   1.168  0.00  0.00    -0.034 A 
ATOM      5  C4  UNL d   1      -1.973   0.610   0.889  0.00  0.00     0.162 A 
ATOM      6  C5  UNL d   1      -2.266   1.612   1.808  0.00  0.00     0.062 A 
ATOM      7  F   UNL d   1      -1.949   2.886   1.531  0.00  0.00    -0.097 F 
ATOM      8  F1  UNL d   1      -1.373   0.941  -0.264  0.00  0.00    -0.096 F 
ATOM      9  I   UNL d   1      -1.861  -2.221  -0.205  0.00  0.00    -0.060 I 
ATOM     10  F2  UNL d   1      -3.250  -2.292   2.678  0.00  0.00    -0.096 F 
ATOM     11  F3  UNL d   1      -3.813  -0.325   4.453  0.00  0.00    -0.097 F 
ATOM     12  F4  UNL d   1      -3.168   2.265   3.892  0.00  0.00    -0.092 F 
ENDROOT
TORSDOF 0
ENDMDL
