MODEL 1
REMARK minimizedAffinity 15.1236467
REMARK minimizedRMSD -1
REMARK  0 active torsions:
REMARK  status: ('A' for Active; 'I' for Inactive)
ROOT
ATOM      1  C   UNL d   1      -3.381  -0.644   3.874  0.00  0.00     0.124 A 
ATOM      2  C1  UNL d   1      -3.522  -1.283   2.650  0.00  0.00     0.062 A 
ATOM      3  C2  UNL d   1      -3.304  -0.584   1.467  0.00  0.00     0.162 A 
ATOM      4  C3  UNL d   1      -2.941   0.762   1.501  0.00  0.00    -0.034 A 
ATOM      5  C4  UNL d   1      -2.802   1.398   2.736  0.00  0.00     0.162 A 
ATOM      6  C5  UNL d   1      -3.021   0.696   3.916  0.00  0.00     0.062 A 
ATOM      7  F   UNL d   1      -2.885   1.315   5.098  0.00  0.00    -0.097 F 
ATOM      8  F1  UNL d   1      -2.454   2.692   2.805  0.00  0.00    -0.096 F 
ATOM      9  I   UNL d   1      -2.613   1.810  -0.267  0.00  0.00    -0.060 I 
ATOM     10  F2  UNL d   1      -3.447  -1.227   0.298  0.00  0.00    -0.096 F 
ATOM     11  F3  UNL d   1      -3.871  -2.577   2.607  0.00  0.00    -0.097 F 
ATOM     12  F4  UNL d   1      -3.593  -1.318   5.012  0.00  0.00    -0.092 F 
ENDROOT
TORSDOF 0
ENDMDL
