MODEL 1
REMARK minimizedAffinity -3.25369167
REMARK minimizedRMSD -1
REMARK  0 active torsions:
REMARK  status: ('A' for Active; 'I' for Inactive)
ROOT
ATOM      1  C   UNL d   1      -2.855   0.429   3.052  0.00  0.00     0.124 A 
ATOM      2  C1  UNL d   1      -2.567   1.642   2.441  0.00  0.00     0.062 A 
ATOM      3  C2  UNL d   1      -3.034   2.832   2.991  0.00  0.00     0.162 A 
ATOM      4  C3  UNL d   1      -3.794   2.816   4.160  0.00  0.00    -0.034 A 
ATOM      5  C4  UNL d   1      -4.082   1.592   4.768  0.00  0.00     0.162 A 
ATOM      6  C5  UNL d   1      -3.612   0.406   4.214  0.00  0.00     0.062 A 
ATOM      7  F   UNL d   1      -3.892  -0.765   4.806  0.00  0.00    -0.097 F 
ATOM      8  F1  UNL d   1      -4.810   1.540   5.893  0.00  0.00    -0.096 F 
ATOM      9  I   UNL d   1      -4.495   4.593   4.986  0.00  0.00    -0.060 I 
ATOM     10  F2  UNL d   1      -2.740   3.989   2.379  0.00  0.00    -0.096 F 
ATOM     11  F3  UNL d   1      -1.836   1.667   1.317  0.00  0.00    -0.097 F 
ATOM     12  F4  UNL d   1      -2.405  -0.714   2.519  0.00  0.00    -0.092 F 
ENDROOT
TORSDOF 0
ENDMDL
