MODEL 1
REMARK minimizedAffinity 21.8618984
REMARK minimizedRMSD -1
REMARK  0 active torsions:
REMARK  status: ('A' for Active; 'I' for Inactive)
ROOT
ATOM      1  C   UNL d   1       3.918   2.294   2.242  0.00  0.00     0.124 A 
ATOM      2  C1  UNL d   1       4.677   2.524   3.381  0.00  0.00     0.062 A 
ATOM      3  C2  UNL d   1       5.272   1.459   4.052  0.00  0.00     0.162 A 
ATOM      4  C3  UNL d   1       5.111   0.155   3.584  0.00  0.00    -0.034 A 
ATOM      5  C4  UNL d   1       4.346  -0.068   2.438  0.00  0.00     0.162 A 
ATOM      6  C5  UNL d   1       3.754   0.999   1.771  0.00  0.00     0.062 A 
ATOM      7  F   UNL d   1       3.021   0.776   0.671  0.00  0.00    -0.097 F 
ATOM      8  F1  UNL d   1       4.172  -1.310   1.961  0.00  0.00    -0.096 F 
ATOM      9  I   UNL d   1       5.999  -1.440   4.584  0.00  0.00    -0.060 I 
ATOM     10  F2  UNL d   1       6.000   1.710   5.151  0.00  0.00    -0.096 F 
ATOM     11  F3  UNL d   1       4.837   3.774   3.838  0.00  0.00    -0.097 F 
ATOM     12  F4  UNL d   1       3.346   3.321   1.599  0.00  0.00    -0.092 F 
ENDROOT
TORSDOF 0
ENDMDL
