MODEL 1
REMARK minimizedAffinity 21.6578274
REMARK minimizedRMSD -1
REMARK  0 active torsions:
REMARK  status: ('A' for Active; 'I' for Inactive)
ROOT
ATOM      1  C   UNL d   1       5.449   0.780   4.665  0.00  0.00     0.124 A 
ATOM      2  C1  UNL d   1       5.449   2.167   4.701  0.00  0.00     0.062 A 
ATOM      3  C2  UNL d   1       4.880   2.895   3.661  0.00  0.00     0.162 A 
ATOM      4  C3  UNL d   1       4.305   2.237   2.574  0.00  0.00    -0.034 A 
ATOM      5  C4  UNL d   1       4.309   0.841   2.543  0.00  0.00     0.162 A 
ATOM      6  C5  UNL d   1       4.879   0.118   3.586  0.00  0.00     0.062 A 
ATOM      7  F   UNL d   1       4.879  -1.222   3.549  0.00  0.00    -0.097 F 
ATOM      8  F1  UNL d   1       3.765   0.176   1.514  0.00  0.00    -0.096 F 
ATOM      9  I   UNL d   1       3.452   3.321   1.015  0.00  0.00    -0.060 I 
ATOM     10  F2  UNL d   1       4.894   4.235   3.723  0.00  0.00    -0.096 F 
ATOM     11  F3  UNL d   1       6.000   2.809   5.742  0.00  0.00    -0.097 F 
ATOM     12  F4  UNL d   1       5.999   0.082   5.667  0.00  0.00    -0.092 F 
ENDROOT
TORSDOF 0
ENDMDL
