MODEL 1
REMARK minimizedAffinity 5.1299758
REMARK minimizedRMSD -1
REMARK  0 active torsions:
REMARK  status: ('A' for Active; 'I' for Inactive)
ROOT
ATOM      1  C   UNL d   1      -1.815   2.396  -0.388  0.00  0.00     0.124 A 
ATOM      2  C1  UNL d   1      -2.018   3.762  -0.528  0.00  0.00     0.062 A 
ATOM      3  C2  UNL d   1      -3.191   4.347  -0.061  0.00  0.00     0.162 A 
ATOM      4  C3  UNL d   1      -4.171   3.566   0.552  0.00  0.00    -0.034 A 
ATOM      5  C4  UNL d   1      -3.961   2.193   0.687  0.00  0.00     0.162 A 
ATOM      6  C5  UNL d   1      -2.786   1.613   0.219  0.00  0.00     0.062 A 
ATOM      7  F   UNL d   1      -2.592   0.293   0.354  0.00  0.00    -0.097 F 
ATOM      8  F1  UNL d   1      -4.882   1.412   1.271  0.00  0.00    -0.096 F 
ATOM      9  I   UNL d   1      -5.927   4.437   1.251  0.00  0.00    -0.060 I 
ATOM     10  F2  UNL d   1      -3.360   5.669  -0.209  0.00  0.00    -0.096 F 
ATOM     11  F3  UNL d   1      -1.081   4.521  -1.115  0.00  0.00    -0.097 F 
ATOM     12  F4  UNL d   1      -0.685   1.836  -0.840  0.00  0.00    -0.092 F 
ENDROOT
TORSDOF 0
ENDMDL
