MODEL 1
REMARK minimizedAffinity 15.7971354
REMARK minimizedRMSD -1
REMARK  0 active torsions:
REMARK  status: ('A' for Active; 'I' for Inactive)
ROOT
ATOM      1  C   UNL d   1      -3.675  -0.905   4.133  0.00  0.00     0.124 A 
ATOM      2  C1  UNL d   1      -4.751  -1.463   3.456  0.00  0.00     0.062 A 
ATOM      3  C2  UNL d   1      -4.952  -1.181   2.108  0.00  0.00     0.162 A 
ATOM      4  C3  UNL d   1      -4.075  -0.337   1.427  0.00  0.00    -0.034 A 
ATOM      5  C4  UNL d   1      -2.996   0.222   2.114  0.00  0.00     0.162 A 
ATOM      6  C5  UNL d   1      -2.799  -0.063   3.462  0.00  0.00     0.062 A 
ATOM      7  F   UNL d   1      -1.759   0.477   4.114  0.00  0.00    -0.097 F 
ATOM      8  F1  UNL d   1      -2.134   1.037   1.490  0.00  0.00    -0.096 F 
ATOM      9  I   UNL d   1      -4.373   0.087  -0.589  0.00  0.00    -0.060 I 
ATOM     10  F2  UNL d   1      -6.000  -1.734   1.479  0.00  0.00    -0.096 F 
ATOM     11  F3  UNL d   1      -5.599  -2.275   4.102  0.00  0.00    -0.097 F 
ATOM     12  F4  UNL d   1      -3.484  -1.177   5.430  0.00  0.00    -0.092 F 
ENDROOT
TORSDOF 0
ENDMDL
