MODEL 1
REMARK minimizedAffinity 7.99609709
REMARK minimizedRMSD -1
REMARK  0 active torsions:
REMARK  status: ('A' for Active; 'I' for Inactive)
ROOT
ATOM      1  C   UNL d   1      -4.197   3.125   0.058  0.00  0.00     0.124 A 
ATOM      2  C1  UNL d   1      -3.224   3.911  -0.542  0.00  0.00     0.062 A 
ATOM      3  C2  UNL d   1      -2.013   3.349  -0.933  0.00  0.00     0.162 A 
ATOM      4  C3  UNL d   1      -1.767   1.992  -0.726  0.00  0.00    -0.034 A 
ATOM      5  C4  UNL d   1      -2.751   1.207  -0.121  0.00  0.00     0.162 A 
ATOM      6  C5  UNL d   1      -3.960   1.774   0.268  0.00  0.00     0.062 A 
ATOM      7  F   UNL d   1      -4.899   1.012   0.848  0.00  0.00    -0.097 F 
ATOM      8  F1  UNL d   1      -2.548  -0.101   0.093  0.00  0.00    -0.096 F 
ATOM      9  I   UNL d   1       0.043   1.147  -1.310  0.00  0.00    -0.060 I 
ATOM     10  F2  UNL d   1      -1.090   4.133  -1.511  0.00  0.00    -0.096 F 
ATOM     11  F3  UNL d   1      -3.451   5.217  -0.745  0.00  0.00    -0.097 F 
ATOM     12  F4  UNL d   1      -5.362   3.669   0.434  0.00  0.00    -0.092 F 
ENDROOT
TORSDOF 0
ENDMDL
