MODEL 1
REMARK minimizedAffinity -3.07928085
REMARK minimizedRMSD -1
REMARK  0 active torsions:
REMARK  status: ('A' for Active; 'I' for Inactive)
ROOT
ATOM      1  C1  DEN d   1      -0.417  -0.729  -0.932  0.00  0.00     0.130 A 
ATOM      2  C2  DEN d   1      -1.178   0.511  -1.059  0.00  0.00    -0.031 A 
ATOM      3  C3  DEN d   1      -0.569   1.514  -0.162  0.00  0.00     0.027 A 
ATOM      4  C4  DEN d   1       1.469   1.270   1.399  0.00  0.00     0.027 A 
ATOM      5  C5  DEN d   1       2.435   0.401   1.856  0.00  0.00    -0.003 A 
ATOM      6  C6  DEN d   1       2.497  -0.905   1.445  0.00  0.00     0.001 A 
ATOM      7  C7  DEN d   1       1.603  -1.366   0.515  0.00  0.00     0.017 A 
ATOM      8  C8  DEN d   1       0.621  -0.498   0.055  0.00  0.00    -0.094 A 
ATOM      9  C9  DEN d   1       0.583   0.821   0.474  0.00  0.00    -0.072 A 
ENDROOT
TORSDOF 0
ENDMDL
