MODEL 1
REMARK minimizedAffinity -3.87473798
REMARK minimizedRMSD -1
REMARK  0 active torsions:
REMARK  status: ('A' for Active; 'I' for Inactive)
ROOT
ATOM      1  C1  DEN d   1      -1.535  -0.719  -0.627  0.00  0.00     0.130 A 
ATOM      2  C2  DEN d   1      -1.663   0.736  -0.603  0.00  0.00    -0.031 A 
ATOM      3  C3  DEN d   1      -0.335   1.306  -0.299  0.00  0.00     0.027 A 
ATOM      4  C4  DEN d   1       1.896   0.084   0.131  0.00  0.00     0.027 A 
ATOM      5  C5  DEN d   1       2.499  -1.151   0.228  0.00  0.00    -0.003 A 
ATOM      6  C6  DEN d   1       1.799  -2.319   0.082  0.00  0.00     0.001 A 
ATOM      7  C7  DEN d   1       0.462  -2.276  -0.214  0.00  0.00     0.017 A 
ATOM      8  C8  DEN d   1      -0.155  -1.036  -0.306  0.00  0.00    -0.094 A 
ATOM      9  C9  DEN d   1       0.573   0.134  -0.168  0.00  0.00    -0.072 A 
ENDROOT
TORSDOF 0
ENDMDL
