MODEL 1
REMARK minimizedAffinity -1.51928592
REMARK minimizedRMSD -1
REMARK  0 active torsions:
REMARK  status: ('A' for Active; 'I' for Inactive)
ROOT
ATOM      1  C1  DEN d   1      -0.459  -0.732  -1.065  0.00  0.00     0.130 A 
ATOM      2  C2  DEN d   1      -0.558  -2.158  -1.365  0.00  0.00    -0.031 A 
ATOM      3  C3  DEN d   1       0.497  -2.859  -0.605  0.00  0.00     0.027 A 
ATOM      4  C4  DEN d   1       2.262  -1.880   1.001  0.00  0.00     0.027 A 
ATOM      5  C5  DEN d   1       2.747  -0.720   1.564  0.00  0.00    -0.003 A 
ATOM      6  C6  DEN d   1       2.224   0.510   1.266  0.00  0.00     0.001 A 
ATOM      7  C7  DEN d   1       1.154   0.605   0.416  0.00  0.00     0.017 A 
ATOM      8  C8  DEN d   1       0.664  -0.559  -0.161  0.00  0.00    -0.094 A 
ATOM      9  C9  DEN d   1       1.198  -1.794   0.162  0.00  0.00    -0.072 A 
ENDROOT
TORSDOF 0
ENDMDL
