MODEL 1
REMARK minimizedAffinity -5.63716078
REMARK minimizedRMSD -1
REMARK  0 active torsions:
REMARK  status: ('A' for Active; 'I' for Inactive)
ROOT
ATOM      1  C1  DEN d   1       3.133  -0.022   0.870  0.00  0.00     0.130 A 
ATOM      2  C2  DEN d   1       3.158  -1.480   0.950  0.00  0.00    -0.031 A 
ATOM      3  C3  DEN d   1       1.875  -1.988   0.424  0.00  0.00     0.027 A 
ATOM      4  C4  DEN d   1      -0.135  -0.666  -0.505  0.00  0.00     0.027 A 
ATOM      5  C5  DEN d   1      -0.627   0.594  -0.764  0.00  0.00    -0.003 A 
ATOM      6  C6  DEN d   1       0.080   1.729  -0.467  0.00  0.00     0.001 A 
ATOM      7  C7  DEN d   1       1.338   1.626   0.065  0.00  0.00     0.017 A 
ATOM      8  C8  DEN d   1       1.838   0.358   0.335  0.00  0.00    -0.094 A 
ATOM      9  C9  DEN d   1       1.112  -0.777   0.017  0.00  0.00    -0.072 A 
ENDROOT
TORSDOF 0
ENDMDL
