MODEL 1
REMARK minimizedAffinity -4.80100965
REMARK minimizedRMSD -1
REMARK  0 active torsions:
REMARK  status: ('A' for Active; 'I' for Inactive)
ROOT
ATOM      1  C1  DEN d   1       2.763  -0.562   1.256  0.00  0.00     0.130 A 
ATOM      2  C2  DEN d   1       2.172  -1.891   1.120  0.00  0.00    -0.031 A 
ATOM      3  C3  DEN d   1       0.959  -1.768   0.287  0.00  0.00     0.027 A 
ATOM      4  C4  DEN d   1      -0.054   0.338  -0.804  0.00  0.00     0.027 A 
ATOM      5  C5  DEN d   1       0.086   1.700  -0.960  0.00  0.00    -0.003 A 
ATOM      6  C6  DEN d   1       1.101   2.402  -0.366  0.00  0.00     0.001 A 
ATOM      7  C7  DEN d   1       2.042   1.738   0.376  0.00  0.00     0.017 A 
ATOM      8  C8  DEN d   1       1.903   0.367   0.545  0.00  0.00    -0.094 A 
ATOM      9  C9  DEN d   1       0.876  -0.327  -0.074  0.00  0.00    -0.072 A 
ENDROOT
TORSDOF 0
ENDMDL
