MODEL 1
REMARK minimizedAffinity 1.29338217
REMARK minimizedRMSD -1
REMARK  0 active torsions:
REMARK  status: ('A' for Active; 'I' for Inactive)
ROOT
ATOM      1  C2' OXE d   1      -1.904  -4.042  -1.503  0.00  0.00     0.078 C 
ATOM      2  C1' OXE d   1       0.392  -3.714  -3.084  0.00  0.00     0.078 C 
ATOM      3  C1  OXE d   1       0.326  -2.964  -1.777  0.00  0.00    -0.078 A 
ATOM      4  C2  OXE d   1      -0.822  -3.094  -1.032  0.00  0.00    -0.078 A 
ATOM      5  C3  OXE d   1      -0.913  -2.468   0.208  0.00  0.00     0.003 A 
ATOM      6  C4  OXE d   1       0.088  -1.586   0.632  0.00  0.00    -0.002 A 
ATOM      7  C5  OXE d   1       1.247  -1.408  -0.131  0.00  0.00    -0.002 A 
ATOM      8  C6  OXE d   1       1.400  -2.121  -1.314  0.00  0.00     0.003 A 
ENDROOT
TORSDOF 0
ENDMDL
