MODEL 1
REMARK minimizedAffinity -1.7723608
REMARK minimizedRMSD -1
REMARK  0 active torsions:
REMARK  status: ('A' for Active; 'I' for Inactive)
ROOT
ATOM      1  C2' OXE d   1      -0.111   2.918   0.432  0.00  0.00     0.078 C 
ATOM      2  C1' OXE d   1      -2.202   1.090   0.837  0.00  0.00     0.078 C 
ATOM      3  C1  OXE d   1      -0.834   0.536   0.525  0.00  0.00    -0.078 A 
ATOM      4  C2  OXE d   1       0.173   1.439   0.282  0.00  0.00    -0.078 A 
ATOM      5  C3  OXE d   1       1.466   0.982   0.043  0.00  0.00     0.003 A 
ATOM      6  C4  OXE d   1       1.718  -0.387  -0.104  0.00  0.00    -0.002 A 
ATOM      7  C5  OXE d   1       0.698  -1.323   0.101  0.00  0.00    -0.002 A 
ATOM      8  C6  OXE d   1      -0.571  -0.880   0.457  0.00  0.00     0.003 A 
ENDROOT
TORSDOF 0
ENDMDL
