MODEL 1
REMARK minimizedAffinity -5.79998684
REMARK minimizedRMSD -1
REMARK  0 active torsions:
REMARK  status: ('A' for Active; 'I' for Inactive)
ROOT
ATOM      1  C2' OXE d   1      -2.338   0.962   0.827  0.00  0.00     0.078 C 
ATOM      2  C1' OXE d   1      -0.826   3.325   0.736  0.00  0.00     0.078 C 
ATOM      3  C1  OXE d   1      -0.106   2.020   0.503  0.00  0.00    -0.078 A 
ATOM      4  C2  OXE d   1      -0.845   0.865   0.596  0.00  0.00    -0.078 A 
ATOM      5  C3  OXE d   1      -0.242  -0.362   0.336  0.00  0.00     0.003 A 
ATOM      6  C4  OXE d   1       1.141  -0.443   0.133  0.00  0.00    -0.002 A 
ATOM      7  C5  OXE d   1       1.919   0.718   0.074  0.00  0.00    -0.002 A 
ATOM      8  C6  OXE d   1       1.305   1.958   0.215  0.00  0.00     0.003 A 
ENDROOT
TORSDOF 0
ENDMDL
