MODEL 1
REMARK minimizedAffinity -0.19884558
REMARK minimizedRMSD -1
REMARK  0 active torsions:
REMARK  status: ('A' for Active; 'I' for Inactive)
ROOT
ATOM      1  C2' OXE d   1      -0.513  -0.938   0.310  0.00  0.00     0.078 C 
ATOM      2  C1' OXE d   1      -0.492  -0.147  -2.384  0.00  0.00     0.078 C 
ATOM      3  C1  OXE d   1      -0.629  -1.619  -2.084  0.00  0.00    -0.078 A 
ATOM      4  C2  OXE d   1      -0.591  -2.001  -0.765  0.00  0.00    -0.078 A 
ATOM      5  C3  OXE d   1      -0.767  -3.341  -0.430  0.00  0.00     0.003 A 
ATOM      6  C4  OXE d   1      -0.828  -4.319  -1.430  0.00  0.00    -0.002 A 
ATOM      7  C5  OXE d   1      -0.828  -3.955  -2.781  0.00  0.00    -0.002 A 
ATOM      8  C6  OXE d   1      -0.772  -2.608  -3.123  0.00  0.00     0.003 A 
ENDROOT
TORSDOF 0
ENDMDL
