MODEL 1
REMARK minimizedAffinity -3.61388278
REMARK minimizedRMSD -1
REMARK  0 active torsions:
REMARK  status: ('A' for Active; 'I' for Inactive)
ROOT
ATOM      1  C2' OXE d   1       2.683   1.108  -0.091  0.00  0.00     0.078 C 
ATOM      2  C1' OXE d   1       0.227   2.463  -0.204  0.00  0.00     0.078 C 
ATOM      3  C1  OXE d   1       0.198   0.970   0.005  0.00  0.00    -0.078 A 
ATOM      4  C2  OXE d   1       1.402   0.309   0.012  0.00  0.00    -0.078 A 
ATOM      5  C3  OXE d   1       1.435  -1.062   0.256  0.00  0.00     0.003 A 
ATOM      6  C4  OXE d   1       0.246  -1.795   0.340  0.00  0.00    -0.002 A 
ATOM      7  C5  OXE d   1      -0.993  -1.147   0.295  0.00  0.00    -0.002 A 
ATOM      8  C6  OXE d   1      -1.033   0.237   0.171  0.00  0.00     0.003 A 
ENDROOT
TORSDOF 0
ENDMDL
