MODEL 1
REMARK minimizedAffinity -5.41673565
REMARK minimizedRMSD -1
REMARK  0 active torsions:
REMARK  status: ('A' for Active; 'I' for Inactive)
ROOT
ATOM      1  C2' OXE d   1      -1.468   0.251   1.024  0.00  0.00     0.078 C 
ATOM      2  C1' OXE d   1      -1.171   2.741   2.286  0.00  0.00     0.078 C 
ATOM      3  C1  OXE d   1      -0.450   2.524   0.979  0.00  0.00    -0.078 A 
ATOM      4  C2  OXE d   1      -0.564   1.287   0.392  0.00  0.00    -0.078 A 
ATOM      5  C3  OXE d   1       0.036   1.052  -0.842  0.00  0.00     0.003 A 
ATOM      6  C4  OXE d   1       0.878   2.012  -1.416  0.00  0.00    -0.002 A 
ATOM      7  C5  OXE d   1       1.039   3.265  -0.815  0.00  0.00    -0.002 A 
ATOM      8  C6  OXE d   1       0.350   3.551   0.358  0.00  0.00     0.003 A 
ENDROOT
TORSDOF 0
ENDMDL
