MODEL 1
REMARK minimizedAffinity -5.69801283
REMARK minimizedRMSD -1
REMARK  0 active torsions:
REMARK  status: ('A' for Active; 'I' for Inactive)
ROOT
ATOM      1  C2' OXE d   1      -2.520   0.654   0.735  0.00  0.00     0.078 C 
ATOM      2  C1' OXE d   1      -0.602  -1.154  -0.230  0.00  0.00     0.078 C 
ATOM      3  C1  OXE d   1      -0.189   0.287  -0.062  0.00  0.00    -0.078 A 
ATOM      4  C2  OXE d   1      -1.147   1.174   0.367  0.00  0.00    -0.078 A 
ATOM      5  C3  OXE d   1      -0.804   2.504   0.592  0.00  0.00     0.003 A 
ATOM      6  C4  OXE d   1       0.465   2.978   0.239  0.00  0.00    -0.002 A 
ATOM      7  C5  OXE d   1       1.444   2.100  -0.237  0.00  0.00    -0.002 A 
ATOM      8  C6  OXE d   1       1.147   0.746  -0.353  0.00  0.00     0.003 A 
ENDROOT
TORSDOF 0
ENDMDL
