MODEL 1
REMARK minimizedAffinity -0.0683809444
REMARK minimizedRMSD -1
REMARK  0 active torsions:
REMARK  status: ('A' for Active; 'I' for Inactive)
ROOT
ATOM      1  C2' OXE d   1       0.201  -1.627  -0.558  0.00  0.00     0.078 C 
ATOM      2  C1' OXE d   1       2.397  -0.097   0.289  0.00  0.00     0.078 C 
ATOM      3  C1  OXE d   1       1.035   0.549   0.322  0.00  0.00    -0.078 A 
ATOM      4  C2  OXE d   1      -0.027  -0.191  -0.139  0.00  0.00    -0.078 A 
ATOM      5  C3  OXE d   1      -1.314   0.338  -0.079  0.00  0.00     0.003 A 
ATOM      6  C4  OXE d   1      -1.515   1.671   0.301  0.00  0.00    -0.002 A 
ATOM      7  C5  OXE d   1      -0.442   2.455   0.736  0.00  0.00    -0.002 A 
ATOM      8  C6  OXE d   1       0.831   1.897   0.793  0.00  0.00     0.003 A 
ENDROOT
TORSDOF 0
ENDMDL
