MODEL 1
REMARK minimizedAffinity -3.4134264
REMARK minimizedRMSD -1
REMARK  0 active torsions:
REMARK  status: ('A' for Active; 'I' for Inactive)
ROOT
ATOM      1  C2' OXE d   1       0.310   3.250  -0.450  0.00  0.00     0.078 C 
ATOM      2  C1' OXE d   1      -1.794   2.382   1.192  0.00  0.00     0.078 C 
ATOM      3  C1  OXE d   1      -0.840   1.341   0.661  0.00  0.00    -0.078 A 
ATOM      4  C2  OXE d   1       0.159   1.769  -0.179  0.00  0.00    -0.078 A 
ATOM      5  C3  OXE d   1       1.099   0.857  -0.653  0.00  0.00     0.003 A 
ATOM      6  C4  OXE d   1       0.945  -0.512  -0.406  0.00  0.00    -0.002 A 
ATOM      7  C5  OXE d   1      -0.089  -0.974   0.416  0.00  0.00    -0.002 A 
ATOM      8  C6  OXE d   1      -0.963  -0.058   0.990  0.00  0.00     0.003 A 
ENDROOT
TORSDOF 0
ENDMDL
