MODEL 1
REMARK minimizedAffinity -1.28669167
REMARK minimizedRMSD -1
REMARK  0 active torsions:
REMARK  status: ('A' for Active; 'I' for Inactive)
ROOT
ATOM      1  C2' OXE d   1      -1.490   3.027   2.257  0.00  0.00     0.078 C 
ATOM      2  C1' OXE d   1       0.611   3.450   0.444  0.00  0.00     0.078 C 
ATOM      3  C1  OXE d   1      -0.026   2.083   0.477  0.00  0.00    -0.078 A 
ATOM      4  C2  OXE d   1      -1.022   1.871   1.399  0.00  0.00    -0.078 A 
ATOM      5  C3  OXE d   1      -1.680   0.646   1.435  0.00  0.00     0.003 A 
ATOM      6  C4  OXE d   1      -1.234  -0.421   0.645  0.00  0.00    -0.002 A 
ATOM      7  C5  OXE d   1      -0.195  -0.239  -0.273  0.00  0.00    -0.002 A 
ATOM      8  C6  OXE d   1       0.390   1.016  -0.400  0.00  0.00     0.003 A 
ENDROOT
TORSDOF 0
ENDMDL
