MODEL 1
REMARK minimizedAffinity -4.22694683
REMARK minimizedRMSD -1
REMARK  0 active torsions:
REMARK  status: ('A' for Active; 'I' for Inactive)
ROOT
ATOM      1  C2' OXE d   1       0.634   3.529  -0.173  0.00  0.00     0.078 C 
ATOM      2  C1' OXE d   1      -1.572   3.049   1.496  0.00  0.00     0.078 C 
ATOM      3  C1  OXE d   1      -0.923   1.862   0.829  0.00  0.00    -0.078 A 
ATOM      4  C2  OXE d   1       0.126   2.111  -0.023  0.00  0.00    -0.078 A 
ATOM      5  C3  OXE d   1       0.795   1.047  -0.622  0.00  0.00     0.003 A 
ATOM      6  C4  OXE d   1       0.313  -0.260  -0.486  0.00  0.00    -0.002 A 
ATOM      7  C5  OXE d   1      -0.779  -0.531   0.346  0.00  0.00    -0.002 A 
ATOM      8  C6  OXE d   1      -1.380   0.511   1.042  0.00  0.00     0.003 A 
ENDROOT
TORSDOF 0
ENDMDL
