MODEL 1
REMARK minimizedAffinity 0.801629722
REMARK minimizedRMSD -1
REMARK  0 active torsions:
REMARK  status: ('A' for Active; 'I' for Inactive)
ROOT
ATOM      1  C2' OXE d   1       1.297  -1.864   0.512  0.00  0.00     0.078 C 
ATOM      2  C1' OXE d   1      -1.142  -0.478   0.619  0.00  0.00     0.078 C 
ATOM      3  C1  OXE d   1      -0.996  -1.566  -0.415  0.00  0.00    -0.078 A 
ATOM      4  C2  OXE d   1       0.217  -2.207  -0.491  0.00  0.00    -0.078 A 
ATOM      5  C3  OXE d   1       0.387  -3.256  -1.390  0.00  0.00     0.003 A 
ATOM      6  C4  OXE d   1      -0.613  -3.561  -2.321  0.00  0.00    -0.002 A 
ATOM      7  C5  OXE d   1      -1.842  -2.893  -2.288  0.00  0.00    -0.002 A 
ATOM      8  C6  OXE d   1      -2.065  -1.925  -1.315  0.00  0.00     0.003 A 
ENDROOT
TORSDOF 0
ENDMDL
