MODEL 1
REMARK minimizedAffinity -2.43883538
REMARK minimizedRMSD -1
REMARK  0 active torsions:
REMARK  status: ('A' for Active; 'I' for Inactive)
ROOT
ATOM      1  C2' OXE d   1      -1.268   2.948   3.179  0.00  0.00     0.078 C 
ATOM      2  C1' OXE d   1      -2.051   0.399   2.300  0.00  0.00     0.078 C 
ATOM      3  C1  OXE d   1      -1.156   1.211   1.397  0.00  0.00    -0.078 A 
ATOM      4  C2  OXE d   1      -0.816   2.476   1.814  0.00  0.00    -0.078 A 
ATOM      5  C3  OXE d   1       0.051   3.246   1.045  0.00  0.00     0.003 A 
ATOM      6  C4  OXE d   1       0.456   2.806  -0.221  0.00  0.00    -0.002 A 
ATOM      7  C5  OXE d   1       0.089   1.537  -0.683  0.00  0.00    -0.002 A 
ATOM      8  C6  OXE d   1      -0.680   0.712   0.130  0.00  0.00     0.003 A 
ENDROOT
TORSDOF 0
ENDMDL
