MODEL 1
REMARK minimizedAffinity -4.48209143
REMARK minimizedRMSD -1
REMARK  0 active torsions:
REMARK  status: ('A' for Active; 'I' for Inactive)
ROOT
ATOM      1  C2' OXE d   1      -1.741   1.533   0.749  0.00  0.00     0.078 C 
ATOM      2  C1' OXE d   1      -0.276  -0.800   0.208  0.00  0.00     0.078 C 
ATOM      3  C1  OXE d   1       0.485   0.419   0.666  0.00  0.00    -0.078 A 
ATOM      4  C2  OXE d   1      -0.234   1.569   0.884  0.00  0.00    -0.078 A 
ATOM      5  C3  OXE d   1       0.411   2.707   1.360  0.00  0.00     0.003 A 
ATOM      6  C4  OXE d   1       1.807   2.735   1.473  0.00  0.00    -0.002 A 
ATOM      7  C5  OXE d   1       2.563   1.586   1.218  0.00  0.00    -0.002 A 
ATOM      8  C6  OXE d   1       1.915   0.410   0.856  0.00  0.00     0.003 A 
ENDROOT
TORSDOF 0
ENDMDL
