MODEL 1
REMARK minimizedAffinity -3.07484722
REMARK minimizedRMSD -1
REMARK  0 active torsions:
REMARK  status: ('A' for Active; 'I' for Inactive)
ROOT
ATOM      1  C2' OXE d   1      -0.092  -1.255  -0.114  0.00  0.00     0.078 C 
ATOM      2  C1' OXE d   1       1.226  -2.815  -2.040  0.00  0.00     0.078 C 
ATOM      3  C1  OXE d   1      -0.144  -3.260  -1.593  0.00  0.00    -0.078 A 
ATOM      4  C2  OXE d   1      -0.762  -2.516  -0.616  0.00  0.00    -0.078 A 
ATOM      5  C3  OXE d   1      -2.050  -2.851  -0.206  0.00  0.00     0.003 A 
ATOM      6  C4  OXE d   1      -2.658  -4.024  -0.668  0.00  0.00    -0.002 A 
ATOM      7  C5  OXE d   1      -2.029  -4.817  -1.634  0.00  0.00    -0.002 A 
ATOM      8  C6  OXE d   1      -0.793  -4.427  -2.137  0.00  0.00     0.003 A 
ENDROOT
TORSDOF 0
ENDMDL
