MODEL 1
REMARK minimizedAffinity -5.03407288
REMARK minimizedRMSD -1
REMARK  0 active torsions:
REMARK  status: ('A' for Active; 'I' for Inactive)
ROOT
ATOM      1  C2' OXE d   1      -1.478   1.892   0.632  0.00  0.00     0.078 C 
ATOM      2  C1' OXE d   1      -0.084  -0.478   0.064  0.00  0.00     0.078 C 
ATOM      3  C1  OXE d   1       0.713   0.709   0.545  0.00  0.00    -0.078 A 
ATOM      4  C2  OXE d   1       0.029   1.879   0.775  0.00  0.00    -0.078 A 
ATOM      5  C3  OXE d   1       0.708   2.988   1.272  0.00  0.00     0.003 A 
ATOM      6  C4  OXE d   1       2.103   2.970   1.393  0.00  0.00    -0.002 A 
ATOM      7  C5  OXE d   1       2.823   1.801   1.125  0.00  0.00    -0.002 A 
ATOM      8  C6  OXE d   1       2.140   0.652   0.742  0.00  0.00     0.003 A 
ENDROOT
TORSDOF 0
ENDMDL
