MODEL 1
REMARK minimizedAffinity -5.72969675
REMARK minimizedRMSD -1
REMARK  0 active torsions:
REMARK  status: ('A' for Active; 'I' for Inactive)
ROOT
ATOM      1  C2' OXE d   1       1.857  -1.031   0.400  0.00  0.00     0.078 C 
ATOM      2  C1' OXE d   1      -0.548  -1.396  -1.001  0.00  0.00     0.078 C 
ATOM      3  C1  OXE d   1      -0.178   0.008  -0.591  0.00  0.00    -0.078 A 
ATOM      4  C2  OXE d   1       0.977   0.171   0.135  0.00  0.00    -0.078 A 
ATOM      5  C3  OXE d   1       1.393   1.451   0.490  0.00  0.00     0.003 A 
ATOM      6  C4  OXE d   1       0.568   2.557   0.250  0.00  0.00    -0.002 A 
ATOM      7  C5  OXE d   1      -0.632   2.407  -0.453  0.00  0.00    -0.002 A 
ATOM      8  C6  OXE d   1      -0.998   1.149  -0.917  0.00  0.00     0.003 A 
ENDROOT
TORSDOF 0
ENDMDL
