MODEL 1
REMARK minimizedAffinity -3.11775637
REMARK minimizedRMSD -1
REMARK  0 active torsions:
REMARK  status: ('A' for Active; 'I' for Inactive)
ROOT
ATOM      1  O1  BZF d   1       4.886  -2.382  -0.484  0.00  0.00    -0.204 OA
ATOM      2  C2  BZF d   1       5.992  -1.673  -0.911  0.00  0.00     0.174 A 
ATOM      3  C3  BZF d   1       5.624  -0.642  -1.699  0.00  0.00    -0.012 A 
ATOM      4  C3A BZF d   1       4.193  -0.656  -1.693  0.00  0.00    -0.107 A 
ATOM      5  C4  BZF d   1       3.244   0.133  -2.279  0.00  0.00     0.055 A 
ATOM      6  C5  BZF d   1       1.933  -0.194  -2.134  0.00  0.00    -0.016 A 
ATOM      7  C6  BZF d   1       1.536  -1.303  -1.416  0.00  0.00     0.022 A 
ATOM      8  C7  BZF d   1       2.440  -2.112  -0.813  0.00  0.00     0.029 A 
ATOM      9  C7A BZF d   1       3.765  -1.766  -0.929  0.00  0.00     0.058 A 
ENDROOT
TORSDOF 0
ENDMDL
