MODEL 1
REMARK minimizedAffinity 7.59689379
REMARK minimizedRMSD -1
REMARK  0 active torsions:
REMARK  status: ('A' for Active; 'I' for Inactive)
ROOT
ATOM      1  O1  BZF d   1       1.876   1.320  -2.664  0.00  0.00    -0.204 OA
ATOM      2  C2  BZF d   1       2.318   0.101  -2.189  0.00  0.00     0.174 A 
ATOM      3  C3  BZF d   1       2.570   0.165  -0.865  0.00  0.00    -0.012 A 
ATOM      4  C3A BZF d   1       2.177   1.484  -0.472  0.00  0.00    -0.107 A 
ATOM      5  C4  BZF d   1       2.172   2.144   0.723  0.00  0.00     0.055 A 
ATOM      6  C5  BZF d   1       1.795   3.450   0.755  0.00  0.00    -0.016 A 
ATOM      7  C6  BZF d   1       1.424   4.126  -0.388  0.00  0.00     0.022 A 
ATOM      8  C7  BZF d   1       1.408   3.512  -1.596  0.00  0.00     0.029 A 
ATOM      9  C7A BZF d   1       1.757   2.183  -1.627  0.00  0.00     0.058 A 
ENDROOT
TORSDOF 0
ENDMDL
