MODEL 1
REMARK minimizedAffinity 7.92626238
REMARK minimizedRMSD -1
REMARK  0 active torsions:
REMARK  status: ('A' for Active; 'I' for Inactive)
ROOT
ATOM      1  O1  BZF d   1      -4.121   2.164  -5.877  0.00  0.00    -0.204 OA
ATOM      2  C2  BZF d   1      -2.946   1.437  -5.867  0.00  0.00     0.174 A 
ATOM      3  C3  BZF d   1      -1.877   2.255  -5.952  0.00  0.00    -0.012 A 
ATOM      4  C3A BZF d   1      -2.414   3.581  -5.926  0.00  0.00    -0.107 A 
ATOM      5  C4  BZF d   1      -1.849   4.824  -5.964  0.00  0.00     0.055 A 
ATOM      6  C5  BZF d   1      -2.657   5.916  -5.996  0.00  0.00    -0.016 A 
ATOM      7  C6  BZF d   1      -4.032   5.802  -5.997  0.00  0.00     0.022 A 
ATOM      8  C7  BZF d   1      -4.638   4.590  -5.955  0.00  0.00     0.029 A 
ATOM      9  C7A BZF d   1      -3.824   3.486  -5.889  0.00  0.00     0.058 A 
ENDROOT
TORSDOF 0
ENDMDL
