MODEL 1
REMARK minimizedAffinity 14.8288288
REMARK minimizedRMSD -1
REMARK  0 active torsions:
REMARK  status: ('A' for Active; 'I' for Inactive)
ROOT
ATOM      1  O1  BZF d   1       0.134  -3.381  -4.040  0.00  0.00    -0.204 OA
ATOM      2  C2  BZF d   1      -0.722  -4.397  -3.661  0.00  0.00     0.174 A 
ATOM      3  C3  BZF d   1      -0.910  -4.392  -2.326  0.00  0.00    -0.012 A 
ATOM      4  C3A BZF d   1      -0.196  -3.247  -1.850  0.00  0.00    -0.107 A 
ATOM      5  C4  BZF d   1      -0.018  -2.700  -0.611  0.00  0.00     0.055 A 
ATOM      6  C5  BZF d   1       0.798  -1.621  -0.477  0.00  0.00    -0.016 A 
ATOM      7  C6  BZF d   1       1.453  -1.068  -1.557  0.00  0.00     0.022 A 
ATOM      8  C7  BZF d   1       1.304  -1.573  -2.806  0.00  0.00     0.029 A 
ATOM      9  C7A BZF d   1       0.455  -2.643  -2.950  0.00  0.00     0.058 A 
ENDROOT
TORSDOF 0
ENDMDL
