MODEL 1
REMARK minimizedAffinity 12.449954
REMARK minimizedRMSD -1
REMARK  0 active torsions:
REMARK  status: ('A' for Active; 'I' for Inactive)
ROOT
ATOM      1  O1  BZF d   1      -4.870  -0.407   2.873  0.00  0.00    -0.204 OA
ATOM      2  C2  BZF d   1      -5.278  -1.517   3.588  0.00  0.00     0.174 A 
ATOM      3  C3  BZF d   1      -4.838  -1.455   4.861  0.00  0.00    -0.012 A 
ATOM      4  C3A BZF d   1      -4.189  -0.185   4.973  0.00  0.00    -0.107 A 
ATOM      5  C4  BZF d   1      -3.563   0.462   6.000  0.00  0.00     0.055 A 
ATOM      6  C5  BZF d   1      -2.968   1.660   5.761  0.00  0.00    -0.016 A 
ATOM      7  C6  BZF d   1      -2.976   2.237   4.508  0.00  0.00     0.022 A 
ATOM      8  C7  BZF d   1      -3.589   1.636   3.459  0.00  0.00     0.029 A 
ATOM      9  C7A BZF d   1      -4.219   0.440   3.705  0.00  0.00     0.058 A 
ENDROOT
TORSDOF 0
ENDMDL
