MODEL 1
REMARK minimizedAffinity 20.7154827
REMARK minimizedRMSD -1
REMARK  0 active torsions:
REMARK  status: ('A' for Active; 'I' for Inactive)
ROOT
ATOM      1  O1  BZF d   1      -4.137   1.809   2.914  0.00  0.00    -0.204 OA
ATOM      2  C2  BZF d   1      -3.145   2.279   3.753  0.00  0.00     0.174 A 
ATOM      3  C3  BZF d   1      -3.044   1.507   4.854  0.00  0.00    -0.012 A 
ATOM      4  C3A BZF d   1      -3.972   0.437   4.650  0.00  0.00    -0.107 A 
ATOM      5  C4  BZF d   1      -4.318  -0.659   5.387  0.00  0.00     0.055 A 
ATOM      6  C5  BZF d   1      -5.313  -1.469   4.939  0.00  0.00    -0.016 A 
ATOM      7  C6  BZF d   1      -5.986  -1.210   3.763  0.00  0.00     0.022 A 
ATOM      8  C7  BZF d   1      -5.675  -0.138   2.995  0.00  0.00     0.029 A 
ATOM      9  C7A BZF d   1      -4.647   0.664   3.428  0.00  0.00     0.058 A 
ENDROOT
TORSDOF 0
ENDMDL
