MODEL 1
REMARK minimizedAffinity 6.5873394
REMARK minimizedRMSD -1
REMARK  0 active torsions:
REMARK  status: ('A' for Active; 'I' for Inactive)
ROOT
ATOM      1  O1  BZF d   1      -1.702  -4.321  -1.047  0.00  0.00    -0.204 OA
ATOM      2  C2  BZF d   1      -1.413  -3.917  -2.336  0.00  0.00     0.174 A 
ATOM      3  C3  BZF d   1      -0.741  -2.748  -2.332  0.00  0.00    -0.012 A 
ATOM      4  C3A BZF d   1      -0.520  -2.446  -0.950  0.00  0.00    -0.107 A 
ATOM      5  C4  BZF d   1       0.108  -1.421  -0.302  0.00  0.00     0.055 A 
ATOM      6  C5  BZF d   1       0.083  -1.385   1.056  0.00  0.00    -0.016 A 
ATOM      7  C6  BZF d   1      -0.564  -2.353   1.796  0.00  0.00     0.022 A 
ATOM      8  C7  BZF d   1      -1.196  -3.391   1.198  0.00  0.00     0.029 A 
ATOM      9  C7A BZF d   1      -1.145  -3.448  -0.173  0.00  0.00     0.058 A 
ENDROOT
TORSDOF 0
ENDMDL
