MODEL 1
REMARK minimizedAffinity 13.1350651
REMARK minimizedRMSD -1
REMARK  0 active torsions:
REMARK  status: ('A' for Active; 'I' for Inactive)
ROOT
ATOM      1  O1  BZF d   1       3.089   1.488   3.897  0.00  0.00    -0.204 OA
ATOM      2  C2  BZF d   1       2.963   1.436   2.522  0.00  0.00     0.174 A 
ATOM      3  C3  BZF d   1       1.666   1.495   2.157  0.00  0.00    -0.012 A 
ATOM      4  C3A BZF d   1       0.941   1.681   3.376  0.00  0.00    -0.107 A 
ATOM      5  C4  BZF d   1      -0.386   1.828   3.666  0.00  0.00     0.055 A 
ATOM      6  C5  BZF d   1      -0.772   1.918   4.966  0.00  0.00    -0.016 A 
ATOM      7  C6  BZF d   1       0.140   1.859   6.000  0.00  0.00     0.022 A 
ATOM      8  C7  BZF d   1       1.467   1.720   5.762  0.00  0.00     0.029 A 
ATOM      9  C7A BZF d   1       1.863   1.662   4.448  0.00  0.00     0.058 A 
ENDROOT
TORSDOF 0
ENDMDL
