MODEL 1
REMARK minimizedAffinity 19.1622505
REMARK minimizedRMSD -1
REMARK  0 active torsions:
REMARK  status: ('A' for Active; 'I' for Inactive)
ROOT
ATOM      1  O1  BZF d   1       1.398   1.114  -2.991  0.00  0.00    -0.204 OA
ATOM      2  C2  BZF d   1       1.779  -0.212  -2.929  0.00  0.00     0.174 A 
ATOM      3  C3  BZF d   1       2.440  -0.467  -1.781  0.00  0.00    -0.012 A 
ATOM      4  C3A BZF d   1       2.394   0.756  -1.041  0.00  0.00    -0.107 A 
ATOM      5  C4  BZF d   1       2.863   1.129   0.186  0.00  0.00     0.055 A 
ATOM      6  C5  BZF d   1       2.716   2.420   0.585  0.00  0.00    -0.016 A 
ATOM      7  C6  BZF d   1       2.110   3.364  -0.218  0.00  0.00     0.022 A 
ATOM      8  C7  BZF d   1       1.624   3.040  -1.441  0.00  0.00     0.029 A 
ATOM      9  C7A BZF d   1       1.742   1.729  -1.833  0.00  0.00     0.058 A 
ENDROOT
TORSDOF 0
ENDMDL
