MODEL 1
REMARK minimizedAffinity 23.649353
REMARK minimizedRMSD -1
REMARK  0 active torsions:
REMARK  status: ('A' for Active; 'I' for Inactive)
ROOT
ATOM      1  O1  BZF d   1       0.157   0.664   3.982  0.00  0.00    -0.204 OA
ATOM      2  C2  BZF d   1       0.001   0.484   2.621  0.00  0.00     0.174 A 
ATOM      3  C3  BZF d   1      -1.257   0.787   2.240  0.00  0.00    -0.012 A 
ATOM      4  C3A BZF d   1      -1.903   1.269   3.422  0.00  0.00    -0.107 A 
ATOM      5  C4  BZF d   1      -3.159   1.739   3.681  0.00  0.00     0.055 A 
ATOM      6  C5  BZF d   1      -3.494   2.060   4.958  0.00  0.00    -0.016 A 
ATOM      7  C6  BZF d   1      -2.601   1.920   6.000  0.00  0.00     0.022 A 
ATOM      8  C7  BZF d   1      -1.342   1.463   5.792  0.00  0.00     0.029 A 
ATOM      9  C7A BZF d   1      -0.990   1.168   4.497  0.00  0.00     0.058 A 
ENDROOT
TORSDOF 0
ENDMDL
