MODEL 1
REMARK minimizedAffinity 10.2252321
REMARK minimizedRMSD -1
REMARK  0 active torsions:
REMARK  status: ('A' for Active; 'I' for Inactive)
ROOT
ATOM      1  O1  BZF d   1      -2.667  -4.155  -0.949  0.00  0.00    -0.204 OA
ATOM      2  C2  BZF d   1      -2.548  -3.883  -2.299  0.00  0.00     0.174 A 
ATOM      3  C3  BZF d   1      -1.672  -2.880  -2.510  0.00  0.00    -0.012 A 
ATOM      4  C3A BZF d   1      -1.145  -2.563  -1.218  0.00  0.00    -0.107 A 
ATOM      5  C4  BZF d   1      -0.220  -1.660  -0.777  0.00  0.00     0.055 A 
ATOM      6  C5  BZF d   1       0.014  -1.552   0.557  0.00  0.00    -0.016 A 
ATOM      7  C6  BZF d   1      -0.661  -2.327   1.478  0.00  0.00     0.022 A 
ATOM      8  C7  BZF d   1      -1.584  -3.240   1.088  0.00  0.00     0.029 A 
ATOM      9  C7A BZF d   1      -1.799  -3.374  -0.262  0.00  0.00     0.058 A 
ENDROOT
TORSDOF 0
ENDMDL
