MODEL 1
REMARK minimizedAffinity 12.0739889
REMARK minimizedRMSD -1
REMARK  0 active torsions:
REMARK  status: ('A' for Active; 'I' for Inactive)
ROOT
ATOM      1  O1  BZF d   1       1.136   2.915  -2.095  0.00  0.00    -0.204 OA
ATOM      2  C2  BZF d   1       1.565   1.734  -1.522  0.00  0.00     0.174 A 
ATOM      3  C3  BZF d   1       1.963   1.936  -0.249  0.00  0.00    -0.012 A 
ATOM      4  C3A BZF d   1       1.685   3.314   0.017  0.00  0.00    -0.107 A 
ATOM      5  C4  BZF d   1       1.845   4.109   1.116  0.00  0.00     0.055 A 
ATOM      6  C5  BZF d   1       1.542   5.430   1.025  0.00  0.00    -0.016 A 
ATOM      7  C6  BZF d   1       1.083   5.991  -0.148  0.00  0.00     0.022 A 
ATOM      8  C7  BZF d   1       0.903   5.242  -1.263  0.00  0.00     0.029 A 
ATOM      9  C7A BZF d   1       1.177   3.900  -1.166  0.00  0.00     0.058 A 
ENDROOT
TORSDOF 0
ENDMDL
