MODEL 1
REMARK minimizedAffinity 21.7408104
REMARK minimizedRMSD -1
REMARK  0 active torsions:
REMARK  status: ('A' for Active; 'I' for Inactive)
ROOT
ATOM      1  O1  BZF d   1       1.233  -1.666   0.370  0.00  0.00    -0.204 OA
ATOM      2  C2  BZF d   1       0.007  -1.893  -0.227  0.00  0.00     0.174 A 
ATOM      3  C3  BZF d   1      -0.175  -1.064  -1.275  0.00  0.00    -0.012 A 
ATOM      4  C3A BZF d   1       1.049  -0.334  -1.395  0.00  0.00    -0.107 A 
ATOM      5  C4  BZF d   1       1.488   0.629  -2.259  0.00  0.00     0.055 A 
ATOM      6  C5  BZF d   1       2.709   1.189  -2.058  0.00  0.00    -0.016 A 
ATOM      7  C6  BZF d   1       3.515   0.816  -1.003  0.00  0.00     0.022 A 
ATOM      8  C7  BZF d   1       3.125  -0.137  -0.122  0.00  0.00     0.029 A 
ATOM      9  C7A BZF d   1       1.906  -0.730  -0.341  0.00  0.00     0.058 A 
ENDROOT
TORSDOF 0
ENDMDL
