MODEL 1
REMARK minimizedAffinity -3.11356282
REMARK minimizedRMSD -1
REMARK  0 active torsions:
REMARK  status: ('A' for Active; 'I' for Inactive)
ROOT
ATOM      1  O1  BZF d   1       1.494  -1.128  -0.695  0.00  0.00    -0.204 OA
ATOM      2  C2  BZF d   1       1.604   0.026  -1.446  0.00  0.00     0.174 A 
ATOM      3  C3  BZF d   1       0.665   0.924  -1.085  0.00  0.00    -0.012 A 
ATOM      4  C3A BZF d   1      -0.020   0.328   0.021  0.00  0.00    -0.107 A 
ATOM      5  C4  BZF d   1      -1.046   0.740   0.823  0.00  0.00     0.055 A 
ATOM      6  C5  BZF d   1      -1.529  -0.110   1.766  0.00  0.00    -0.016 A 
ATOM      7  C6  BZF d   1      -1.015  -1.380   1.932  0.00  0.00     0.022 A 
ATOM      8  C7  BZF d   1       0.007  -1.831   1.164  0.00  0.00     0.029 A 
ATOM      9  C7A BZF d   1       0.519  -0.962   0.232  0.00  0.00     0.058 A 
ENDROOT
TORSDOF 0
ENDMDL
