MODEL 1
REMARK minimizedAffinity -4.25888395
REMARK minimizedRMSD -1
REMARK  0 active torsions:
REMARK  status: ('A' for Active; 'I' for Inactive)
ROOT
ATOM      1  O1  BZF d   1       2.385   1.331  -2.260  0.00  0.00    -0.204 OA
ATOM      2  C2  BZF d   1       2.347   2.271  -1.248  0.00  0.00     0.174 A 
ATOM      3  C3  BZF d   1       1.483   1.900  -0.282  0.00  0.00    -0.012 A 
ATOM      4  C3A BZF d   1       1.015   0.605  -0.673  0.00  0.00    -0.107 A 
ATOM      5  C4  BZF d   1       0.148  -0.289  -0.111  0.00  0.00     0.055 A 
ATOM      6  C5  BZF d   1      -0.149  -1.432  -0.784  0.00  0.00    -0.016 A 
ATOM      7  C6  BZF d   1       0.397  -1.710  -2.020  0.00  0.00     0.022 A 
ATOM      8  C7  BZF d   1       1.266  -0.856  -2.614  0.00  0.00     0.029 A 
ATOM      9  C7A BZF d   1       1.593   0.284  -1.922  0.00  0.00     0.058 A 
ENDROOT
TORSDOF 0
ENDMDL
