MODEL 1
REMARK minimizedAffinity -1.23995495
REMARK minimizedRMSD -1
REMARK  0 active torsions:
REMARK  status: ('A' for Active; 'I' for Inactive)
ROOT
ATOM      1  O1  BZF d   1      -0.405  -2.283   0.387  0.00  0.00    -0.204 OA
ATOM      2  C2  BZF d   1      -0.027  -2.866  -0.807  0.00  0.00     0.174 A 
ATOM      3  C3  BZF d   1       0.542  -1.957  -1.624  0.00  0.00    -0.012 A 
ATOM      4  C3A BZF d   1       0.602  -0.749  -0.860  0.00  0.00    -0.107 A 
ATOM      5  C4  BZF d   1       1.077   0.505  -1.121  0.00  0.00     0.055 A 
ATOM      6  C5  BZF d   1       0.918   1.479  -0.187  0.00  0.00    -0.016 A 
ATOM      7  C6  BZF d   1       0.285   1.236   1.015  0.00  0.00     0.022 A 
ATOM      8  C7  BZF d   1      -0.198   0.008   1.321  0.00  0.00     0.029 A 
ATOM      9  C7A BZF d   1      -0.010  -0.987   0.393  0.00  0.00     0.058 A 
ENDROOT
TORSDOF 0
ENDMDL
