MODEL 1
REMARK minimizedAffinity 1.00833333
REMARK minimizedRMSD -1
REMARK  0 active torsions:
REMARK  status: ('A' for Active; 'I' for Inactive)
ROOT
ATOM      1  O1  BZF d   1      -3.840   1.335  -5.364  0.00  0.00    -0.204 OA
ATOM      2  C2  BZF d   1      -4.960   0.618  -5.737  0.00  0.00     0.174 A 
ATOM      3  C3  BZF d   1      -5.994   1.444  -5.993  0.00  0.00    -0.012 A 
ATOM      4  C3A BZF d   1      -5.463   2.766  -5.855  0.00  0.00    -0.107 A 
ATOM      5  C4  BZF d   1      -6.000   4.013  -6.000  0.00  0.00     0.055 A 
ATOM      6  C5  BZF d   1      -5.231   5.099  -5.721  0.00  0.00    -0.016 A 
ATOM      7  C6  BZF d   1      -3.927   4.974  -5.291  0.00  0.00     0.022 A 
ATOM      8  C7  BZF d   1      -3.349   3.758  -5.137  0.00  0.00     0.029 A 
ATOM      9  C7A BZF d   1      -4.113   2.659  -5.450  0.00  0.00     0.058 A 
ENDROOT
TORSDOF 0
ENDMDL
