MODEL 1
REMARK minimizedAffinity -4.84526253
REMARK minimizedRMSD -1
REMARK  0 active torsions:
REMARK  status: ('A' for Active; 'I' for Inactive)
ROOT
ATOM      1  O1  BZF d   1      -2.995  -0.867   0.958  0.00  0.00    -0.204 OA
ATOM      2  C2  BZF d   1      -2.888  -1.956   0.114  0.00  0.00     0.174 A 
ATOM      3  C3  BZF d   1      -1.641  -2.050  -0.390  0.00  0.00    -0.012 A 
ATOM      4  C3A BZF d   1      -0.898  -1.004   0.245  0.00  0.00    -0.107 A 
ATOM      5  C4  BZF d   1       0.402  -0.596   0.167  0.00  0.00     0.055 A 
ATOM      6  C5  BZF d   1       0.792   0.505   0.862  0.00  0.00    -0.016 A 
ATOM      7  C6  BZF d   1      -0.094   1.224   1.638  0.00  0.00     0.022 A 
ATOM      8  C7  BZF d   1      -1.393   0.855   1.750  0.00  0.00     0.029 A 
ATOM      9  C7A BZF d   1      -1.781  -0.277   1.075  0.00  0.00     0.058 A 
ENDROOT
TORSDOF 0
ENDMDL
