MODEL 1
REMARK minimizedAffinity -2.77656627
REMARK minimizedRMSD -1
REMARK  0 active torsions:
REMARK  status: ('A' for Active; 'I' for Inactive)
ROOT
ATOM      1  O1  BZF d   1       0.672  -1.880  -0.647  0.00  0.00    -0.204 OA
ATOM      2  C2  BZF d   1       0.707  -3.259  -0.713  0.00  0.00     0.174 A 
ATOM      3  C3  BZF d   1       1.314  -3.669  -1.845  0.00  0.00    -0.012 A 
ATOM      4  C3A BZF d   1       1.763  -2.471  -2.486  0.00  0.00    -0.107 A 
ATOM      5  C4  BZF d   1       2.449  -2.225  -3.641  0.00  0.00     0.055 A 
ATOM      6  C5  BZF d   1       2.665  -0.937  -4.019  0.00  0.00    -0.016 A 
ATOM      7  C6  BZF d   1       2.205   0.126  -3.270  0.00  0.00     0.022 A 
ATOM      8  C7  BZF d   1       1.525  -0.069  -2.114  0.00  0.00     0.029 A 
ATOM      9  C7A BZF d   1       1.334  -1.368  -1.712  0.00  0.00     0.058 A 
ENDROOT
TORSDOF 0
ENDMDL
