MODEL 1
REMARK minimizedAffinity -6.93265057
REMARK minimizedRMSD -1
REMARK  0 active torsions:
REMARK  status: ('A' for Active; 'I' for Inactive)
ROOT
ATOM      1  O1  BZF d   1       0.034  -1.371   0.395  0.00  0.00    -0.204 OA
ATOM      2  C2  BZF d   1      -0.201  -0.055   0.743  0.00  0.00     0.174 A 
ATOM      3  C3  BZF d   1       0.380   0.785  -0.139  0.00  0.00    -0.012 A 
ATOM      4  C3A BZF d   1       0.940  -0.060  -1.149  0.00  0.00    -0.107 A 
ATOM      5  C4  BZF d   1       1.631   0.186  -2.301  0.00  0.00     0.055 A 
ATOM      6  C5  BZF d   1       2.101  -0.863  -3.026  0.00  0.00    -0.016 A 
ATOM      7  C6  BZF d   1       1.901  -2.169  -2.627  0.00  0.00     0.022 A 
ATOM      8  C7  BZF d   1       1.217  -2.462  -1.495  0.00  0.00     0.029 A 
ATOM      9  C7A BZF d   1       0.713  -1.405  -0.777  0.00  0.00     0.058 A 
ENDROOT
TORSDOF 0
ENDMDL
