MODEL 1
REMARK minimizedAffinity 4.86250257
REMARK minimizedRMSD -1
REMARK  0 active torsions:
REMARK  status: ('A' for Active; 'I' for Inactive)
ROOT
ATOM      1  C   UNL d   1      -0.350  -1.410   3.073  0.00  0.00     0.078 C 
ATOM      2  C1  UNL d   1      -1.459  -0.936   2.182  0.00  0.00    -0.077 A 
ATOM      3  C2  UNL d   1      -1.553  -1.371   0.854  0.00  0.00    -0.001 A 
ATOM      4  C3  UNL d   1      -2.586  -0.914   0.034  0.00  0.00     0.003 A 
ATOM      5  C4  UNL d   1      -3.531  -0.020   0.531  0.00  0.00    -0.005 A 
ATOM      6  C5  UNL d   1      -3.445   0.420   1.850  0.00  0.00     0.003 A 
ATOM      7  C6  UNL d   1      -2.413  -0.035   2.673  0.00  0.00    -0.001 A 
ENDROOT
TORSDOF 0
ENDMDL
