MODEL 1
REMARK minimizedAffinity 3.22222567
REMARK minimizedRMSD -1
REMARK  0 active torsions:
REMARK  status: ('A' for Active; 'I' for Inactive)
ROOT
ATOM      1  C   UNL d   1      -1.202   2.984  -3.088  0.00  0.00     0.078 C 
ATOM      2  C1  UNL d   1      -1.471   1.643  -2.472  0.00  0.00    -0.077 A 
ATOM      3  C2  UNL d   1      -2.757   1.288  -2.048  0.00  0.00    -0.001 A 
ATOM      4  C3  UNL d   1      -2.991   0.040  -1.468  0.00  0.00     0.003 A 
ATOM      5  C4  UNL d   1      -1.942  -0.863  -1.306  0.00  0.00    -0.005 A 
ATOM      6  C5  UNL d   1      -0.658  -0.518  -1.723  0.00  0.00     0.003 A 
ATOM      7  C6  UNL d   1      -0.423   0.729  -2.303  0.00  0.00    -0.001 A 
ENDROOT
TORSDOF 0
ENDMDL
