MODEL 1
REMARK minimizedAffinity 7.23996878
REMARK minimizedRMSD -1
REMARK  0 active torsions:
REMARK  status: ('A' for Active; 'I' for Inactive)
ROOT
ATOM      1  C   UNL d   1      -3.884   1.190   2.669  0.00  0.00     0.078 C 
ATOM      2  C1  UNL d   1      -2.628   0.370   2.651  0.00  0.00    -0.077 A 
ATOM      3  C2  UNL d   1      -1.750   0.373   3.742  0.00  0.00    -0.001 A 
ATOM      4  C3  UNL d   1      -0.580  -0.388   3.708  0.00  0.00     0.003 A 
ATOM      5  C4  UNL d   1      -0.277  -1.155   2.585  0.00  0.00    -0.005 A 
ATOM      6  C5  UNL d   1      -1.143  -1.162   1.494  0.00  0.00     0.003 A 
ATOM      7  C6  UNL d   1      -2.314  -0.402   1.526  0.00  0.00    -0.001 A 
ENDROOT
TORSDOF 0
ENDMDL
