MODEL 1
REMARK minimizedAffinity 1.78568029
REMARK minimizedRMSD -1
REMARK  0 active torsions:
REMARK  status: ('A' for Active; 'I' for Inactive)
ROOT
ATOM      1  C   UNL d   1      -2.175  -0.077  -1.683  0.00  0.00     0.078 C 
ATOM      2  C1  UNL d   1      -2.169   1.331  -2.199  0.00  0.00    -0.077 A 
ATOM      3  C2  UNL d   1      -3.329   1.910  -2.728  0.00  0.00    -0.001 A 
ATOM      4  C3  UNL d   1      -3.307   3.219  -3.213  0.00  0.00     0.003 A 
ATOM      5  C4  UNL d   1      -2.127   3.959  -3.175  0.00  0.00    -0.005 A 
ATOM      6  C5  UNL d   1      -0.967   3.391  -2.652  0.00  0.00     0.003 A 
ATOM      7  C6  UNL d   1      -0.988   2.082  -2.166  0.00  0.00    -0.001 A 
ENDROOT
TORSDOF 0
ENDMDL
