MODEL 1
REMARK minimizedAffinity 2.72249079
REMARK minimizedRMSD -1
REMARK  0 active torsions:
REMARK  status: ('A' for Active; 'I' for Inactive)
ROOT
ATOM      1  C   UNL d   1       5.843  -1.027  -4.181  0.00  0.00     0.078 C 
ATOM      2  C1  UNL d   1       5.886   0.168  -3.277  0.00  0.00    -0.077 A 
ATOM      3  C2  UNL d   1       5.876   1.468  -3.798  0.00  0.00    -0.001 A 
ATOM      4  C3  UNL d   1       5.926   2.571  -2.945  0.00  0.00     0.003 A 
ATOM      5  C4  UNL d   1       5.987   2.386  -1.565  0.00  0.00    -0.005 A 
ATOM      6  C5  UNL d   1       6.000   1.097  -1.037  0.00  0.00     0.003 A 
ATOM      7  C6  UNL d   1       5.950  -0.008  -1.889  0.00  0.00    -0.001 A 
ENDROOT
TORSDOF 0
ENDMDL
