MODEL 1
REMARK minimizedAffinity 1.71246803
REMARK minimizedRMSD -1
REMARK  0 active torsions:
REMARK  status: ('A' for Active; 'I' for Inactive)
ROOT
ATOM      1  C   UNL d   1      -0.326  -1.148   3.324  0.00  0.00     0.078 C 
ATOM      2  C1  UNL d   1       0.594  -1.864   2.381  0.00  0.00    -0.077 A 
ATOM      3  C2  UNL d   1       0.969  -1.287   1.161  0.00  0.00    -0.001 A 
ATOM      4  C3  UNL d   1       1.818  -1.970   0.289  0.00  0.00     0.003 A 
ATOM      5  C4  UNL d   1       2.298  -3.234   0.625  0.00  0.00    -0.005 A 
ATOM      6  C5  UNL d   1       1.928  -3.817   1.835  0.00  0.00     0.003 A 
ATOM      7  C6  UNL d   1       1.079  -3.136   2.709  0.00  0.00    -0.001 A 
ENDROOT
TORSDOF 0
ENDMDL
