MODEL 1
REMARK minimizedAffinity 2.43046856
REMARK minimizedRMSD -1
REMARK  0 active torsions:
REMARK  status: ('A' for Active; 'I' for Inactive)
ROOT
ATOM      1  C   UNL d   1       5.999   1.471   0.360  0.00  0.00     0.078 C 
ATOM      2  C1  UNL d   1       5.991   0.685  -0.917  0.00  0.00    -0.077 A 
ATOM      3  C2  UNL d   1       5.992  -0.715  -0.902  0.00  0.00    -0.001 A 
ATOM      4  C3  UNL d   1       5.995  -1.433  -2.099  0.00  0.00     0.003 A 
ATOM      5  C4  UNL d   1       5.998  -0.760  -3.319  0.00  0.00    -0.005 A 
ATOM      6  C5  UNL d   1       6.000   0.633  -3.344  0.00  0.00     0.003 A 
ATOM      7  C6  UNL d   1       5.997   1.353  -2.148  0.00  0.00    -0.001 A 
ENDROOT
TORSDOF 0
ENDMDL
