MODEL 1
REMARK minimizedAffinity -3.75596642
REMARK minimizedRMSD -1
REMARK  0 active torsions:
REMARK  status: ('A' for Active; 'I' for Inactive)
ROOT
ATOM      1  C   UNL d   1       2.668  -4.153   2.336  0.00  0.00     0.078 C 
ATOM      2  C1  UNL d   1       3.397  -4.424   3.618  0.00  0.00    -0.077 A 
ATOM      3  C2  UNL d   1       3.745  -3.380   4.484  0.00  0.00    -0.001 A 
ATOM      4  C3  UNL d   1       4.432  -3.646   5.670  0.00  0.00     0.003 A 
ATOM      5  C4  UNL d   1       4.778  -4.955   5.999  0.00  0.00    -0.005 A 
ATOM      6  C5  UNL d   1       4.438  -6.000   5.143  0.00  0.00     0.003 A 
ATOM      7  C6  UNL d   1       3.751  -5.736   3.957  0.00  0.00    -0.001 A 
ENDROOT
TORSDOF 0
ENDMDL
