MODEL 1
REMARK minimizedAffinity 6.01756382
REMARK minimizedRMSD -1
REMARK  0 active torsions:
REMARK  status: ('A' for Active; 'I' for Inactive)
ROOT
ATOM      1  C   UNL d   1       2.199  -2.278   4.628  0.00  0.00     0.077 C 
ATOM      2  C1  UNL d   1       1.334  -1.666   3.567  0.00  0.00    -0.074 A 
ATOM      3  C2  UNL d   1       1.895  -1.121   2.408  0.00  0.00    -0.005 A 
ATOM      4  C3  UNL d   1       1.077  -0.564   1.425  0.00  0.00     0.006 A 
ATOM      5  C4  UNL d   1      -0.308  -0.545   1.592  0.00  0.00    -0.005 A 
ATOM      6  C5  UNL d   1      -0.887  -1.086   2.744  0.00  0.00    -0.074 A 
ATOM      7  C6  UNL d   1      -2.375  -1.084   2.934  0.00  0.00     0.077 C 
ATOM      8  C7  UNL d   1      -0.059  -1.651   3.723  0.00  0.00    -0.001 A 
ENDROOT
TORSDOF 0
ENDMDL
