MODEL 1
REMARK minimizedAffinity 0.421116531
REMARK minimizedRMSD -1
REMARK  0 active torsions:
REMARK  status: ('A' for Active; 'I' for Inactive)
ROOT
ATOM      1  C   UNL d   1       0.316  -2.600   4.674  0.00  0.00     0.077 C 
ATOM      2  C1  UNL d   1       0.437  -1.640   3.528  0.00  0.00    -0.074 A 
ATOM      3  C2  UNL d   1       1.691  -1.264   3.035  0.00  0.00    -0.005 A 
ATOM      4  C3  UNL d   1       1.788  -0.378   1.963  0.00  0.00     0.006 A 
ATOM      5  C4  UNL d   1       0.634   0.140   1.373  0.00  0.00    -0.005 A 
ATOM      6  C5  UNL d   1      -0.628  -0.225   1.852  0.00  0.00    -0.074 A 
ATOM      7  C6  UNL d   1      -1.878   0.315   1.223  0.00  0.00     0.077 C 
ATOM      8  C7  UNL d   1      -0.717  -1.121   2.925  0.00  0.00    -0.001 A 
ENDROOT
TORSDOF 0
ENDMDL
