MODEL 1
REMARK minimizedAffinity -1.55452847
REMARK minimizedRMSD -1
REMARK  0 active torsions:
REMARK  status: ('A' for Active; 'I' for Inactive)
ROOT
ATOM      1  C   UNL d   1      -0.033  -5.625  -1.932  0.00  0.00     0.077 C 
ATOM      2  C1  UNL d   1       0.444  -5.686  -3.352  0.00  0.00    -0.074 A 
ATOM      3  C2  UNL d   1      -0.445  -5.955  -4.398  0.00  0.00    -0.005 A 
ATOM      4  C3  UNL d   1       0.011  -5.999  -5.715  0.00  0.00     0.006 A 
ATOM      5  C4  UNL d   1       1.359  -5.776  -6.000  0.00  0.00    -0.005 A 
ATOM      6  C5  UNL d   1       2.262  -5.505  -4.967  0.00  0.00    -0.074 A 
ATOM      7  C6  UNL d   1       3.712  -5.254  -5.257  0.00  0.00     0.077 C 
ATOM      8  C7  UNL d   1       1.795  -5.456  -3.647  0.00  0.00    -0.001 A 
ENDROOT
TORSDOF 0
ENDMDL
