MODEL 1
REMARK minimizedAffinity -1.54566741
REMARK minimizedRMSD -1
REMARK  0 active torsions:
REMARK  status: ('A' for Active; 'I' for Inactive)
ROOT
ATOM      1  C   UNL d   1      -0.917  -6.000  -6.000  0.00  0.00     0.077 C 
ATOM      2  C1  UNL d   1       0.049  -5.664  -4.903  0.00  0.00    -0.074 A 
ATOM      3  C2  UNL d   1      -0.372  -5.589  -3.571  0.00  0.00    -0.005 A 
ATOM      4  C3  UNL d   1       0.540  -5.286  -2.561  0.00  0.00     0.006 A 
ATOM      5  C4  UNL d   1       1.880  -5.054  -2.870  0.00  0.00    -0.005 A 
ATOM      6  C5  UNL d   1       2.321  -5.126  -4.196  0.00  0.00    -0.074 A 
ATOM      7  C6  UNL d   1       3.760  -4.889  -4.545  0.00  0.00     0.077 C 
ATOM      8  C7  UNL d   1       1.399  -5.438  -5.205  0.00  0.00    -0.001 A 
ENDROOT
TORSDOF 0
ENDMDL
