MODEL 1
REMARK minimizedAffinity -5.49116468
REMARK minimizedRMSD -1
REMARK  0 active torsions:
REMARK  status: ('A' for Active; 'I' for Inactive)
ROOT
ATOM      1  C   UNL d   1       1.490   0.979   1.206  0.00  0.00     0.077 C 
ATOM      2  C1  UNL d   1       1.139   0.005   2.291  0.00  0.00    -0.074 A 
ATOM      3  C2  UNL d   1       2.132  -0.721   2.955  0.00  0.00    -0.005 A 
ATOM      4  C3  UNL d   1       1.791  -1.616   3.969  0.00  0.00     0.006 A 
ATOM      5  C4  UNL d   1       0.454  -1.794   4.328  0.00  0.00    -0.005 A 
ATOM      6  C5  UNL d   1      -0.553  -1.077   3.675  0.00  0.00    -0.074 A 
ATOM      7  C6  UNL d   1      -1.994  -1.249   4.056  0.00  0.00     0.077 C 
ATOM      8  C7  UNL d   1      -0.201  -0.174   2.663  0.00  0.00    -0.001 A 
ENDROOT
TORSDOF 0
ENDMDL
