MODEL 1
REMARK minimizedAffinity 0.104839265
REMARK minimizedRMSD -1
REMARK  0 active torsions:
REMARK  status: ('A' for Active; 'I' for Inactive)
ROOT
ATOM      1  C   UNL d   1       2.374  -1.869   4.122  0.00  0.00     0.077 C 
ATOM      2  C1  UNL d   1       1.113  -1.272   3.572  0.00  0.00    -0.074 A 
ATOM      3  C2  UNL d   1      -0.025  -1.131   4.373  0.00  0.00    -0.005 A 
ATOM      4  C3  UNL d   1      -1.187  -0.565   3.850  0.00  0.00     0.006 A 
ATOM      5  C4  UNL d   1      -1.224  -0.136   2.523  0.00  0.00    -0.005 A 
ATOM      6  C5  UNL d   1      -0.096  -0.268   1.707  0.00  0.00    -0.074 A 
ATOM      7  C6  UNL d   1      -0.116   0.198   0.281  0.00  0.00     0.077 C 
ATOM      8  C7  UNL d   1       1.070  -0.831   2.242  0.00  0.00    -0.001 A 
ENDROOT
TORSDOF 0
ENDMDL
