MODEL 1
REMARK minimizedAffinity -3.15061498
REMARK minimizedRMSD -1
REMARK  0 active torsions:
REMARK  status: ('A' for Active; 'I' for Inactive)
ROOT
ATOM      1  O1  BZF d   1      -1.402  -0.770  -0.353  0.00  0.00    -0.204 OA
ATOM      2  C2  BZF d   1      -1.742  -0.054   0.778  0.00  0.00     0.174 A 
ATOM      3  C3  BZF d   1      -0.843   0.924   1.014  0.00  0.00    -0.012 A 
ATOM      4  C3A BZF d   1       0.068   0.870  -0.088  0.00  0.00    -0.107 A 
ATOM      5  C4  BZF d   1       1.170   1.600  -0.431  0.00  0.00     0.055 A 
ATOM      6  C5  BZF d   1       1.880   1.245  -1.534  0.00  0.00    -0.016 A 
ATOM      7  C6  BZF d   1       1.520   0.165  -2.313  0.00  0.00     0.022 A 
ATOM      8  C7  BZF d   1       0.432  -0.586  -2.016  0.00  0.00     0.029 A 
ATOM      9  C7A BZF d   1      -0.307  -0.210  -0.920  0.00  0.00     0.058 A 
ENDROOT
TORSDOF 0
ENDMDL
