MODEL 1
REMARK minimizedAffinity -5.7128191
REMARK minimizedRMSD -1
REMARK  0 active torsions:
REMARK  status: ('A' for Active; 'I' for Inactive)
ROOT
ATOM      1  O1  BZF d   1       0.116  -1.599   0.267  0.00  0.00    -0.204 OA
ATOM      2  C2  BZF d   1      -0.415  -0.380   0.639  0.00  0.00     0.174 A 
ATOM      3  C3  BZF d   1       0.011   0.599  -0.185  0.00  0.00    -0.012 A 
ATOM      4  C3A BZF d   1       0.789  -0.064  -1.187  0.00  0.00    -0.107 A 
ATOM      5  C4  BZF d   1       1.465   0.370  -2.291  0.00  0.00     0.055 A 
ATOM      6  C5  BZF d   1       2.184  -0.523  -3.019  0.00  0.00    -0.016 A 
ATOM      7  C6  BZF d   1       2.254  -1.856  -2.669  0.00  0.00     0.022 A 
ATOM      8  C7  BZF d   1       1.596  -2.335  -1.585  0.00  0.00     0.029 A 
ATOM      9  C7A BZF d   1       0.842  -1.440  -0.866  0.00  0.00     0.058 A 
ENDROOT
TORSDOF 0
ENDMDL
