MODEL 1
REMARK minimizedAffinity -3.67948627
REMARK minimizedRMSD -1
REMARK  0 active torsions:
REMARK  status: ('A' for Active; 'I' for Inactive)
ROOT
ATOM      1  O1  BZF d   1      -0.197  -1.037   0.261  0.00  0.00    -0.204 OA
ATOM      2  C2  BZF d   1      -0.309   0.135   0.984  0.00  0.00     0.174 A 
ATOM      3  C3  BZF d   1       0.484   1.094   0.464  0.00  0.00    -0.012 A 
ATOM      4  C3A BZF d   1       1.062   0.511  -0.708  0.00  0.00    -0.107 A 
ATOM      5  C4  BZF d   1       1.925   0.975  -1.659  0.00  0.00     0.055 A 
ATOM      6  C5  BZF d   1       2.350   0.129  -2.634  0.00  0.00    -0.016 A 
ATOM      7  C6  BZF d   1       1.937  -1.187  -2.685  0.00  0.00     0.022 A 
ATOM      8  C7  BZF d   1       1.078  -1.691  -1.766  0.00  0.00     0.029 A 
ATOM      9  C7A BZF d   1       0.621  -0.829  -0.798  0.00  0.00     0.058 A 
ENDROOT
TORSDOF 0
ENDMDL
