MODEL 1
REMARK minimizedAffinity -5.32808065
REMARK minimizedRMSD -1
REMARK  0 active torsions:
REMARK  status: ('A' for Active; 'I' for Inactive)
ROOT
ATOM      1  O1  BZF d   1      -2.885   2.034   0.693  0.00  0.00    -0.204 OA
ATOM      2  C2  BZF d   1      -3.213   1.232   1.770  0.00  0.00     0.174 A 
ATOM      3  C3  BZF d   1      -2.407   0.153   1.826  0.00  0.00    -0.012 A 
ATOM      4  C3A BZF d   1      -1.459   0.335   0.769  0.00  0.00    -0.107 A 
ATOM      5  C4  BZF d   1      -0.393  -0.395   0.327  0.00  0.00     0.055 A 
ATOM      6  C5  BZF d   1       0.282   0.022  -0.776  0.00  0.00    -0.016 A 
ATOM      7  C6  BZF d   1      -0.084   1.161  -1.463  0.00  0.00     0.022 A 
ATOM      8  C7  BZF d   1      -1.131   1.921  -1.060  0.00  0.00     0.029 A 
ATOM      9  C7A BZF d   1      -1.795   1.519   0.073  0.00  0.00     0.058 A 
ENDROOT
TORSDOF 0
ENDMDL
