MODEL 1
REMARK minimizedAffinity 6.09127855
REMARK minimizedRMSD -1
REMARK  0 active torsions:
REMARK  status: ('A' for Active; 'I' for Inactive)
ROOT
ATOM      1  O1  BZF d   1      -2.782   0.885   3.756  0.00  0.00    -0.204 OA
ATOM      2  C2  BZF d   1      -3.461   1.118   4.937  0.00  0.00     0.174 A 
ATOM      3  C3  BZF d   1      -2.658   0.907   6.000  0.00  0.00    -0.012 A 
ATOM      4  C3A BZF d   1      -1.373   0.607   5.447  0.00  0.00    -0.107 A 
ATOM      5  C4  BZF d   1      -0.157   0.321   5.999  0.00  0.00     0.055 A 
ATOM      6  C5  BZF d   1       0.881   0.003   5.182  0.00  0.00    -0.016 A 
ATOM      7  C6  BZF d   1       0.738  -0.043   3.811  0.00  0.00     0.022 A 
ATOM      8  C7  BZF d   1      -0.447   0.239   3.217  0.00  0.00     0.029 A 
ATOM      9  C7A BZF d   1      -1.490   0.592   4.038  0.00  0.00     0.058 A 
ENDROOT
TORSDOF 0
ENDMDL
