MODEL 1
REMARK minimizedAffinity -4.27716923
REMARK minimizedRMSD -1
REMARK  0 active torsions:
REMARK  status: ('A' for Active; 'I' for Inactive)
ROOT
ATOM      1  O1  BZF d   1       0.290  -0.456   0.574  0.00  0.00    -0.204 OA
ATOM      2  C2  BZF d   1      -0.004   0.887   0.709  0.00  0.00     0.174 A 
ATOM      3  C3  BZF d   1       0.421   1.580  -0.367  0.00  0.00    -0.012 A 
ATOM      4  C3A BZF d   1       0.935   0.596  -1.270  0.00  0.00    -0.107 A 
ATOM      5  C4  BZF d   1       1.485   0.663  -2.518  0.00  0.00     0.055 A 
ATOM      6  C5  BZF d   1       1.953  -0.475  -3.096  0.00  0.00    -0.016 A 
ATOM      7  C6  BZF d   1       1.891  -1.694  -2.453  0.00  0.00     0.022 A 
ATOM      8  C7  BZF d   1       1.350  -1.811  -1.216  0.00  0.00     0.029 A 
ATOM      9  C7A BZF d   1       0.846  -0.669  -0.643  0.00  0.00     0.058 A 
ENDROOT
TORSDOF 0
ENDMDL
