MODEL 1
REMARK minimizedAffinity -5.83973265
REMARK minimizedRMSD -1
REMARK  0 active torsions:
REMARK  status: ('A' for Active; 'I' for Inactive)
ROOT
ATOM      1  O1  BZF d   1       0.643  -1.990   0.215  0.00  0.00    -0.204 OA
ATOM      2  C2  BZF d   1      -0.162  -1.233   1.044  0.00  0.00     0.174 A 
ATOM      3  C3  BZF d   1      -0.291   0.023   0.569  0.00  0.00    -0.012 A 
ATOM      4  C3A BZF d   1       0.406   0.025  -0.681  0.00  0.00    -0.107 A 
ATOM      5  C4  BZF d   1       0.621   0.979  -1.634  0.00  0.00     0.055 A 
ATOM      6  C5  BZF d   1       1.406   0.681  -2.702  0.00  0.00    -0.016 A 
ATOM      7  C6  BZF d   1       1.995  -0.558  -2.846  0.00  0.00     0.022 A 
ATOM      8  C7  BZF d   1       1.807  -1.539  -1.930  0.00  0.00     0.029 A 
ATOM      9  C7A BZF d   1       0.987  -1.250  -0.866  0.00  0.00     0.058 A 
ENDROOT
TORSDOF 0
ENDMDL
