MODEL 1
REMARK minimizedAffinity -2.10333276
REMARK minimizedRMSD -1
REMARK  0 active torsions:
REMARK  status: ('A' for Active; 'I' for Inactive)
ROOT
ATOM      1  O1  BZF d   1      -1.668   0.245  -0.070  0.00  0.00    -0.204 OA
ATOM      2  C2  BZF d   1      -1.322  -0.208   1.189  0.00  0.00     0.174 A 
ATOM      3  C3  BZF d   1      -0.013  -0.528   1.239  0.00  0.00    -0.012 A 
ATOM      4  C3A BZF d   1       0.511  -0.173  -0.044  0.00  0.00    -0.107 A 
ATOM      5  C4  BZF d   1       1.757  -0.237  -0.600  0.00  0.00     0.055 A 
ATOM      6  C5  BZF d   1       1.919   0.122  -1.900  0.00  0.00    -0.016 A 
ATOM      7  C6  BZF d   1       0.859   0.544  -2.675  0.00  0.00     0.022 A 
ATOM      8  C7  BZF d   1      -0.395   0.630  -2.166  0.00  0.00     0.029 A 
ATOM      9  C7A BZF d   1      -0.556   0.299  -0.843  0.00  0.00     0.058 A 
ENDROOT
TORSDOF 0
ENDMDL
