MODEL 1
REMARK minimizedAffinity -3.70137215
REMARK minimizedRMSD -1
REMARK  0 active torsions:
REMARK  status: ('A' for Active; 'I' for Inactive)
ROOT
ATOM      1  O1  BZF d   1       0.486  -2.460  -0.844  0.00  0.00    -0.204 OA
ATOM      2  C2  BZF d   1       1.391  -2.998  -1.739  0.00  0.00     0.174 A 
ATOM      3  C3  BZF d   1       2.082  -2.023  -2.364  0.00  0.00    -0.012 A 
ATOM      4  C3A BZF d   1       1.641  -0.803  -1.761  0.00  0.00    -0.107 A 
ATOM      5  C4  BZF d   1       1.973   0.509  -1.946  0.00  0.00     0.055 A 
ATOM      6  C5  BZF d   1       1.305   1.464  -1.246  0.00  0.00    -0.016 A 
ATOM      7  C6  BZF d   1       0.298   1.143  -0.359  0.00  0.00     0.022 A 
ATOM      8  C7  BZF d   1      -0.062  -0.144  -0.139  0.00  0.00     0.029 A 
ATOM      9  C7A BZF d   1       0.633  -1.113  -0.819  0.00  0.00     0.058 A 
ENDROOT
TORSDOF 0
ENDMDL
