MODEL 1
REMARK minimizedAffinity -5.11731434
REMARK minimizedRMSD -1
REMARK  0 active torsions:
REMARK  status: ('A' for Active; 'I' for Inactive)
ROOT
ATOM      1  O1  BZF d   1      -0.573   1.153  -1.278  0.00  0.00    -0.204 OA
ATOM      2  C2  BZF d   1       0.717   0.804  -1.627  0.00  0.00     0.174 A 
ATOM      3  C3  BZF d   1       1.280   0.035  -0.672  0.00  0.00    -0.012 A 
ATOM      4  C3A BZF d   1       0.246  -0.183   0.293  0.00  0.00    -0.107 A 
ATOM      5  C4  BZF d   1       0.187  -0.883   1.464  0.00  0.00     0.055 A 
ATOM      6  C5  BZF d   1      -0.950  -0.834   2.206  0.00  0.00    -0.016 A 
ATOM      7  C6  BZF d   1      -2.044  -0.092   1.811  0.00  0.00     0.022 A 
ATOM      8  C7  BZF d   1      -2.034   0.615   0.655  0.00  0.00     0.029 A 
ATOM      9  C7A BZF d   1      -0.899   0.541  -0.114  0.00  0.00     0.058 A 
ENDROOT
TORSDOF 0
ENDMDL
