MODEL 1
REMARK minimizedAffinity -4.71213818
REMARK minimizedRMSD -1
REMARK  0 active torsions:
REMARK  status: ('A' for Active; 'I' for Inactive)
ROOT
ATOM      1  O1  BZF d   1       0.994   2.062  -0.122  0.00  0.00    -0.204 OA
ATOM      2  C2  BZF d   1       0.662   2.262   1.204  0.00  0.00     0.174 A 
ATOM      3  C3  BZF d   1       0.321   1.098   1.794  0.00  0.00    -0.012 A 
ATOM      4  C3A BZF d   1       0.536   0.095   0.797  0.00  0.00    -0.107 A 
ATOM      5  C4  BZF d   1       0.390  -1.263   0.785  0.00  0.00     0.055 A 
ATOM      6  C5  BZF d   1       0.614  -1.941  -0.371  0.00  0.00    -0.016 A 
ATOM      7  C6  BZF d   1       0.979  -1.294  -1.533  0.00  0.00     0.022 A 
ATOM      8  C7  BZF d   1       1.141   0.051  -1.569  0.00  0.00     0.029 A 
ATOM      9  C7A BZF d   1       0.948   0.735  -0.395  0.00  0.00     0.058 A 
ENDROOT
TORSDOF 0
ENDMDL
