MODEL 1
REMARK minimizedAffinity 0.89538312
REMARK minimizedRMSD -1
REMARK  0 active torsions:
REMARK  status: ('A' for Active; 'I' for Inactive)
ROOT
ATOM      1  O1  BZF d   1       1.393   1.627  -0.545  0.00  0.00    -0.204 OA
ATOM      2  C2  BZF d   1       2.211   1.299  -1.608  0.00  0.00     0.174 A 
ATOM      3  C3  BZF d   1       2.207  -0.033  -1.821  0.00  0.00    -0.012 A 
ATOM      4  C3A BZF d   1       1.260  -0.561  -0.887  0.00  0.00    -0.107 A 
ATOM      5  C4  BZF d   1       0.805  -1.821  -0.623  0.00  0.00     0.055 A 
ATOM      6  C5  BZF d   1      -0.067  -2.006   0.403  0.00  0.00    -0.016 A 
ATOM      7  C6  BZF d   1      -0.499  -0.957   1.187  0.00  0.00     0.022 A 
ATOM      8  C7  BZF d   1      -0.078   0.311   0.961  0.00  0.00     0.029 A 
ATOM      9  C7A BZF d   1       0.777   0.507  -0.096  0.00  0.00     0.058 A 
ENDROOT
TORSDOF 0
ENDMDL
