MODEL 1
REMARK minimizedAffinity -2.33218336
REMARK minimizedRMSD -1
REMARK  0 active torsions:
REMARK  status: ('A' for Active; 'I' for Inactive)
ROOT
ATOM      1  O1  BZF d   1      -1.388  -0.891  -0.177  0.00  0.00    -0.204 OA
ATOM      2  C2  BZF d   1      -0.079  -0.487  -0.005  0.00  0.00     0.174 A 
ATOM      3  C3  BZF d   1       0.010   0.451   0.960  0.00  0.00    -0.012 A 
ATOM      4  C3A BZF d   1      -1.316   0.579   1.484  0.00  0.00    -0.107 A 
ATOM      5  C4  BZF d   1      -1.865   1.343   2.474  0.00  0.00     0.055 A 
ATOM      6  C5  BZF d   1      -3.206   1.284   2.687  0.00  0.00    -0.016 A 
ATOM      7  C6  BZF d   1      -4.027   0.477   1.926  0.00  0.00     0.022 A 
ATOM      8  C7  BZF d   1      -3.527  -0.303   0.936  0.00  0.00     0.029 A 
ATOM      9  C7A BZF d   1      -2.168  -0.270   0.740  0.00  0.00     0.058 A 
ENDROOT
TORSDOF 0
ENDMDL
