MODEL 1
REMARK minimizedAffinity -5.298172
REMARK minimizedRMSD -1
REMARK  0 active torsions:
REMARK  status: ('A' for Active; 'I' for Inactive)
ROOT
ATOM      1  O1  BZF d   1      -2.946  -0.006   1.540  0.00  0.00    -0.204 OA
ATOM      2  C2  BZF d   1      -3.943   0.343   0.649  0.00  0.00     0.174 A 
ATOM      3  C3  BZF d   1      -3.416   0.805  -0.503  0.00  0.00    -0.012 A 
ATOM      4  C3A BZF d   1      -2.001   0.654  -0.356  0.00  0.00    -0.107 A 
ATOM      5  C4  BZF d   1      -0.939   0.923  -1.171  0.00  0.00     0.055 A 
ATOM      6  C5  BZF d   1       0.321   0.729  -0.700  0.00  0.00    -0.016 A 
ATOM      7  C6  BZF d   1       0.555   0.274   0.582  0.00  0.00     0.022 A 
ATOM      8  C7  BZF d   1      -0.467  -0.011   1.425  0.00  0.00     0.029 A 
ATOM      9  C7A BZF d   1      -1.741   0.153   0.941  0.00  0.00     0.058 A 
ENDROOT
TORSDOF 0
ENDMDL
