MODEL 1
REMARK minimizedAffinity -2.56456852
REMARK minimizedRMSD -1
REMARK  1 active torsions:
REMARK  status: ('A' for Active; 'I' for Inactive)
REMARK    1  A    between atoms: C1_2  and  C2_3 
ROOT
ATOM      1  C2  UNL d   1      -0.944   0.262  -0.735  0.00  0.00    -0.077 A 
ATOM      2  C3  UNL d   1       0.004   1.290  -0.635  0.00  0.00     0.002 A 
ATOM      3  C4  UNL d   1       1.036   1.210   0.303  0.00  0.00     0.002 A 
ATOM      4  C5  UNL d   1       1.132   0.102   1.143  0.00  0.00    -0.004 A 
ATOM      5  C6  UNL d   1       0.192  -0.924   1.052  0.00  0.00     0.002 A 
ATOM      6  C7  UNL d   1      -0.840  -0.845   0.117  0.00  0.00     0.002 A 
ENDROOT
BRANCH   1   7
ATOM      7  C1  UNL d   1      -2.029   0.323  -1.779  0.00  0.00     0.055 C 
ATOM      8  C   UNL d   1      -1.948  -0.860  -2.732  0.00  0.00     0.019 C 
ENDBRANCH   1   7
TORSDOF 1
ENDMDL
