MODEL 1
REMARK minimizedAffinity -2.31725192
REMARK minimizedRMSD -1
REMARK  1 active torsions:
REMARK  status: ('A' for Active; 'I' for Inactive)
REMARK    1  A    between atoms: C1_2  and  C2_3 
ROOT
ATOM      1  C2  UNL d   1      -0.374  -0.443  -0.337  0.00  0.00    -0.077 A 
ATOM      2  C3  UNL d   1      -0.346   0.879   0.129  0.00  0.00     0.002 A 
ATOM      3  C4  UNL d   1       0.844   1.439   0.597  0.00  0.00     0.002 A 
ATOM      4  C5  UNL d   1       2.016   0.685   0.600  0.00  0.00    -0.004 A 
ATOM      5  C6  UNL d   1       1.998  -0.632   0.141  0.00  0.00     0.002 A 
ATOM      6  C7  UNL d   1       0.809  -1.193  -0.326  0.00  0.00     0.002 A 
ENDROOT
BRANCH   1   7
ATOM      7  C1  UNL d   1      -1.646  -1.032  -0.888  0.00  0.00     0.055 C 
ATOM      8  C   UNL d   1      -2.143  -0.247  -2.093  0.00  0.00     0.019 C 
ENDBRANCH   1   7
TORSDOF 1
ENDMDL
