MODEL 1
REMARK minimizedAffinity -3.87267208
REMARK minimizedRMSD -1
REMARK  1 active torsions:
REMARK  status: ('A' for Active; 'I' for Inactive)
REMARK    1  A    between atoms: C1_2  and  C2_3 
ROOT
ATOM      1  C2  UNL d   1      -1.912   0.429  -0.777  0.00  0.00    -0.077 A 
ATOM      2  C3  UNL d   1      -0.668   1.077  -0.793  0.00  0.00     0.002 A 
ATOM      3  C4  UNL d   1       0.303   0.763   0.160  0.00  0.00     0.002 A 
ATOM      4  C5  UNL d   1       0.044  -0.201   1.131  0.00  0.00    -0.004 A 
ATOM      5  C6  UNL d   1      -1.191  -0.849   1.157  0.00  0.00     0.002 A 
ATOM      6  C7  UNL d   1      -2.164  -0.536   0.207  0.00  0.00     0.002 A 
ENDROOT
BRANCH   1   7
ATOM      7  C1  UNL d   1      -2.943   0.730  -1.833  0.00  0.00     0.055 C 
ATOM      8  C   UNL d   1      -2.570   0.099  -3.166  0.00  0.00     0.019 C 
ENDBRANCH   1   7
TORSDOF 1
ENDMDL
