MODEL 1
REMARK minimizedAffinity -4.14910841
REMARK minimizedRMSD -1
REMARK  1 active torsions:
REMARK  status: ('A' for Active; 'I' for Inactive)
REMARK    1  A    between atoms: C1_2  and  C2_3 
ROOT
ATOM      1  C2  UNL d   1      -0.333   0.427  -0.241  0.00  0.00    -0.077 A 
ATOM      2  C3  UNL d   1       0.364   1.582  -0.622  0.00  0.00     0.002 A 
ATOM      3  C4  UNL d   1       1.719   1.722  -0.317  0.00  0.00     0.002 A 
ATOM      4  C5  UNL d   1       2.389   0.708   0.365  0.00  0.00    -0.004 A 
ATOM      5  C6  UNL d   1       1.704  -0.444   0.750  0.00  0.00     0.002 A 
ATOM      6  C7  UNL d   1       0.349  -0.584   0.447  0.00  0.00     0.002 A 
ENDROOT
BRANCH   1   7
ATOM      7  C1  UNL d   1      -1.783   0.253  -0.612  0.00  0.00     0.055 C 
ATOM      8  C   UNL d   1      -2.149   1.095  -1.826  0.00  0.00     0.019 C 
ENDBRANCH   1   7
TORSDOF 1
ENDMDL
