MODEL 1
REMARK minimizedAffinity -1.03827453
REMARK minimizedRMSD -1
REMARK  0 active torsions:
REMARK  status: ('A' for Active; 'I' for Inactive)
ROOT
ATOM      1  C   UNL d   1      -4.928   1.882   0.361  0.00  0.00     0.077 C 
ATOM      2  C1  UNL d   1      -3.468   1.565   0.484  0.00  0.00    -0.074 A 
ATOM      3  C2  UNL d   1      -3.031   0.470   1.237  0.00  0.00    -0.005 A 
ATOM      4  C3  UNL d   1      -1.670   0.181   1.334  0.00  0.00     0.006 A 
ATOM      5  C4  UNL d   1      -0.733   0.984   0.682  0.00  0.00    -0.005 A 
ATOM      6  C5  UNL d   1      -1.151   2.082  -0.076  0.00  0.00    -0.074 A 
ATOM      7  C6  UNL d   1      -0.158   2.949  -0.792  0.00  0.00     0.077 C 
ATOM      8  C7  UNL d   1      -2.521   2.361  -0.175  0.00  0.00    -0.001 A 
ENDROOT
TORSDOF 0
ENDMDL
