MODEL 1
REMARK minimizedAffinity 6.48020077
REMARK minimizedRMSD -1
REMARK  0 active torsions:
REMARK  status: ('A' for Active; 'I' for Inactive)
ROOT
ATOM      1  C   UNL d   1      -3.064   2.430  -0.395  0.00  0.00     0.077 C 
ATOM      2  C1  UNL d   1      -1.570   2.536  -0.480  0.00  0.00    -0.074 A 
ATOM      3  C2  UNL d   1      -0.764   1.394  -0.418  0.00  0.00    -0.005 A 
ATOM      4  C3  UNL d   1       0.623   1.507  -0.509  0.00  0.00     0.006 A 
ATOM      5  C4  UNL d   1       1.217   2.761  -0.661  0.00  0.00    -0.005 A 
ATOM      6  C5  UNL d   1       0.427   3.913  -0.726  0.00  0.00    -0.074 A 
ATOM      7  C6  UNL d   1       1.049   5.267  -0.899  0.00  0.00     0.077 C 
ATOM      8  C7  UNL d   1      -0.966   3.790  -0.641  0.00  0.00    -0.001 A 
ENDROOT
TORSDOF 0
ENDMDL
