MODEL 1
REMARK minimizedAffinity -3.59850836
REMARK minimizedRMSD -1
REMARK  0 active torsions:
REMARK  status: ('A' for Active; 'I' for Inactive)
ROOT
ATOM      1  C   UNL d   1       1.347   1.789   0.743  0.00  0.00     0.077 C 
ATOM      2  C1  UNL d   1      -0.078   1.361   0.552  0.00  0.00    -0.074 A 
ATOM      3  C2  UNL d   1      -1.113   2.301   0.523  0.00  0.00    -0.005 A 
ATOM      4  C3  UNL d   1      -2.433   1.888   0.336  0.00  0.00     0.006 A 
ATOM      5  C4  UNL d   1      -2.729   0.534   0.176  0.00  0.00    -0.005 A 
ATOM      6  C5  UNL d   1      -1.707  -0.420   0.202  0.00  0.00    -0.074 A 
ATOM      7  C6  UNL d   1      -2.008  -1.878   0.022  0.00  0.00     0.077 C 
ATOM      8  C7  UNL d   1      -0.383   0.003   0.384  0.00  0.00    -0.001 A 
ENDROOT
TORSDOF 0
ENDMDL
