MODEL 1
REMARK minimizedAffinity -2.33396149
REMARK minimizedRMSD -1
REMARK  0 active torsions:
REMARK  status: ('A' for Active; 'I' for Inactive)
ROOT
ATOM      1  C   UNL d   1      -4.382   1.930   0.043  0.00  0.00     0.077 C 
ATOM      2  C1  UNL d   1      -2.949   1.582   0.318  0.00  0.00    -0.074 A 
ATOM      3  C2  UNL d   1      -2.617   0.548   1.199  0.00  0.00    -0.005 A 
ATOM      4  C3  UNL d   1      -1.280   0.229   1.437  0.00  0.00     0.006 A 
ATOM      5  C4  UNL d   1      -0.264   0.942   0.799  0.00  0.00    -0.005 A 
ATOM      6  C5  UNL d   1      -0.577   1.979  -0.085  0.00  0.00    -0.074 A 
ATOM      7  C6  UNL d   1       0.503   2.748  -0.786  0.00  0.00     0.077 C 
ATOM      8  C7  UNL d   1      -1.923   2.288  -0.325  0.00  0.00    -0.001 A 
ENDROOT
TORSDOF 0
ENDMDL
