MODEL 1
REMARK minimizedAffinity -0.287072867
REMARK minimizedRMSD -1
REMARK  0 active torsions:
REMARK  status: ('A' for Active; 'I' for Inactive)
ROOT
ATOM      1  C   UNL d   1      -2.346  -0.447   1.133  0.00  0.00     0.077 C 
ATOM      2  C1  UNL d   1      -1.713   0.569   0.229  0.00  0.00    -0.074 A 
ATOM      3  C2  UNL d   1      -2.402   1.729  -0.142  0.00  0.00    -0.005 A 
ATOM      4  C3  UNL d   1      -1.797   2.669  -0.976  0.00  0.00     0.006 A 
ATOM      5  C4  UNL d   1      -0.500   2.460  -1.447  0.00  0.00    -0.005 A 
ATOM      6  C5  UNL d   1       0.204   1.306  -1.086  0.00  0.00    -0.074 A 
ATOM      7  C6  UNL d   1       1.602   1.071  -1.575  0.00  0.00     0.077 C 
ATOM      8  C7  UNL d   1      -0.408   0.370  -0.241  0.00  0.00    -0.001 A 
ENDROOT
TORSDOF 0
ENDMDL
