MODEL 1
REMARK minimizedAffinity 0.381159574
REMARK minimizedRMSD -1
REMARK  0 active torsions:
REMARK  status: ('A' for Active; 'I' for Inactive)
ROOT
ATOM      1  C   UNL d   1      -3.190   2.282  -0.473  0.00  0.00     0.077 C 
ATOM      2  C1  UNL d   1      -2.037   1.738   0.316  0.00  0.00    -0.074 A 
ATOM      3  C2  UNL d   1      -0.968   1.100  -0.321  0.00  0.00    -0.005 A 
ATOM      4  C3  UNL d   1       0.103   0.607   0.425  0.00  0.00     0.006 A 
ATOM      5  C4  UNL d   1       0.115   0.747   1.813  0.00  0.00    -0.005 A 
ATOM      6  C5  UNL d   1      -0.944   1.383   2.467  0.00  0.00    -0.074 A 
ATOM      7  C6  UNL d   1      -0.942   1.551   3.958  0.00  0.00     0.077 C 
ATOM      8  C7  UNL d   1      -2.013   1.882   1.710  0.00  0.00    -0.001 A 
ENDROOT
TORSDOF 0
ENDMDL
