MODEL 1
REMARK minimizedAffinity 6.52247858
REMARK minimizedRMSD -1
REMARK  0 active torsions:
REMARK  status: ('A' for Active; 'I' for Inactive)
ROOT
ATOM      1  C   UNL d   1      -3.628   0.358   0.095  0.00  0.00     0.077 C 
ATOM      2  C1  UNL d   1      -2.211   0.726   0.424  0.00  0.00    -0.074 A 
ATOM      3  C2  UNL d   1      -1.375   1.296  -0.541  0.00  0.00    -0.005 A 
ATOM      4  C3  UNL d   1      -0.062   1.642  -0.217  0.00  0.00     0.006 A 
ATOM      5  C4  UNL d   1       0.425   1.421   1.071  0.00  0.00    -0.005 A 
ATOM      6  C5  UNL d   1      -0.397   0.853   2.049  0.00  0.00    -0.074 A 
ATOM      7  C6  UNL d   1       0.108   0.618   3.441  0.00  0.00     0.077 C 
ATOM      8  C7  UNL d   1      -1.717   0.514   1.718  0.00  0.00    -0.001 A 
ENDROOT
TORSDOF 0
ENDMDL
