MODEL 1
REMARK minimizedAffinity 2.86259389
REMARK minimizedRMSD -1
REMARK  0 active torsions:
REMARK  status: ('A' for Active; 'I' for Inactive)
ROOT
ATOM      1  C   UNL d   1       0.934   2.386   0.413  0.00  0.00     0.077 C 
ATOM      2  C1  UNL d   1      -0.370   1.645   0.417  0.00  0.00    -0.074 A 
ATOM      3  C2  UNL d   1      -0.452   0.336   0.901  0.00  0.00    -0.005 A 
ATOM      4  C3  UNL d   1      -1.673  -0.337   0.907  0.00  0.00     0.006 A 
ATOM      5  C4  UNL d   1      -2.824   0.291   0.429  0.00  0.00    -0.005 A 
ATOM      6  C5  UNL d   1      -2.762   1.600  -0.059  0.00  0.00    -0.074 A 
ATOM      7  C6  UNL d   1      -3.991   2.293  -0.567  0.00  0.00     0.077 C 
ATOM      8  C7  UNL d   1      -1.532   2.272  -0.055  0.00  0.00    -0.001 A 
ENDROOT
TORSDOF 0
ENDMDL
