MODEL 1
REMARK minimizedAffinity -3.0059967
REMARK minimizedRMSD -1
REMARK  0 active torsions:
REMARK  status: ('A' for Active; 'I' for Inactive)
ROOT
ATOM      1  C   UNL d   1      -0.678   2.258  -0.034  0.00  0.00     0.077 C 
ATOM      2  C1  UNL d   1       0.704   1.817   0.345  0.00  0.00    -0.074 A 
ATOM      3  C2  UNL d   1       1.012   1.469   1.664  0.00  0.00    -0.005 A 
ATOM      4  C3  UNL d   1       2.300   1.052   1.999  0.00  0.00     0.006 A 
ATOM      5  C4  UNL d   1       3.292   0.979   1.020  0.00  0.00    -0.005 A 
ATOM      6  C5  UNL d   1       3.003   1.323  -0.305  0.00  0.00    -0.074 A 
ATOM      7  C6  UNL d   1       4.055   1.241  -1.371  0.00  0.00     0.077 C 
ATOM      8  C7  UNL d   1       1.704   1.734  -0.635  0.00  0.00    -0.001 A 
ENDROOT
TORSDOF 0
ENDMDL
