MODEL 1
REMARK minimizedAffinity 0.583972692
REMARK minimizedRMSD -1
REMARK  0 active torsions:
REMARK  status: ('A' for Active; 'I' for Inactive)
ROOT
ATOM      1  C   UNL d   1      -3.094  -0.128   0.988  0.00  0.00     0.077 C 
ATOM      2  C1  UNL d   1      -2.064   0.934   0.739  0.00  0.00    -0.074 A 
ATOM      3  C2  UNL d   1      -2.443   2.233   0.386  0.00  0.00    -0.005 A 
ATOM      4  C3  UNL d   1      -1.474   3.213   0.167  0.00  0.00     0.006 A 
ATOM      5  C4  UNL d   1      -0.120   2.904   0.300  0.00  0.00    -0.005 A 
ATOM      6  C5  UNL d   1       0.277   1.610   0.654  0.00  0.00    -0.074 A 
ATOM      7  C6  UNL d   1       1.728   1.264   0.810  0.00  0.00     0.077 C 
ATOM      8  C7  UNL d   1      -0.702   0.633   0.878  0.00  0.00    -0.001 A 
ENDROOT
TORSDOF 0
ENDMDL
