MODEL 1
REMARK minimizedAffinity 1.32862055
REMARK minimizedRMSD -1
REMARK  0 active torsions:
REMARK  status: ('A' for Active; 'I' for Inactive)
ROOT
ATOM      1  C   UNL d   1      -3.020   2.177  -0.520  0.00  0.00     0.077 C 
ATOM      2  C1  UNL d   1      -1.747   1.598   0.020  0.00  0.00    -0.074 A 
ATOM      3  C2  UNL d   1      -0.513   1.902  -0.565  0.00  0.00    -0.005 A 
ATOM      4  C3  UNL d   1       0.664   1.363  -0.046  0.00  0.00     0.006 A 
ATOM      5  C4  UNL d   1       0.620   0.516   1.062  0.00  0.00    -0.005 A 
ATOM      6  C5  UNL d   1      -0.604   0.201   1.661  0.00  0.00    -0.074 A 
ATOM      7  C6  UNL d   1      -0.668  -0.700   2.858  0.00  0.00     0.077 C 
ATOM      8  C7  UNL d   1      -1.782   0.752   1.138  0.00  0.00    -0.001 A 
ENDROOT
TORSDOF 0
ENDMDL
