MODEL 1
REMARK minimizedAffinity 1.97003543
REMARK minimizedRMSD -1
REMARK  0 active torsions:
REMARK  status: ('A' for Active; 'I' for Inactive)
ROOT
ATOM      1  C   UNL d   1      -5.236   2.250  -0.005  0.00  0.00     0.077 C 
ATOM      2  C1  UNL d   1      -3.932   1.662   0.448  0.00  0.00    -0.074 A 
ATOM      3  C2  UNL d   1      -3.897   0.486   1.203  0.00  0.00    -0.005 A 
ATOM      4  C3  UNL d   1      -2.677  -0.054   1.609  0.00  0.00     0.006 A 
ATOM      5  C4  UNL d   1      -1.481   0.576   1.264  0.00  0.00    -0.005 A 
ATOM      6  C5  UNL d   1      -1.495   1.753   0.509  0.00  0.00    -0.074 A 
ATOM      7  C6  UNL d   1      -0.218   2.438   0.122  0.00  0.00     0.077 C 
ATOM      8  C7  UNL d   1      -2.725   2.285   0.099  0.00  0.00    -0.001 A 
ENDROOT
TORSDOF 0
ENDMDL
