MODEL 1
REMARK minimizedAffinity -0.0462793671
REMARK minimizedRMSD -1
REMARK  0 active torsions:
REMARK  status: ('A' for Active; 'I' for Inactive)
ROOT
ATOM      1  C   UNL d   1      -0.982  -1.487   2.184  0.00  0.00     0.077 C 
ATOM      2  C1  UNL d   1      -1.042  -0.226   1.375  0.00  0.00    -0.074 A 
ATOM      3  C2  UNL d   1       0.127   0.417   0.957  0.00  0.00    -0.005 A 
ATOM      4  C3  UNL d   1       0.055   1.584   0.197  0.00  0.00     0.006 A 
ATOM      5  C4  UNL d   1      -1.185   2.120  -0.153  0.00  0.00    -0.005 A 
ATOM      6  C5  UNL d   1      -2.366   1.490   0.255  0.00  0.00    -0.074 A 
ATOM      7  C6  UNL d   1      -3.707   2.046  -0.120  0.00  0.00     0.077 C 
ATOM      8  C7  UNL d   1      -2.285   0.314   1.013  0.00  0.00    -0.001 A 
ENDROOT
TORSDOF 0
ENDMDL
