MODEL 1
REMARK minimizedAffinity 3.52662063
REMARK minimizedRMSD -1
REMARK  0 active torsions:
REMARK  status: ('A' for Active; 'I' for Inactive)
ROOT
ATOM      1  C   UNL d   1      -1.165   2.882   2.967  0.00  0.00     0.077 C 
ATOM      2  C1  UNL d   1      -0.192   2.329   1.968  0.00  0.00    -0.074 A 
ATOM      3  C2  UNL d   1      -0.634   1.782   0.760  0.00  0.00    -0.005 A 
ATOM      4  C3  UNL d   1       0.283   1.281  -0.163  0.00  0.00     0.006 A 
ATOM      5  C4  UNL d   1       1.650   1.320   0.112  0.00  0.00    -0.005 A 
ATOM      6  C5  UNL d   1       2.112   1.864   1.316  0.00  0.00    -0.074 A 
ATOM      7  C6  UNL d   1       3.579   1.924   1.623  0.00  0.00     0.077 C 
ATOM      8  C7  UNL d   1       1.184   2.373   2.235  0.00  0.00    -0.001 A 
ENDROOT
TORSDOF 0
ENDMDL
