MODEL 1
REMARK minimizedAffinity 2.35078597
REMARK minimizedRMSD -1
REMARK  0 active torsions:
REMARK  status: ('A' for Active; 'I' for Inactive)
ROOT
ATOM      1  C   UNL d   1      -1.349   3.234   3.339  0.00  0.00     0.077 C 
ATOM      2  C1  UNL d   1      -0.128   2.788   2.591  0.00  0.00    -0.074 A 
ATOM      3  C2  UNL d   1       1.153   3.115   3.046  0.00  0.00    -0.005 A 
ATOM      4  C3  UNL d   1       2.280   2.685   2.345  0.00  0.00     0.006 A 
ATOM      5  C4  UNL d   1       2.137   1.925   1.184  0.00  0.00    -0.005 A 
ATOM      6  C5  UNL d   1       0.864   1.587   0.714  0.00  0.00    -0.074 A 
ATOM      7  C6  UNL d   1       0.693   0.762  -0.527  0.00  0.00     0.077 C 
ATOM      8  C7  UNL d   1      -0.263   2.017   1.428  0.00  0.00    -0.001 A 
ENDROOT
TORSDOF 0
ENDMDL
