MODEL 1
REMARK minimizedAffinity 8.0280714
REMARK minimizedRMSD -1
REMARK  0 active torsions:
REMARK  status: ('A' for Active; 'I' for Inactive)
ROOT
ATOM      1  C   UNL d   1       3.792   2.200   1.648  0.00  0.00     0.077 C 
ATOM      2  C1  UNL d   1       2.316   2.038   1.436  0.00  0.00    -0.074 A 
ATOM      3  C2  UNL d   1       1.821   1.161   0.466  0.00  0.00    -0.005 A 
ATOM      4  C3  UNL d   1       0.446   1.014   0.287  0.00  0.00     0.006 A 
ATOM      5  C4  UNL d   1      -0.447   1.741   1.075  0.00  0.00    -0.005 A 
ATOM      6  C5  UNL d   1       0.030   2.622   2.051  0.00  0.00    -0.074 A 
ATOM      7  C6  UNL d   1      -0.916   3.404   2.913  0.00  0.00     0.077 C 
ATOM      8  C7  UNL d   1       1.413   2.759   2.229  0.00  0.00    -0.001 A 
ENDROOT
TORSDOF 0
ENDMDL
