MODEL 1
REMARK minimizedAffinity -1.4364152
REMARK minimizedRMSD -1
REMARK  0 active torsions:
REMARK  status: ('A' for Active; 'I' for Inactive)
ROOT
ATOM      1  C   UNL d   1      -0.032   3.375   3.375  0.00  0.00     0.077 C 
ATOM      2  C1  UNL d   1       0.499   2.467   2.305  0.00  0.00    -0.074 A 
ATOM      3  C2  UNL d   1       1.875   2.305   2.118  0.00  0.00    -0.005 A 
ATOM      4  C3  UNL d   1       2.354   1.450   1.125  0.00  0.00     0.006 A 
ATOM      5  C4  UNL d   1       1.463   0.750   0.311  0.00  0.00    -0.005 A 
ATOM      6  C5  UNL d   1       0.083   0.899   0.485  0.00  0.00    -0.074 A 
ATOM      7  C6  UNL d   1      -0.889   0.146  -0.375  0.00  0.00     0.077 C 
ATOM      8  C7  UNL d   1      -0.390   1.754   1.489  0.00  0.00    -0.001 A 
ENDROOT
TORSDOF 0
ENDMDL
