MODEL 1
REMARK minimizedAffinity 6.99875593
REMARK minimizedRMSD -1
REMARK  2 active torsions:
REMARK  status: ('A' for Active; 'I' for Inactive)
REMARK    1  A    between atoms: C2'_3  and  C1'_4 
REMARK    2  A    between atoms: C1'_4  and  C1_5 
ROOT
ATOM      1  C1  I4B d   1       0.786   1.333   0.675  0.00  0.00    -0.075 A 
ATOM      2  C2  I4B d   1      -0.007   0.236   0.905  0.00  0.00     0.003 A 
ATOM      3  C3  I4B d   1       0.510  -1.069   0.719  0.00  0.00     0.002 A 
ATOM      4  C4  I4B d   1       1.800  -1.229   0.257  0.00  0.00    -0.004 A 
ATOM      5  C5  I4B d   1       2.610  -0.117   0.046  0.00  0.00     0.002 A 
ATOM      6  C6  I4B d   1       2.104   1.172   0.268  0.00  0.00     0.003 A 
ENDROOT
BRANCH   1   7
ATOM      7  C1' I4B d   1       0.198   2.697   0.849  0.00  0.00     0.060 C 
BRANCH   7   8
ATOM      8  C2' I4B d   1      -0.573   3.037  -0.410  0.00  0.00    -0.013 C 
ATOM      9  C4' I4B d   1      -2.035   3.247  -0.115  0.00  0.00     0.013 C 
ATOM     10  C3' I4B d   1       0.040   4.268  -1.010  0.00  0.00     0.013 C 
ENDBRANCH   7   8
ENDBRANCH   1   7
TORSDOF 2
ENDMDL
