MODEL 1
REMARK minimizedAffinity 10.3064089
REMARK minimizedRMSD -1
REMARK  2 active torsions:
REMARK  status: ('A' for Active; 'I' for Inactive)
REMARK    1  A    between atoms: C2'_3  and  C1'_4 
REMARK    2  A    between atoms: C1'_4  and  C1_5 
ROOT
ATOM      1  C1  I4B d   1      -1.785   0.708   2.164  0.00  0.00    -0.075 A 
ATOM      2  C2  I4B d   1      -2.934   1.054   1.497  0.00  0.00     0.003 A 
ATOM      3  C3  I4B d   1      -2.962   2.205   0.674  0.00  0.00     0.002 A 
ATOM      4  C4  I4B d   1      -1.841   3.005   0.586  0.00  0.00    -0.004 A 
ATOM      5  C5  I4B d   1      -0.670   2.640   1.244  0.00  0.00     0.002 A 
ATOM      6  C6  I4B d   1      -0.637   1.478   2.028  0.00  0.00     0.003 A 
ENDROOT
BRANCH   1   7
ATOM      7  C1' I4B d   1      -1.801  -0.496   3.051  0.00  0.00     0.060 C 
BRANCH   7   8
ATOM      8  C2' I4B d   1      -1.256  -1.667   2.259  0.00  0.00    -0.013 C 
ATOM      9  C4' I4B d   1      -0.998  -2.854   3.149  0.00  0.00     0.013 C 
ATOM     10  C3' I4B d   1      -2.248  -2.001   1.185  0.00  0.00     0.013 C 
ENDBRANCH   7   8
ENDBRANCH   1   7
TORSDOF 2
ENDMDL
