MODEL 1
REMARK minimizedAffinity 6.00786686
REMARK minimizedRMSD -1
REMARK  2 active torsions:
REMARK  status: ('A' for Active; 'I' for Inactive)
REMARK    1  A    between atoms: C2'_3  and  C1'_4 
REMARK    2  A    between atoms: C1'_4  and  C1_5 
ROOT
ATOM      1  C1  I4B d   1       1.168   2.500   0.618  0.00  0.00    -0.075 A 
ATOM      2  C2  I4B d   1       0.146   3.361   0.305  0.00  0.00     0.003 A 
ATOM      3  C3  I4B d   1      -1.193   2.903   0.292  0.00  0.00     0.002 A 
ATOM      4  C4  I4B d   1      -1.459   1.573   0.547  0.00  0.00    -0.004 A 
ATOM      5  C5  I4B d   1      -0.424   0.707   0.887  0.00  0.00     0.002 A 
ATOM      6  C6  I4B d   1       0.897   1.176   0.935  0.00  0.00     0.003 A 
ENDROOT
BRANCH   1   7
ATOM      7  C1' I4B d   1       2.574   3.010   0.590  0.00  0.00     0.060 C 
BRANCH   7   8
ATOM      8  C2' I4B d   1       3.448   2.010   1.320  0.00  0.00    -0.013 C 
ATOM      9  C4' I4B d   1       4.743   1.781   0.587  0.00  0.00     0.013 C 
ATOM     10  C3' I4B d   1       3.693   2.533   2.704  0.00  0.00     0.013 C 
ENDBRANCH   7   8
ENDBRANCH   1   7
TORSDOF 2
ENDMDL
