MODEL 1
REMARK minimizedAffinity 7.73120117
REMARK minimizedRMSD -1
REMARK  2 active torsions:
REMARK  status: ('A' for Active; 'I' for Inactive)
REMARK    1  A    between atoms: C2'_3  and  C1'_4 
REMARK    2  A    between atoms: C1'_4  and  C1_5 
ROOT
ATOM      1  C1  I4B d   1      -5.888   3.622  -1.154  0.00  0.00    -0.075 A 
ATOM      2  C2  I4B d   1      -5.885   3.328  -2.495  0.00  0.00     0.003 A 
ATOM      3  C3  I4B d   1      -5.907   4.370  -3.453  0.00  0.00     0.002 A 
ATOM      4  C4  I4B d   1      -5.981   5.682  -3.029  0.00  0.00    -0.004 A 
ATOM      5  C5  I4B d   1      -5.960   5.979  -1.670  0.00  0.00     0.002 A 
ATOM      6  C6  I4B d   1      -5.901   4.943  -0.726  0.00  0.00     0.003 A 
ENDROOT
BRANCH   1   7
ATOM      7  C1' I4B d   1      -5.898   2.496  -0.169  0.00  0.00     0.060 C 
BRANCH   7   8
ATOM      8  C2' I4B d   1      -4.646   1.672  -0.389  0.00  0.00    -0.013 C 
ATOM      9  C4' I4B d   1      -3.412   2.438   0.011  0.00  0.00     0.013 C 
ATOM     10  C3' I4B d   1      -4.779   0.406   0.404  0.00  0.00     0.013 C 
ENDBRANCH   7   8
ENDBRANCH   1   7
TORSDOF 2
ENDMDL
