MODEL 1
REMARK minimizedAffinity 1.68929398
REMARK minimizedRMSD -1
REMARK  2 active torsions:
REMARK  status: ('A' for Active; 'I' for Inactive)
REMARK    1  A    between atoms: C2'_3  and  C1'_4 
REMARK    2  A    between atoms: C1'_4  and  C1_5 
ROOT
ATOM      1  C1  I4B d   1       1.228   1.919   0.551  0.00  0.00    -0.075 A 
ATOM      2  C2  I4B d   1       0.798   3.092  -0.016  0.00  0.00     0.003 A 
ATOM      3  C3  I4B d   1      -0.579   3.424  -0.008  0.00  0.00     0.002 A 
ATOM      4  C4  I4B d   1      -1.489   2.537   0.528  0.00  0.00    -0.004 A 
ATOM      5  C5  I4B d   1      -1.048   1.358   1.123  0.00  0.00     0.002 A 
ATOM      6  C6  I4B d   1       0.320   1.053   1.146  0.00  0.00     0.003 A 
ENDROOT
BRANCH   1   7
ATOM      7  C1' I4B d   1       2.685   1.584   0.497  0.00  0.00     0.060 C 
BRANCH   7   8
ATOM      8  C2' I4B d   1       3.444   2.686   1.208  0.00  0.00    -0.013 C 
ATOM      9  C4' I4B d   1       3.780   2.293   2.622  0.00  0.00     0.013 C 
ATOM     10  C3' I4B d   1       4.685   2.978   0.418  0.00  0.00     0.013 C 
ENDBRANCH   7   8
ENDBRANCH   1   7
TORSDOF 2
ENDMDL
