MODEL 1
REMARK minimizedAffinity 0.526810348
REMARK minimizedRMSD -1
REMARK  2 active torsions:
REMARK  status: ('A' for Active; 'I' for Inactive)
REMARK    1  A    between atoms: C2'_3  and  C1'_4 
REMARK    2  A    between atoms: C1'_4  and  C1_5 
ROOT
ATOM      1  C1  I4B d   1       0.008   2.216   0.679  0.00  0.00    -0.075 A 
ATOM      2  C2  I4B d   1       1.000   3.161   0.606  0.00  0.00     0.003 A 
ATOM      3  C3  I4B d   1       2.354   2.765   0.480  0.00  0.00     0.002 A 
ATOM      4  C4  I4B d   1       2.672   1.423   0.481  0.00  0.00    -0.004 A 
ATOM      5  C5  I4B d   1       1.663   0.466   0.532  0.00  0.00     0.002 A 
ATOM      6  C6  I4B d   1       0.321   0.864   0.619  0.00  0.00     0.003 A 
ENDROOT
BRANCH   1   7
ATOM      7  C1' I4B d   1      -1.408   2.668   0.846  0.00  0.00     0.060 C 
BRANCH   7   8
ATOM      8  C2' I4B d   1      -2.282   1.804  -0.040  0.00  0.00    -0.013 C 
ATOM      9  C4' I4B d   1      -3.741   2.002   0.274  0.00  0.00     0.013 C 
ATOM     10  C3' I4B d   1      -1.983   2.153  -1.468  0.00  0.00     0.013 C 
ENDBRANCH   7   8
ENDBRANCH   1   7
TORSDOF 2
ENDMDL
