MODEL 1
REMARK minimizedAffinity 8.73079872
REMARK minimizedRMSD -1
REMARK  2 active torsions:
REMARK  status: ('A' for Active; 'I' for Inactive)
REMARK    1  A    between atoms: C2'_3  and  C1'_4 
REMARK    2  A    between atoms: C1'_4  and  C1_5 
ROOT
ATOM      1  C1  I4B d   1       1.810   0.527  -0.020  0.00  0.00    -0.075 A 
ATOM      2  C2  I4B d   1       1.597  -0.793   0.290  0.00  0.00     0.003 A 
ATOM      3  C3  I4B d   1       1.653  -1.781  -0.722  0.00  0.00     0.002 A 
ATOM      4  C4  I4B d   1       1.873  -1.402  -2.030  0.00  0.00    -0.004 A 
ATOM      5  C5  I4B d   1       2.112  -0.066  -2.340  0.00  0.00     0.002 A 
ATOM      6  C6  I4B d   1       2.093   0.903  -1.327  0.00  0.00     0.003 A 
ENDROOT
BRANCH   1   7
ATOM      7  C1' I4B d   1       1.711   1.549   1.068  0.00  0.00     0.060 C 
BRANCH   7   8
ATOM      8  C2' I4B d   1       0.314   2.135   1.032  0.00  0.00    -0.013 C 
ATOM      9  C4' I4B d   1      -0.158   2.505   2.413  0.00  0.00     0.013 C 
ATOM     10  C3' I4B d   1       0.338   3.333   0.129  0.00  0.00     0.013 C 
ENDBRANCH   7   8
ENDBRANCH   1   7
TORSDOF 2
ENDMDL
