MODEL 1
REMARK minimizedAffinity 1.73639417
REMARK minimizedRMSD -1
REMARK  2 active torsions:
REMARK  status: ('A' for Active; 'I' for Inactive)
REMARK    1  A    between atoms: C2'_3  and  C1'_4 
REMARK    2  A    between atoms: C1'_4  and  C1_5 
ROOT
ATOM      1  C1  I4B d   1       0.637   2.409   0.946  0.00  0.00    -0.075 A 
ATOM      2  C2  I4B d   1       0.179   3.464   0.197  0.00  0.00     0.003 A 
ATOM      3  C3  I4B d   1      -1.186   3.538  -0.172  0.00  0.00     0.002 A 
ATOM      4  C4  I4B d   1      -2.042   2.517   0.185  0.00  0.00    -0.004 A 
ATOM      5  C5  I4B d   1      -1.582   1.459   0.965  0.00  0.00     0.002 A 
ATOM      6  C6  I4B d   1      -0.237   1.411   1.358  0.00  0.00     0.003 A 
ENDROOT
BRANCH   1   7
ATOM      7  C1' I4B d   1       2.091   2.346   1.290  0.00  0.00     0.060 C 
BRANCH   7   8
ATOM      8  C2' I4B d   1       2.746   1.339   0.366  0.00  0.00    -0.013 C 
ATOM      9  C4' I4B d   1       4.228   1.252   0.616  0.00  0.00     0.013 C 
ATOM     10  C3' I4B d   1       2.082   0.011   0.584  0.00  0.00     0.013 C 
ENDBRANCH   7   8
ENDBRANCH   1   7
TORSDOF 2
ENDMDL
