MODEL 1
REMARK minimizedAffinity 4.4108181
REMARK minimizedRMSD -1
REMARK  2 active torsions:
REMARK  status: ('A' for Active; 'I' for Inactive)
REMARK    1  A    between atoms: C2'_3  and  C1'_4 
REMARK    2  A    between atoms: C1'_4  and  C1_5 
ROOT
ATOM      1  C1  I4B d   1       1.313   3.508   0.321  0.00  0.00    -0.075 A 
ATOM      2  C2  I4B d   1       0.654   4.061  -0.748  0.00  0.00     0.003 A 
ATOM      3  C3  I4B d   1      -0.756   3.967  -0.843  0.00  0.00     0.002 A 
ATOM      4  C4  I4B d   1      -1.457   3.273   0.121  0.00  0.00    -0.004 A 
ATOM      5  C5  I4B d   1      -0.790   2.733   1.217  0.00  0.00     0.002 A 
ATOM      6  C6  I4B d   1       0.602   2.862   1.324  0.00  0.00     0.003 A 
ENDROOT
BRANCH   1   7
ATOM      7  C1' I4B d   1       2.805   3.598   0.373  0.00  0.00     0.060 C 
BRANCH   7   8
ATOM      8  C2' I4B d   1       3.368   2.272  -0.096  0.00  0.00    -0.013 C 
ATOM      9  C4' I4B d   1       4.172   1.606   0.990  0.00  0.00     0.013 C 
ATOM     10  C3' I4B d   1       2.221   1.408  -0.527  0.00  0.00     0.013 C 
ENDBRANCH   7   8
ENDBRANCH   1   7
TORSDOF 2
ENDMDL
