MODEL 1
REMARK minimizedAffinity 5.89711475
REMARK minimizedRMSD -1
REMARK  2 active torsions:
REMARK  status: ('A' for Active; 'I' for Inactive)
REMARK    1  A    between atoms: C2'_3  and  C1'_4 
REMARK    2  A    between atoms: C1'_4  and  C1_5 
ROOT
ATOM      1  C1  I4B d   1       1.087   1.492   0.866  0.00  0.00    -0.075 A 
ATOM      2  C2  I4B d   1       2.425   1.728   0.672  0.00  0.00     0.003 A 
ATOM      3  C3  I4B d   1       3.307   0.653   0.408  0.00  0.00     0.002 A 
ATOM      4  C4  I4B d   1       2.822  -0.639   0.398  0.00  0.00    -0.004 A 
ATOM      5  C5  I4B d   1       1.461  -0.874   0.573  0.00  0.00     0.002 A 
ATOM      6  C6  I4B d   1       0.586   0.198   0.797  0.00  0.00     0.003 A 
ENDROOT
BRANCH   1   7
ATOM      7  C1' I4B d   1       0.188   2.647   1.175  0.00  0.00     0.060 C 
BRANCH   7   8
ATOM      8  C2' I4B d   1      -1.227   2.248   0.811  0.00  0.00    -0.013 C 
ATOM      9  C4' I4B d   1      -2.223   3.268   1.296  0.00  0.00     0.013 C 
ATOM     10  C3' I4B d   1      -1.295   2.090  -0.678  0.00  0.00     0.013 C 
ENDBRANCH   7   8
ENDBRANCH   1   7
TORSDOF 2
ENDMDL
