MODEL 1
REMARK minimizedAffinity 13.7816229
REMARK minimizedRMSD -1
REMARK  2 active torsions:
REMARK  status: ('A' for Active; 'I' for Inactive)
REMARK    1  A    between atoms: C2'_3  and  C1'_4 
REMARK    2  A    between atoms: C1'_4  and  C1_5 
ROOT
ATOM      1  C1  I4B d   1       0.863   2.622   1.263  0.00  0.00    -0.075 A 
ATOM      2  C2  I4B d   1       0.237   3.222   0.199  0.00  0.00     0.003 A 
ATOM      3  C3  I4B d   1      -1.163   3.436   0.224  0.00  0.00     0.002 A 
ATOM      4  C4  I4B d   1      -1.899   2.992   1.304  0.00  0.00    -0.004 A 
ATOM      5  C5  I4B d   1      -1.259   2.405   2.392  0.00  0.00     0.002 A 
ATOM      6  C6  I4B d   1       0.132   2.230   2.377  0.00  0.00     0.003 A 
ENDROOT
BRANCH   1   7
ATOM      7  C1' I4B d   1       2.338   2.382   1.189  0.00  0.00     0.060 C 
BRANCH   7   8
ATOM      8  C2' I4B d   1       2.580   1.274   0.184  0.00  0.00    -0.013 C 
ATOM      9  C4' I4B d   1       3.952   0.676   0.353  0.00  0.00     0.013 C 
ATOM     10  C3' I4B d   1       1.512   0.239   0.370  0.00  0.00     0.013 C 
ENDBRANCH   7   8
ENDBRANCH   1   7
TORSDOF 2
ENDMDL
