MODEL 1
REMARK minimizedAffinity 0.770617604
REMARK minimizedRMSD -1
REMARK  1 active torsions:
REMARK  status: ('A' for Active; 'I' for Inactive)
REMARK    1  A    between atoms: C1_2  and  C2_3 
ROOT
ATOM      1  C2  UNL d   1      -5.511   3.445  -4.495  0.00  0.00    -0.077 A 
ATOM      2  C3  UNL d   1      -4.533   3.613  -5.486  0.00  0.00     0.002 A 
ATOM      3  C4  UNL d   1      -4.049   4.886  -5.791  0.00  0.00     0.002 A 
ATOM      4  C5  UNL d   1      -4.533   6.000  -5.109  0.00  0.00    -0.004 A 
ATOM      5  C6  UNL d   1      -5.508   5.843  -4.123  0.00  0.00     0.002 A 
ATOM      6  C7  UNL d   1      -5.994   4.572  -3.817  0.00  0.00     0.002 A 
ENDROOT
BRANCH   1   7
ATOM      7  C1  UNL d   1      -5.999   2.067  -4.130  0.00  0.00     0.055 C 
ATOM      8  C   UNL d   1      -5.995   1.140  -5.337  0.00  0.00     0.019 C 
ENDBRANCH   1   7
TORSDOF 1
ENDMDL
