MODEL 1
REMARK minimizedAffinity 2.64854121
REMARK minimizedRMSD -1
REMARK  1 active torsions:
REMARK  status: ('A' for Active; 'I' for Inactive)
REMARK    1  A    between atoms: C1_2  and  C2_3 
ROOT
ATOM      1  C2  UNL d   1      -0.542  -2.910  -1.912  0.00  0.00    -0.077 A 
ATOM      2  C3  UNL d   1      -0.310  -1.572  -1.562  0.00  0.00     0.002 A 
ATOM      3  C4  UNL d   1       0.730  -1.240  -0.691  0.00  0.00     0.002 A 
ATOM      4  C5  UNL d   1       1.547  -2.239  -0.166  0.00  0.00    -0.004 A 
ATOM      5  C6  UNL d   1       1.323  -3.572  -0.507  0.00  0.00     0.002 A 
ATOM      6  C7  UNL d   1       0.284  -3.906  -1.376  0.00  0.00     0.002 A 
ENDROOT
BRANCH   1   7
ATOM      7  C1  UNL d   1      -1.632  -3.265  -2.890  0.00  0.00     0.055 C 
ATOM      8  C   UNL d   1      -1.237  -4.458  -3.748  0.00  0.00     0.019 C 
ENDBRANCH   1   7
TORSDOF 1
ENDMDL
