MODEL 1
REMARK minimizedAffinity 1.68542421
REMARK minimizedRMSD -1
REMARK  1 active torsions:
REMARK  status: ('A' for Active; 'I' for Inactive)
REMARK    1  A    between atoms: C1_2  and  C2_3 
ROOT
ATOM      1  C2  UNL d   1       0.858   3.218   0.324  0.00  0.00    -0.077 A 
ATOM      2  C3  UNL d   1      -0.024   2.509   1.151  0.00  0.00     0.002 A 
ATOM      3  C4  UNL d   1       0.358   2.147   2.445  0.00  0.00     0.002 A 
ATOM      4  C5  UNL d   1       1.620   2.493   2.923  0.00  0.00    -0.004 A 
ATOM      5  C6  UNL d   1       2.505   3.196   2.107  0.00  0.00     0.002 A 
ATOM      6  C7  UNL d   1       2.126   3.558   0.813  0.00  0.00     0.002 A 
ENDROOT
BRANCH   1   7
ATOM      7  C1  UNL d   1       0.430   3.652  -1.054  0.00  0.00     0.055 C 
ATOM      8  C   UNL d   1      -0.735   4.629  -0.989  0.00  0.00     0.019 C 
ENDBRANCH   1   7
TORSDOF 1
ENDMDL
