MODEL 1
REMARK minimizedAffinity 0.973432541
REMARK minimizedRMSD -1
REMARK  1 active torsions:
REMARK  status: ('A' for Active; 'I' for Inactive)
REMARK    1  A    between atoms: C1_2  and  C2_3 
ROOT
ATOM      1  C2  UNL d   1      -0.018   2.867   1.517  0.00  0.00    -0.077 A 
ATOM      2  C3  UNL d   1       1.199   2.460   2.081  0.00  0.00     0.002 A 
ATOM      3  C4  UNL d   1       1.218   1.552   3.140  0.00  0.00     0.002 A 
ATOM      4  C5  UNL d   1       0.023   1.039   3.642  0.00  0.00    -0.004 A 
ATOM      5  C6  UNL d   1      -1.193   1.439   3.089  0.00  0.00     0.002 A 
ATOM      6  C7  UNL d   1      -1.213   2.348   2.031  0.00  0.00     0.002 A 
ENDROOT
BRANCH   1   7
ATOM      7  C1  UNL d   1      -0.038   3.809   0.341  0.00  0.00     0.055 C 
ATOM      8  C   UNL d   1      -0.469   3.097  -0.932  0.00  0.00     0.019 C 
ENDBRANCH   1   7
TORSDOF 1
ENDMDL
