MODEL 1
REMARK minimizedAffinity -4.2739439
REMARK minimizedRMSD -1
REMARK  0 active torsions:
REMARK  status: ('A' for Active; 'I' for Inactive)
ROOT
ATOM      1  C   UNL d   1      -0.474   0.646  -0.199  0.00  0.00     0.020 A 
ATOM      2  C1  UNL d   1       0.839   0.193  -0.326  0.00  0.00     0.020 A 
ATOM      3  C2  UNL d   1       1.902   1.090  -0.198  0.00  0.00     0.034 A 
ATOM      4  C3  UNL d   1       1.655   2.443   0.058  0.00  0.00     0.017 A 
ATOM      5  C4  UNL d   1       0.336   2.897   0.185  0.00  0.00     0.017 A 
ATOM      6  C5  UNL d   1      -0.724   1.995   0.056  0.00  0.00     0.034 A 
ATOM      7 Cl   UNL d   1      -0.048   4.552   0.500  0.00  0.00    -0.070 Cl
ATOM      8 Cl1  UNL d   1       3.017   3.496   0.205  0.00  0.00    -0.070 Cl
ENDROOT
TORSDOF 0
ENDMDL
