MODEL 1
REMARK minimizedAffinity -3.75634027
REMARK minimizedRMSD -1
REMARK  0 active torsions:
REMARK  status: ('A' for Active; 'I' for Inactive)
ROOT
ATOM      1  C   UNL d   1      -0.727   1.560  -1.101  0.00  0.00     0.020 A 
ATOM      2  C1  UNL d   1       0.505   1.133  -1.597  0.00  0.00     0.020 A 
ATOM      3  C2  UNL d   1       1.195   0.100  -0.959  0.00  0.00     0.034 A 
ATOM      4  C3  UNL d   1       0.654  -0.509   0.180  0.00  0.00     0.017 A 
ATOM      5  C4  UNL d   1      -0.582  -0.080   0.677  0.00  0.00     0.017 A 
ATOM      6  C5  UNL d   1      -1.269   0.954   0.033  0.00  0.00     0.034 A 
ATOM      7 Cl   UNL d   1      -1.313  -0.783   2.076  0.00  0.00    -0.070 Cl
ATOM      8 Cl1  UNL d   1       1.562  -1.780   0.918  0.00  0.00    -0.070 Cl
ENDROOT
TORSDOF 0
ENDMDL
