MODEL 1
REMARK minimizedAffinity -1.28527284
REMARK minimizedRMSD -1
REMARK  0 active torsions:
REMARK  status: ('A' for Active; 'I' for Inactive)
ROOT
ATOM      1  C   UNL d   1      -1.311   0.312  -2.135  0.00  0.00     0.020 A 
ATOM      2  C1  UNL d   1      -0.011  -0.057  -2.476  0.00  0.00     0.020 A 
ATOM      3  C2  UNL d   1       0.845  -0.578  -1.502  0.00  0.00     0.034 A 
ATOM      4  C3  UNL d   1       0.400  -0.732  -0.184  0.00  0.00     0.017 A 
ATOM      5  C4  UNL d   1      -0.906  -0.361   0.157  0.00  0.00     0.017 A 
ATOM      6  C5  UNL d   1      -1.758   0.160  -0.822  0.00  0.00     0.034 A 
ATOM      7 Cl   UNL d   1      -1.525  -0.522   1.762  0.00  0.00    -0.070 Cl
ATOM      8 Cl1  UNL d   1       1.512  -1.383   0.968  0.00  0.00    -0.070 Cl
ENDROOT
TORSDOF 0
ENDMDL
