MODEL 1
REMARK minimizedAffinity -1.51635909
REMARK minimizedRMSD -1
REMARK  0 active torsions:
REMARK  status: ('A' for Active; 'I' for Inactive)
ROOT
ATOM      1  C   UNL d   1       0.012   3.434  -2.992  0.00  0.00     0.020 A 
ATOM      2  C1  UNL d   1      -0.924   3.779  -3.966  0.00  0.00     0.020 A 
ATOM      3  C2  UNL d   1      -1.963   2.900  -4.279  0.00  0.00     0.034 A 
ATOM      4  C3  UNL d   1      -2.069   1.671  -3.617  0.00  0.00     0.017 A 
ATOM      5  C4  UNL d   1      -1.129   1.326  -2.639  0.00  0.00     0.017 A 
ATOM      6  C5  UNL d   1      -0.091   2.209  -2.330  0.00  0.00     0.034 A 
ATOM      7 Cl   UNL d   1      -1.195  -0.173  -1.780  0.00  0.00    -0.070 Cl
ATOM      8 Cl1  UNL d   1      -3.380   0.633  -4.054  0.00  0.00    -0.070 Cl
ENDROOT
TORSDOF 0
ENDMDL
