MODEL 1
REMARK minimizedAffinity -2.06289577
REMARK minimizedRMSD -1
REMARK  0 active torsions:
REMARK  status: ('A' for Active; 'I' for Inactive)
ROOT
ATOM      1  C   UNL d   1      -1.214   0.875  -2.528  0.00  0.00     0.020 A 
ATOM      2  C1  UNL d   1      -0.274  -0.149  -2.637  0.00  0.00     0.020 A 
ATOM      3  C2  UNL d   1       0.132  -0.848  -1.499  0.00  0.00     0.034 A 
ATOM      4  C3  UNL d   1      -0.403  -0.525  -0.246  0.00  0.00     0.017 A 
ATOM      5  C4  UNL d   1      -1.346   0.503  -0.138  0.00  0.00     0.017 A 
ATOM      6  C5  UNL d   1      -1.749   1.200  -1.281  0.00  0.00     0.034 A 
ATOM      7 Cl   UNL d   1      -2.050   0.959   1.373  0.00  0.00    -0.070 Cl
ATOM      8 Cl1  UNL d   1       0.144  -1.432   1.119  0.00  0.00    -0.070 Cl
ENDROOT
TORSDOF 0
ENDMDL
