MODEL 1
REMARK minimizedAffinity 0.164976731
REMARK minimizedRMSD -1
REMARK  0 active torsions:
REMARK  status: ('A' for Active; 'I' for Inactive)
ROOT
ATOM      1  C   UNL d   1      -1.050  -0.505   0.040  0.00  0.00     0.020 A 
ATOM      2  C1  UNL d   1      -0.017   0.424  -0.074  0.00  0.00     0.020 A 
ATOM      3  C2  UNL d   1       1.254   0.119   0.419  0.00  0.00     0.034 A 
ATOM      4  C3  UNL d   1       1.494  -1.118   1.027  0.00  0.00     0.017 A 
ATOM      5  C4  UNL d   1       0.457  -2.050   1.140  0.00  0.00     0.017 A 
ATOM      6  C5  UNL d   1      -0.814  -1.740   0.645  0.00  0.00     0.034 A 
ATOM      7 Cl   UNL d   1       0.677  -3.598   1.877  0.00  0.00    -0.070 Cl
ATOM      8 Cl1  UNL d   1       3.090  -1.429   1.612  0.00  0.00    -0.070 Cl
ENDROOT
TORSDOF 0
ENDMDL
