MODEL 1
REMARK minimizedAffinity -4.51798868
REMARK minimizedRMSD -1
REMARK  0 active torsions:
REMARK  status: ('A' for Active; 'I' for Inactive)
ROOT
ATOM      1  C   UNL d   1      -0.790   3.259  -3.843  0.00  0.00     0.020 A 
ATOM      2  C1  UNL d   1      -1.541   2.084  -3.850  0.00  0.00     0.020 A 
ATOM      3  C2  UNL d   1      -1.624   1.302  -2.696  0.00  0.00     0.034 A 
ATOM      4  C3  UNL d   1      -0.954   1.693  -1.531  0.00  0.00     0.017 A 
ATOM      5  C4  UNL d   1      -0.200   2.872  -1.525  0.00  0.00     0.017 A 
ATOM      6  C5  UNL d   1      -0.121   3.652  -2.684  0.00  0.00     0.034 A 
ATOM      7 Cl   UNL d   1       0.654   3.420  -0.126  0.00  0.00    -0.070 Cl
ATOM      8 Cl1  UNL d   1      -1.100   0.677  -0.141  0.00  0.00    -0.070 Cl
ENDROOT
TORSDOF 0
ENDMDL
