MODEL 1
REMARK minimizedAffinity -4.36807585
REMARK minimizedRMSD -1
REMARK  0 active torsions:
REMARK  status: ('A' for Active; 'I' for Inactive)
ROOT
ATOM      1  C   UNL d   1       1.667   0.231  -0.467  0.00  0.00     0.020 A 
ATOM      2  C1  UNL d   1       0.308   0.494  -0.301  0.00  0.00     0.020 A 
ATOM      3  C2  UNL d   1      -0.118   1.778   0.044  0.00  0.00     0.034 A 
ATOM      4  C3  UNL d   1       0.816   2.805   0.224  0.00  0.00     0.017 A 
ATOM      5  C4  UNL d   1       2.180   2.540   0.057  0.00  0.00     0.017 A 
ATOM      6  C5  UNL d   1       2.601   1.252  -0.289  0.00  0.00     0.034 A 
ATOM      7 Cl   UNL d   1       3.392   3.755   0.262  0.00  0.00    -0.070 Cl
ATOM      8 Cl1  UNL d   1       0.219   4.369   0.650  0.00  0.00    -0.070 Cl
ENDROOT
TORSDOF 0
ENDMDL
