MODEL 1
REMARK minimizedAffinity 3.00347257
REMARK minimizedRMSD -1
REMARK  0 active torsions:
REMARK  status: ('A' for Active; 'I' for Inactive)
ROOT
ATOM      1  C   UNL d   1      -1.688  -0.750   2.162  0.00  0.00     0.020 A 
ATOM      2  C1  UNL d   1      -0.468  -1.415   2.275  0.00  0.00     0.020 A 
ATOM      3  C2  UNL d   1       0.502  -1.268   1.281  0.00  0.00     0.034 A 
ATOM      4  C3  UNL d   1       0.252  -0.455   0.169  0.00  0.00     0.017 A 
ATOM      5  C4  UNL d   1      -0.973   0.212   0.057  0.00  0.00     0.017 A 
ATOM      6  C5  UNL d   1      -1.940   0.061   1.055  0.00  0.00     0.034 A 
ATOM      7 Cl   UNL d   1      -1.353   1.232  -1.286  0.00  0.00    -0.070 Cl
ATOM      8 Cl1  UNL d   1       1.497  -0.319  -1.022  0.00  0.00    -0.070 Cl
ENDROOT
TORSDOF 0
ENDMDL
