MODEL 1
REMARK minimizedAffinity -2.15075803
REMARK minimizedRMSD -1
REMARK  0 active torsions:
REMARK  status: ('A' for Active; 'I' for Inactive)
ROOT
ATOM      1  C   UNL d   1       0.448  -2.742   0.403  0.00  0.00     0.020 A 
ATOM      2  C1  UNL d   1       1.516  -2.148   1.074  0.00  0.00     0.020 A 
ATOM      3  C2  UNL d   1       1.858  -0.821   0.806  0.00  0.00     0.034 A 
ATOM      4  C3  UNL d   1       1.132  -0.083  -0.136  0.00  0.00     0.017 A 
ATOM      5  C4  UNL d   1       0.060  -0.680  -0.809  0.00  0.00     0.017 A 
ATOM      6  C5  UNL d   1      -0.278  -2.009  -0.537  0.00  0.00     0.034 A 
ATOM      7 Cl   UNL d   1      -0.883   0.166  -1.985  0.00  0.00    -0.070 Cl
ATOM      8 Cl1  UNL d   1       1.610   1.553  -0.417  0.00  0.00    -0.070 Cl
ENDROOT
TORSDOF 0
ENDMDL
