MODEL 1
REMARK minimizedAffinity -3.30354548
REMARK minimizedRMSD -1
REMARK  0 active torsions:
REMARK  status: ('A' for Active; 'I' for Inactive)
ROOT
ATOM      1  C   UNL d   1       0.835  -1.866  -0.848  0.00  0.00     0.020 A 
ATOM      2  C1  UNL d   1       0.618  -2.116   0.506  0.00  0.00     0.020 A 
ATOM      3  C2  UNL d   1      -0.232  -1.287   1.241  0.00  0.00     0.034 A 
ATOM      4  C3  UNL d   1      -0.868  -0.204   0.623  0.00  0.00     0.017 A 
ATOM      5  C4  UNL d   1      -0.649   0.046  -0.736  0.00  0.00     0.017 A 
ATOM      6  C5  UNL d   1       0.203  -0.787  -1.468  0.00  0.00     0.034 A 
ATOM      7 Cl   UNL d   1      -1.397   1.363  -1.569  0.00  0.00    -0.070 Cl
ATOM      8 Cl1  UNL d   1      -1.906   0.779   1.593  0.00  0.00    -0.070 Cl
ENDROOT
TORSDOF 0
ENDMDL
