MODEL 1
REMARK minimizedAffinity -4.34039259
REMARK minimizedRMSD -1
REMARK  0 active torsions:
REMARK  status: ('A' for Active; 'I' for Inactive)
ROOT
ATOM      1  C   UNL d   1       2.122  -2.851   0.265  0.00  0.00     0.020 A 
ATOM      2  C1  UNL d   1       2.422  -1.869  -0.678  0.00  0.00     0.020 A 
ATOM      3  C2  UNL d   1       1.627  -0.725  -0.772  0.00  0.00     0.034 A 
ATOM      4  C3  UNL d   1       0.527  -0.560   0.077  0.00  0.00     0.017 A 
ATOM      5  C4  UNL d   1       0.226  -1.547   1.024  0.00  0.00     0.017 A 
ATOM      6  C5  UNL d   1       1.026  -2.690   1.114  0.00  0.00     0.034 A 
ATOM      7 Cl   UNL d   1      -1.114  -1.414   2.107  0.00  0.00    -0.070 Cl
ATOM      8 Cl1  UNL d   1      -0.413   0.879  -0.094  0.00  0.00    -0.070 Cl
ENDROOT
TORSDOF 0
ENDMDL
