MODEL 1
REMARK minimizedAffinity -3.25622344
REMARK minimizedRMSD -1
REMARK  0 active torsions:
REMARK  status: ('A' for Active; 'I' for Inactive)
ROOT
ATOM      1  C   UNL d   1       2.132  -2.596   1.108  0.00  0.00     0.020 A 
ATOM      2  C1  UNL d   1       0.795  -2.921   0.883  0.00  0.00     0.020 A 
ATOM      3  C2  UNL d   1      -0.036  -2.027   0.204  0.00  0.00     0.034 A 
ATOM      4  C3  UNL d   1       0.468  -0.804  -0.251  0.00  0.00     0.017 A 
ATOM      5  C4  UNL d   1       1.811  -0.478  -0.024  0.00  0.00     0.017 A 
ATOM      6  C5  UNL d   1       2.639  -1.376   0.656  0.00  0.00     0.034 A 
ATOM      7 Cl   UNL d   1       2.505   1.013  -0.555  0.00  0.00    -0.070 Cl
ATOM      8 Cl1  UNL d   1      -0.616   0.253  -1.083  0.00  0.00    -0.070 Cl
ENDROOT
TORSDOF 0
ENDMDL
