MODEL 1
REMARK minimizedAffinity -2.27451754
REMARK minimizedRMSD -1
REMARK  0 active torsions:
REMARK  status: ('A' for Active; 'I' for Inactive)
ROOT
ATOM      1  C   UNL d   1       0.025   0.668  -1.020  0.00  0.00     0.020 A 
ATOM      2  C1  UNL d   1      -1.144   1.155  -0.438  0.00  0.00     0.020 A 
ATOM      3  C2  UNL d   1      -1.692   0.512   0.674  0.00  0.00     0.034 A 
ATOM      4  C3  UNL d   1      -1.070  -0.623   1.208  0.00  0.00     0.017 A 
ATOM      5  C4  UNL d   1       0.104  -1.111   0.623  0.00  0.00     0.017 A 
ATOM      6  C5  UNL d   1       0.648  -0.463  -0.490  0.00  0.00     0.034 A 
ATOM      7 Cl   UNL d   1       0.929  -2.506   1.225  0.00  0.00    -0.070 Cl
ATOM      8 Cl1  UNL d   1      -1.802  -1.368   2.584  0.00  0.00    -0.070 Cl
ENDROOT
TORSDOF 0
ENDMDL
