MODEL 1
REMARK minimizedAffinity -2.78579664
REMARK minimizedRMSD -1
REMARK  0 active torsions:
REMARK  status: ('A' for Active; 'I' for Inactive)
ROOT
ATOM      1  C   UNL d   1      -0.095   0.537  -0.173  0.00  0.00     0.020 A 
ATOM      2  C1  UNL d   1       1.038  -0.054  -0.732  0.00  0.00     0.020 A 
ATOM      3  C2  UNL d   1       2.207   0.693  -0.894  0.00  0.00     0.034 A 
ATOM      4  C3  UNL d   1       2.245   2.035  -0.498  0.00  0.00     0.017 A 
ATOM      5  C4  UNL d   1       1.107   2.627   0.062  0.00  0.00     0.017 A 
ATOM      6  C5  UNL d   1      -0.060   1.874   0.223  0.00  0.00     0.034 A 
ATOM      7 Cl   UNL d   1       1.078   4.277   0.575  0.00  0.00    -0.070 Cl
ATOM      8 Cl1  UNL d   1       3.724   2.899  -0.729  0.00  0.00    -0.070 Cl
ENDROOT
TORSDOF 0
ENDMDL
