MODEL 1
REMARK minimizedAffinity -2.67941475
REMARK minimizedRMSD -1
REMARK  0 active torsions:
REMARK  status: ('A' for Active; 'I' for Inactive)
ROOT
ATOM      1  C   UNL d   1      -1.397   0.504   1.112  0.00  0.00     0.020 A 
ATOM      2  C1  UNL d   1      -1.656  -0.631   1.879  0.00  0.00     0.020 A 
ATOM      3  C2  UNL d   1      -0.793  -1.727   1.819  0.00  0.00     0.034 A 
ATOM      4  C3  UNL d   1       0.334  -1.691   0.989  0.00  0.00     0.017 A 
ATOM      5  C4  UNL d   1       0.593  -0.552   0.219  0.00  0.00     0.017 A 
ATOM      6  C5  UNL d   1      -0.274   0.543   0.283  0.00  0.00     0.034 A 
ATOM      7 Cl   UNL d   1       1.963  -0.433  -0.828  0.00  0.00    -0.070 Cl
ATOM      8 Cl1  UNL d   1       1.359  -3.082   0.965  0.00  0.00    -0.070 Cl
ENDROOT
TORSDOF 0
ENDMDL
