MODEL 1
REMARK minimizedAffinity -3.49072051
REMARK minimizedRMSD -1
REMARK  0 active torsions:
REMARK  status: ('A' for Active; 'I' for Inactive)
ROOT
ATOM      1  C   UNL d   1       0.803   0.988   0.015  0.00  0.00     0.020 A 
ATOM      2  C1  UNL d   1       2.107   0.717  -0.398  0.00  0.00     0.020 A 
ATOM      3  C2  UNL d   1       3.050   1.746  -0.451  0.00  0.00     0.034 A 
ATOM      4  C3  UNL d   1       2.690   3.050  -0.091  0.00  0.00     0.017 A 
ATOM      5  C4  UNL d   1       1.380   3.320   0.323  0.00  0.00     0.017 A 
ATOM      6  C5  UNL d   1       0.440   2.287   0.374  0.00  0.00     0.034 A 
ATOM      7 Cl   UNL d   1       0.862   4.904   0.782  0.00  0.00    -0.070 Cl
ATOM      8 Cl1  UNL d   1       3.907   4.273  -0.181  0.00  0.00    -0.070 Cl
ENDROOT
TORSDOF 0
ENDMDL
