MODEL 1
REMARK minimizedAffinity -3.97993588
REMARK minimizedRMSD -1
REMARK  0 active torsions:
REMARK  status: ('A' for Active; 'I' for Inactive)
ROOT
ATOM      1  C   UNL d   1       0.129  -2.341   1.741  0.00  0.00     0.020 A 
ATOM      2  C1  UNL d   1       1.429  -2.723   1.411  0.00  0.00     0.020 A 
ATOM      3  C2  UNL d   1       2.131  -2.029   0.423  0.00  0.00     0.034 A 
ATOM      4  C3  UNL d   1       1.533  -0.950  -0.239  0.00  0.00     0.017 A 
ATOM      5  C4  UNL d   1       0.229  -0.568   0.092  0.00  0.00     0.017 A 
ATOM      6  C5  UNL d   1      -0.470  -1.265   1.083  0.00  0.00     0.034 A 
ATOM      7 Cl   UNL d   1      -0.575   0.753  -0.681  0.00  0.00    -0.070 Cl
ATOM      8 Cl1  UNL d   1       2.460  -0.138  -1.450  0.00  0.00    -0.070 Cl
ENDROOT
TORSDOF 0
ENDMDL
