MODEL 1
REMARK minimizedAffinity 10.2521152
REMARK minimizedRMSD -1
REMARK  0 active torsions:
REMARK  status: ('A' for Active; 'I' for Inactive)
ROOT
ATOM      1  C   UNL d   1       0.234   3.998  -3.382  0.00  0.00     0.020 A 
ATOM      2  C1  UNL d   1       0.848   3.994  -2.130  0.00  0.00     0.020 A 
ATOM      3  C2  UNL d   1       0.239   3.343  -1.056  0.00  0.00     0.034 A 
ATOM      4  C3  UNL d   1      -0.989   2.693  -1.230  0.00  0.00     0.017 A 
ATOM      5  C4  UNL d   1      -1.605   2.698  -2.487  0.00  0.00     0.017 A 
ATOM      6  C5  UNL d   1      -0.990   3.352  -3.560  0.00  0.00     0.034 A 
ATOM      7 Cl   UNL d   1      -3.119   1.918  -2.780  0.00  0.00    -0.070 Cl
ATOM      8 Cl1  UNL d   1      -1.685   1.908   0.142  0.00  0.00    -0.070 Cl
ENDROOT
TORSDOF 0
ENDMDL
