MODEL 1
REMARK minimizedAffinity 9.85774517
REMARK minimizedRMSD -1
REMARK  0 active torsions:
REMARK  status: ('A' for Active; 'I' for Inactive)
ROOT
ATOM      1  C   UNL d   1       0.511   5.995  -5.604  0.00  0.00     0.020 A 
ATOM      2  C1  UNL d   1       1.743   6.000  -4.951  0.00  0.00     0.020 A 
ATOM      3  C2  UNL d   1       1.941   5.193  -3.828  0.00  0.00     0.034 A 
ATOM      4  C3  UNL d   1       0.906   4.378  -3.355  0.00  0.00     0.017 A 
ATOM      5  C4  UNL d   1      -0.330   4.374  -4.012  0.00  0.00     0.017 A 
ATOM      6  C5  UNL d   1      -0.523   5.184  -5.136  0.00  0.00     0.034 A 
ATOM      7 Cl   UNL d   1      -1.655   3.395  -3.488  0.00  0.00    -0.070 Cl
ATOM      8 Cl1  UNL d   1       1.221   3.406  -1.962  0.00  0.00    -0.070 Cl
ENDROOT
TORSDOF 0
ENDMDL
