MODEL 1
REMARK minimizedAffinity 13.5168028
REMARK minimizedRMSD -1
REMARK  0 active torsions:
REMARK  status: ('A' for Active; 'I' for Inactive)
ROOT
ATOM      1  C   UNL d   1      -1.087   3.013  -0.530  0.00  0.00     0.020 A 
ATOM      2  C1  UNL d   1       0.222   3.492  -0.520  0.00  0.00     0.020 A 
ATOM      3  C2  UNL d   1       1.032   3.288   0.599  0.00  0.00     0.034 A 
ATOM      4  C3  UNL d   1       0.534   2.604   1.713  0.00  0.00     0.017 A 
ATOM      5  C4  UNL d   1      -0.781   2.124   1.703  0.00  0.00     0.017 A 
ATOM      6  C5  UNL d   1      -1.588   2.331   0.579  0.00  0.00     0.034 A 
ATOM      7 Cl   UNL d   1      -1.467   1.270   3.040  0.00  0.00    -0.070 Cl
ATOM      8 Cl1  UNL d   1       1.591   2.388   3.063  0.00  0.00    -0.070 Cl
ENDROOT
TORSDOF 0
ENDMDL
