MODEL 1
REMARK minimizedAffinity 14.2845984
REMARK minimizedRMSD -1
REMARK  0 active torsions:
REMARK  status: ('A' for Active; 'I' for Inactive)
ROOT
ATOM      1  C   UNL d   1       1.448  -1.768  -0.135  0.00  0.00     0.020 A 
ATOM      2  C1  UNL d   1       1.712  -2.892   0.646  0.00  0.00     0.020 A 
ATOM      3  C2  UNL d   1       1.770  -4.155   0.054  0.00  0.00     0.034 A 
ATOM      4  C3  UNL d   1       1.563  -4.298  -1.323  0.00  0.00     0.017 A 
ATOM      5  C4  UNL d   1       1.298  -3.168  -2.106  0.00  0.00     0.017 A 
ATOM      6  C5  UNL d   1       1.242  -1.906  -1.508  0.00  0.00     0.034 A 
ATOM      7 Cl   UNL d   1       1.033  -3.264  -3.811  0.00  0.00    -0.070 Cl
ATOM      8 Cl1  UNL d   1       1.650  -5.890  -1.988  0.00  0.00    -0.070 Cl
ENDROOT
TORSDOF 0
ENDMDL
