MODEL 1
REMARK minimizedAffinity 13.7639332
REMARK minimizedRMSD -1
REMARK  0 active torsions:
REMARK  status: ('A' for Active; 'I' for Inactive)
ROOT
ATOM      1  C   UNL d   1       4.126  -1.230  -5.999  0.00  0.00     0.020 A 
ATOM      2  C1  UNL d   1       3.947  -2.613  -6.000  0.00  0.00     0.020 A 
ATOM      3  C2  UNL d   1       2.659  -3.150  -6.000  0.00  0.00     0.034 A 
ATOM      4  C3  UNL d   1       1.543  -2.305  -5.999  0.00  0.00     0.017 A 
ATOM      5  C4  UNL d   1       1.724  -0.917  -5.999  0.00  0.00     0.017 A 
ATOM      6  C5  UNL d   1       3.016  -0.384  -5.999  0.00  0.00     0.034 A 
ATOM      7 Cl   UNL d   1       0.396   0.190  -5.999  0.00  0.00    -0.070 Cl
ATOM      8 Cl1  UNL d   1      -0.021  -3.038  -6.000  0.00  0.00    -0.070 Cl
ENDROOT
TORSDOF 0
ENDMDL
