MODEL 1
REMARK minimizedAffinity 14.1611176
REMARK minimizedRMSD -1
REMARK  0 active torsions:
REMARK  status: ('A' for Active; 'I' for Inactive)
ROOT
ATOM      1  C   UNL d   1       0.410   4.055  -3.149  0.00  0.00     0.020 A 
ATOM      2  C1  UNL d   1       0.939   3.837  -1.877  0.00  0.00     0.020 A 
ATOM      3  C2  UNL d   1       0.253   3.033  -0.964  0.00  0.00     0.034 A 
ATOM      4  C3  UNL d   1      -0.965   2.444  -1.322  0.00  0.00     0.017 A 
ATOM      5  C4  UNL d   1      -1.495   2.663  -2.598  0.00  0.00     0.017 A 
ATOM      6  C5  UNL d   1      -0.804   3.469  -3.508  0.00  0.00     0.034 A 
ATOM      7 Cl   UNL d   1      -2.993   1.970  -3.112  0.00  0.00    -0.070 Cl
ATOM      8 Cl1  UNL d   1      -1.758   1.461  -0.143  0.00  0.00    -0.070 Cl
ENDROOT
TORSDOF 0
ENDMDL
