MODEL 1
REMARK minimizedAffinity 19.8344707
REMARK minimizedRMSD -1
REMARK  0 active torsions:
REMARK  status: ('A' for Active; 'I' for Inactive)
ROOT
ATOM      1  C   UNL d   1      -4.003   5.998   3.665  0.00  0.00     0.020 A 
ATOM      2  C1  UNL d   1      -5.388   5.999   3.503  0.00  0.00     0.020 A 
ATOM      3  C2  UNL d   1      -5.941   6.000   2.221  0.00  0.00     0.034 A 
ATOM      4  C3  UNL d   1      -5.109   5.999   1.096  0.00  0.00     0.017 A 
ATOM      5  C4  UNL d   1      -3.719   5.998   1.259  0.00  0.00     0.017 A 
ATOM      6  C5  UNL d   1      -3.170   5.997   2.546  0.00  0.00     0.034 A 
ATOM      7 Cl   UNL d   1      -2.628   5.997  -0.081  0.00  0.00    -0.070 Cl
ATOM      8 Cl1  UNL d   1      -5.861   6.000  -0.460  0.00  0.00    -0.070 Cl
ENDROOT
TORSDOF 0
ENDMDL
