MODEL 1
REMARK minimizedAffinity 21.1880264
REMARK minimizedRMSD -1
REMARK  0 active torsions:
REMARK  status: ('A' for Active; 'I' for Inactive)
ROOT
ATOM      1  C   UNL d   1       1.472   6.000  -3.777  0.00  0.00     0.020 A 
ATOM      2  C1  UNL d   1       0.403   6.000  -4.672  0.00  0.00     0.020 A 
ATOM      3  C2  UNL d   1      -0.624   5.064  -4.534  0.00  0.00     0.034 A 
ATOM      4  C3  UNL d   1      -0.584   4.124  -3.497  0.00  0.00     0.017 A 
ATOM      5  C4  UNL d   1       0.489   4.124  -2.599  0.00  0.00     0.017 A 
ATOM      6  C5  UNL d   1       1.515   5.064  -2.742  0.00  0.00     0.034 A 
ATOM      7 Cl   UNL d   1       0.608   2.996  -1.296  0.00  0.00    -0.070 Cl
ATOM      8 Cl1  UNL d   1      -1.888   2.996  -3.386  0.00  0.00    -0.070 Cl
ENDROOT
TORSDOF 0
ENDMDL
