MODEL 1
REMARK minimizedAffinity 12.4497833
REMARK minimizedRMSD -1
REMARK  0 active torsions:
REMARK  status: ('A' for Active; 'I' for Inactive)
ROOT
ATOM      1  C   UNL d   1       1.128  -2.685  -5.980  0.00  0.00     0.020 A 
ATOM      2  C1  UNL d   1       1.659  -1.396  -6.000  0.00  0.00     0.020 A 
ATOM      3  C2  UNL d   1       2.053  -0.785  -4.808  0.00  0.00     0.034 A 
ATOM      4  C3  UNL d   1       1.917  -1.463  -3.591  0.00  0.00     0.017 A 
ATOM      5  C4  UNL d   1       1.384  -2.757  -3.572  0.00  0.00     0.017 A 
ATOM      6  C5  UNL d   1       0.991  -3.364  -4.769  0.00  0.00     0.034 A 
ATOM      7 Cl   UNL d   1       1.185  -3.656  -2.110  0.00  0.00    -0.070 Cl
ATOM      8 Cl1  UNL d   1       2.425  -0.646  -2.155  0.00  0.00    -0.070 Cl
ENDROOT
TORSDOF 0
ENDMDL
