MODEL 1
REMARK minimizedAffinity 12.0767355
REMARK minimizedRMSD -1
REMARK  0 active torsions:
REMARK  status: ('A' for Active; 'I' for Inactive)
ROOT
ATOM      1  C   UNL d   1       1.758  -3.061   0.976  0.00  0.00     0.020 A 
ATOM      2  C1  UNL d   1       1.443  -1.903   0.267  0.00  0.00     0.020 A 
ATOM      3  C2  UNL d   1       1.307  -1.949  -1.122  0.00  0.00     0.034 A 
ATOM      4  C3  UNL d   1       1.485  -3.157  -1.806  0.00  0.00     0.017 A 
ATOM      5  C4  UNL d   1       1.801  -4.320  -1.094  0.00  0.00     0.017 A 
ATOM      6  C5  UNL d   1       1.937  -4.267   0.297  0.00  0.00     0.034 A 
ATOM      7 Cl   UNL d   1       2.037  -5.847  -1.869  0.00  0.00    -0.070 Cl
ATOM      8 Cl1  UNL d   1       1.301  -3.142  -3.524  0.00  0.00    -0.070 Cl
ENDROOT
TORSDOF 0
ENDMDL
