MODEL 1
REMARK minimizedAffinity 11.8033724
REMARK minimizedRMSD -1
REMARK  0 active torsions:
REMARK  status: ('A' for Active; 'I' for Inactive)
ROOT
ATOM      1  C   UNL d   1      -4.524   5.997   3.603  0.00  0.00     0.020 A 
ATOM      2  C1  UNL d   1      -5.813   5.997   3.071  0.00  0.00     0.020 A 
ATOM      3  C2  UNL d   1      -5.997   5.998   1.687  0.00  0.00     0.034 A 
ATOM      4  C3  UNL d   1      -4.891   5.998   0.830  0.00  0.00     0.017 A 
ATOM      5  C4  UNL d   1      -3.597   5.998   1.365  0.00  0.00     0.017 A 
ATOM      6  C5  UNL d   1      -3.419   5.997   2.751  0.00  0.00     0.034 A 
ATOM      7 Cl   UNL d   1      -2.183   5.999   0.371  0.00  0.00    -0.070 Cl
ATOM      8 Cl1  UNL d   1      -5.192   5.999  -0.872  0.00  0.00    -0.070 Cl
ENDROOT
TORSDOF 0
ENDMDL
