MODEL 1
REMARK minimizedAffinity 16.4045219
REMARK minimizedRMSD -1
REMARK  0 active torsions:
REMARK  status: ('A' for Active; 'I' for Inactive)
ROOT
ATOM      1  C   UNL d   1       1.880  -2.215  -6.000  0.00  0.00     0.020 A 
ATOM      2  C1  UNL d   1       0.726  -2.983  -5.850  0.00  0.00     0.020 A 
ATOM      3  C2  UNL d   1       0.690  -4.013  -4.908  0.00  0.00     0.034 A 
ATOM      4  C3  UNL d   1       1.811  -4.279  -4.113  0.00  0.00     0.017 A 
ATOM      5  C4  UNL d   1       2.968  -3.507  -4.264  0.00  0.00     0.017 A 
ATOM      6  C5  UNL d   1       2.998  -2.476  -5.208  0.00  0.00     0.034 A 
ATOM      7 Cl   UNL d   1       4.390  -3.774  -3.318  0.00  0.00    -0.070 Cl
ATOM      8 Cl1  UNL d   1       1.696  -5.568  -2.968  0.00  0.00    -0.070 Cl
ENDROOT
TORSDOF 0
ENDMDL
