MODEL 1
REMARK minimizedAffinity 16.5410309
REMARK minimizedRMSD -1
REMARK  0 active torsions:
REMARK  status: ('A' for Active; 'I' for Inactive)
ROOT
ATOM      1  C   UNL d   1      -0.789   5.613  -4.969  0.00  0.00     0.020 A 
ATOM      2  C1  UNL d   1      -1.398   4.702  -4.107  0.00  0.00     0.020 A 
ATOM      3  C2  UNL d   1      -0.683   4.176  -3.029  0.00  0.00     0.034 A 
ATOM      4  C3  UNL d   1       0.645   4.561  -2.810  0.00  0.00     0.017 A 
ATOM      5  C4  UNL d   1       1.255   5.476  -3.676  0.00  0.00     0.017 A 
ATOM      6  C5  UNL d   1       0.534   6.000  -4.754  0.00  0.00     0.034 A 
ATOM      7 Cl   UNL d   1       2.889   6.000  -3.470  0.00  0.00    -0.070 Cl
ATOM      8 Cl1  UNL d   1       1.469   3.871  -1.457  0.00  0.00    -0.070 Cl
ENDROOT
TORSDOF 0
ENDMDL
