MODEL 1
REMARK minimizedAffinity 8.03728104
REMARK minimizedRMSD -1
REMARK  0 active torsions:
REMARK  status: ('A' for Active; 'I' for Inactive)
ROOT
ATOM      1  C   UNL d   1      -0.692   4.090  -2.021  0.00  0.00     0.020 A 
ATOM      2  C1  UNL d   1       0.628   4.166  -1.580  0.00  0.00     0.020 A 
ATOM      3  C2  UNL d   1       1.058   3.362  -0.522  0.00  0.00     0.034 A 
ATOM      4  C3  UNL d   1       0.166   2.478   0.098  0.00  0.00     0.017 A 
ATOM      5  C4  UNL d   1      -1.159   2.403  -0.346  0.00  0.00     0.017 A 
ATOM      6  C5  UNL d   1      -1.584   3.210  -1.406  0.00  0.00     0.034 A 
ATOM      7 Cl   UNL d   1      -2.317   1.338   0.369  0.00  0.00    -0.070 Cl
ATOM      8 Cl1  UNL d   1       0.766   1.514   1.400  0.00  0.00    -0.070 Cl
ENDROOT
TORSDOF 0
ENDMDL
