MODEL 1
REMARK minimizedAffinity 3.7673924
REMARK minimizedRMSD -1
REMARK  0 active torsions:
REMARK  status: ('A' for Active; 'I' for Inactive)
ROOT
ATOM      1  C   UNL d   1      -5.982  -4.760   4.774  0.00  0.00     0.020 A 
ATOM      2  C1  UNL d   1      -5.986  -5.977   4.095  0.00  0.00     0.020 A 
ATOM      3  C2  UNL d   1      -5.991  -5.998   2.698  0.00  0.00     0.034 A 
ATOM      4  C3  UNL d   1      -5.993  -4.799   1.976  0.00  0.00     0.017 A 
ATOM      5  C4  UNL d   1      -5.989  -3.577   2.659  0.00  0.00     0.017 A 
ATOM      6  C5  UNL d   1      -5.983  -3.562   4.057  0.00  0.00     0.034 A 
ATOM      7 Cl   UNL d   1      -5.991  -2.056   1.837  0.00  0.00    -0.070 Cl
ATOM      8 Cl1  UNL d   1      -5.999  -4.900   0.252  0.00  0.00    -0.070 Cl
ENDROOT
TORSDOF 0
ENDMDL
