MODEL 1
REMARK minimizedAffinity 11.3528824
REMARK minimizedRMSD -1
REMARK  0 active torsions:
REMARK  status: ('A' for Active; 'I' for Inactive)
ROOT
ATOM      1  C   UNL d   1      -0.252   5.884  -0.775  0.00  0.00     0.020 A 
ATOM      2  C1  UNL d   1      -0.922   5.419   0.356  0.00  0.00     0.020 A 
ATOM      3  C2  UNL d   1      -0.874   4.063   0.686  0.00  0.00     0.034 A 
ATOM      4  C3  UNL d   1      -0.155   3.168  -0.114  0.00  0.00     0.017 A 
ATOM      5  C4  UNL d   1       0.518   3.637  -1.248  0.00  0.00     0.017 A 
ATOM      6  C5  UNL d   1       0.467   4.995  -1.575  0.00  0.00     0.034 A 
ATOM      7 Cl   UNL d   1       1.426   2.593  -2.284  0.00  0.00    -0.070 Cl
ATOM      8 Cl1  UNL d   1      -0.138   1.505   0.355  0.00  0.00    -0.070 Cl
ENDROOT
TORSDOF 0
ENDMDL
