MODEL 1
REMARK minimizedAffinity 11.2303667
REMARK minimizedRMSD -1
REMARK  0 active torsions:
REMARK  status: ('A' for Active; 'I' for Inactive)
ROOT
ATOM      1  C   UNL d   1       2.000  -2.542   1.145  0.00  0.00     0.020 A 
ATOM      2  C1  UNL d   1       1.813  -1.348   0.449  0.00  0.00     0.020 A 
ATOM      3  C2  UNL d   1       1.708  -1.361  -0.943  0.00  0.00     0.034 A 
ATOM      4  C3  UNL d   1       1.791  -2.569  -1.645  0.00  0.00     0.017 A 
ATOM      5  C4  UNL d   1       1.979  -3.767  -0.945  0.00  0.00     0.017 A 
ATOM      6  C5  UNL d   1       2.083  -3.748   0.449  0.00  0.00     0.034 A 
ATOM      7 Cl   UNL d   1       2.090  -5.297  -1.741  0.00  0.00    -0.070 Cl
ATOM      8 Cl1  UNL d   1       1.653  -2.510  -3.366  0.00  0.00    -0.070 Cl
ENDROOT
TORSDOF 0
ENDMDL
