MODEL 1
REMARK minimizedAffinity -2.39238763
REMARK minimizedRMSD -1
REMARK  1 active torsions:
REMARK  status: ('A' for Active; 'I' for Inactive)
REMARK    1  A    between atoms: C1_2  and  C2_3 
ROOT
ATOM      1  C2  UNL d   1       0.477  -0.084  -1.670  0.00  0.00    -0.081 A 
ATOM      2  C3  UNL d   1      -0.709   0.629  -1.459  0.00  0.00     0.006 A 
ATOM      3  C4  UNL d   1      -1.251   0.738  -0.176  0.00  0.00     0.002 A 
ATOM      4  C5  UNL d   1      -0.612   0.143   0.917  0.00  0.00    -0.080 A 
ATOM      5  C6  UNL d   1      -1.167   0.278   2.304  0.00  0.00     0.076 C 
ATOM      6  C7  UNL d   1       0.564  -0.584   0.704  0.00  0.00     0.002 A 
ATOM      7  C8  UNL d   1       1.106  -0.694  -0.579  0.00  0.00     0.006 A 
ENDROOT
BRANCH   1   8
ATOM      8  C1  UNL d   1       1.099  -0.149  -3.042  0.00  0.00     0.054 C 
ATOM      9  C   UNL d   1       0.660   1.026  -3.904  0.00  0.00     0.018 C 
ENDBRANCH   1   8
TORSDOF 1
ENDMDL
