MODEL 1
REMARK minimizedAffinity -3.83404136
REMARK minimizedRMSD -1
REMARK  1 active torsions:
REMARK  status: ('A' for Active; 'I' for Inactive)
REMARK    1  A    between atoms: C1_2  and  C2_3 
ROOT
ATOM      1  C2  UNL d   1      -0.024   0.002  -1.277  0.00  0.00    -0.081 A 
ATOM      2  C3  UNL d   1      -1.201   0.696  -0.969  0.00  0.00     0.006 A 
ATOM      3  C4  UNL d   1      -1.464   1.096   0.343  0.00  0.00     0.002 A 
ATOM      4  C5  UNL d   1      -0.553   0.816   1.367  0.00  0.00    -0.080 A 
ATOM      5  C6  UNL d   1      -0.809   1.267   2.774  0.00  0.00     0.076 C 
ATOM      6  C7  UNL d   1       0.615   0.108   1.062  0.00  0.00     0.002 A 
ATOM      7  C8  UNL d   1       0.878  -0.293  -0.249  0.00  0.00     0.006 A 
ENDROOT
BRANCH   1   8
ATOM      8  C1  UNL d   1       0.294  -0.374  -2.702  0.00  0.00     0.054 C 
ATOM      9  C   UNL d   1       1.008   0.757  -3.427  0.00  0.00     0.018 C 
ENDBRANCH   1   8
TORSDOF 1
ENDMDL
