MODEL 1
REMARK minimizedAffinity -2.12391186
REMARK minimizedRMSD -1
REMARK  1 active torsions:
REMARK  status: ('A' for Active; 'I' for Inactive)
REMARK    1  A    between atoms: C1_2  and  C2_3 
ROOT
ATOM      1  C2  UNL d   1       0.407   0.154  -1.437  0.00  0.00    -0.081 A 
ATOM      2  C3  UNL d   1      -0.776   0.885  -1.274  0.00  0.00     0.006 A 
ATOM      3  C4  UNL d   1      -1.392   0.965  -0.022  0.00  0.00     0.002 A 
ATOM      4  C5  UNL d   1      -0.831   0.324   1.087  0.00  0.00    -0.080 A 
ATOM      5  C6  UNL d   1      -1.466   0.428   2.442  0.00  0.00     0.076 C 
ATOM      6  C7  UNL d   1       0.341  -0.421   0.921  0.00  0.00     0.002 A 
ATOM      7  C8  UNL d   1       0.957  -0.503  -0.330  0.00  0.00     0.006 A 
ENDROOT
BRANCH   1   8
ATOM      8  C1  UNL d   1       1.108   0.118  -2.771  0.00  0.00     0.054 C 
ATOM      9  C   UNL d   1       0.621   1.235  -3.682  0.00  0.00     0.018 C 
ENDBRANCH   1   8
TORSDOF 1
ENDMDL
