MODEL 1
REMARK minimizedAffinity -1.08997703
REMARK minimizedRMSD -1
REMARK  1 active torsions:
REMARK  status: ('A' for Active; 'I' for Inactive)
REMARK    1  A    between atoms: C1_2  and  C2_3 
ROOT
ATOM      1  C2  UNL d   1       0.518   0.761  -5.226  0.00  0.00    -0.081 A 
ATOM      2  C3  UNL d   1      -0.024  -0.166  -4.328  0.00  0.00     0.006 A 
ATOM      3  C4  UNL d   1      -1.408  -0.313  -4.212  0.00  0.00     0.002 A 
ATOM      4  C5  UNL d   1      -2.272   0.458  -4.996  0.00  0.00    -0.080 A 
ATOM      5  C6  UNL d   1      -3.760   0.288  -4.903  0.00  0.00     0.076 C 
ATOM      6  C7  UNL d   1      -1.731   1.396  -5.881  0.00  0.00     0.002 A 
ATOM      7  C8  UNL d   1      -0.347   1.544  -5.998  0.00  0.00     0.006 A 
ENDROOT
BRANCH   1   8
ATOM      8  C1  UNL d   1       2.011   0.876  -5.401  0.00  0.00     0.054 C 
ATOM      9  C   UNL d   1       2.598  -0.394  -5.999  0.00  0.00     0.018 C 
ENDBRANCH   1   8
TORSDOF 1
ENDMDL
