MODEL 1
REMARK minimizedAffinity -1.88322473
REMARK minimizedRMSD -1
REMARK  1 active torsions:
REMARK  status: ('A' for Active; 'I' for Inactive)
REMARK    1  A    between atoms: C1_2  and  C2_3 
ROOT
ATOM      1  C2  UNL d   1      -0.107  -0.410  -0.777  0.00  0.00    -0.081 A 
ATOM      2  C3  UNL d   1      -0.717   0.134   0.359  0.00  0.00     0.006 A 
ATOM      3  C4  UNL d   1      -0.144   1.226   1.017  0.00  0.00     0.002 A 
ATOM      4  C5  UNL d   1       1.043   1.795   0.545  0.00  0.00    -0.080 A 
ATOM      5  C6  UNL d   1       1.653   2.985   1.224  0.00  0.00     0.076 C 
ATOM      6  C7  UNL d   1       1.663   1.240  -0.580  0.00  0.00     0.002 A 
ATOM      7  C8  UNL d   1       1.091   0.148  -1.237  0.00  0.00     0.006 A 
ENDROOT
BRANCH   1   8
ATOM      8  C1  UNL d   1      -0.756  -1.546  -1.526  0.00  0.00     0.054 C 
ATOM      9  C   UNL d   1      -1.699  -1.030  -2.604  0.00  0.00     0.018 C 
ENDBRANCH   1   8
TORSDOF 1
ENDMDL
