MODEL 1
REMARK minimizedAffinity -3.51525211
REMARK minimizedRMSD -1
REMARK  1 active torsions:
REMARK  status: ('A' for Active; 'I' for Inactive)
REMARK    1  A    between atoms: C1_2  and  C2_3 
ROOT
ATOM      1  C2  UNL d   1      -0.267  -0.533  -0.150  0.00  0.00    -0.081 A 
ATOM      2  C3  UNL d   1      -0.903   0.035   0.960  0.00  0.00     0.006 A 
ATOM      3  C4  UNL d   1      -0.417   1.216   1.528  0.00  0.00     0.002 A 
ATOM      4  C5  UNL d   1       0.708   1.851   0.990  0.00  0.00    -0.080 A 
ATOM      5  C6  UNL d   1       1.222   3.135   1.571  0.00  0.00     0.076 C 
ATOM      6  C7  UNL d   1       1.354   1.274  -0.108  0.00  0.00     0.002 A 
ATOM      7  C8  UNL d   1       0.869   0.094  -0.675  0.00  0.00     0.006 A 
ENDROOT
BRANCH   1   8
ATOM      8  C1  UNL d   1      -0.826  -1.770  -0.804  0.00  0.00     0.054 C 
ATOM      9  C   UNL d   1      -1.413  -1.455  -2.173  0.00  0.00     0.018 C 
ENDBRANCH   1   8
TORSDOF 1
ENDMDL
