MODEL 1
REMARK minimizedAffinity -4.40696907
REMARK minimizedRMSD -1
REMARK  1 active torsions:
REMARK  status: ('A' for Active; 'I' for Inactive)
REMARK    1  A    between atoms: C1_2  and  C2_3 
ROOT
ATOM      1  C2  UNL d   1      -0.035  -1.024   0.487  0.00  0.00    -0.081 A 
ATOM      2  C3  UNL d   1       1.213  -0.680  -0.047  0.00  0.00     0.006 A 
ATOM      3  C4  UNL d   1       1.744   0.596   0.160  0.00  0.00     0.002 A 
ATOM      4  C5  UNL d   1       1.042   1.544   0.911  0.00  0.00    -0.080 A 
ATOM      5  C6  UNL d   1       1.615   2.907   1.166  0.00  0.00     0.076 C 
ATOM      6  C7  UNL d   1      -0.213   1.206   1.430  0.00  0.00     0.002 A 
ATOM      7  C8  UNL d   1      -0.745  -0.068   1.223  0.00  0.00     0.006 A 
ENDROOT
BRANCH   1   8
ATOM      8  C1  UNL d   1      -0.582  -2.419   0.321  0.00  0.00     0.054 C 
ATOM      9  C   UNL d   1      -0.793  -3.095   1.668  0.00  0.00     0.018 C 
ENDBRANCH   1   8
TORSDOF 1
ENDMDL
