MODEL 1
REMARK minimizedAffinity -3.22540069
REMARK minimizedRMSD -1
REMARK  1 active torsions:
REMARK  status: ('A' for Active; 'I' for Inactive)
REMARK    1  A    between atoms: C1_2  and  C2_3 
ROOT
ATOM      1  C2  UNL d   1      -0.393  -0.952   1.007  0.00  0.00    -0.081 A 
ATOM      2  C3  UNL d   1       0.365  -0.522  -0.089  0.00  0.00     0.006 A 
ATOM      3  C4  UNL d   1       0.948   0.747  -0.093  0.00  0.00     0.002 A 
ATOM      4  C5  UNL d   1       0.790   1.604   1.002  0.00  0.00    -0.080 A 
ATOM      5  C6  UNL d   1       1.435   2.958   1.024  0.00  0.00     0.076 C 
ATOM      6  C7  UNL d   1       0.018   1.181   2.090  0.00  0.00     0.002 A 
ATOM      7  C8  UNL d   1      -0.565  -0.088   2.094  0.00  0.00     0.006 A 
ENDROOT
BRANCH   1   8
ATOM      8  C1  UNL d   1      -0.969  -2.345   1.042  0.00  0.00     0.054 C 
ATOM      9  C   UNL d   1      -0.984  -2.902   2.458  0.00  0.00     0.018 C 
ENDBRANCH   1   8
TORSDOF 1
ENDMDL
