MODEL 1
REMARK minimizedAffinity -2.39273739
REMARK minimizedRMSD -1
REMARK  1 active torsions:
REMARK  status: ('A' for Active; 'I' for Inactive)
REMARK    1  A    between atoms: C1_2  and  C2_3 
ROOT
ATOM      1  C2  UNL d   1      -0.268  -0.465  -0.250  0.00  0.00    -0.081 A 
ATOM      2  C3  UNL d   1      -0.708   0.225   0.887  0.00  0.00     0.006 A 
ATOM      3  C4  UNL d   1      -0.073   1.402   1.291  0.00  0.00     0.002 A 
ATOM      4  C5  UNL d   1       1.007   1.912   0.562  0.00  0.00    -0.080 A 
ATOM      5  C6  UNL d   1       1.678   3.190   0.968  0.00  0.00     0.076 C 
ATOM      6  C7  UNL d   1       1.457   1.213  -0.563  0.00  0.00     0.002 A 
ATOM      7  C8  UNL d   1       0.823   0.036  -0.967  0.00  0.00     0.006 A 
ENDROOT
BRANCH   1   8
ATOM      8  C1  UNL d   1      -0.992  -1.699  -0.725  0.00  0.00     0.054 C 
ATOM      9  C   UNL d   1      -1.676  -1.458  -2.063  0.00  0.00     0.018 C 
ENDBRANCH   1   8
TORSDOF 1
ENDMDL
