MODEL 1
REMARK minimizedAffinity -4.49202251
REMARK minimizedRMSD -1
REMARK  1 active torsions:
REMARK  status: ('A' for Active; 'I' for Inactive)
REMARK    1  A    between atoms: C1_2  and  C2_3 
ROOT
ATOM      1  C2  UNL d   1      -0.021  -0.491  -0.383  0.00  0.00    -0.081 A 
ATOM      2  C3  UNL d   1      -0.680   0.082   0.712  0.00  0.00     0.006 A 
ATOM      3  C4  UNL d   1      -0.172   1.232   1.320  0.00  0.00     0.002 A 
ATOM      4  C5  UNL d   1       0.998   1.832   0.841  0.00  0.00    -0.080 A 
ATOM      5  C6  UNL d   1       1.537   3.084   1.466  0.00  0.00     0.076 C 
ATOM      6  C7  UNL d   1       1.665   1.249  -0.242  0.00  0.00     0.002 A 
ATOM      7  C8  UNL d   1       1.158   0.099  -0.850  0.00  0.00     0.006 A 
ENDROOT
BRANCH   1   8
ATOM      8  C1  UNL d   1      -0.601  -1.694  -1.082  0.00  0.00     0.054 C 
ATOM      9  C   UNL d   1      -1.505  -1.281  -2.235  0.00  0.00     0.018 C 
ENDBRANCH   1   8
TORSDOF 1
ENDMDL
