MODEL 1
REMARK minimizedAffinity -5.36248684
REMARK minimizedRMSD -1
REMARK  1 active torsions:
REMARK  status: ('A' for Active; 'I' for Inactive)
REMARK    1  A    between atoms: C1_2  and  C2_3 
ROOT
ATOM      1  C2  UNL d   1      -0.518  -1.307   0.937  0.00  0.00    -0.081 A 
ATOM      2  C3  UNL d   1       0.385  -0.875  -0.043  0.00  0.00     0.006 A 
ATOM      3  C4  UNL d   1       0.771   0.466  -0.108  0.00  0.00     0.002 A 
ATOM      4  C5  UNL d   1       0.267   1.395   0.809  0.00  0.00    -0.080 A 
ATOM      5  C6  UNL d   1       0.697   2.832   0.768  0.00  0.00     0.076 C 
ATOM      6  C7  UNL d   1      -0.649   0.967   1.776  0.00  0.00     0.002 A 
ATOM      7  C8  UNL d   1      -1.036  -0.373   1.841  0.00  0.00     0.006 A 
ENDROOT
BRANCH   1   8
ATOM      8  C1  UNL d   1      -0.887  -2.764   1.050  0.00  0.00     0.054 C 
ATOM      9  C   UNL d   1      -1.104  -3.168   2.501  0.00  0.00     0.018 C 
ENDBRANCH   1   8
TORSDOF 1
ENDMDL
