MODEL 1
REMARK minimizedAffinity -1.64986873
REMARK minimizedRMSD -1
REMARK  1 active torsions:
REMARK  status: ('A' for Active; 'I' for Inactive)
REMARK    1  A    between atoms: C1_2  and  C2_3 
ROOT
ATOM      1  C2  UNL d   1      -1.086  -1.486  -1.189  0.00  0.00    -0.081 A 
ATOM      2  C3  UNL d   1      -1.928  -1.102  -2.240  0.00  0.00     0.006 A 
ATOM      3  C4  UNL d   1      -3.179  -1.703  -2.401  0.00  0.00     0.002 A 
ATOM      4  C5  UNL d   1      -3.612  -2.690  -1.509  0.00  0.00    -0.080 A 
ATOM      5  C6  UNL d   1      -4.965  -3.321  -1.652  0.00  0.00     0.076 C 
ATOM      6  C7  UNL d   1      -2.764  -3.086  -0.469  0.00  0.00     0.002 A 
ATOM      7  C8  UNL d   1      -1.512  -2.486  -0.309  0.00  0.00     0.006 A 
ENDROOT
BRANCH   1   8
ATOM      8  C1  UNL d   1       0.237  -0.795  -0.975  0.00  0.00     0.054 C 
ATOM      9  C   UNL d   1       0.102   0.368  -0.003  0.00  0.00     0.018 C 
ENDBRANCH   1   8
TORSDOF 1
ENDMDL
