MODEL 1
REMARK minimizedAffinity -3.38269067
REMARK minimizedRMSD -1
REMARK  1 active torsions:
REMARK  status: ('A' for Active; 'I' for Inactive)
REMARK    1  A    between atoms: C1_2  and  C2_3 
ROOT
ATOM      1  C2  UNL d   1       0.432  -0.478  -0.602  0.00  0.00    -0.081 A 
ATOM      2  C3  UNL d   1      -0.361  -0.123   0.496  0.00  0.00     0.006 A 
ATOM      3  C4  UNL d   1      -0.157   1.092   1.153  0.00  0.00     0.002 A 
ATOM      4  C5  UNL d   1       0.838   1.975   0.720  0.00  0.00    -0.080 A 
ATOM      5  C6  UNL d   1       1.047   3.296   1.399  0.00  0.00     0.076 C 
ATOM      6  C7  UNL d   1       1.642   1.613  -0.366  0.00  0.00     0.002 A 
ATOM      7  C8  UNL d   1       1.438   0.398  -1.024  0.00  0.00     0.006 A 
ENDROOT
BRANCH   1   8
ATOM      8  C1  UNL d   1       0.171  -1.759  -1.354  0.00  0.00     0.054 C 
ATOM      9  C   UNL d   1      -0.696  -1.514  -2.580  0.00  0.00     0.018 C 
ENDBRANCH   1   8
TORSDOF 1
ENDMDL
