MODEL 1
REMARK minimizedAffinity -0.892866313
REMARK minimizedRMSD -1
REMARK  1 active torsions:
REMARK  status: ('A' for Active; 'I' for Inactive)
REMARK    1  A    between atoms: C1_2  and  C2_3 
ROOT
ATOM      1  C2  UNL d   1      -0.629  -0.751  -1.259  0.00  0.00    -0.081 A 
ATOM      2  C3  UNL d   1      -0.632   0.553  -0.751  0.00  0.00     0.006 A 
ATOM      3  C4  UNL d   1       0.570   1.215  -0.490  0.00  0.00     0.002 A 
ATOM      4  C5  UNL d   1       1.795   0.587  -0.741  0.00  0.00    -0.080 A 
ATOM      5  C6  UNL d   1       3.092   1.297  -0.494  0.00  0.00     0.076 C 
ATOM      6  C7  UNL d   1       1.798  -0.723  -1.232  0.00  0.00     0.002 A 
ATOM      7  C8  UNL d   1       0.597  -1.385  -1.493  0.00  0.00     0.006 A 
ENDROOT
BRANCH   1   8
ATOM      8  C1  UNL d   1      -1.923  -1.444  -1.603  0.00  0.00     0.054 C 
ATOM      9  C   UNL d   1      -2.267  -1.275  -3.076  0.00  0.00     0.018 C 
ENDBRANCH   1   8
TORSDOF 1
ENDMDL
