MODEL 1
REMARK minimizedAffinity -3.9140842
REMARK minimizedRMSD -1
REMARK  1 active torsions:
REMARK  status: ('A' for Active; 'I' for Inactive)
REMARK    1  A    between atoms: C1_2  and  C2_3 
ROOT
ATOM      1  C2  UNL d   1      -1.250  -2.983   0.198  0.00  0.00    -0.081 A 
ATOM      2  C3  UNL d   1      -2.305  -3.468  -0.585  0.00  0.00     0.006 A 
ATOM      3  C4  UNL d   1      -2.572  -2.909  -1.837  0.00  0.00     0.002 A 
ATOM      4  C5  UNL d   1      -1.785  -1.863  -2.330  0.00  0.00    -0.080 A 
ATOM      5  C6  UNL d   1      -2.042  -1.274  -3.685  0.00  0.00     0.076 C 
ATOM      6  C7  UNL d   1      -0.742  -1.367  -1.540  0.00  0.00     0.002 A 
ATOM      7  C8  UNL d   1      -0.474  -1.925  -0.288  0.00  0.00     0.006 A 
ENDROOT
BRANCH   1   8
ATOM      8  C1  UNL d   1      -0.919  -3.627   1.521  0.00  0.00     0.054 C 
ATOM      9  C   UNL d   1      -1.641  -2.936   2.668  0.00  0.00     0.018 C 
ENDBRANCH   1   8
TORSDOF 1
ENDMDL
