MODEL 1
REMARK minimizedAffinity -5.00077152
REMARK minimizedRMSD -1
REMARK  1 active torsions:
REMARK  status: ('A' for Active; 'I' for Inactive)
REMARK    1  A    between atoms: C1_2  and  C2_3 
ROOT
ATOM      1  C2  UNL d   1       0.182  -0.654  -0.251  0.00  0.00    -0.081 A 
ATOM      2  C3  UNL d   1      -0.568  -0.077   0.781  0.00  0.00     0.006 A 
ATOM      3  C4  UNL d   1      -0.210   1.166   1.307  0.00  0.00     0.002 A 
ATOM      4  C5  UNL d   1       0.898   1.857   0.805  0.00  0.00    -0.080 A 
ATOM      5  C6  UNL d   1       1.275   3.206   1.340  0.00  0.00     0.076 C 
ATOM      6  C7  UNL d   1       1.658   1.273  -0.214  0.00  0.00     0.002 A 
ATOM      7  C8  UNL d   1       1.301   0.029  -0.740  0.00  0.00     0.006 A 
ENDROOT
BRANCH   1   8
ATOM      8  C1  UNL d   1      -0.239  -1.965  -0.865  0.00  0.00     0.054 C 
ATOM      9  C   UNL d   1      -1.022  -1.748  -2.151  0.00  0.00     0.018 C 
ENDBRANCH   1   8
TORSDOF 1
ENDMDL
