MODEL 1
REMARK minimizedAffinity 3.71804667
REMARK minimizedRMSD -1
REMARK  0 active torsions:
REMARK  status: ('A' for Active; 'I' for Inactive)
ROOT
ATOM      1  C2' OXE d   1       1.479   0.058   2.380  0.00  0.00     0.078 C 
ATOM      2  C1' OXE d   1       0.677   2.559   3.372  0.00  0.00     0.078 C 
ATOM      3  C1  OXE d   1      -0.332   1.756   2.590  0.00  0.00    -0.078 A 
ATOM      4  C2  OXE d   1       0.084   0.554   2.068  0.00  0.00    -0.078 A 
ATOM      5  C3  OXE d   1      -0.823  -0.251   1.384  0.00  0.00     0.003 A 
ATOM      6  C4  OXE d   1      -2.109   0.220   1.091  0.00  0.00    -0.002 A 
ATOM      7  C5  OXE d   1      -2.540   1.458   1.579  0.00  0.00    -0.002 A 
ATOM      8  C6  OXE d   1      -1.679   2.218   2.364  0.00  0.00     0.003 A 
ENDROOT
TORSDOF 0
ENDMDL
