MODEL 1
REMARK minimizedAffinity 4.266922
REMARK minimizedRMSD -1
REMARK  0 active torsions:
REMARK  status: ('A' for Active; 'I' for Inactive)
ROOT
ATOM      1  C2' OXE d   1      -3.326   1.434   1.508  0.00  0.00     0.078 C 
ATOM      2  C1' OXE d   1      -3.026  -1.251   0.746  0.00  0.00     0.078 C 
ATOM      3  C1  OXE d   1      -1.779  -0.472   1.082  0.00  0.00    -0.078 A 
ATOM      4  C2  OXE d   1      -1.931   0.854   1.409  0.00  0.00    -0.078 A 
ATOM      5  C3  OXE d   1      -0.819   1.605   1.781  0.00  0.00     0.003 A 
ATOM      6  C4  OXE d   1       0.468   1.064   1.677  0.00  0.00    -0.002 A 
ATOM      7  C5  OXE d   1       0.648  -0.273   1.308  0.00  0.00    -0.002 A 
ATOM      8  C6  OXE d   1      -0.465  -1.065   1.049  0.00  0.00     0.003 A 
ENDROOT
TORSDOF 0
ENDMDL
