MODEL 1
REMARK minimizedAffinity 0.610922933
REMARK minimizedRMSD -1
REMARK  0 active torsions:
REMARK  status: ('A' for Active; 'I' for Inactive)
ROOT
ATOM      1  C2' OXE d   1      -4.027  -2.389   1.696  0.00  0.00     0.078 C 
ATOM      2  C1' OXE d   1      -5.320  -4.658   2.725  0.00  0.00     0.078 C 
ATOM      3  C1  OXE d   1      -4.710  -3.690   3.708  0.00  0.00    -0.078 A 
ATOM      4  C2  OXE d   1      -4.039  -2.607   3.194  0.00  0.00    -0.078 A 
ATOM      5  C3  OXE d   1      -3.505  -1.654   4.057  0.00  0.00     0.003 A 
ATOM      6  C4  OXE d   1      -3.512  -1.868   5.441  0.00  0.00    -0.002 A 
ATOM      7  C5  OXE d   1      -4.155  -2.985   5.983  0.00  0.00    -0.002 A 
ATOM      8  C6  OXE d   1      -4.795  -3.882   5.134  0.00  0.00     0.003 A 
ENDROOT
TORSDOF 0
ENDMDL
