MODEL 1
REMARK minimizedAffinity 6.51284027
REMARK minimizedRMSD -1
REMARK  0 active torsions:
REMARK  status: ('A' for Active; 'I' for Inactive)
ROOT
ATOM      1  C2' OXE d   1      -5.895   4.884   6.000  0.00  0.00     0.078 C 
ATOM      2  C1' OXE d   1      -4.755   2.318   5.996  0.00  0.00     0.078 C 
ATOM      3  C1  OXE d   1      -5.106   2.934   4.664  0.00  0.00    -0.078 A 
ATOM      4  C2  OXE d   1      -5.706   4.170   4.678  0.00  0.00    -0.078 A 
ATOM      5  C3  OXE d   1      -5.999   4.808   3.476  0.00  0.00     0.003 A 
ATOM      6  C4  OXE d   1      -5.830   4.137   2.259  0.00  0.00    -0.002 A 
ATOM      7  C5  OXE d   1      -5.257   2.861   2.224  0.00  0.00    -0.002 A 
ATOM      8  C6  OXE d   1      -4.851   2.265   3.413  0.00  0.00     0.003 A 
ENDROOT
TORSDOF 0
ENDMDL
