MODEL 1
REMARK minimizedAffinity 5.14727545
REMARK minimizedRMSD -1
REMARK  0 active torsions:
REMARK  status: ('A' for Active; 'I' for Inactive)
ROOT
ATOM      1  C2' OXE d   1       4.989  -0.383   2.812  0.00  0.00     0.078 C 
ATOM      2  C1' OXE d   1       2.500  -1.673   2.956  0.00  0.00     0.078 C 
ATOM      3  C1  OXE d   1       2.643  -0.529   1.984  0.00  0.00    -0.078 A 
ATOM      4  C2  OXE d   1       3.851   0.127   1.954  0.00  0.00    -0.078 A 
ATOM      5  C3  OXE d   1       4.054   1.154   1.037  0.00  0.00     0.003 A 
ATOM      6  C4  OXE d   1       2.994   1.626   0.254  0.00  0.00    -0.002 A 
ATOM      7  C5  OXE d   1       1.744   0.999   0.299  0.00  0.00    -0.002 A 
ATOM      8  C6  OXE d   1       1.565  -0.105   1.125  0.00  0.00     0.003 A 
ENDROOT
TORSDOF 0
ENDMDL
