MODEL 1
REMARK minimizedAffinity 13.3467627
REMARK minimizedRMSD -1
REMARK  0 active torsions:
REMARK  status: ('A' for Active; 'I' for Inactive)
ROOT
ATOM      1  C2' OXE d   1       5.939   0.062   3.193  0.00  0.00     0.078 C 
ATOM      2  C1' OXE d   1       5.991   1.845   1.026  0.00  0.00     0.078 C 
ATOM      3  C1  OXE d   1       4.658   1.265   1.427  0.00  0.00    -0.078 A 
ATOM      4  C2  OXE d   1       4.649   0.357   2.459  0.00  0.00    -0.078 A 
ATOM      5  C3  OXE d   1       3.439  -0.167   2.905  0.00  0.00     0.003 A 
ATOM      6  C4  OXE d   1       2.252   0.103   2.214  0.00  0.00    -0.002 A 
ATOM      7  C5  OXE d   1       2.245   0.994   1.135  0.00  0.00    -0.002 A 
ATOM      8  C6  OXE d   1       3.430   1.615   0.757  0.00  0.00     0.003 A 
ENDROOT
TORSDOF 0
ENDMDL
