MODEL 1
REMARK minimizedAffinity -0.865496337
REMARK minimizedRMSD -1
REMARK  0 active torsions:
REMARK  status: ('A' for Active; 'I' for Inactive)
ROOT
ATOM      1  C2' OXE d   1      -5.772   0.468   5.786  0.00  0.00     0.078 C 
ATOM      2  C1' OXE d   1      -5.999   0.755   3.003  0.00  0.00     0.078 C 
ATOM      3  C1  OXE d   1      -5.847   2.007   3.829  0.00  0.00    -0.078 A 
ATOM      4  C2  OXE d   1      -5.783   1.861   5.194  0.00  0.00    -0.078 A 
ATOM      5  C3  OXE d   1      -5.587   2.980   5.999  0.00  0.00     0.003 A 
ATOM      6  C4  OXE d   1      -5.609   4.265   5.444  0.00  0.00    -0.002 A 
ATOM      7  C5  OXE d   1      -5.712   4.439   4.060  0.00  0.00    -0.002 A 
ATOM      8  C6  OXE d   1      -5.789   3.321   3.236  0.00  0.00     0.003 A 
ENDROOT
TORSDOF 0
ENDMDL
