MODEL 1
REMARK minimizedAffinity 12.7684917
REMARK minimizedRMSD -1
REMARK  0 active torsions:
REMARK  status: ('A' for Active; 'I' for Inactive)
ROOT
ATOM      1  C2' OXE d   1       1.870   2.021  -3.748  0.00  0.00     0.078 C 
ATOM      2  C1' OXE d   1       2.995   3.262  -6.000  0.00  0.00     0.078 C 
ATOM      3  C1  OXE d   1       1.962   4.031  -5.215  0.00  0.00    -0.078 A 
ATOM      4  C2  OXE d   1       1.382   3.398  -4.142  0.00  0.00    -0.078 A 
ATOM      5  C3  OXE d   1       0.463   4.083  -3.352  0.00  0.00     0.003 A 
ATOM      6  C4  OXE d   1       0.011   5.353  -3.729  0.00  0.00    -0.002 A 
ATOM      7  C5  OXE d   1       0.559   6.000  -4.842  0.00  0.00    -0.002 A 
ATOM      8  C6  OXE d   1       1.564   5.372  -5.569  0.00  0.00     0.003 A 
ENDROOT
TORSDOF 0
ENDMDL
