MODEL 1
REMARK minimizedAffinity 10.3667946
REMARK minimizedRMSD -1
REMARK  0 active torsions:
REMARK  status: ('A' for Active; 'I' for Inactive)
ROOT
ATOM      1  C2' OXE d   1      -1.686   1.418   2.832  0.00  0.00     0.078 C 
ATOM      2  C1' OXE d   1      -3.135   0.572   0.582  0.00  0.00     0.078 C 
ATOM      3  C1  OXE d   1      -3.909   1.156   1.738  0.00  0.00    -0.078 A 
ATOM      4  C2  OXE d   1      -3.196   1.524   2.853  0.00  0.00    -0.078 A 
ATOM      5  C3  OXE d   1      -3.854   2.119   3.926  0.00  0.00     0.003 A 
ATOM      6  C4  OXE d   1      -5.251   2.205   3.941  0.00  0.00    -0.002 A 
ATOM      7  C5  OXE d   1      -6.000   1.799   2.831  0.00  0.00    -0.002 A 
ATOM      8  C6  OXE d   1      -5.342   1.313   1.707  0.00  0.00     0.003 A 
ENDROOT
TORSDOF 0
ENDMDL
