MODEL 1
REMARK minimizedAffinity 7.43105364
REMARK minimizedRMSD -1
REMARK  0 active torsions:
REMARK  status: ('A' for Active; 'I' for Inactive)
ROOT
ATOM      1  C2' OXE d   1       0.400   1.765   2.975  0.00  0.00     0.078 C 
ATOM      2  C1' OXE d   1       1.010   0.629   0.482  0.00  0.00     0.078 C 
ATOM      3  C1  OXE d   1      -0.442   0.717   0.878  0.00  0.00    -0.078 A 
ATOM      4  C2  OXE d   1      -0.729   1.232   2.119  0.00  0.00    -0.078 A 
ATOM      5  C3  OXE d   1      -2.055   1.386   2.512  0.00  0.00     0.003 A 
ATOM      6  C4  OXE d   1      -3.093   0.880   1.720  0.00  0.00    -0.002 A 
ATOM      7  C5  OXE d   1      -2.820   0.316   0.469  0.00  0.00    -0.002 A 
ATOM      8  C6  OXE d   1      -1.507   0.266   0.016  0.00  0.00     0.003 A 
ENDROOT
TORSDOF 0
ENDMDL
