MODEL 1
REMARK minimizedAffinity 6.11948013
REMARK minimizedRMSD -1
REMARK  0 active torsions:
REMARK  status: ('A' for Active; 'I' for Inactive)
ROOT
ATOM      1  C2' OXE d   1       0.700   0.167   0.483  0.00  0.00     0.078 C 
ATOM      2  C1' OXE d   1       0.377   1.459   2.954  0.00  0.00     0.078 C 
ATOM      3  C1  OXE d   1      -0.864   1.147   2.155  0.00  0.00    -0.078 A 
ATOM      4  C2  OXE d   1      -0.693   0.557   0.926  0.00  0.00    -0.078 A 
ATOM      5  C3  OXE d   1      -1.808   0.198   0.173  0.00  0.00     0.003 A 
ATOM      6  C4  OXE d   1      -3.092   0.571   0.586  0.00  0.00    -0.002 A 
ATOM      7  C5  OXE d   1      -3.286   1.208   1.816  0.00  0.00    -0.002 A 
ATOM      8  C6  OXE d   1      -2.188   1.465   2.631  0.00  0.00     0.003 A 
ENDROOT
TORSDOF 0
ENDMDL
