MODEL 1
REMARK minimizedAffinity 2.2017982
REMARK minimizedRMSD -1
REMARK  0 active torsions:
REMARK  status: ('A' for Active; 'I' for Inactive)
ROOT
ATOM      1  C2' OXE d   1      -2.804   2.013   2.767  0.00  0.00     0.078 C 
ATOM      2  C1' OXE d   1      -0.121   2.356   3.515  0.00  0.00     0.078 C 
ATOM      3  C1  OXE d   1      -0.429   1.331   2.453  0.00  0.00    -0.078 A 
ATOM      4  C2  OXE d   1      -1.750   1.137   2.126  0.00  0.00    -0.078 A 
ATOM      5  C3  OXE d   1      -2.085   0.243   1.113  0.00  0.00     0.003 A 
ATOM      6  C4  OXE d   1      -1.104  -0.571   0.533  0.00  0.00    -0.002 A 
ATOM      7  C5  OXE d   1       0.242  -0.417   0.879  0.00  0.00    -0.002 A 
ATOM      8  C6  OXE d   1       0.601   0.557   1.805  0.00  0.00     0.003 A 
ENDROOT
TORSDOF 0
ENDMDL
