MODEL 1
REMARK minimizedAffinity -1.12209904
REMARK minimizedRMSD -1
REMARK  0 active torsions:
REMARK  status: ('A' for Active; 'I' for Inactive)
ROOT
ATOM      1  C2' OXE d   1       0.269   1.941  -6.000  0.00  0.00     0.078 C 
ATOM      2  C1' OXE d   1       2.272   2.695  -4.183  0.00  0.00     0.078 C 
ATOM      3  C1  OXE d   1       1.252   3.734  -4.577  0.00  0.00    -0.078 A 
ATOM      4  C2  OXE d   1       0.304   3.370  -5.502  0.00  0.00    -0.078 A 
ATOM      5  C3  OXE d   1      -0.693   4.274  -5.860  0.00  0.00     0.003 A 
ATOM      6  C4  OXE d   1      -0.648   5.597  -5.402  0.00  0.00    -0.002 A 
ATOM      7  C5  OXE d   1       0.333   5.999  -4.490  0.00  0.00    -0.002 A 
ATOM      8  C6  OXE d   1       1.263   5.071  -4.035  0.00  0.00     0.003 A 
ENDROOT
TORSDOF 0
ENDMDL
