MODEL 1
REMARK minimizedAffinity -0.376154184
REMARK minimizedRMSD -1
REMARK  0 active torsions:
REMARK  status: ('A' for Active; 'I' for Inactive)
ROOT
ATOM      1  C2' OXE d   1      -3.518   1.057   0.799  0.00  0.00     0.078 C 
ATOM      2  C1' OXE d   1      -1.151  -0.412   0.461  0.00  0.00     0.078 C 
ATOM      3  C1  OXE d   1      -1.184   0.627   1.554  0.00  0.00    -0.078 A 
ATOM      4  C2  OXE d   1      -2.330   1.373   1.682  0.00  0.00    -0.078 A 
ATOM      5  C3  OXE d   1      -2.434   2.307   2.709  0.00  0.00     0.003 A 
ATOM      6  C4  OXE d   1      -1.327   2.601   3.514  0.00  0.00    -0.002 A 
ATOM      7  C5  OXE d   1      -0.136   1.879   3.375  0.00  0.00    -0.002 A 
ATOM      8  C6  OXE d   1      -0.062   0.862   2.430  0.00  0.00     0.003 A 
ENDROOT
TORSDOF 0
ENDMDL
