MODEL 1
REMARK minimizedAffinity 5.88519859
REMARK minimizedRMSD -1
REMARK  0 active torsions:
REMARK  status: ('A' for Active; 'I' for Inactive)
ROOT
ATOM      1  C2' OXE d   1       2.170   4.919  -6.000  0.00  0.00     0.078 C 
ATOM      2  C1' OXE d   1       1.009   2.452  -5.331  0.00  0.00     0.078 C 
ATOM      3  C1  OXE d   1       2.507   2.501  -5.504  0.00  0.00    -0.078 A 
ATOM      4  C2  OXE d   1       3.061   3.702  -5.878  0.00  0.00    -0.078 A 
ATOM      5  C3  OXE d   1       4.443   3.815  -5.998  0.00  0.00     0.003 A 
ATOM      6  C4  OXE d   1       5.259   2.682  -5.893  0.00  0.00    -0.002 A 
ATOM      7  C5  OXE d   1       4.711   1.441  -5.552  0.00  0.00    -0.002 A 
ATOM      8  C6  OXE d   1       3.344   1.343  -5.313  0.00  0.00     0.003 A 
ENDROOT
TORSDOF 0
ENDMDL
