MODEL 1
REMARK minimizedAffinity 9.20214462
REMARK minimizedRMSD -1
REMARK  0 active torsions:
REMARK  status: ('A' for Active; 'I' for Inactive)
ROOT
ATOM      1  C2' OXE d   1       0.876   0.194   1.092  0.00  0.00     0.078 C 
ATOM      2  C1' OXE d   1       0.455   1.974   3.222  0.00  0.00     0.078 C 
ATOM      3  C1  OXE d   1      -0.757   1.458   2.486  0.00  0.00    -0.078 A 
ATOM      4  C2  OXE d   1      -0.539   0.625   1.415  0.00  0.00    -0.078 A 
ATOM      5  C3  OXE d   1      -1.623   0.077   0.736  0.00  0.00     0.003 A 
ATOM      6  C4  OXE d   1      -2.928   0.489   1.034  0.00  0.00    -0.002 A 
ATOM      7  C5  OXE d   1      -3.169   1.368   2.095  0.00  0.00    -0.002 A 
ATOM      8  C6  OXE d   1      -2.100   1.828   2.856  0.00  0.00     0.003 A 
ENDROOT
TORSDOF 0
ENDMDL
