MODEL 1
REMARK minimizedAffinity 5.54479218
REMARK minimizedRMSD -1
REMARK  0 active torsions:
REMARK  status: ('A' for Active; 'I' for Inactive)
ROOT
ATOM      1  C2' OXE d   1       0.249   1.840   3.229  0.00  0.00     0.078 C 
ATOM      2  C1' OXE d   1       0.437   0.211   0.950  0.00  0.00     0.078 C 
ATOM      3  C1  OXE d   1      -0.924   0.743   1.325  0.00  0.00    -0.078 A 
ATOM      4  C2  OXE d   1      -1.014   1.501   2.468  0.00  0.00    -0.078 A 
ATOM      5  C3  OXE d   1      -2.236   2.061   2.829  0.00  0.00     0.003 A 
ATOM      6  C4  OXE d   1      -3.402   1.733   2.125  0.00  0.00    -0.002 A 
ATOM      7  C5  OXE d   1      -3.338   0.930   0.981  0.00  0.00    -0.002 A 
ATOM      8  C6  OXE d   1      -2.104   0.463   0.544  0.00  0.00     0.003 A 
ENDROOT
TORSDOF 0
ENDMDL
