MODEL 1
REMARK minimizedAffinity 6.16509056
REMARK minimizedRMSD -1
REMARK  0 active torsions:
REMARK  status: ('A' for Active; 'I' for Inactive)
ROOT
ATOM      1  C2' OXE d   1      -3.772   1.163   1.338  0.00  0.00     0.078 C 
ATOM      2  C1' OXE d   1      -1.435  -0.011   0.317  0.00  0.00     0.078 C 
ATOM      3  C1  OXE d   1      -1.323   0.786   1.593  0.00  0.00    -0.078 A 
ATOM      4  C2  OXE d   1      -2.462   1.395   2.060  0.00  0.00    -0.078 A 
ATOM      5  C3  OXE d   1      -2.425   2.096   3.262  0.00  0.00     0.003 A 
ATOM      6  C4  OXE d   1      -1.208   2.315   3.918  0.00  0.00    -0.002 A 
ATOM      7  C5  OXE d   1      -0.028   1.736   3.438  0.00  0.00    -0.002 A 
ATOM      8  C6  OXE d   1      -0.076   0.935   2.302  0.00  0.00     0.003 A 
ENDROOT
TORSDOF 0
ENDMDL
