MODEL 1
REMARK minimizedAffinity 13.6343651
REMARK minimizedRMSD -1
REMARK  0 active torsions:
REMARK  status: ('A' for Active; 'I' for Inactive)
ROOT
ATOM      1  C   UNL d   1       1.557  -0.555  -0.744  0.00  0.00    -0.002 A 
ATOM      2  C1  UNL d   1       2.134  -1.790  -0.486  0.00  0.00     0.010 A 
ATOM      3  C2  UNL d   1       3.507  -1.898  -0.256  0.00  0.00     0.041 A 
ATOM      4  C3  UNL d   1       4.298  -0.732  -0.289  0.00  0.00    -0.075 A 
ATOM      5  S   UNL d   1       6.000  -0.623  -0.036  0.00  0.00     0.015 SA
ATOM      6  C4  UNL d   1       6.000   1.066  -0.265  0.00  0.00     0.022 A 
ATOM      7  C5  UNL d   1       4.741   1.551  -0.528  0.00  0.00     0.026 A 
ATOM      8  C6  UNL d   1       3.739   0.523  -0.546  0.00  0.00    -0.082 A 
ATOM      9  C7  UNL d   1       2.344   0.599  -0.776  0.00  0.00     0.045 A 
ENDROOT
TORSDOF 0
ENDMDL
