MODEL 1
REMARK minimizedAffinity 19.3286228
REMARK minimizedRMSD -1
REMARK  0 active torsions:
REMARK  status: ('A' for Active; 'I' for Inactive)
ROOT
ATOM      1  C   UNL d   1      -5.831   3.901  -3.854  0.00  0.00    -0.002 A 
ATOM      2  C1  UNL d   1      -6.000   3.066  -2.759  0.00  0.00     0.010 A 
ATOM      3  C2  UNL d   1      -5.248   1.896  -2.635  0.00  0.00     0.041 A 
ATOM      4  C3  UNL d   1      -4.312   1.578  -3.639  0.00  0.00    -0.075 A 
ATOM      5  S   UNL d   1      -3.280   0.198  -3.699  0.00  0.00     0.015 SA
ATOM      6  C4  UNL d   1      -2.590   0.686  -5.179  0.00  0.00     0.022 A 
ATOM      7  C5  UNL d   1      -3.123   1.870  -5.631  0.00  0.00     0.026 A 
ATOM      8  C6  UNL d   1      -4.124   2.403  -4.751  0.00  0.00    -0.082 A 
ATOM      9  C7  UNL d   1      -4.903   3.582  -4.848  0.00  0.00     0.045 A 
ENDROOT
TORSDOF 0
ENDMDL
