MODEL 1
REMARK minimizedAffinity 22.5305805
REMARK minimizedRMSD -1
REMARK  0 active torsions:
REMARK  status: ('A' for Active; 'I' for Inactive)
ROOT
ATOM      1  C   UNL d   1      -1.949  -5.723  -4.972  0.00  0.00    -0.002 A 
ATOM      2  C1  UNL d   1      -0.965  -4.867  -5.445  0.00  0.00     0.010 A 
ATOM      3  C2  UNL d   1      -0.062  -4.268  -4.564  0.00  0.00     0.041 A 
ATOM      4  C3  UNL d   1      -0.164  -4.549  -3.188  0.00  0.00    -0.075 A 
ATOM      5  S   UNL d   1       0.834  -3.931  -1.924  0.00  0.00     0.015 SA
ATOM      6  C4  UNL d   1      -0.023  -4.791  -0.727  0.00  0.00     0.022 A 
ATOM      7  C5  UNL d   1      -1.048  -5.535  -1.260  0.00  0.00     0.026 A 
ATOM      8  C6  UNL d   1      -1.146  -5.409  -2.688  0.00  0.00    -0.082 A 
ATOM      9  C7  UNL d   1      -2.047  -6.000  -3.605  0.00  0.00     0.045 A 
ENDROOT
TORSDOF 0
ENDMDL
