MODEL 1
REMARK minimizedAffinity 24.3465214
REMARK minimizedRMSD -1
REMARK  0 active torsions:
REMARK  status: ('A' for Active; 'I' for Inactive)
ROOT
ATOM      1  C   UNL d   1       1.966  -2.000   3.951  0.00  0.00    -0.002 A 
ATOM      2  C1  UNL d   1       0.767  -2.006   3.251  0.00  0.00     0.010 A 
ATOM      3  C2  UNL d   1      -0.172  -3.017   3.460  0.00  0.00     0.041 A 
ATOM      4  C3  UNL d   1       0.115  -4.031   4.395  0.00  0.00    -0.075 A 
ATOM      5  S   UNL d   1      -0.887  -5.370   4.817  0.00  0.00     0.015 SA
ATOM      6  C4  UNL d   1       0.252  -5.965   5.937  0.00  0.00     0.022 A 
ATOM      7  C5  UNL d   1       1.375  -5.174   6.000  0.00  0.00     0.026 A 
ATOM      8  C6  UNL d   1       1.314  -4.046   5.113  0.00  0.00    -0.082 A 
ATOM      9  C7  UNL d   1       2.247  -3.007   4.877  0.00  0.00     0.045 A 
ENDROOT
TORSDOF 0
ENDMDL
