MODEL 1
REMARK minimizedAffinity 0.619510114
REMARK minimizedRMSD -1
REMARK  1 active torsions:
REMARK  status: ('A' for Active; 'I' for Inactive)
REMARK    1  A    between atoms: N_2  and  C1_3 
ROOT
ATOM      1  C1  UNL d   1      -1.304   0.034   1.960  0.00  0.00     0.143 A 
ATOM      2  C2  UNL d   1      -1.234   1.221   1.222  0.00  0.00    -0.057 A 
ATOM      3  C3  UNL d   1      -1.682   1.279  -0.103  0.00  0.00     0.033 A 
ATOM      4  C4  UNL d   1      -2.183   0.140  -0.725  0.00  0.00    -0.042 A 
ATOM      5  C5  UNL d   1      -2.238  -1.056  -0.019  0.00  0.00     0.033 A 
ATOM      6  C6  UNL d   1      -1.795  -1.107   1.307  0.00  0.00    -0.057 A 
ENDROOT
BRANCH   1   7
ATOM      7  N   UNL d   1      -0.784  -0.112   3.248  0.00  0.00    -0.732 N 
ATOM      8  C   UNL d   1       0.114  -1.203   3.561  0.00  0.00     0.284 C 
ATOM      9  H3  UNL d   1      -0.517   0.778   3.663  0.00  0.00     0.395 HD
ENDBRANCH   1   7
TORSDOF 1
ENDMDL
