MODEL 1
REMARK minimizedAffinity -3.1233511
REMARK minimizedRMSD -1
REMARK  1 active torsions:
REMARK  status: ('A' for Active; 'I' for Inactive)
REMARK    1  A    between atoms: N_2  and  C1_3 
ROOT
ATOM      1  C1  UNL d   1       0.407  -1.340   2.954  0.00  0.00     0.143 A 
ATOM      2  C2  UNL d   1      -0.775  -1.669   3.626  0.00  0.00    -0.057 A 
ATOM      3  C3  UNL d   1      -2.027  -1.316   3.108  0.00  0.00     0.033 A 
ATOM      4  C4  UNL d   1      -2.118  -0.601   1.918  0.00  0.00    -0.042 A 
ATOM      5  C5  UNL d   1      -0.955  -0.242   1.246  0.00  0.00     0.033 A 
ATOM      6  C6  UNL d   1       0.292  -0.603   1.765  0.00  0.00    -0.057 A 
ENDROOT
BRANCH   1   7
ATOM      7  N   UNL d   1       1.685  -1.576   3.467  0.00  0.00    -0.732 N 
ATOM      8  C   UNL d   1       1.944  -1.451   4.886  0.00  0.00     0.284 C 
ATOM      9  H3  UNL d   1       2.137  -2.375   3.031  0.00  0.00     0.395 HD
ENDBRANCH   1   7
TORSDOF 1
ENDMDL
