MODEL 1
REMARK minimizedAffinity -1.08717585
REMARK minimizedRMSD -1
REMARK  1 active torsions:
REMARK  status: ('A' for Active; 'I' for Inactive)
REMARK    1  A    between atoms: N_2  and  C1_3 
ROOT
ATOM      1  C1  UNL d   1       0.906  -1.193   3.005  0.00  0.00     0.143 A 
ATOM      2  C2  UNL d   1      -0.016  -0.595   2.140  0.00  0.00    -0.057 A 
ATOM      3  C3  UNL d   1      -1.395  -0.730   2.342  0.00  0.00     0.033 A 
ATOM      4  C4  UNL d   1      -1.877  -1.494   3.399  0.00  0.00    -0.042 A 
ATOM      5  C5  UNL d   1      -0.979  -2.119   4.257  0.00  0.00     0.033 A 
ATOM      6  C6  UNL d   1       0.397  -1.974   4.054  0.00  0.00    -0.057 A 
ENDROOT
BRANCH   1   7
ATOM      7  N   UNL d   1       2.288  -1.177   2.800  0.00  0.00    -0.732 N 
ATOM      8  C   UNL d   1       2.841  -0.759   1.530  0.00  0.00     0.284 C 
ATOM      9  H3  UNL d   1       2.796  -0.828   3.610  0.00  0.00     0.395 HD
ENDBRANCH   1   7
TORSDOF 1
ENDMDL
