MODEL 1
REMARK minimizedAffinity 5.45696592
REMARK minimizedRMSD -1
REMARK  1 active torsions:
REMARK  status: ('A' for Active; 'I' for Inactive)
REMARK    1  A    between atoms: N_2  and  C1_3 
ROOT
ATOM      1  C1  UNL d   1       0.962  -0.652   2.334  0.00  0.00     0.143 A 
ATOM      2  C2  UNL d   1      -0.406  -0.928   2.250  0.00  0.00    -0.057 A 
ATOM      3  C3  UNL d   1      -1.303  -0.000   1.707  0.00  0.00     0.033 A 
ATOM      4  C4  UNL d   1      -0.848   1.237   1.263  0.00  0.00    -0.042 A 
ATOM      5  C5  UNL d   1       0.504   1.544   1.360  0.00  0.00     0.033 A 
ATOM      6  C6  UNL d   1       1.396   0.610   1.897  0.00  0.00    -0.057 A 
ENDROOT
BRANCH   1   7
ATOM      7  N   UNL d   1       1.890  -1.493   2.953  0.00  0.00    -0.732 N 
ATOM      8  C   UNL d   1       1.993  -1.541   4.396  0.00  0.00     0.284 C 
ATOM      9  H3  UNL d   1       1.951  -2.403   2.502  0.00  0.00     0.395 HD
ENDBRANCH   1   7
TORSDOF 1
ENDMDL
