MODEL 1
REMARK minimizedAffinity 9.32109737
REMARK minimizedRMSD -1
REMARK  1 active torsions:
REMARK  status: ('A' for Active; 'I' for Inactive)
REMARK    1  A    between atoms: C1_2  and  C2_3 
ROOT
ATOM      1  C2  UNL d   1      -1.478   1.521   0.461  0.00  0.00    -0.073 A 
ATOM      2  C3  UNL d   1      -0.910   2.506   1.277  0.00  0.00    -0.002 A 
ATOM      3  C4  UNL d   1      -1.676   3.139   2.256  0.00  0.00     0.004 A 
ATOM      4  C5  UNL d   1      -3.015   2.789   2.435  0.00  0.00    -0.004 A 
ATOM      5  C6  UNL d   1      -3.597   1.798   1.638  0.00  0.00    -0.075 A 
ATOM      6  C7  UNL d   1      -5.036   1.411   1.816  0.00  0.00     0.076 C 
ATOM      7  C8  UNL d   1      -2.821   1.169   0.654  0.00  0.00     0.001 A 
ENDROOT
BRANCH   1   8
ATOM      8  C1  UNL d   1      -0.652   0.831  -0.593  0.00  0.00     0.053 C 
ATOM      9  C   UNL d   1      -1.500   0.359  -1.763  0.00  0.00     0.018 C 
ENDBRANCH   1   8
TORSDOF 1
ENDMDL
