MODEL 1
REMARK minimizedAffinity 5.07690763
REMARK minimizedRMSD -1
REMARK  1 active torsions:
REMARK  status: ('A' for Active; 'I' for Inactive)
REMARK    1  A    between atoms: C1_2  and  C2_3 
ROOT
ATOM      1  C2  UNL d   1       2.734  -1.774  -0.574  0.00  0.00    -0.073 A 
ATOM      2  C3  UNL d   1       2.860  -2.245   0.737  0.00  0.00    -0.002 A 
ATOM      3  C4  UNL d   1       1.938  -3.160   1.249  0.00  0.00     0.004 A 
ATOM      4  C5  UNL d   1       0.888  -3.617   0.454  0.00  0.00    -0.004 A 
ATOM      5  C6  UNL d   1       0.752  -3.167  -0.863  0.00  0.00    -0.075 A 
ATOM      6  C7  UNL d   1      -0.375  -3.647  -1.730  0.00  0.00     0.076 C 
ATOM      7  C8  UNL d   1       1.679  -2.246  -1.369  0.00  0.00     0.001 A 
ENDROOT
BRANCH   1   8
ATOM      8  C1  UNL d   1       3.730  -0.791  -1.133  0.00  0.00     0.053 C 
ATOM      9  C   UNL d   1       3.744   0.513  -0.351  0.00  0.00     0.018 C 
ENDBRANCH   1   8
TORSDOF 1
ENDMDL
