MODEL 1
REMARK minimizedAffinity 7.81162596
REMARK minimizedRMSD -1
REMARK  1 active torsions:
REMARK  status: ('A' for Active; 'I' for Inactive)
REMARK    1  A    between atoms: C1_2  and  C2_3 
ROOT
ATOM      1  C2  UNL d   1       2.186  -1.610  -0.890  0.00  0.00    -0.073 A 
ATOM      2  C3  UNL d   1       2.522  -1.859   0.446  0.00  0.00    -0.002 A 
ATOM      3  C4  UNL d   1       1.828  -2.822   1.179  0.00  0.00     0.004 A 
ATOM      4  C5  UNL d   1       0.799  -3.551   0.584  0.00  0.00    -0.004 A 
ATOM      5  C6  UNL d   1       0.457  -3.326  -0.753  0.00  0.00    -0.075 A 
ATOM      6  C7  UNL d   1      -0.650  -4.100  -1.408  0.00  0.00     0.076 C 
ATOM      7  C8  UNL d   1       1.156  -2.355  -1.482  0.00  0.00     0.001 A 
ENDROOT
BRANCH   1   8
ATOM      8  C1  UNL d   1       2.936  -0.575  -1.688  0.00  0.00     0.053 C 
ATOM      9  C   UNL d   1       3.720   0.374  -0.796  0.00  0.00     0.018 C 
ENDBRANCH   1   8
TORSDOF 1
ENDMDL
