MODEL 1
REMARK minimizedAffinity 6.97184658
REMARK minimizedRMSD -1
REMARK  1 active torsions:
REMARK  status: ('A' for Active; 'I' for Inactive)
REMARK    1  A    between atoms: C1_2  and  C2_3 
ROOT
ATOM      1  C2  UNL d   1       4.720   1.289  -0.663  0.00  0.00    -0.073 A 
ATOM      2  C3  UNL d   1       5.232   2.309  -1.473  0.00  0.00    -0.002 A 
ATOM      3  C4  UNL d   1       5.853   3.420  -0.899  0.00  0.00     0.004 A 
ATOM      4  C5  UNL d   1       5.975   3.518   0.487  0.00  0.00    -0.004 A 
ATOM      5  C6  UNL d   1       5.481   2.503   1.312  0.00  0.00    -0.075 A 
ATOM      6  C7  UNL d   1       5.603   2.594   2.805  0.00  0.00     0.076 C 
ATOM      7  C8  UNL d   1       4.856   1.392   0.729  0.00  0.00     0.001 A 
ENDROOT
BRANCH   1   8
ATOM      8  C1  UNL d   1       4.055   0.085  -1.277  0.00  0.00     0.053 C 
ATOM      9  C   UNL d   1       2.887  -0.411  -0.439  0.00  0.00     0.018 C 
ENDBRANCH   1   8
TORSDOF 1
ENDMDL
