MODEL 1
REMARK minimizedAffinity 9.18086338
REMARK minimizedRMSD -1
REMARK  1 active torsions:
REMARK  status: ('A' for Active; 'I' for Inactive)
REMARK    1  A    between atoms: C1_2  and  C2_3 
ROOT
ATOM      1  C2  UNL d   1       2.060   0.440   0.173  0.00  0.00    -0.073 A 
ATOM      2  C3  UNL d   1       1.768   0.607   1.531  0.00  0.00    -0.002 A 
ATOM      3  C4  UNL d   1       0.474   0.934   1.940  0.00  0.00     0.004 A 
ATOM      4  C5  UNL d   1      -0.541   1.091   0.996  0.00  0.00    -0.004 A 
ATOM      5  C6  UNL d   1      -0.272   0.916  -0.365  0.00  0.00    -0.075 A 
ATOM      6  C7  UNL d   1      -1.353   1.083  -1.393  0.00  0.00     0.076 C 
ATOM      7  C8  UNL d   1       1.030   0.590  -0.767  0.00  0.00     0.001 A 
ENDROOT
BRANCH   1   8
ATOM      8  C1  UNL d   1       3.453   0.080  -0.272  0.00  0.00     0.053 C 
ATOM      9  C   UNL d   1       3.991   1.055  -1.307  0.00  0.00     0.018 C 
ENDBRANCH   1   8
TORSDOF 1
ENDMDL
