MODEL 1
REMARK minimizedAffinity 14.4073677
REMARK minimizedRMSD -1
REMARK  1 active torsions:
REMARK  status: ('A' for Active; 'I' for Inactive)
REMARK    1  A    between atoms: C1_2  and  C2_3 
ROOT
ATOM      1  C2  UNL d   1       0.648  -4.611   2.220  0.00  0.00    -0.077 A 
ATOM      2  C3  UNL d   1       0.035  -3.584   2.952  0.00  0.00     0.002 A 
ATOM      3  C4  UNL d   1      -0.100  -2.308   2.401  0.00  0.00     0.002 A 
ATOM      4  C5  UNL d   1       0.370  -2.048   1.116  0.00  0.00    -0.004 A 
ATOM      5  C6  UNL d   1       0.983  -3.062   0.381  0.00  0.00     0.002 A 
ATOM      6  C7  UNL d   1       1.121  -4.338   0.930  0.00  0.00     0.002 A 
ENDROOT
BRANCH   1   7
ATOM      7  C1  UNL d   1       0.751  -6.000   2.793  0.00  0.00     0.055 C 
ATOM      8  C   UNL d   1       1.498  -5.998   4.119  0.00  0.00     0.019 C 
ENDBRANCH   1   7
TORSDOF 1
ENDMDL
