MODEL 1
REMARK minimizedAffinity 9.78656006
REMARK minimizedRMSD -1
REMARK  1 active torsions:
REMARK  status: ('A' for Active; 'I' for Inactive)
REMARK    1  A    between atoms: C1_2  and  C2_3 
ROOT
ATOM      1  C2  UNL d   1      -0.060   2.785  -1.103  0.00  0.00    -0.077 A 
ATOM      2  C3  UNL d   1       0.022   4.174  -0.929  0.00  0.00     0.002 A 
ATOM      3  C4  UNL d   1       0.985   4.723  -0.079  0.00  0.00     0.002 A 
ATOM      4  C5  UNL d   1       1.874   3.892   0.598  0.00  0.00    -0.004 A 
ATOM      5  C6  UNL d   1       1.799   2.509   0.433  0.00  0.00     0.002 A 
ATOM      6  C7  UNL d   1       0.837   1.959  -0.415  0.00  0.00     0.002 A 
ENDROOT
BRANCH   1   7
ATOM      7  C1  UNL d   1      -1.065   2.194  -2.057  0.00  0.00     0.055 C 
ATOM      8  C   UNL d   1      -1.563   3.233  -3.051  0.00  0.00     0.019 C 
ENDBRANCH   1   7
TORSDOF 1
ENDMDL
