MODEL 1
REMARK minimizedAffinity 11.7631912
REMARK minimizedRMSD -1
REMARK  1 active torsions:
REMARK  status: ('A' for Active; 'I' for Inactive)
REMARK    1  A    between atoms: C1_2  and  C2_3 
ROOT
ATOM      1  C2  UNL d   1       0.207  -3.190   1.828  0.00  0.00    -0.077 A 
ATOM      2  C3  UNL d   1       0.901  -1.986   1.646  0.00  0.00     0.002 A 
ATOM      3  C4  UNL d   1       0.296  -0.767   1.959  0.00  0.00     0.002 A 
ATOM      4  C5  UNL d   1      -1.004  -0.741   2.459  0.00  0.00    -0.004 A 
ATOM      5  C6  UNL d   1      -1.704  -1.933   2.642  0.00  0.00     0.002 A 
ATOM      6  C7  UNL d   1      -1.101  -3.152   2.328  0.00  0.00     0.002 A 
ENDROOT
BRANCH   1   7
ATOM      7  C1  UNL d   1       0.875  -4.508   1.538  0.00  0.00     0.055 C 
ATOM      8  C   UNL d   1       0.582  -5.529   2.627  0.00  0.00     0.019 C 
ENDBRANCH   1   7
TORSDOF 1
ENDMDL
