MODEL 1
REMARK minimizedAffinity 14.9631443
REMARK minimizedRMSD -1
REMARK  1 active torsions:
REMARK  status: ('A' for Active; 'I' for Inactive)
REMARK    1  A    between atoms: C1_2  and  C2_3 
ROOT
ATOM      1  C2  UNL d   1       1.630  -0.524   2.013  0.00  0.00    -0.077 A 
ATOM      2  C3  UNL d   1       0.536  -0.209   2.831  0.00  0.00     0.002 A 
ATOM      3  C4  UNL d   1      -0.561  -1.070   2.906  0.00  0.00     0.002 A 
ATOM      4  C5  UNL d   1      -0.571  -2.254   2.171  0.00  0.00    -0.004 A 
ATOM      5  C6  UNL d   1       0.512  -2.575   1.353  0.00  0.00     0.002 A 
ATOM      6  C7  UNL d   1       1.608  -1.715   1.276  0.00  0.00     0.002 A 
ENDROOT
BRANCH   1   7
ATOM      7  C1  UNL d   1       2.835   0.379   1.969  0.00  0.00     0.055 C 
ATOM      8  C   UNL d   1       2.735   1.378   0.824  0.00  0.00     0.019 C 
ENDBRANCH   1   7
TORSDOF 1
ENDMDL
