MODEL 1
REMARK minimizedAffinity 11.3093891
REMARK minimizedRMSD -1
REMARK  1 active torsions:
REMARK  status: ('A' for Active; 'I' for Inactive)
REMARK    1  A    between atoms: C1_2  and  C2_3 
ROOT
ATOM      1  C2  UNL d   1       0.386  -3.821   2.492  0.00  0.00    -0.077 A 
ATOM      2  C3  UNL d   1       1.185  -3.449   1.402  0.00  0.00     0.002 A 
ATOM      3  C4  UNL d   1       1.119  -2.152   0.889  0.00  0.00     0.002 A 
ATOM      4  C5  UNL d   1       0.259  -1.217   1.461  0.00  0.00    -0.004 A 
ATOM      5  C6  UNL d   1      -0.541  -1.579   2.544  0.00  0.00     0.002 A 
ATOM      6  C7  UNL d   1      -0.477  -2.875   3.058  0.00  0.00     0.002 A 
ENDROOT
BRANCH   1   7
ATOM      7  C1  UNL d   1       0.492  -5.205   3.079  0.00  0.00     0.055 C 
ATOM      8  C   UNL d   1       1.612  -6.000   2.424  0.00  0.00     0.019 C 
ENDBRANCH   1   7
TORSDOF 1
ENDMDL
