MODEL 1
REMARK minimizedAffinity 10.0834093
REMARK minimizedRMSD -1
REMARK  1 active torsions:
REMARK  status: ('A' for Active; 'I' for Inactive)
REMARK    1  A    between atoms: C1_2  and  C2_3 
ROOT
ATOM      1  C2  UNL d   1       1.617  -1.878   0.868  0.00  0.00    -0.077 A 
ATOM      2  C3  UNL d   1       1.673  -0.553   1.325  0.00  0.00     0.002 A 
ATOM      3  C4  UNL d   1       0.717  -0.075   2.223  0.00  0.00     0.002 A 
ATOM      4  C5  UNL d   1      -0.298  -0.915   2.675  0.00  0.00    -0.004 A 
ATOM      5  C6  UNL d   1      -0.364  -2.233   2.225  0.00  0.00     0.002 A 
ATOM      6  C7  UNL d   1       0.590  -2.713   1.326  0.00  0.00     0.002 A 
ENDROOT
BRANCH   1   7
ATOM      7  C1  UNL d   1       2.676  -2.409  -0.062  0.00  0.00     0.055 C 
ATOM      8  C   UNL d   1       2.169  -3.608  -0.851  0.00  0.00     0.019 C 
ENDBRANCH   1   7
TORSDOF 1
ENDMDL
