MODEL 1
REMARK minimizedAffinity 9.55944443
REMARK minimizedRMSD -1
REMARK  1 active torsions:
REMARK  status: ('A' for Active; 'I' for Inactive)
REMARK    1  A    between atoms: C1_2  and  C2_3 
ROOT
ATOM      1  C2  UNL d   1      -2.473   4.513  -3.518  0.00  0.00    -0.077 A 
ATOM      2  C3  UNL d   1      -2.412   5.725  -2.816  0.00  0.00     0.002 A 
ATOM      3  C4  UNL d   1      -3.201   5.925  -1.681  0.00  0.00     0.002 A 
ATOM      4  C5  UNL d   1      -4.052   4.916  -1.236  0.00  0.00    -0.004 A 
ATOM      5  C6  UNL d   1      -4.122   3.708  -1.929  0.00  0.00     0.002 A 
ATOM      6  C7  UNL d   1      -3.335   3.507  -3.064  0.00  0.00     0.002 A 
ENDROOT
BRANCH   1   7
ATOM      7  C1  UNL d   1      -1.587   4.278  -4.713  0.00  0.00     0.055 C 
ATOM      8  C   UNL d   1      -2.261   4.732  -6.000  0.00  0.00     0.019 C 
ENDBRANCH   1   7
TORSDOF 1
ENDMDL
