MODEL 1
REMARK minimizedAffinity 4.78311491
REMARK minimizedRMSD -1
REMARK  1 active torsions:
REMARK  status: ('A' for Active; 'I' for Inactive)
REMARK    1  A    between atoms: C1_2  and  C2_3 
ROOT
ATOM      1  C2  UNL d   1       3.286  -3.719  -5.926  0.00  0.00    -0.077 A 
ATOM      2  C3  UNL d   1       1.988  -3.208  -5.783  0.00  0.00     0.002 A 
ATOM      3  C4  UNL d   1       0.892  -4.070  -5.718  0.00  0.00     0.002 A 
ATOM      4  C5  UNL d   1       1.082  -5.448  -5.790  0.00  0.00    -0.004 A 
ATOM      5  C6  UNL d   1       2.369  -5.967  -5.933  0.00  0.00     0.002 A 
ATOM      6  C7  UNL d   1       3.465  -5.107  -6.000  0.00  0.00     0.002 A 
ENDROOT
BRANCH   1   7
ATOM      7  C1  UNL d   1       4.474  -2.793  -5.947  0.00  0.00     0.055 C 
ATOM      8  C   UNL d   1       5.782  -3.571  -5.958  0.00  0.00     0.019 C 
ENDBRANCH   1   7
TORSDOF 1
ENDMDL
