MODEL 1
REMARK minimizedAffinity 8.97323704
REMARK minimizedRMSD -1
REMARK  1 active torsions:
REMARK  status: ('A' for Active; 'I' for Inactive)
REMARK    1  A    between atoms: C1_2  and  C2_3 
ROOT
ATOM      1  C2  UNL d   1      -2.407   4.547  -4.175  0.00  0.00    -0.077 A 
ATOM      2  C3  UNL d   1      -2.987   3.376  -3.667  0.00  0.00     0.002 A 
ATOM      3  C4  UNL d   1      -3.532   3.359  -2.382  0.00  0.00     0.002 A 
ATOM      4  C5  UNL d   1      -3.505   4.509  -1.596  0.00  0.00    -0.004 A 
ATOM      5  C6  UNL d   1      -2.929   5.678  -2.092  0.00  0.00     0.002 A 
ATOM      6  C7  UNL d   1      -2.383   5.697  -3.376  0.00  0.00     0.002 A 
ENDROOT
BRANCH   1   7
ATOM      7  C1  UNL d   1      -1.863   4.582  -5.580  0.00  0.00     0.055 C 
ATOM      8  C   UNL d   1      -1.504   6.000  -6.000  0.00  0.00     0.019 C 
ENDBRANCH   1   7
TORSDOF 1
ENDMDL
