MODEL 1
REMARK minimizedAffinity 2.66340995
REMARK minimizedRMSD -1
REMARK  1 active torsions:
REMARK  status: ('A' for Active; 'I' for Inactive)
REMARK    1  A    between atoms: C1_2  and  C2_3 
ROOT
ATOM      1  C2  UNL d   1      -3.975  -4.586   0.898  0.00  0.00    -0.077 A 
ATOM      2  C3  UNL d   1      -3.582  -3.439   1.602  0.00  0.00     0.002 A 
ATOM      3  C4  UNL d   1      -3.709  -3.385   2.991  0.00  0.00     0.002 A 
ATOM      4  C5  UNL d   1      -4.225  -4.475   3.689  0.00  0.00    -0.004 A 
ATOM      5  C6  UNL d   1      -4.620  -5.620   2.998  0.00  0.00     0.002 A 
ATOM      6  C7  UNL d   1      -4.495  -5.675   1.609  0.00  0.00     0.002 A 
ENDROOT
BRANCH   1   7
ATOM      7  C1  UNL d   1      -3.793  -4.666  -0.595  0.00  0.00     0.055 C 
ATOM      8  C   UNL d   1      -4.605  -5.806  -1.192  0.00  0.00     0.019 C 
ENDBRANCH   1   7
TORSDOF 1
ENDMDL
