MODEL 1
REMARK minimizedAffinity 16.3801308
REMARK minimizedRMSD -1
REMARK  0 active torsions:
REMARK  status: ('A' for Active; 'I' for Inactive)
ROOT
ATOM      1  C   UNL d   1       2.335   1.947  -0.374  0.00  0.00    -0.002 A 
ATOM      2  C1  UNL d   1       3.019   0.754  -0.187  0.00  0.00     0.010 A 
ATOM      3  C2  UNL d   1       2.899   0.047   1.012  0.00  0.00     0.041 A 
ATOM      4  C3  UNL d   1       2.071   0.563   2.028  0.00  0.00    -0.075 A 
ATOM      5  S   UNL d   1       1.771  -0.130   3.577  0.00  0.00     0.015 SA
ATOM      6  C4  UNL d   1       0.728   1.140   4.027  0.00  0.00     0.022 A 
ATOM      7  C5  UNL d   1       0.600   2.080   3.031  0.00  0.00     0.026 A 
ATOM      8  C6  UNL d   1       1.372   1.762   1.862  0.00  0.00    -0.082 A 
ATOM      9  C7  UNL d   1       1.515   2.456   0.636  0.00  0.00     0.045 A 
ENDROOT
TORSDOF 0
ENDMDL
