MODEL 1
REMARK minimizedAffinity 19.6643448
REMARK minimizedRMSD -1
REMARK  0 active torsions:
REMARK  status: ('A' for Active; 'I' for Inactive)
ROOT
ATOM      1  C   UNL d   1      -5.524  -0.540   4.008  0.00  0.00    -0.002 A 
ATOM      2  C1  UNL d   1      -5.998  -0.416   5.307  0.00  0.00     0.010 A 
ATOM      3  C2  UNL d   1      -5.872   0.792   5.996  0.00  0.00     0.041 A 
ATOM      4  C3  UNL d   1      -5.258   1.884   5.352  0.00  0.00    -0.075 A 
ATOM      5  S   UNL d   1      -4.997   3.460   6.000  0.00  0.00     0.015 SA
ATOM      6  C4  UNL d   1      -4.251   4.006   4.568  0.00  0.00     0.022 A 
ATOM      7  C5  UNL d   1      -4.194   3.023   3.609  0.00  0.00     0.026 A 
ATOM      8  C6  UNL d   1      -4.775   1.784   4.044  0.00  0.00    -0.082 A 
ATOM      9  C7  UNL d   1      -4.916   0.546   3.373  0.00  0.00     0.045 A 
ENDROOT
TORSDOF 0
ENDMDL
