MODEL 1
REMARK minimizedAffinity 21.2199726
REMARK minimizedRMSD -1
REMARK  0 active torsions:
REMARK  status: ('A' for Active; 'I' for Inactive)
ROOT
ATOM      1  C   UNL d   1      -4.501   2.679   2.699  0.00  0.00    -0.002 A 
ATOM      2  C1  UNL d   1      -3.317   2.494   3.398  0.00  0.00     0.010 A 
ATOM      3  C2  UNL d   1      -2.097   2.891   2.847  0.00  0.00     0.041 A 
ATOM      4  C3  UNL d   1      -2.088   3.484   1.569  0.00  0.00    -0.075 A 
ATOM      5  S   UNL d   1      -0.713   4.050   0.696  0.00  0.00     0.015 SA
ATOM      6  C4  UNL d   1      -1.665   4.551  -0.625  0.00  0.00     0.022 A 
ATOM      7  C5  UNL d   1      -3.002   4.301  -0.422  0.00  0.00     0.026 A 
ATOM      8  C6  UNL d   1      -3.267   3.682   0.846  0.00  0.00    -0.082 A 
ATOM      9  C7  UNL d   1      -4.488   3.268   1.432  0.00  0.00     0.045 A 
ENDROOT
TORSDOF 0
ENDMDL
