MODEL 1
REMARK minimizedAffinity 17.4197712
REMARK minimizedRMSD -1
REMARK  0 active torsions:
REMARK  status: ('A' for Active; 'I' for Inactive)
ROOT
ATOM      1  C   UNL d   1       2.165   5.381  -5.609  0.00  0.00    -0.002 A 
ATOM      2  C1  UNL d   1       2.116   5.723  -4.265  0.00  0.00     0.010 A 
ATOM      3  C2  UNL d   1       2.505   4.808  -3.284  0.00  0.00     0.041 A 
ATOM      4  C3  UNL d   1       2.951   3.532  -3.681  0.00  0.00    -0.075 A 
ATOM      5  S   UNL d   1       3.478   2.249  -2.656  0.00  0.00     0.015 SA
ATOM      6  C4  UNL d   1       3.781   1.218  -3.979  0.00  0.00     0.022 A 
ATOM      7  C5  UNL d   1       3.493   1.820  -5.180  0.00  0.00     0.026 A 
ATOM      8  C6  UNL d   1       3.010   3.164  -5.029  0.00  0.00    -0.082 A 
ATOM      9  C7  UNL d   1       2.608   4.114  -5.999  0.00  0.00     0.045 A 
ENDROOT
TORSDOF 0
ENDMDL
