MODEL 1
REMARK minimizedAffinity 19.094759
REMARK minimizedRMSD -1
REMARK  0 active torsions:
REMARK  status: ('A' for Active; 'I' for Inactive)
ROOT
ATOM      1  C   UNL d   1      -6.000  -5.027  -2.942  0.00  0.00    -0.002 A 
ATOM      2  C1  UNL d   1      -6.000  -3.764  -3.515  0.00  0.00     0.010 A 
ATOM      3  C2  UNL d   1      -4.798  -3.106  -3.783  0.00  0.00     0.041 A 
ATOM      4  C3  UNL d   1      -3.584  -3.746  -3.465  0.00  0.00    -0.075 A 
ATOM      5  S   UNL d   1      -1.991  -3.133  -3.705  0.00  0.00     0.015 SA
ATOM      6  C4  UNL d   1      -1.273  -4.535  -3.053  0.00  0.00     0.022 A 
ATOM      7  C5  UNL d   1      -2.211  -5.459  -2.657  0.00  0.00     0.026 A 
ATOM      8  C6  UNL d   1      -3.559  -5.020  -2.888  0.00  0.00    -0.082 A 
ATOM      9  C7  UNL d   1      -4.794  -5.660  -2.628  0.00  0.00     0.045 A 
ENDROOT
TORSDOF 0
ENDMDL
