MODEL 1
REMARK minimizedAffinity 10.1657639
REMARK minimizedRMSD -1
REMARK  0 active torsions:
REMARK  status: ('A' for Active; 'I' for Inactive)
ROOT
ATOM      1  C   UNL d   1       1.297  -0.098   4.626  0.00  0.00    -0.002 A 
ATOM      2  C1  UNL d   1       2.650   0.022   4.342  0.00  0.00     0.010 A 
ATOM      3  C2  UNL d   1       3.114   1.049   3.517  0.00  0.00     0.041 A 
ATOM      4  C3  UNL d   1       2.187   1.964   2.981  0.00  0.00    -0.075 A 
ATOM      5  S   UNL d   1       2.526   3.302   1.947  0.00  0.00     0.015 SA
ATOM      6  C4  UNL d   1       0.883   3.746   1.860  0.00  0.00     0.022 A 
ATOM      7  C5  UNL d   1       0.081   2.905   2.595  0.00  0.00     0.026 A 
ATOM      8  C6  UNL d   1       0.820   1.864   3.253  0.00  0.00    -0.082 A 
ATOM      9  C7  UNL d   1       0.381   0.811   4.092  0.00  0.00     0.045 A 
ENDROOT
TORSDOF 0
ENDMDL
