MODEL 1
REMARK minimizedAffinity 29.8499069
REMARK minimizedRMSD -1
REMARK  0 active torsions:
REMARK  status: ('A' for Active; 'I' for Inactive)
ROOT
ATOM      1  C   UNL d   1      -4.739  -5.973  -0.668  0.00  0.00    -0.002 A 
ATOM      2  C1  UNL d   1      -5.895  -5.999  -1.436  0.00  0.00     0.010 A 
ATOM      3  C2  UNL d   1      -5.998  -5.223  -2.592  0.00  0.00     0.041 A 
ATOM      4  C3  UNL d   1      -4.908  -4.413  -2.968  0.00  0.00    -0.075 A 
ATOM      5  S   UNL d   1      -4.808  -3.380  -4.345  0.00  0.00     0.015 SA
ATOM      6  C4  UNL d   1      -3.228  -2.879  -3.946  0.00  0.00     0.022 A 
ATOM      7  C5  UNL d   1      -2.773  -3.476  -2.795  0.00  0.00     0.026 A 
ATOM      8  C6  UNL d   1      -3.734  -4.370  -2.212  0.00  0.00    -0.082 A 
ATOM      9  C7  UNL d   1      -3.661  -5.168  -1.045  0.00  0.00     0.045 A 
ENDROOT
TORSDOF 0
ENDMDL
