MODEL 1
REMARK minimizedAffinity 25.8657761
REMARK minimizedRMSD -1
REMARK  0 active torsions:
REMARK  status: ('A' for Active; 'I' for Inactive)
ROOT
ATOM      1  C   UNL d   1      -1.633  -3.772   1.946  0.00  0.00    -0.002 A 
ATOM      2  C1  UNL d   1      -2.326  -4.974   1.961  0.00  0.00     0.010 A 
ATOM      3  C2  UNL d   1      -2.986  -5.427   0.817  0.00  0.00     0.041 A 
ATOM      4  C3  UNL d   1      -2.935  -4.645  -0.354  0.00  0.00    -0.075 A 
ATOM      5  S   UNL d   1      -3.667  -5.000  -1.874  0.00  0.00     0.015 SA
ATOM      6  C4  UNL d   1      -3.076  -3.565  -2.578  0.00  0.00     0.022 A 
ATOM      7  C5  UNL d   1      -2.337  -2.821  -1.690  0.00  0.00     0.026 A 
ATOM      8  C6  UNL d   1      -2.243  -3.431  -0.393  0.00  0.00    -0.082 A 
ATOM      9  C7  UNL d   1      -1.585  -2.999   0.783  0.00  0.00     0.045 A 
ENDROOT
TORSDOF 0
ENDMDL
