MODEL 1
REMARK minimizedAffinity 17.1909237
REMARK minimizedRMSD -1
REMARK  0 active torsions:
REMARK  status: ('A' for Active; 'I' for Inactive)
ROOT
ATOM      1  C   UNL d   1      -0.561  -1.947   0.702  0.00  0.00    -0.002 A 
ATOM      2  C1  UNL d   1      -1.606  -2.704   1.212  0.00  0.00     0.010 A 
ATOM      3  C2  UNL d   1      -2.576  -3.239   0.362  0.00  0.00     0.041 A 
ATOM      4  C3  UNL d   1      -2.476  -3.000  -1.022  0.00  0.00    -0.075 A 
ATOM      5  S   UNL d   1      -3.548  -3.556  -2.253  0.00  0.00     0.015 SA
ATOM      6  C4  UNL d   1      -2.643  -2.802  -3.485  0.00  0.00     0.022 A 
ATOM      7  C5  UNL d   1      -1.547  -2.138  -2.988  0.00  0.00     0.026 A 
ATOM      8  C6  UNL d   1      -1.432  -2.242  -1.560  0.00  0.00    -0.082 A 
ATOM      9  C7  UNL d   1      -0.465  -1.712  -0.672  0.00  0.00     0.045 A 
ENDROOT
TORSDOF 0
ENDMDL
