MODEL 1
REMARK minimizedAffinity 8.73875427
REMARK minimizedRMSD -1
REMARK  0 active torsions:
REMARK  status: ('A' for Active; 'I' for Inactive)
ROOT
ATOM      1  C   UNL d   1      -1.496  -2.385  -0.322  0.00  0.00    -0.002 A 
ATOM      2  C1  UNL d   1      -0.217  -2.880  -0.111  0.00  0.00     0.010 A 
ATOM      3  C2  UNL d   1       0.599  -3.226  -1.190  0.00  0.00     0.041 A 
ATOM      4  C3  UNL d   1       0.103  -3.063  -2.499  0.00  0.00    -0.075 A 
ATOM      5  S   UNL d   1       0.923  -3.419  -3.973  0.00  0.00     0.015 SA
ATOM      6  C4  UNL d   1      -0.405  -2.921  -4.918  0.00  0.00     0.022 A 
ATOM      7  C5  UNL d   1      -1.457  -2.491  -4.145  0.00  0.00     0.026 A 
ATOM      8  C6  UNL d   1      -1.181  -2.565  -2.737  0.00  0.00    -0.082 A 
ATOM      9  C7  UNL d   1      -1.984  -2.224  -1.622  0.00  0.00     0.045 A 
ENDROOT
TORSDOF 0
ENDMDL
