MODEL 1
REMARK minimizedAffinity 11.5570583
REMARK minimizedRMSD -1
REMARK  0 active torsions:
REMARK  status: ('A' for Active; 'I' for Inactive)
ROOT
ATOM      1  C   UNL d   1      -1.283  -5.995   1.723  0.00  0.00    -0.002 A 
ATOM      2  C1  UNL d   1      -2.542  -6.000   1.138  0.00  0.00     0.010 A 
ATOM      3  C2  UNL d   1      -3.113  -4.814   0.672  0.00  0.00     0.041 A 
ATOM      4  C3  UNL d   1      -2.391  -3.612   0.804  0.00  0.00    -0.075 A 
ATOM      5  S   UNL d   1      -2.891  -2.039   0.305  0.00  0.00     0.015 SA
ATOM      6  C4  UNL d   1      -1.445  -1.324   0.855  0.00  0.00     0.022 A 
ATOM      7  C5  UNL d   1      -0.591  -2.247   1.408  0.00  0.00     0.026 A 
ATOM      8  C6  UNL d   1      -1.121  -3.582   1.388  0.00  0.00    -0.082 A 
ATOM      9  C7  UNL d   1      -0.570  -4.800   1.851  0.00  0.00     0.045 A 
ENDROOT
TORSDOF 0
ENDMDL
