MODEL 1
REMARK minimizedAffinity 5.85954475
REMARK minimizedRMSD -1
REMARK  0 active torsions:
REMARK  status: ('A' for Active; 'I' for Inactive)
ROOT
ATOM      1  C   UNL d   1       3.250   1.316  -5.991  0.00  0.00    -0.002 A 
ATOM      2  C1  UNL d   1       4.624   1.120  -5.995  0.00  0.00     0.010 A 
ATOM      3  C2  UNL d   1       5.497   2.210  -5.998  0.00  0.00     0.041 A 
ATOM      4  C3  UNL d   1       4.960   3.513  -5.996  0.00  0.00    -0.075 A 
ATOM      5  S   UNL d   1       5.836   4.998  -5.999  0.00  0.00     0.015 SA
ATOM      6  C4  UNL d   1       4.407   5.927  -5.995  0.00  0.00     0.022 A 
ATOM      7  C5  UNL d   1       3.280   5.139  -5.991  0.00  0.00     0.026 A 
ATOM      8  C6  UNL d   1       3.580   3.735  -5.992  0.00  0.00    -0.082 A 
ATOM      9  C7  UNL d   1       2.722   2.609  -5.989  0.00  0.00     0.045 A 
ENDROOT
TORSDOF 0
ENDMDL
