MODEL 1
REMARK minimizedAffinity 1.10753596
REMARK minimizedRMSD -1
REMARK  0 active torsions:
REMARK  status: ('A' for Active; 'I' for Inactive)
ROOT
ATOM      1  C   UNL d   1       1.410   0.955   1.012  0.00  0.00     0.124 A 
ATOM      2  C1  UNL d   1       0.057   1.149   1.256  0.00  0.00     0.062 A 
ATOM      3  C2  UNL d   1      -0.891   0.361   0.610  0.00  0.00     0.162 A 
ATOM      4  C3  UNL d   1      -0.489  -0.629  -0.288  0.00  0.00    -0.034 A 
ATOM      5  C4  UNL d   1       0.873  -0.817  -0.529  0.00  0.00     0.162 A 
ATOM      6  C5  UNL d   1       1.816  -0.027   0.120  0.00  0.00     0.062 A 
ATOM      7  F   UNL d   1       3.123  -0.216  -0.118  0.00  0.00    -0.097 F 
ATOM      8  F1  UNL d   1       1.293  -1.760  -1.386  0.00  0.00    -0.096 F 
ATOM      9  I   UNL d   1      -1.904  -1.809  -1.257  0.00  0.00    -0.060 I 
ATOM     10  F2  UNL d   1      -2.191   0.570   0.865  0.00  0.00    -0.096 F 
ATOM     11  F3  UNL d   1      -0.338   2.098   2.117  0.00  0.00    -0.097 F 
ATOM     12  F4  UNL d   1       2.320   1.715   1.635  0.00  0.00    -0.092 F 
ENDROOT
TORSDOF 0
ENDMDL
