MODEL 1
REMARK minimizedAffinity -3.4576149
REMARK minimizedRMSD -1
REMARK  0 active torsions:
REMARK  status: ('A' for Active; 'I' for Inactive)
ROOT
ATOM      1  C   UNL d   1       1.908   1.002   1.013  0.00  0.00     0.124 A 
ATOM      2  C1  UNL d   1       2.285  -0.094   0.249  0.00  0.00     0.062 A 
ATOM      3  C2  UNL d   1       1.322  -0.858  -0.402  0.00  0.00     0.162 A 
ATOM      4  C3  UNL d   1      -0.030  -0.529  -0.294  0.00  0.00    -0.034 A 
ATOM      5  C4  UNL d   1      -0.401   0.575   0.477  0.00  0.00     0.162 A 
ATOM      6  C5  UNL d   1       0.566   1.335   1.126  0.00  0.00     0.062 A 
ATOM      7  F   UNL d   1       0.200   2.394   1.863  0.00  0.00    -0.097 F 
ATOM      8  F1  UNL d   1      -1.691   0.920   0.602  0.00  0.00    -0.096 F 
ATOM      9  I   UNL d   1      -1.474  -1.669  -1.266  0.00  0.00    -0.060 I 
ATOM     10  F2  UNL d   1       1.715  -1.912  -1.133  0.00  0.00    -0.096 F 
ATOM     11  F3  UNL d   1       3.582  -0.419   0.139  0.00  0.00    -0.097 F 
ATOM     12  F4  UNL d   1       2.838   1.735   1.639  0.00  0.00    -0.092 F 
ENDROOT
TORSDOF 0
ENDMDL
