MODEL 1
REMARK minimizedAffinity -0.912259758
REMARK minimizedRMSD -1
REMARK  0 active torsions:
REMARK  status: ('A' for Active; 'I' for Inactive)
ROOT
ATOM      1  C   UNL d   1       1.864   1.308   1.043  0.00  0.00     0.124 A 
ATOM      2  C1  UNL d   1       2.269   0.271   0.214  0.00  0.00     0.062 A 
ATOM      3  C2  UNL d   1       1.324  -0.556  -0.387  0.00  0.00     0.162 A 
ATOM      4  C3  UNL d   1      -0.037  -0.349  -0.161  0.00  0.00    -0.034 A 
ATOM      5  C4  UNL d   1      -0.437   0.695   0.675  0.00  0.00     0.162 A 
ATOM      6  C5  UNL d   1       0.511   1.519   1.273  0.00  0.00     0.062 A 
ATOM      7  F   UNL d   1       0.117   2.519   2.074  0.00  0.00    -0.097 F 
ATOM      8  F1  UNL d   1      -1.737   0.921   0.914  0.00  0.00    -0.096 F 
ATOM      9  I   UNL d   1      -1.453  -1.584  -1.056  0.00  0.00    -0.060 I 
ATOM     10  F2  UNL d   1       1.745  -1.549  -1.183  0.00  0.00    -0.096 F 
ATOM     11  F3  UNL d   1       3.575   0.065  -0.010  0.00  0.00    -0.097 F 
ATOM     12  F4  UNL d   1       2.775   2.102   1.620  0.00  0.00    -0.092 F 
ENDROOT
TORSDOF 0
ENDMDL
