MODEL 1
REMARK minimizedAffinity -0.595182657
REMARK minimizedRMSD -1
REMARK  0 active torsions:
REMARK  status: ('A' for Active; 'I' for Inactive)
ROOT
ATOM      1  C   UNL d   1       1.410   0.906   1.157  0.00  0.00     0.124 A 
ATOM      2  C1  UNL d   1       0.053   1.027   1.422  0.00  0.00     0.062 A 
ATOM      3  C2  UNL d   1      -0.865   0.222   0.755  0.00  0.00     0.162 A 
ATOM      4  C3  UNL d   1      -0.429  -0.714  -0.184  0.00  0.00    -0.034 A 
ATOM      5  C4  UNL d   1       0.937  -0.830  -0.445  0.00  0.00     0.162 A 
ATOM      6  C5  UNL d   1       1.851  -0.023   0.224  0.00  0.00     0.062 A 
ATOM      7  F   UNL d   1       3.162  -0.142  -0.033  0.00  0.00    -0.097 F 
ATOM      8  F1  UNL d   1       1.390  -1.720  -1.341  0.00  0.00    -0.096 F 
ATOM      9  I   UNL d   1      -1.799  -1.920  -1.183  0.00  0.00    -0.060 I 
ATOM     10  F2  UNL d   1      -2.170   0.361   1.030  0.00  0.00    -0.096 F 
ATOM     11  F3  UNL d   1      -0.375   1.924   2.322  0.00  0.00    -0.097 F 
ATOM     12  F4  UNL d   1       2.292   1.683   1.800  0.00  0.00    -0.092 F 
ENDROOT
TORSDOF 0
ENDMDL
