MODEL 1
REMARK minimizedAffinity -1.62734568
REMARK minimizedRMSD -1
REMARK  0 active torsions:
REMARK  status: ('A' for Active; 'I' for Inactive)
ROOT
ATOM      1  C   UNL d   1       1.579   0.848   1.005  0.00  0.00     0.124 A 
ATOM      2  C1  UNL d   1       1.890  -0.036  -0.019  0.00  0.00     0.062 A 
ATOM      3  C2  UNL d   1       0.888  -0.790  -0.623  0.00  0.00     0.162 A 
ATOM      4  C3  UNL d   1      -0.437  -0.663  -0.205  0.00  0.00    -0.034 A 
ATOM      5  C4  UNL d   1      -0.742   0.227   0.827  0.00  0.00     0.162 A 
ATOM      6  C5  UNL d   1       0.263   0.979   1.427  0.00  0.00     0.062 A 
ATOM      7  F   UNL d   1      -0.040   1.832   2.416  0.00  0.00    -0.097 F 
ATOM      8  F1  UNL d   1      -2.006   0.374   1.253  0.00  0.00    -0.096 F 
ATOM      9  I   UNL d   1      -1.938  -1.788  -1.105  0.00  0.00    -0.060 I 
ATOM     10  F2  UNL d   1       1.218  -1.636  -1.610  0.00  0.00    -0.096 F 
ATOM     11  F3  UNL d   1       3.161  -0.165  -0.428  0.00  0.00    -0.097 F 
ATOM     12  F4  UNL d   1       2.545   1.571   1.585  0.00  0.00    -0.092 F 
ENDROOT
TORSDOF 0
ENDMDL
