MODEL 1
REMARK minimizedAffinity 4.24391317
REMARK minimizedRMSD -1
REMARK  0 active torsions:
REMARK  status: ('A' for Active; 'I' for Inactive)
ROOT
ATOM      1  C   UNL d   1       1.103   0.747   0.925  0.00  0.00     0.124 A 
ATOM      2  C1  UNL d   1       1.622   0.127  -0.203  0.00  0.00     0.062 A 
ATOM      3  C2  UNL d   1       0.806  -0.124  -1.302  0.00  0.00     0.162 A 
ATOM      4  C3  UNL d   1      -0.539   0.247  -1.279  0.00  0.00    -0.034 A 
ATOM      5  C4  UNL d   1      -1.054   0.869  -0.140  0.00  0.00     0.162 A 
ATOM      6  C5  UNL d   1      -0.234   1.117   0.956  0.00  0.00     0.062 A 
ATOM      7  F   UNL d   1      -0.737   1.716   2.045  0.00  0.00    -0.097 F 
ATOM      8  F1  UNL d   1      -2.342   1.238  -0.085  0.00  0.00    -0.096 F 
ATOM      9  I   UNL d   1      -1.763  -0.126  -2.920  0.00  0.00    -0.060 I 
ATOM     10  F2  UNL d   1       1.334  -0.724  -2.379  0.00  0.00    -0.096 F 
ATOM     11  F3  UNL d   1       2.913  -0.233  -0.235  0.00  0.00    -0.097 F 
ATOM     12  F4  UNL d   1       1.891   0.986   1.982  0.00  0.00    -0.092 F 
ENDROOT
TORSDOF 0
ENDMDL
