MODEL 1
REMARK minimizedAffinity 4.26026249
REMARK minimizedRMSD -1
REMARK  0 active torsions:
REMARK  status: ('A' for Active; 'I' for Inactive)
ROOT
ATOM      1  C   UNL d   1      -0.914   1.009   0.868  0.00  0.00     0.124 A 
ATOM      2  C1  UNL d   1      -2.095   0.977   0.140  0.00  0.00     0.062 A 
ATOM      3  C2  UNL d   1      -2.287   0.009  -0.841  0.00  0.00     0.162 A 
ATOM      4  C3  UNL d   1      -1.295  -0.937  -1.100  0.00  0.00    -0.034 A 
ATOM      5  C4  UNL d   1      -0.109  -0.898  -0.364  0.00  0.00     0.162 A 
ATOM      6  C5  UNL d   1       0.078   0.072   0.615  0.00  0.00     0.062 A 
ATOM      7  F   UNL d   1       1.220   0.102   1.318  0.00  0.00    -0.097 F 
ATOM      8  F1  UNL d   1       0.866  -1.792  -0.587  0.00  0.00    -0.096 F 
ATOM      9  I   UNL d   1      -1.577  -2.387  -2.566  0.00  0.00    -0.060 I 
ATOM     10  F2  UNL d   1      -3.438   0.001  -1.529  0.00  0.00    -0.096 F 
ATOM     11  F3  UNL d   1      -3.055   1.882   0.382  0.00  0.00    -0.097 F 
ATOM     12  F4  UNL d   1      -0.732   1.943   1.811  0.00  0.00    -0.092 F 
ENDROOT
TORSDOF 0
ENDMDL
