MODEL 1
REMARK minimizedAffinity -0.431573331
REMARK minimizedRMSD -1
REMARK  0 active torsions:
REMARK  status: ('A' for Active; 'I' for Inactive)
ROOT
ATOM      1  C   UNL d   1       1.173   1.077   1.123  0.00  0.00     0.124 A 
ATOM      2  C1  UNL d   1       1.678   0.213   0.161  0.00  0.00     0.062 A 
ATOM      3  C2  UNL d   1       0.820  -0.621  -0.550  0.00  0.00     0.162 A 
ATOM      4  C3  UNL d   1      -0.552  -0.596  -0.302  0.00  0.00    -0.034 A 
ATOM      5  C4  UNL d   1      -1.053   0.275   0.668  0.00  0.00     0.162 A 
ATOM      6  C5  UNL d   1      -0.191   1.107   1.376  0.00  0.00     0.062 A 
ATOM      7  F   UNL d   1      -0.681   1.941   2.305  0.00  0.00    -0.097 F 
ATOM      8  F1  UNL d   1      -2.367   0.325   0.932  0.00  0.00    -0.096 F 
ATOM      9  I   UNL d   1      -1.838  -1.842  -1.362  0.00  0.00    -0.060 I 
ATOM     10  F2  UNL d   1       1.335  -1.445  -1.474  0.00  0.00    -0.096 F 
ATOM     11  F3  UNL d   1       2.996   0.182  -0.085  0.00  0.00    -0.097 F 
ATOM     12  F4  UNL d   1       2.001   1.878   1.806  0.00  0.00    -0.092 F 
ENDROOT
TORSDOF 0
ENDMDL
