MODEL 1
REMARK minimizedAffinity -0.280096442
REMARK minimizedRMSD -1
REMARK  0 active torsions:
REMARK  status: ('A' for Active; 'I' for Inactive)
ROOT
ATOM      1  C   UNL d   1       1.347   0.833   1.053  0.00  0.00     0.124 A 
ATOM      2  C1  UNL d   1      -0.001   0.985   1.345  0.00  0.00     0.062 A 
ATOM      3  C2  UNL d   1      -0.955   0.246   0.651  0.00  0.00     0.162 A 
ATOM      4  C3  UNL d   1      -0.564  -0.654  -0.340  0.00  0.00    -0.034 A 
ATOM      5  C4  UNL d   1       0.794  -0.801  -0.628  0.00  0.00     0.162 A 
ATOM      6  C5  UNL d   1       1.744  -0.060   0.068  0.00  0.00     0.062 A 
ATOM      7  F   UNL d   1       3.046  -0.208  -0.215  0.00  0.00    -0.097 F 
ATOM      8  F1  UNL d   1       1.205  -1.657  -1.575  0.00  0.00    -0.096 F 
ATOM      9  I   UNL d   1      -1.987  -1.762  -1.379  0.00  0.00    -0.060 I 
ATOM     10  F2  UNL d   1      -2.251   0.413   0.954  0.00  0.00    -0.096 F 
ATOM     11  F3  UNL d   1      -0.387   1.848   2.296  0.00  0.00    -0.097 F 
ATOM     12  F4  UNL d   1       2.263   1.547   1.721  0.00  0.00    -0.092 F 
ENDROOT
TORSDOF 0
ENDMDL
