MODEL 1
REMARK minimizedAffinity 0.401043534
REMARK minimizedRMSD -1
REMARK  0 active torsions:
REMARK  status: ('A' for Active; 'I' for Inactive)
ROOT
ATOM      1  C   UNL d   1       2.015   1.444   1.390  0.00  0.00     0.124 A 
ATOM      2  C1  UNL d   1       0.653   1.574   1.624  0.00  0.00     0.062 A 
ATOM      3  C2  UNL d   1      -0.252   0.750   0.962  0.00  0.00     0.162 A 
ATOM      4  C3  UNL d   1       0.201  -0.212   0.060  0.00  0.00    -0.034 A 
ATOM      5  C4  UNL d   1       1.572  -0.337  -0.170  0.00  0.00     0.162 A 
ATOM      6  C5  UNL d   1       2.473   0.489   0.494  0.00  0.00     0.062 A 
ATOM      7  F   UNL d   1       3.789   0.362   0.267  0.00  0.00    -0.097 F 
ATOM      8  F1  UNL d   1       2.043  -1.252  -1.031  0.00  0.00    -0.096 F 
ATOM      9  I   UNL d   1      -1.150  -1.446  -0.932  0.00  0.00    -0.060 I 
ATOM     10  F2  UNL d   1      -1.563   0.899   1.207  0.00  0.00    -0.096 F 
ATOM     11  F3  UNL d   1       0.208   2.497   2.489  0.00  0.00    -0.097 F 
ATOM     12  F4  UNL d   1       2.884   2.239   2.028  0.00  0.00    -0.092 F 
ENDROOT
TORSDOF 0
ENDMDL
