MODEL 1
REMARK minimizedAffinity -4.47988176
REMARK minimizedRMSD -1
REMARK  0 active torsions:
REMARK  status: ('A' for Active; 'I' for Inactive)
ROOT
ATOM      1  C   UNL d   1       1.950   1.067   1.224  0.00  0.00     0.124 A 
ATOM      2  C1  UNL d   1       2.451   0.163   0.297  0.00  0.00     0.062 A 
ATOM      3  C2  UNL d   1       1.587  -0.682  -0.394  0.00  0.00     0.162 A 
ATOM      4  C3  UNL d   1       0.213  -0.627  -0.161  0.00  0.00    -0.034 A 
ATOM      5  C4  UNL d   1      -0.283   0.284   0.774  0.00  0.00     0.162 A 
ATOM      6  C5  UNL d   1       0.584   1.126   1.462  0.00  0.00     0.062 A 
ATOM      7  F   UNL d   1       0.099   1.999   2.357  0.00  0.00    -0.097 F 
ATOM      8  F1  UNL d   1      -1.599   0.363   1.022  0.00  0.00    -0.096 F 
ATOM      9  I   UNL d   1      -1.082  -1.889  -1.192  0.00  0.00    -0.060 I 
ATOM     10  F2  UNL d   1       2.099  -1.545  -1.284  0.00  0.00    -0.096 F 
ATOM     11  F3  UNL d   1       3.770   0.103   0.066  0.00  0.00    -0.097 F 
ATOM     12  F4  UNL d   1       2.784   1.878   1.888  0.00  0.00    -0.092 F 
ENDROOT
TORSDOF 0
ENDMDL
