MODEL 1
REMARK minimizedAffinity 3.40053296
REMARK minimizedRMSD -1
REMARK  0 active torsions:
REMARK  status: ('A' for Active; 'I' for Inactive)
ROOT
ATOM      1  C   UNL d   1      -1.047  -2.300  -2.622  0.00  0.00     0.124 A 
ATOM      2  C1  UNL d   1      -2.019  -1.758  -1.792  0.00  0.00     0.062 A 
ATOM      3  C2  UNL d   1      -1.651  -0.992  -0.690  0.00  0.00     0.162 A 
ATOM      4  C3  UNL d   1      -0.304  -0.761  -0.412  0.00  0.00    -0.034 A 
ATOM      5  C4  UNL d   1       0.668  -1.309  -1.250  0.00  0.00     0.162 A 
ATOM      6  C5  UNL d   1       0.295  -2.075  -2.350  0.00  0.00     0.062 A 
ATOM      7  F   UNL d   1       1.236  -2.597  -3.151  0.00  0.00    -0.097 F 
ATOM      8  F1  UNL d   1       1.972  -1.107  -1.012  0.00  0.00    -0.096 F 
ATOM      9  I   UNL d   1       0.250   0.385   1.235  0.00  0.00    -0.060 I 
ATOM     10  F2  UNL d   1      -2.612  -0.481   0.094  0.00  0.00    -0.096 F 
ATOM     11  F3  UNL d   1      -3.316  -1.975  -2.052  0.00  0.00    -0.097 F 
ATOM     12  F4  UNL d   1      -1.404  -3.038  -3.681  0.00  0.00    -0.092 F 
ENDROOT
TORSDOF 0
ENDMDL
