MODEL 1
REMARK minimizedAffinity -2.39402986
REMARK minimizedRMSD -1
REMARK  0 active torsions:
REMARK  status: ('A' for Active; 'I' for Inactive)
ROOT
ATOM      1  C   UNL d   1      -2.502  -1.384  -2.361  0.00  0.00     0.124 A 
ATOM      2  C1  UNL d   1      -1.599  -2.139  -1.624  0.00  0.00     0.062 A 
ATOM      3  C2  UNL d   1      -0.792  -1.528  -0.669  0.00  0.00     0.162 A 
ATOM      4  C3  UNL d   1      -0.885  -0.155  -0.443  0.00  0.00    -0.034 A 
ATOM      5  C4  UNL d   1      -1.795   0.597  -1.188  0.00  0.00     0.162 A 
ATOM      6  C5  UNL d   1      -2.599  -0.018  -2.142  0.00  0.00     0.062 A 
ATOM      7  F   UNL d   1      -3.471   0.713  -2.852  0.00  0.00    -0.097 F 
ATOM      8  F1  UNL d   1      -1.910   1.920  -0.996  0.00  0.00    -0.096 F 
ATOM      9  I   UNL d   1       0.320   0.762   0.985  0.00  0.00    -0.060 I 
ATOM     10  F2  UNL d   1       0.072  -2.282   0.028  0.00  0.00    -0.096 F 
ATOM     11  F3  UNL d   1      -1.502  -3.459  -1.835  0.00  0.00    -0.097 F 
ATOM     12  F4  UNL d   1      -3.276  -1.974  -3.280  0.00  0.00    -0.092 F 
ENDROOT
TORSDOF 0
ENDMDL
