MODEL 1
REMARK minimizedAffinity 4.4837966
REMARK minimizedRMSD -1
REMARK  0 active torsions:
REMARK  status: ('A' for Active; 'I' for Inactive)
ROOT
ATOM      1  C   UNL d   1       1.940   1.562   1.272  0.00  0.00     0.124 A 
ATOM      2  C1  UNL d   1       0.576   1.545   1.529  0.00  0.00     0.062 A 
ATOM      3  C2  UNL d   1      -0.245   0.618   0.894  0.00  0.00     0.162 A 
ATOM      4  C3  UNL d   1       0.296  -0.301  -0.005  0.00  0.00    -0.034 A 
ATOM      5  C4  UNL d   1       1.668  -0.277  -0.260  0.00  0.00     0.162 A 
ATOM      6  C5  UNL d   1       2.484   0.651   0.377  0.00  0.00     0.062 A 
ATOM      7  F   UNL d   1       3.802   0.666   0.127  0.00  0.00    -0.097 F 
ATOM      8  F1  UNL d   1       2.221  -1.147  -1.119  0.00  0.00    -0.096 F 
ATOM      9  I   UNL d   1      -0.929  -1.689  -0.958  0.00  0.00    -0.060 I 
ATOM     10  F2  UNL d   1      -1.559   0.625   1.162  0.00  0.00    -0.096 F 
ATOM     11  F3  UNL d   1       0.047   2.425   2.392  0.00  0.00    -0.097 F 
ATOM     12  F4  UNL d   1       2.727   2.456   1.884  0.00  0.00    -0.092 F 
ENDROOT
TORSDOF 0
ENDMDL
