MODEL 1
REMARK minimizedAffinity 10.3138609
REMARK minimizedRMSD -1
REMARK  0 active torsions:
REMARK  status: ('A' for Active; 'I' for Inactive)
ROOT
ATOM      1  C   UNL d   1      -2.753  -1.980  -1.756  0.00  0.00     0.124 A 
ATOM      2  C1  UNL d   1      -2.191  -1.668  -0.526  0.00  0.00     0.062 A 
ATOM      3  C2  UNL d   1      -0.820  -1.454  -0.417  0.00  0.00     0.162 A 
ATOM      4  C3  UNL d   1      -0.001  -1.550  -1.542  0.00  0.00    -0.034 A 
ATOM      5  C4  UNL d   1      -0.573  -1.865  -2.775  0.00  0.00     0.162 A 
ATOM      6  C5  UNL d   1      -1.944  -2.078  -2.880  0.00  0.00     0.062 A 
ATOM      7  F   UNL d   1      -2.485  -2.379  -4.069  0.00  0.00    -0.097 F 
ATOM      8  F1  UNL d   1       0.185  -1.966  -3.877  0.00  0.00    -0.096 F 
ATOM      9  I   UNL d   1       2.049  -1.231  -1.382  0.00  0.00    -0.060 I 
ATOM     10  F2  UNL d   1      -0.305  -1.154   0.785  0.00  0.00    -0.096 F 
ATOM     11  F3  UNL d   1      -2.971  -1.573   0.561  0.00  0.00    -0.097 F 
ATOM     12  F4  UNL d   1      -4.073  -2.186  -1.859  0.00  0.00    -0.092 F 
ENDROOT
TORSDOF 0
ENDMDL
