MODEL 1
REMARK minimizedAffinity 7.35969067
REMARK minimizedRMSD -1
REMARK  0 active torsions:
REMARK  status: ('A' for Active; 'I' for Inactive)
ROOT
ATOM      1  C1  DEN d   1      -2.588  -0.262   4.783  0.00  0.00     0.130 A 
ATOM      2  C2  DEN d   1      -2.580  -0.653   3.376  0.00  0.00    -0.031 A 
ATOM      3  C3  DEN d   1      -3.288   0.391   2.608  0.00  0.00     0.027 A 
ATOM      4  C4  DEN d   1      -4.385   2.566   3.455  0.00  0.00     0.027 A 
ATOM      5  C5  DEN d   1      -4.658   3.325   4.572  0.00  0.00    -0.003 A 
ATOM      6  C6  DEN d   1      -4.292   2.928   5.831  0.00  0.00     0.001 A 
ATOM      7  C7  DEN d   1      -3.593   1.762   5.999  0.00  0.00     0.017 A 
ATOM      8  C8  DEN d   1      -3.321   0.988   4.879  0.00  0.00    -0.094 A 
ATOM      9  C9  DEN d   1      -3.688   1.412   3.613  0.00  0.00    -0.072 A 
ENDROOT
TORSDOF 0
ENDMDL
