MODEL 1
REMARK minimizedAffinity 28.2303524
REMARK minimizedRMSD -1
REMARK  0 active torsions:
REMARK  status: ('A' for Active; 'I' for Inactive)
ROOT
ATOM      1  C1  DEN d   1       3.484   1.495  -1.318  0.00  0.00     0.130 A 
ATOM      2  C2  DEN d   1       4.128   1.392  -0.011  0.00  0.00    -0.031 A 
ATOM      3  C3  DEN d   1       3.745   0.096   0.586  0.00  0.00     0.027 A 
ATOM      4  C4  DEN d   1       2.230  -1.752  -0.384  0.00  0.00     0.027 A 
ATOM      5  C5  DEN d   1       1.446  -2.113  -1.458  0.00  0.00    -0.003 A 
ATOM      6  C6  DEN d   1       1.261  -1.289  -2.536  0.00  0.00     0.001 A 
ATOM      7  C7  DEN d   1       1.904  -0.080  -2.585  0.00  0.00     0.017 A 
ATOM      8  C8  DEN d   1       2.690   0.294  -1.503  0.00  0.00    -0.094 A 
ATOM      9  C9  DEN d   1       2.875  -0.559  -0.428  0.00  0.00    -0.072 A 
ENDROOT
TORSDOF 0
ENDMDL
