MODEL 1
REMARK minimizedAffinity 11.9250374
REMARK minimizedRMSD -1
REMARK  0 active torsions:
REMARK  status: ('A' for Active; 'I' for Inactive)
ROOT
ATOM      1  C1  DEN d   1      -3.423  -1.943  -5.357  0.00  0.00     0.130 A 
ATOM      2  C2  DEN d   1      -2.022  -2.299  -5.148  0.00  0.00    -0.031 A 
ATOM      3  C3  DEN d   1      -1.901  -3.766  -5.265  0.00  0.00     0.027 A 
ATOM      4  C4  DEN d   1      -3.737  -5.511  -5.751  0.00  0.00     0.027 A 
ATOM      5  C5  DEN d   1      -5.082  -5.689  -5.989  0.00  0.00    -0.003 A 
ATOM      6  C6  DEN d   1      -5.967  -4.643  -5.999  0.00  0.00     0.001 A 
ATOM      7  C7  DEN d   1      -5.509  -3.366  -5.812  0.00  0.00     0.017 A 
ATOM      8  C8  DEN d   1      -4.155  -3.179  -5.564  0.00  0.00    -0.094 A 
ATOM      9  C9  DEN d   1      -3.276  -4.248  -5.570  0.00  0.00    -0.072 A 
ENDROOT
TORSDOF 0
ENDMDL
