MODEL 1
REMARK minimizedAffinity 7.87617397
REMARK minimizedRMSD -1
REMARK  0 active torsions:
REMARK  status: ('A' for Active; 'I' for Inactive)
ROOT
ATOM      1  C1  DEN d   1       5.617   1.313  -0.687  0.00  0.00     0.130 A 
ATOM      2  C2  DEN d   1       4.978   2.350  -1.492  0.00  0.00    -0.031 A 
ATOM      3  C3  DEN d   1       3.704   1.809  -2.006  0.00  0.00     0.027 A 
ATOM      4  C4  DEN d   1       2.662  -0.520  -1.631  0.00  0.00     0.027 A 
ATOM      5  C5  DEN d   1       2.840  -1.746  -1.029  0.00  0.00    -0.003 A 
ATOM      6  C6  DEN d   1       3.962  -2.047  -0.304  0.00  0.00     0.001 A 
ATOM      7  C7  DEN d   1       4.931  -1.095  -0.126  0.00  0.00     0.017 A 
ATOM      8  C8  DEN d   1       4.762   0.141  -0.737  0.00  0.00    -0.094 A 
ATOM      9  C9  DEN d   1       3.614   0.430  -1.455  0.00  0.00    -0.072 A 
ENDROOT
TORSDOF 0
ENDMDL
