MODEL 1
REMARK minimizedAffinity 19.5496063
REMARK minimizedRMSD -1
REMARK  0 active torsions:
REMARK  status: ('A' for Active; 'I' for Inactive)
ROOT
ATOM      1  C1  DEN d   1       3.938   0.940   0.679  0.00  0.00     0.130 A 
ATOM      2  C2  DEN d   1       4.450   2.226   0.215  0.00  0.00    -0.031 A 
ATOM      3  C3  DEN d   1       3.962   2.442  -1.162  0.00  0.00     0.027 A 
ATOM      4  C4  DEN d   1       2.467   0.919  -2.611  0.00  0.00     0.027 A 
ATOM      5  C5  DEN d   1       1.794  -0.281  -2.652  0.00  0.00    -0.003 A 
ATOM      6  C6  DEN d   1       1.815  -1.167  -1.607  0.00  0.00     0.001 A 
ATOM      7  C7  DEN d   1       2.488  -0.845  -0.458  0.00  0.00     0.017 A 
ATOM      8  C8  DEN d   1       3.176   0.360  -0.412  0.00  0.00    -0.094 A 
ATOM      9  C9  DEN d   1       3.132   1.248  -1.474  0.00  0.00    -0.072 A 
ENDROOT
TORSDOF 0
ENDMDL
