MODEL 1
REMARK minimizedAffinity 24.2468071
REMARK minimizedRMSD -1
REMARK  0 active torsions:
REMARK  status: ('A' for Active; 'I' for Inactive)
ROOT
ATOM      1  C1  DEN d   1      -2.893   0.385   4.466  0.00  0.00     0.130 A 
ATOM      2  C2  DEN d   1      -3.262  -0.030   3.115  0.00  0.00    -0.031 A 
ATOM      3  C3  DEN d   1      -4.261   0.928   2.600  0.00  0.00     0.027 A 
ATOM      4  C4  DEN d   1      -5.262   3.006   3.753  0.00  0.00     0.027 A 
ATOM      5  C5  DEN d   1      -5.265   3.757   4.908  0.00  0.00    -0.003 A 
ATOM      6  C6  DEN d   1      -4.509   3.420   6.000  0.00  0.00     0.001 A 
ATOM      7  C7  DEN d   1      -3.684   2.328   5.944  0.00  0.00     0.017 A 
ATOM      8  C8  DEN d   1      -3.681   1.562   4.785  0.00  0.00    -0.094 A 
ATOM      9  C9  DEN d   1      -4.443   1.926   3.688  0.00  0.00    -0.072 A 
ENDROOT
TORSDOF 0
ENDMDL
