MODEL 1
REMARK minimizedAffinity 20.0243168
REMARK minimizedRMSD -1
REMARK  0 active torsions:
REMARK  status: ('A' for Active; 'I' for Inactive)
ROOT
ATOM      1  C1  DEN d   1       0.162   4.985   0.759  0.00  0.00     0.130 A 
ATOM      2  C2  DEN d   1       1.409   5.552   0.255  0.00  0.00    -0.031 A 
ATOM      3  C3  DEN d   1       2.515   4.666   0.671  0.00  0.00     0.027 A 
ATOM      4  C4  DEN d   1       2.415   2.479   2.035  0.00  0.00     0.027 A 
ATOM      5  C5  DEN d   1       1.580   1.603   2.693  0.00  0.00    -0.003 A 
ATOM      6  C6  DEN d   1       0.229   1.809   2.781  0.00  0.00     0.001 A 
ATOM      7  C7  DEN d   1      -0.334   2.894   2.162  0.00  0.00     0.017 A 
ATOM      8  C8  DEN d   1       0.503   3.786   1.503  0.00  0.00    -0.094 A 
ATOM      9  C9  DEN d   1       1.865   3.553   1.415  0.00  0.00    -0.072 A 
ENDROOT
TORSDOF 0
ENDMDL
