MODEL 1
REMARK minimizedAffinity 11.8636637
REMARK minimizedRMSD -1
REMARK  0 active torsions:
REMARK  status: ('A' for Active; 'I' for Inactive)
ROOT
ATOM      1  C1  DEN d   1      -2.179   2.226  -4.440  0.00  0.00     0.130 A 
ATOM      2  C2  DEN d   1      -0.761   2.123  -4.774  0.00  0.00    -0.031 A 
ATOM      3  C3  DEN d   1      -0.359   3.374  -5.448  0.00  0.00     0.027 A 
ATOM      4  C4  DEN d   1      -1.785   5.451  -5.999  0.00  0.00     0.027 A 
ATOM      5  C5  DEN d   1      -3.046   6.000  -5.921  0.00  0.00    -0.003 A 
ATOM      6  C6  DEN d   1      -4.105   5.322  -5.378  0.00  0.00     0.001 A 
ATOM      7  C7  DEN d   1      -3.913   4.072  -4.852  0.00  0.00     0.017 A 
ATOM      8  C8  DEN d   1      -2.646   3.509  -4.934  0.00  0.00    -0.094 A 
ATOM      9  C9  DEN d   1      -1.585   4.215  -5.475  0.00  0.00    -0.072 A 
ENDROOT
TORSDOF 0
ENDMDL
