MODEL 1
REMARK minimizedAffinity 8.23690701
REMARK minimizedRMSD -1
REMARK  0 active torsions:
REMARK  status: ('A' for Active; 'I' for Inactive)
ROOT
ATOM      1  C1  DEN d   1       3.813  -3.403   0.318  0.00  0.00     0.130 A 
ATOM      2  C2  DEN d   1       3.936  -4.721  -0.299  0.00  0.00    -0.031 A 
ATOM      3  C3  DEN d   1       3.094  -4.737  -1.512  0.00  0.00     0.027 A 
ATOM      4  C4  DEN d   1       1.624  -2.858  -2.492  0.00  0.00     0.027 A 
ATOM      5  C5  DEN d   1       1.191  -1.563  -2.312  0.00  0.00    -0.003 A 
ATOM      6  C6  DEN d   1       1.571  -0.808  -1.234  0.00  0.00     0.001 A 
ATOM      7  C7  DEN d   1       2.446  -1.327  -0.317  0.00  0.00     0.017 A 
ATOM      8  C8  DEN d   1       2.882  -2.635  -0.487  0.00  0.00    -0.094 A 
ATOM      9  C9  DEN d   1       2.495  -3.377  -1.590  0.00  0.00    -0.072 A 
ENDROOT
TORSDOF 0
ENDMDL
