MODEL 1
REMARK minimizedAffinity 21.2911129
REMARK minimizedRMSD -1
REMARK  0 active torsions:
REMARK  status: ('A' for Active; 'I' for Inactive)
ROOT
ATOM      1  C1  DEN d   1       3.009   1.604  -1.346  0.00  0.00     0.130 A 
ATOM      2  C2  DEN d   1       3.865   1.548  -0.164  0.00  0.00    -0.031 A 
ATOM      3  C3  DEN d   1       3.712   0.213   0.448  0.00  0.00     0.027 A 
ATOM      4  C4  DEN d   1       2.245  -1.765  -0.318  0.00  0.00     0.027 A 
ATOM      5  C5  DEN d   1       1.334  -2.188  -1.261  0.00  0.00    -0.003 A 
ATOM      6  C6  DEN d   1       0.896  -1.372  -2.270  0.00  0.00     0.001 A 
ATOM      7  C7  DEN d   1       1.402  -0.104  -2.387  0.00  0.00     0.017 A 
ATOM      8  C8  DEN d   1       2.315   0.332  -1.436  0.00  0.00    -0.094 A 
ATOM      9  C9  DEN d   1       2.755  -0.512  -0.430  0.00  0.00    -0.072 A 
ENDROOT
TORSDOF 0
ENDMDL
