MODEL 1
REMARK minimizedAffinity 2.1368866
REMARK minimizedRMSD -1
REMARK  0 active torsions:
REMARK  status: ('A' for Active; 'I' for Inactive)
ROOT
ATOM      1  C1  DEN d   1      -2.698   2.277  -5.294  0.00  0.00     0.130 A 
ATOM      2  C2  DEN d   1      -1.283   2.629  -5.215  0.00  0.00    -0.031 A 
ATOM      3  C3  DEN d   1      -1.164   4.087  -5.417  0.00  0.00     0.027 A 
ATOM      4  C4  DEN d   1      -3.023   5.825  -5.838  0.00  0.00     0.027 A 
ATOM      5  C5  DEN d   1      -4.379   6.000  -6.000  0.00  0.00    -0.003 A 
ATOM      6  C6  DEN d   1      -5.260   4.951  -5.973  0.00  0.00     0.001 A 
ATOM      7  C7  DEN d   1      -4.798   3.684  -5.733  0.00  0.00     0.017 A 
ATOM      8  C8  DEN d   1      -3.431   3.498  -5.576  0.00  0.00    -0.094 A 
ATOM      9  C9  DEN d   1      -2.559   4.573  -5.595  0.00  0.00    -0.072 A 
ENDROOT
TORSDOF 0
ENDMDL
