MODEL 1
REMARK minimizedAffinity -4.25004148
REMARK minimizedRMSD -1
REMARK  1 active torsions:
REMARK  status: ('A' for Active; 'I' for Inactive)
REMARK    1  A    between atoms: C1_2  and  C2_3 
ROOT
ATOM      1  C2  UNL d   1       0.246   0.029   0.074  0.00  0.00    -0.077 A 
ATOM      2  C3  UNL d   1      -0.711   0.973  -0.324  0.00  0.00     0.002 A 
ATOM      3  C4  UNL d   1      -1.228   1.887   0.597  0.00  0.00     0.002 A 
ATOM      4  C5  UNL d   1      -0.790   1.868   1.920  0.00  0.00    -0.004 A 
ATOM      5  C6  UNL d   1       0.160   0.932   2.326  0.00  0.00     0.002 A 
ATOM      6  C7  UNL d   1       0.677   0.017   1.407  0.00  0.00     0.002 A 
ENDROOT
BRANCH   1   7
ATOM      7  C1  UNL d   1       0.841  -0.924  -0.929  0.00  0.00     0.055 C 
ATOM      8  C   UNL d   1       0.110  -2.259  -0.925  0.00  0.00     0.019 C 
ENDBRANCH   1   7
TORSDOF 1
ENDMDL
