MODEL 1
REMARK minimizedAffinity -3.65690732
REMARK minimizedRMSD -1
REMARK  1 active torsions:
REMARK  status: ('A' for Active; 'I' for Inactive)
REMARK    1  A    between atoms: C1_2  and  C2_3 
ROOT
ATOM      1  C2  UNL d   1       0.265  -0.589  -0.675  0.00  0.00    -0.077 A 
ATOM      2  C3  UNL d   1      -0.311  -0.091   0.502  0.00  0.00     0.002 A 
ATOM      3  C4  UNL d   1      -0.935   1.158   0.509  0.00  0.00     0.002 A 
ATOM      4  C5  UNL d   1      -0.993   1.916  -0.658  0.00  0.00    -0.004 A 
ATOM      5  C6  UNL d   1      -0.420   1.431  -1.833  0.00  0.00     0.002 A 
ATOM      6  C7  UNL d   1       0.205   0.183  -1.842  0.00  0.00     0.002 A 
ENDROOT
BRANCH   1   7
ATOM      7  C1  UNL d   1       0.896  -1.957  -0.697  0.00  0.00     0.055 C 
ATOM      8  C   UNL d   1      -0.076  -3.006  -1.218  0.00  0.00     0.019 C 
ENDBRANCH   1   7
TORSDOF 1
ENDMDL
