MODEL 1
REMARK minimizedAffinity -5.38428736
REMARK minimizedRMSD -1
REMARK  1 active torsions:
REMARK  status: ('A' for Active; 'I' for Inactive)
REMARK    1  A    between atoms: C1_2  and  C2_3 
ROOT
ATOM      1  C2  UNL d   1      -0.707   1.454   1.006  0.00  0.00    -0.077 A 
ATOM      2  C3  UNL d   1       0.007   0.333   1.453  0.00  0.00     0.002 A 
ATOM      3  C4  UNL d   1       0.485  -0.610   0.541  0.00  0.00     0.002 A 
ATOM      4  C5  UNL d   1       0.258  -0.440  -0.823  0.00  0.00    -0.004 A 
ATOM      5  C6  UNL d   1      -0.453   0.670  -1.278  0.00  0.00     0.002 A 
ATOM      6  C7  UNL d   1      -0.933   1.613  -0.368  0.00  0.00     0.002 A 
ENDROOT
BRANCH   1   7
ATOM      7  C1  UNL d   1      -1.181   2.497   1.983  0.00  0.00     0.055 C 
ATOM      8  C   UNL d   1      -0.012   3.267   2.581  0.00  0.00     0.019 C 
ENDBRANCH   1   7
TORSDOF 1
ENDMDL
