MODEL 1
REMARK minimizedAffinity -5.14555883
REMARK minimizedRMSD -1
REMARK  1 active torsions:
REMARK  status: ('A' for Active; 'I' for Inactive)
REMARK    1  A    between atoms: C1_2  and  C2_3 
ROOT
ATOM      1  C2  UNL d   1      -0.498   1.214  -0.555  0.00  0.00    -0.077 A 
ATOM      2  C3  UNL d   1      -0.987   2.386  -1.150  0.00  0.00     0.002 A 
ATOM      3  C4  UNL d   1      -1.514   3.411  -0.362  0.00  0.00     0.002 A 
ATOM      4  C5  UNL d   1      -1.553   3.277   1.024  0.00  0.00    -0.004 A 
ATOM      5  C6  UNL d   1      -1.071   2.114   1.625  0.00  0.00     0.002 A 
ATOM      6  C7  UNL d   1      -0.545   1.088   0.839  0.00  0.00     0.002 A 
ENDROOT
BRANCH   1   7
ATOM      7  C1  UNL d   1       0.116   0.128  -1.399  0.00  0.00     0.055 C 
ATOM      8  C   UNL d   1       0.869  -0.879  -0.543  0.00  0.00     0.019 C 
ENDBRANCH   1   7
TORSDOF 1
ENDMDL
