MODEL 1
REMARK minimizedAffinity -4.75206327
REMARK minimizedRMSD -1
REMARK  1 active torsions:
REMARK  status: ('A' for Active; 'I' for Inactive)
REMARK    1  A    between atoms: C1_2  and  C2_3 
ROOT
ATOM      1  C2  UNL d   1       0.148   0.126  -0.107  0.00  0.00    -0.077 A 
ATOM      2  C3  UNL d   1      -0.788   1.162  -0.242  0.00  0.00     0.002 A 
ATOM      3  C4  UNL d   1      -1.050   2.021   0.827  0.00  0.00     0.002 A 
ATOM      4  C5  UNL d   1      -0.377   1.856   2.036  0.00  0.00    -0.004 A 
ATOM      5  C6  UNL d   1       0.554   0.828   2.181  0.00  0.00     0.002 A 
ATOM      6  C7  UNL d   1       0.816  -0.032   1.114  0.00  0.00     0.002 A 
ENDROOT
BRANCH   1   7
ATOM      7  C1  UNL d   1       0.467  -0.771  -1.274  0.00  0.00     0.055 C 
ATOM      8  C   UNL d   1       0.079  -2.213  -0.986  0.00  0.00     0.019 C 
ENDBRANCH   1   7
TORSDOF 1
ENDMDL
