MODEL 1
REMARK minimizedAffinity -4.35914278
REMARK minimizedRMSD -1
REMARK  1 active torsions:
REMARK  status: ('A' for Active; 'I' for Inactive)
REMARK    1  A    between atoms: C1_2  and  C2_3 
ROOT
ATOM      1  C2  UNL d   1       0.099   0.687   0.651  0.00  0.00    -0.077 A 
ATOM      2  C3  UNL d   1       0.355   0.987  -0.694  0.00  0.00     0.002 A 
ATOM      3  C4  UNL d   1       0.509  -0.038  -1.629  0.00  0.00     0.002 A 
ATOM      4  C5  UNL d   1       0.404  -1.369  -1.231  0.00  0.00    -0.004 A 
ATOM      5  C6  UNL d   1       0.152  -1.677   0.105  0.00  0.00     0.002 A 
ATOM      6  C7  UNL d   1      -0.001  -0.654   1.042  0.00  0.00     0.002 A 
ENDROOT
BRANCH   1   7
ATOM      7  C1  UNL d   1      -0.115   1.792   1.653  0.00  0.00     0.055 C 
ATOM      8  C   UNL d   1      -1.566   2.252   1.667  0.00  0.00     0.019 C 
ENDBRANCH   1   7
TORSDOF 1
ENDMDL
