MODEL 1
REMARK minimizedAffinity -1.66853988
REMARK minimizedRMSD -1
REMARK  0 active torsions:
REMARK  status: ('A' for Active; 'I' for Inactive)
ROOT
ATOM      1  N1  IND d   1       0.397  -0.732  -1.793  0.00  0.00    -0.196 N 
ATOM      2  C2  IND d   1       0.594  -1.874  -1.067  0.00  0.00     0.054 A 
ATOM      3  C3  IND d   1       0.519  -1.609   0.257  0.00  0.00    -0.031 A 
ATOM      4  C4  IND d   1      -0.018   0.607   1.453  0.00  0.00     0.051 A 
ATOM      5  C5  IND d   1      -0.236   1.935   1.214  0.00  0.00    -0.031 A 
ATOM      6  C6  IND d   1      -0.258   2.451  -0.065  0.00  0.00     0.015 A 
ATOM      7  C7  IND d   1      -0.072   1.654  -1.159  0.00  0.00    -0.016 A 
ATOM      8  C8  IND d   1       0.157   0.306  -0.920  0.00  0.00    -0.047 A 
ATOM      9  C9  IND d   1       0.222  -0.217   0.378  0.00  0.00    -0.096 A 
ATOM     10  HN1 IND d   1       0.419  -0.673  -2.650  0.00  0.00     0.298 HD
ENDROOT
TORSDOF 0
ENDMDL
