MODEL 1
REMARK minimizedAffinity -0.861153126
REMARK minimizedRMSD -1
REMARK  0 active torsions:
REMARK  status: ('A' for Active; 'I' for Inactive)
ROOT
ATOM      1  N1  IND d   1       0.016   2.032  -1.884  0.00  0.00    -0.196 N 
ATOM      2  C2  IND d   1      -0.179   3.325  -1.485  0.00  0.00     0.054 A 
ATOM      3  C3  IND d   1      -0.331   3.386  -0.143  0.00  0.00    -0.031 A 
ATOM      4  C4  IND d   1      -0.195   1.501   1.605  0.00  0.00     0.051 A 
ATOM      5  C5  IND d   1      -0.071   0.145   1.720  0.00  0.00    -0.031 A 
ATOM      6  C6  IND d   1       0.095  -0.668   0.617  0.00  0.00     0.015 A 
ATOM      7  C7  IND d   1       0.155  -0.151  -0.646  0.00  0.00    -0.016 A 
ATOM      8  C8  IND d   1       0.022   1.225  -0.767  0.00  0.00    -0.047 A 
ATOM      9  C9  IND d   1      -0.190   2.050   0.345  0.00  0.00    -0.096 A 
ATOM     10  HN1 IND d   1       0.119   1.767  -2.695  0.00  0.00     0.298 HD
ENDROOT
TORSDOF 0
ENDMDL
