MODEL 1
REMARK minimizedAffinity 0.378113359
REMARK minimizedRMSD -1
REMARK  0 active torsions:
REMARK  status: ('A' for Active; 'I' for Inactive)
ROOT
ATOM      1  N1  IND d   1      -0.557  -1.039   0.245  0.00  0.00    -0.196 N 
ATOM      2  C2  IND d   1       0.644  -0.389   0.308  0.00  0.00     0.054 A 
ATOM      3  C3  IND d   1       1.584  -1.068  -0.388  0.00  0.00    -0.031 A 
ATOM      4  C4  IND d   1       1.348  -3.212  -1.792  0.00  0.00     0.051 A 
ATOM      5  C5  IND d   1       0.453  -4.190  -2.123  0.00  0.00    -0.031 A 
ATOM      6  C6  IND d   1      -0.852  -4.166  -1.674  0.00  0.00     0.015 A 
ATOM      7  C7  IND d   1      -1.315  -3.153  -0.884  0.00  0.00    -0.016 A 
ATOM      8  C8  IND d   1      -0.407  -2.161  -0.541  0.00  0.00    -0.047 A 
ATOM      9  C9  IND d   1       0.930  -2.203  -0.958  0.00  0.00    -0.096 A 
ATOM     10  HN1 IND d   1      -1.283  -0.790   0.630  0.00  0.00     0.298 HD
ENDROOT
TORSDOF 0
ENDMDL
