MODEL 1
REMARK minimizedAffinity -1.5772599
REMARK minimizedRMSD -1
REMARK  0 active torsions:
REMARK  status: ('A' for Active; 'I' for Inactive)
ROOT
ATOM      1  N1  IND d   1       0.088   0.215  -0.711  0.00  0.00    -0.196 N 
ATOM      2  C2  IND d   1       0.179  -0.755   0.249  0.00  0.00     0.054 A 
ATOM      3  C3  IND d   1       0.132  -0.202   1.482  0.00  0.00    -0.031 A 
ATOM      4  C4  IND d   1      -0.196   2.260   2.159  0.00  0.00     0.051 A 
ATOM      5  C5  IND d   1      -0.291   3.518   1.633  0.00  0.00    -0.031 A 
ATOM      6  C6  IND d   1      -0.267   3.744   0.272  0.00  0.00     0.015 A 
ATOM      7  C7  IND d   1      -0.157   2.714  -0.619  0.00  0.00    -0.016 A 
ATOM      8  C8  IND d   1      -0.054   1.436  -0.088  0.00  0.00    -0.047 A 
ATOM      9  C9  IND d   1      -0.035   1.204   1.293  0.00  0.00    -0.096 A 
ATOM     10  HN1 IND d   1       0.114   0.084  -1.560  0.00  0.00     0.298 HD
ENDROOT
TORSDOF 0
ENDMDL
