MODEL 1
REMARK minimizedAffinity 2.42121053
REMARK minimizedRMSD -1
REMARK  0 active torsions:
REMARK  status: ('A' for Active; 'I' for Inactive)
ROOT
ATOM      1  N1  IND d   1       0.151   0.894  -0.285  0.00  0.00    -0.196 N 
ATOM      2  C2  IND d   1       0.326  -0.235   0.465  0.00  0.00     0.054 A 
ATOM      3  C3  IND d   1       0.776   0.085   1.699  0.00  0.00    -0.031 A 
ATOM      4  C4  IND d   1       1.197   2.403   2.737  0.00  0.00     0.051 A 
ATOM      5  C5  IND d   1       1.212   3.734   2.428  0.00  0.00    -0.031 A 
ATOM      6  C6  IND d   1       0.864   4.197   1.175  0.00  0.00     0.015 A 
ATOM      7  C7  IND d   1       0.476   3.341   0.183  0.00  0.00    -0.016 A 
ATOM      8  C8  IND d   1       0.466   1.988   0.490  0.00  0.00    -0.047 A 
ATOM      9  C9  IND d   1       0.859   1.510   1.747  0.00  0.00    -0.096 A 
ATOM     10  HN1 IND d   1      -0.112   0.917  -1.103  0.00  0.00     0.298 HD
ENDROOT
TORSDOF 0
ENDMDL
