MODEL 1
REMARK minimizedAffinity -0.182246894
REMARK minimizedRMSD -1
REMARK  3 active torsions:
REMARK  status: ('A' for Active; 'I' for Inactive)
REMARK    1  A    between atoms: C3'_2  and  C2'_3 
REMARK    2  A    between atoms: C2'_3  and  C1'_4 
REMARK    3  A    between atoms: C1'_4  and  C1_5 
ROOT
ATOM      1  C1  N4B d   1       1.799   0.124  -0.044  0.00  0.00    -0.075 A 
ATOM      2  C2  N4B d   1       2.495   0.519   1.120  0.00  0.00     0.002 A 
ATOM      3  C3  N4B d   1       2.069   1.610   1.838  0.00  0.00     0.002 A 
ATOM      4  C4  N4B d   1       0.965   2.329   1.403  0.00  0.00    -0.004 A 
ATOM      5  C5  N4B d   1       0.283   1.926   0.293  0.00  0.00     0.002 A 
ATOM      6  C6  N4B d   1       0.698   0.829  -0.437  0.00  0.00     0.002 A 
ENDROOT
BRANCH   1   7
ATOM      7  C1' N4B d   1       2.277  -1.009  -0.909  0.00  0.00     0.057 C 
BRANCH   7   8
ATOM      8  C2' N4B d   1       1.079  -1.650  -1.603  0.00  0.00     0.009 C 
BRANCH   8   9
ATOM      9  C3' N4B d   1       0.481  -2.777  -0.780  0.00  0.00     0.004 C 
ATOM     10  C4' N4B d   1      -0.457  -3.640  -1.570  0.00  0.00     0.003 C 
ENDBRANCH   8   9
ENDBRANCH   7   8
ENDBRANCH   1   7
TORSDOF 3
ENDMDL
