MODEL 1
REMARK minimizedAffinity -2.22163367
REMARK minimizedRMSD -1
REMARK  3 active torsions:
REMARK  status: ('A' for Active; 'I' for Inactive)
REMARK    1  A    between atoms: C3'_2  and  C2'_3 
REMARK    2  A    between atoms: C2'_3  and  C1'_4 
REMARK    3  A    between atoms: C1'_4  and  C1_5 
ROOT
ATOM      1  C1  N4B d   1       1.118   0.511  -1.112  0.00  0.00    -0.075 A 
ATOM      2  C2  N4B d   1       1.046   0.361   0.290  0.00  0.00     0.002 A 
ATOM      3  C3  N4B d   1       1.118   1.465   1.104  0.00  0.00     0.002 A 
ATOM      4  C4  N4B d   1       1.281   2.722   0.541  0.00  0.00    -0.004 A 
ATOM      5  C5  N4B d   1       1.324   2.862  -0.815  0.00  0.00     0.002 A 
ATOM      6  C6  N4B d   1       1.248   1.761  -1.645  0.00  0.00     0.002 A 
ENDROOT
BRANCH   1   7
ATOM      7  C1' N4B d   1       1.130  -0.674  -2.038  0.00  0.00     0.057 C 
BRANCH   7   8
ATOM      8  C2' N4B d   1       0.512  -1.873  -1.325  0.00  0.00     0.009 C 
BRANCH   8   9
ATOM      9  C3' N4B d   1      -0.523  -2.575  -2.187  0.00  0.00     0.004 C 
ATOM     10  C4' N4B d   1      -1.200  -3.708  -1.475  0.00  0.00     0.003 C 
ENDBRANCH   8   9
ENDBRANCH   7   8
ENDBRANCH   1   7
TORSDOF 3
ENDMDL
