MODEL 1
REMARK minimizedAffinity 7.89610052
REMARK minimizedRMSD -1
REMARK  3 active torsions:
REMARK  status: ('A' for Active; 'I' for Inactive)
REMARK    1  A    between atoms: C3'_2  and  C2'_3 
REMARK    2  A    between atoms: C2'_3  and  C1'_4 
REMARK    3  A    between atoms: C1'_4  and  C1_5 
ROOT
ATOM      1  C1  N4B d   1       1.519   2.028   0.050  0.00  0.00    -0.075 A 
ATOM      2  C2  N4B d   1       1.970   0.691  -0.005  0.00  0.00     0.002 A 
ATOM      3  C3  N4B d   1       1.950   0.008  -1.196  0.00  0.00     0.002 A 
ATOM      4  C4  N4B d   1       1.467   0.632  -2.337  0.00  0.00    -0.004 A 
ATOM      5  C5  N4B d   1       1.058   1.932  -2.281  0.00  0.00     0.002 A 
ATOM      6  C6  N4B d   1       1.076   2.632  -1.091  0.00  0.00     0.002 A 
ENDROOT
BRANCH   1   7
ATOM      7  C1' N4B d   1       1.442   2.788   1.346  0.00  0.00     0.057 C 
BRANCH   7   8
ATOM      8  C2' N4B d   1       2.585   2.346   2.254  0.00  0.00     0.009 C 
BRANCH   8   9
ATOM      9  C3' N4B d   1       2.993   3.440   3.226  0.00  0.00     0.004 C 
ATOM     10  C4' N4B d   1       4.045   4.351   2.668  0.00  0.00     0.003 C 
ENDBRANCH   8   9
ENDBRANCH   7   8
ENDBRANCH   1   7
TORSDOF 3
ENDMDL
