MODEL 1
REMARK minimizedAffinity 4.65522385
REMARK minimizedRMSD -1
REMARK  3 active torsions:
REMARK  status: ('A' for Active; 'I' for Inactive)
REMARK    1  A    between atoms: C3'_2  and  C2'_3 
REMARK    2  A    between atoms: C2'_3  and  C1'_4 
REMARK    3  A    between atoms: C1'_4  and  C1_5 
ROOT
ATOM      1  C1  N4B d   1       0.954   0.548  -0.710  0.00  0.00    -0.075 A 
ATOM      2  C2  N4B d   1       0.313   1.637  -0.080  0.00  0.00     0.002 A 
ATOM      3  C3  N4B d   1       0.259   2.857  -0.707  0.00  0.00     0.002 A 
ATOM      4  C4  N4B d   1       0.852   3.017  -1.950  0.00  0.00    -0.004 A 
ATOM      5  C5  N4B d   1       1.447   1.953  -2.563  0.00  0.00     0.002 A 
ATOM      6  C6  N4B d   1       1.506   0.720  -1.946  0.00  0.00     0.002 A 
ENDROOT
BRANCH   1   7
ATOM      7  C1' N4B d   1       1.114  -0.783  -0.026  0.00  0.00     0.057 C 
BRANCH   7   8
ATOM      8  C2' N4B d   1       2.050  -0.623   1.168  0.00  0.00     0.009 C 
BRANCH   8   9
ATOM      9  C3' N4B d   1       3.510  -0.618   0.750  0.00  0.00     0.004 C 
ATOM     10  C4' N4B d   1       4.129  -1.983   0.783  0.00  0.00     0.003 C 
ENDBRANCH   8   9
ENDBRANCH   7   8
ENDBRANCH   1   7
TORSDOF 3
ENDMDL
