MODEL 1
REMARK minimizedAffinity 1.94488013
REMARK minimizedRMSD -1
REMARK  3 active torsions:
REMARK  status: ('A' for Active; 'I' for Inactive)
REMARK    1  A    between atoms: C3'_2  and  C2'_3 
REMARK    2  A    between atoms: C2'_3  and  C1'_4 
REMARK    3  A    between atoms: C1'_4  and  C1_5 
ROOT
ATOM      1  C1  N4B d   1      -0.464  -3.739   0.127  0.00  0.00    -0.075 A 
ATOM      2  C2  N4B d   1      -0.619  -3.311  -1.209  0.00  0.00     0.002 A 
ATOM      3  C3  N4B d   1       0.371  -2.577  -1.814  0.00  0.00     0.002 A 
ATOM      4  C4  N4B d   1       1.512  -2.244  -1.100  0.00  0.00    -0.004 A 
ATOM      5  C5  N4B d   1       1.666  -2.683   0.183  0.00  0.00     0.002 A 
ATOM      6  C6  N4B d   1       0.680  -3.425   0.802  0.00  0.00     0.002 A 
ENDROOT
BRANCH   1   7
ATOM      7  C1' N4B d   1      -1.556  -4.471   0.859  0.00  0.00     0.057 C 
BRANCH   7   8
ATOM      8  C2' N4B d   1      -1.237  -4.485   2.351  0.00  0.00     0.009 C 
BRANCH   8   9
ATOM      9  C3' N4B d   1      -2.434  -4.911   3.184  0.00  0.00     0.004 C 
ATOM     10  C4' N4B d   1      -3.095  -3.761   3.882  0.00  0.00     0.003 C 
ENDBRANCH   8   9
ENDBRANCH   7   8
ENDBRANCH   1   7
TORSDOF 3
ENDMDL
