MODEL 1
REMARK minimizedAffinity -1.94018841
REMARK minimizedRMSD -1
REMARK  3 active torsions:
REMARK  status: ('A' for Active; 'I' for Inactive)
REMARK    1  A    between atoms: C3'_2  and  C2'_3 
REMARK    2  A    between atoms: C2'_3  and  C1'_4 
REMARK    3  A    between atoms: C1'_4  and  C1_5 
ROOT
ATOM      1  C1  N4B d   1       1.083   2.250  -0.697  0.00  0.00    -0.075 A 
ATOM      2  C2  N4B d   1       0.766   1.182  -1.564  0.00  0.00     0.002 A 
ATOM      3  C3  N4B d   1       0.466  -0.055  -1.048  0.00  0.00     0.002 A 
ATOM      4  C4  N4B d   1       0.494  -0.251   0.325  0.00  0.00    -0.004 A 
ATOM      5  C5  N4B d   1       0.776   0.793   1.157  0.00  0.00     0.002 A 
ATOM      6  C6  N4B d   1       1.076   2.043   0.652  0.00  0.00     0.002 A 
ENDROOT
BRANCH   1   7
ATOM      7  C1' N4B d   1       1.501   3.598  -1.218  0.00  0.00     0.057 C 
BRANCH   7   8
ATOM      8  C2' N4B d   1       1.503   4.601  -0.068  0.00  0.00     0.009 C 
BRANCH   8   9
ATOM      9  C3' N4B d   1       1.872   5.999  -0.534  0.00  0.00     0.004 C 
ATOM     10  C4' N4B d   1       2.962   6.000  -1.563  0.00  0.00     0.003 C 
ENDBRANCH   8   9
ENDBRANCH   7   8
ENDBRANCH   1   7
TORSDOF 3
ENDMDL
