MODEL 1
REMARK minimizedAffinity -1.77496195
REMARK minimizedRMSD -1
REMARK  3 active torsions:
REMARK  status: ('A' for Active; 'I' for Inactive)
REMARK    1  A    between atoms: C3'_2  and  C2'_3 
REMARK    2  A    between atoms: C2'_3  and  C1'_4 
REMARK    3  A    between atoms: C1'_4  and  C1_5 
ROOT
ATOM      1  C1  N4B d   1       0.773   0.822  -1.148  0.00  0.00    -0.075 A 
ATOM      2  C2  N4B d   1       1.098   1.130   0.192  0.00  0.00     0.002 A 
ATOM      3  C3  N4B d   1       1.113   2.437   0.612  0.00  0.00     0.002 A 
ATOM      4  C4  N4B d   1       0.827   3.451  -0.291  0.00  0.00    -0.004 A 
ATOM      5  C5  N4B d   1       0.490   3.144  -1.576  0.00  0.00     0.002 A 
ATOM      6  C6  N4B d   1       0.466   1.834  -2.011  0.00  0.00     0.002 A 
ENDROOT
BRANCH   1   7
ATOM      7  C1' N4B d   1       0.827  -0.586  -1.675  0.00  0.00     0.057 C 
BRANCH   7   8
ATOM      8  C2' N4B d   1       1.433  -1.496  -0.610  0.00  0.00     0.009 C 
BRANCH   8   9
ATOM      9  C3' N4B d   1       0.524  -2.668  -0.281  0.00  0.00     0.004 C 
ATOM     10  C4' N4B d   1      -0.437  -2.986  -1.388  0.00  0.00     0.003 C 
ENDBRANCH   8   9
ENDBRANCH   7   8
ENDBRANCH   1   7
TORSDOF 3
ENDMDL
