MODEL 1
REMARK minimizedAffinity 4.12160969
REMARK minimizedRMSD -1
REMARK  3 active torsions:
REMARK  status: ('A' for Active; 'I' for Inactive)
REMARK    1  A    between atoms: C3'_2  and  C2'_3 
REMARK    2  A    between atoms: C2'_3  and  C1'_4 
REMARK    3  A    between atoms: C1'_4  and  C1_5 
ROOT
ATOM      1  C1  N4B d   1       1.641   1.037   1.000  0.00  0.00    -0.075 A 
ATOM      2  C2  N4B d   1       2.670   0.769   1.930  0.00  0.00     0.002 A 
ATOM      3  C3  N4B d   1       3.084   1.750   2.797  0.00  0.00     0.002 A 
ATOM      4  C4  N4B d   1       2.500   3.007   2.741  0.00  0.00    -0.004 A 
ATOM      5  C5  N4B d   1       1.489   3.250   1.857  0.00  0.00     0.002 A 
ATOM      6  C6  N4B d   1       1.060   2.272   0.982  0.00  0.00     0.002 A 
ENDROOT
BRANCH   1   7
ATOM      7  C1' N4B d   1       1.214   0.023  -0.026  0.00  0.00     0.057 C 
BRANCH   7   8
ATOM      8  C2' N4B d   1       0.549   0.743  -1.195  0.00  0.00     0.009 C 
BRANCH   8   9
ATOM      9  C3' N4B d   1       1.551   1.532  -2.021  0.00  0.00     0.004 C 
ATOM     10  C4' N4B d   1       1.124   2.951  -2.252  0.00  0.00     0.003 C 
ENDBRANCH   8   9
ENDBRANCH   7   8
ENDBRANCH   1   7
TORSDOF 3
ENDMDL
