MODEL 1
REMARK minimizedAffinity -0.415688097
REMARK minimizedRMSD -1
REMARK  1 active torsions:
REMARK  status: ('A' for Active; 'I' for Inactive)
REMARK    1  A    between atoms: C1_2  and  C2_3 
ROOT
ATOM      1  C2  UNL d   1       3.476   0.771  -1.202  0.00  0.00    -0.076 A 
ATOM      2  C3  UNL d   1       2.958   1.719  -0.303  0.00  0.00     0.004 A 
ATOM      3  C4  UNL d   1       1.858   1.421   0.499  0.00  0.00    -0.003 A 
ATOM      4  C5  UNL d   1       1.259   0.168   0.417  0.00  0.00     0.000 A 
ATOM      5  C6  UNL d   1       1.771  -0.791  -0.457  0.00  0.00     0.000 A 
ATOM      6  C7  UNL d   1       2.889  -0.511  -1.261  0.00  0.00    -0.073 A 
ATOM      7  C8  UNL d   1       3.396  -1.581  -2.190  0.00  0.00     0.078 C 
ENDROOT
BRANCH   1   8
ATOM      8  C1  UNL d   1       4.654   1.160  -2.067  0.00  0.00     0.053 C 
ATOM      9  C   UNL d   1       5.304   2.459  -1.616  0.00  0.00     0.018 C 
ENDBRANCH   1   8
TORSDOF 1
ENDMDL
