MODEL 1
REMARK minimizedAffinity 6.14111948
REMARK minimizedRMSD -1
REMARK  1 active torsions:
REMARK  status: ('A' for Active; 'I' for Inactive)
REMARK    1  A    between atoms: C1_2  and  C2_3 
ROOT
ATOM      1  C2  UNL d   1       2.171   0.159  -1.003  0.00  0.00    -0.076 A 
ATOM      2  C3  UNL d   1       2.425   1.187  -0.079  0.00  0.00     0.004 A 
ATOM      3  C4  UNL d   1       3.394   2.156  -0.332  0.00  0.00    -0.003 A 
ATOM      4  C5  UNL d   1       4.125   2.113  -1.514  0.00  0.00     0.000 A 
ATOM      5  C6  UNL d   1       3.874   1.110  -2.450  0.00  0.00     0.000 A 
ATOM      6  C7  UNL d   1       2.889   0.135  -2.217  0.00  0.00    -0.073 A 
ATOM      7  C8  UNL d   1       2.665  -0.927  -3.259  0.00  0.00     0.078 C 
ENDROOT
BRANCH   1   8
ATOM      8  C1  UNL d   1       1.127  -0.880  -0.661  0.00  0.00     0.053 C 
ATOM      9  C   UNL d   1       0.929  -1.037   0.838  0.00  0.00     0.018 C 
ENDBRANCH   1   8
TORSDOF 1
ENDMDL
