MODEL 1
REMARK minimizedAffinity 1.72847581
REMARK minimizedRMSD -1
REMARK  1 active torsions:
REMARK  status: ('A' for Active; 'I' for Inactive)
REMARK    1  A    between atoms: C1_2  and  C2_3 
ROOT
ATOM      1  C2  UNL d   1       1.572  -0.493  -0.405  0.00  0.00    -0.076 A 
ATOM      2  C3  UNL d   1       0.705  -0.483  -1.511  0.00  0.00     0.004 A 
ATOM      3  C4  UNL d   1      -0.426  -1.297  -1.544  0.00  0.00    -0.003 A 
ATOM      4  C5  UNL d   1      -0.708  -2.135  -0.470  0.00  0.00     0.000 A 
ATOM      5  C6  UNL d   1       0.132  -2.145   0.643  0.00  0.00     0.000 A 
ATOM      6  C7  UNL d   1       1.267  -1.317   0.699  0.00  0.00    -0.073 A 
ATOM      7  C8  UNL d   1       2.141  -1.373   1.922  0.00  0.00     0.078 C 
ENDROOT
BRANCH   1   8
ATOM      8  C1  UNL d   1       2.798   0.392  -0.437  0.00  0.00     0.053 C 
ATOM      9  C   UNL d   1       2.448   1.868  -0.552  0.00  0.00     0.018 C 
ENDBRANCH   1   8
TORSDOF 1
ENDMDL
