MODEL 1
REMARK minimizedAffinity 4.82610178
REMARK minimizedRMSD -1
REMARK  1 active torsions:
REMARK  status: ('A' for Active; 'I' for Inactive)
REMARK    1  A    between atoms: C1_2  and  C2_3 
ROOT
ATOM      1  C2  UNL d   1       1.671   0.755  -0.016  0.00  0.00    -0.076 A 
ATOM      2  C3  UNL d   1       2.850   1.341  -0.509  0.00  0.00     0.004 A 
ATOM      3  C4  UNL d   1       3.645   0.677  -1.441  0.00  0.00    -0.003 A 
ATOM      4  C5  UNL d   1       3.273  -0.583  -1.897  0.00  0.00     0.000 A 
ATOM      5  C6  UNL d   1       2.098  -1.172  -1.432  0.00  0.00     0.000 A 
ATOM      6  C7  UNL d   1       1.277  -0.509  -0.504  0.00  0.00    -0.073 A 
ATOM      7  C8  UNL d   1       0.023  -1.194  -0.031  0.00  0.00     0.078 C 
ENDROOT
BRANCH   1   8
ATOM      8  C1  UNL d   1       0.863   1.510   1.015  0.00  0.00     0.053 C 
ATOM      9  C   UNL d   1       1.353   1.264   2.434  0.00  0.00     0.018 C 
ENDBRANCH   1   8
TORSDOF 1
ENDMDL
