MODEL 1
REMARK minimizedAffinity 9.93234444
REMARK minimizedRMSD -1
REMARK  1 active torsions:
REMARK  status: ('A' for Active; 'I' for Inactive)
REMARK    1  A    between atoms: C1_2  and  C2_3 
ROOT
ATOM      1  C2  UNL d   1       4.836   2.345  -1.520  0.00  0.00    -0.076 A 
ATOM      2  C3  UNL d   1       3.737   1.787  -2.197  0.00  0.00     0.004 A 
ATOM      3  C4  UNL d   1       2.699   1.174  -1.497  0.00  0.00    -0.003 A 
ATOM      4  C5  UNL d   1       2.742   1.110  -0.108  0.00  0.00     0.000 A 
ATOM      5  C6  UNL d   1       3.816   1.674   0.580  0.00  0.00     0.000 A 
ATOM      6  C7  UNL d   1       4.863   2.310  -0.109  0.00  0.00    -0.073 A 
ATOM      7  C8  UNL d   1       5.999   2.895   0.684  0.00  0.00     0.078 C 
ENDROOT
BRANCH   1   8
ATOM      8  C1  UNL d   1       5.945   2.972  -2.334  0.00  0.00     0.053 C 
ATOM      9  C   UNL d   1       5.856   4.489  -2.369  0.00  0.00     0.018 C 
ENDBRANCH   1   8
TORSDOF 1
ENDMDL
