MODEL 1
REMARK minimizedAffinity 15.3366146
REMARK minimizedRMSD -1
REMARK  1 active torsions:
REMARK  status: ('A' for Active; 'I' for Inactive)
REMARK    1  A    between atoms: C1_2  and  C2_3 
ROOT
ATOM      1  C2  UNL d   1       4.803   2.694  -0.095  0.00  0.00    -0.076 A 
ATOM      2  C3  UNL d   1       3.674   2.272   0.628  0.00  0.00     0.004 A 
ATOM      3  C4  UNL d   1       2.535   1.807  -0.027  0.00  0.00    -0.003 A 
ATOM      4  C5  UNL d   1       2.507   1.755  -1.416  0.00  0.00     0.000 A 
ATOM      5  C6  UNL d   1       3.625   2.152  -2.149  0.00  0.00     0.000 A 
ATOM      6  C7  UNL d   1       4.787   2.609  -1.503  0.00  0.00    -0.073 A 
ATOM      7  C8  UNL d   1       5.961   3.031  -2.343  0.00  0.00     0.078 C 
ENDROOT
BRANCH   1   8
ATOM      8  C1  UNL d   1       5.999   3.215   0.669  0.00  0.00     0.053 C 
ATOM      9  C   UNL d   1       5.996   4.731   0.793  0.00  0.00     0.018 C 
ENDBRANCH   1   8
TORSDOF 1
ENDMDL
