MODEL 1
REMARK minimizedAffinity -0.544392467
REMARK minimizedRMSD -1
REMARK  1 active torsions:
REMARK  status: ('A' for Active; 'I' for Inactive)
REMARK    1  A    between atoms: C1_2  and  C2_3 
ROOT
ATOM      1  C2  UNL d   1       0.501  -0.082  -2.219  0.00  0.00    -0.076 A 
ATOM      2  C3  UNL d   1       1.476   0.916  -2.043  0.00  0.00     0.004 A 
ATOM      3  C4  UNL d   1       1.920   1.682  -3.120  0.00  0.00    -0.003 A 
ATOM      4  C5  UNL d   1       1.397   1.463  -4.389  0.00  0.00     0.000 A 
ATOM      5  C6  UNL d   1       0.417   0.489  -4.578  0.00  0.00     0.000 A 
ATOM      6  C7  UNL d   1      -0.054  -0.280  -3.501  0.00  0.00    -0.073 A 
ATOM      7  C8  UNL d   1      -1.108  -1.321  -3.763  0.00  0.00     0.078 C 
ENDROOT
BRANCH   1   8
ATOM      8  C1  UNL d   1       0.078  -0.899  -1.019  0.00  0.00     0.053 C 
ATOM      9  C   UNL d   1      -0.598  -0.057   0.051  0.00  0.00     0.018 C 
ENDBRANCH   1   8
TORSDOF 1
ENDMDL
