MODEL 1
REMARK minimizedAffinity -6.11847258
REMARK minimizedRMSD -1
REMARK  1 active torsions:
REMARK  status: ('A' for Active; 'I' for Inactive)
REMARK    1  A    between atoms: C1_2  and  C2_3 
ROOT
ATOM      1  C2  UNL d   1       0.253   0.075   0.950  0.00  0.00    -0.076 A 
ATOM      2  C3  UNL d   1      -1.024   0.654   0.858  0.00  0.00     0.004 A 
ATOM      3  C4  UNL d   1      -1.589   1.323   1.942  0.00  0.00    -0.003 A 
ATOM      4  C5  UNL d   1      -0.884   1.425   3.137  0.00  0.00     0.000 A 
ATOM      5  C6  UNL d   1       0.392   0.872   3.240  0.00  0.00     0.000 A 
ATOM      6  C7  UNL d   1       0.982   0.208   2.151  0.00  0.00    -0.073 A 
ATOM      7  C8  UNL d   1       2.358  -0.375   2.320  0.00  0.00     0.078 C 
ENDROOT
BRANCH   1   8
ATOM      8  C1  UNL d   1       0.802  -0.662  -0.251  0.00  0.00     0.053 C 
ATOM      9  C   UNL d   1       0.053  -0.330  -1.532  0.00  0.00     0.018 C 
ENDBRANCH   1   8
TORSDOF 1
ENDMDL
