MODEL 1
REMARK minimizedAffinity -4.79619837
REMARK minimizedRMSD -1
REMARK  1 active torsions:
REMARK  status: ('A' for Active; 'I' for Inactive)
REMARK    1  A    between atoms: C1_2  and  C2_3 
ROOT
ATOM      1  C2  UNL d   1      -0.720   0.366   1.658  0.00  0.00    -0.076 A 
ATOM      2  C3  UNL d   1      -1.561  -0.090   0.628  0.00  0.00     0.004 A 
ATOM      3  C4  UNL d   1      -1.052  -0.395  -0.633  0.00  0.00    -0.003 A 
ATOM      4  C5  UNL d   1       0.307  -0.249  -0.885  0.00  0.00     0.000 A 
ATOM      5  C6  UNL d   1       1.160   0.185   0.129  0.00  0.00     0.000 A 
ATOM      6  C7  UNL d   1       0.665   0.481   1.411  0.00  0.00    -0.073 A 
ATOM      7  C8  UNL d   1       1.629   0.952   2.466  0.00  0.00     0.078 C 
ENDROOT
BRANCH   1   8
ATOM      8  C1  UNL d   1      -1.333   0.708   2.997  0.00  0.00     0.053 C 
ATOM      9  C   UNL d   1      -2.199  -0.416   3.545  0.00  0.00     0.018 C 
ENDBRANCH   1   8
TORSDOF 1
ENDMDL
