MODEL 1
REMARK minimizedAffinity -5.95940495
REMARK minimizedRMSD -1
REMARK  1 active torsions:
REMARK  status: ('A' for Active; 'I' for Inactive)
REMARK    1  A    between atoms: C1_2  and  C2_3 
ROOT
ATOM      1  C2  UNL d   1       0.345  -0.014   1.131  0.00  0.00    -0.076 A 
ATOM      2  C3  UNL d   1      -0.924   0.591   1.097  0.00  0.00     0.004 A 
ATOM      3  C4  UNL d   1      -1.469   1.178   2.237  0.00  0.00    -0.003 A 
ATOM      4  C5  UNL d   1      -0.755   1.170   3.430  0.00  0.00     0.000 A 
ATOM      5  C6  UNL d   1       0.512   0.590   3.478  0.00  0.00     0.000 A 
ATOM      6  C7  UNL d   1       1.084   0.008   2.333  0.00  0.00    -0.073 A 
ATOM      7  C8  UNL d   1       2.451  -0.610   2.443  0.00  0.00     0.078 C 
ENDROOT
BRANCH   1   8
ATOM      8  C1  UNL d   1       0.873  -0.659  -0.130  0.00  0.00     0.053 C 
ATOM      9  C   UNL d   1       0.107  -0.228  -1.371  0.00  0.00     0.018 C 
ENDBRANCH   1   8
TORSDOF 1
ENDMDL
