MODEL 1
REMARK minimizedAffinity -5.8609457
REMARK minimizedRMSD -1
REMARK  1 active torsions:
REMARK  status: ('A' for Active; 'I' for Inactive)
REMARK    1  A    between atoms: C1_2  and  C2_3 
ROOT
ATOM      1  C2  UNL d   1       0.405  -0.284   0.936  0.00  0.00    -0.076 A 
ATOM      2  C3  UNL d   1      -0.899   0.231   0.837  0.00  0.00     0.004 A 
ATOM      3  C4  UNL d   1      -1.492   0.894   1.911  0.00  0.00    -0.003 A 
ATOM      4  C5  UNL d   1      -0.791   1.052   3.101  0.00  0.00     0.000 A 
ATOM      5  C6  UNL d   1       0.510   0.562   3.211  0.00  0.00     0.000 A 
ATOM      6  C7  UNL d   1       1.129  -0.093   2.133  0.00  0.00    -0.073 A 
ATOM      7  C8  UNL d   1       2.532  -0.607   2.309  0.00  0.00     0.078 C 
ENDROOT
BRANCH   1   8
ATOM      8  C1  UNL d   1       0.987  -1.017  -0.251  0.00  0.00     0.053 C 
ATOM      9  C   UNL d   1       0.548  -0.417  -1.578  0.00  0.00     0.018 C 
ENDBRANCH   1   8
TORSDOF 1
ENDMDL
