MODEL 1
REMARK minimizedAffinity -5.31209183
REMARK minimizedRMSD -1
REMARK  1 active torsions:
REMARK  status: ('A' for Active; 'I' for Inactive)
REMARK    1  A    between atoms: C1_2  and  C2_3 
ROOT
ATOM      1  C2  UNL d   1       0.305   0.198   1.333  0.00  0.00    -0.076 A 
ATOM      2  C3  UNL d   1       1.552  -0.311   1.736  0.00  0.00     0.004 A 
ATOM      3  C4  UNL d   1       1.910  -0.350   3.083  0.00  0.00    -0.003 A 
ATOM      4  C5  UNL d   1       1.026   0.119   4.049  0.00  0.00     0.000 A 
ATOM      5  C6  UNL d   1      -0.222   0.612   3.668  0.00  0.00     0.000 A 
ATOM      6  C7  UNL d   1      -0.605   0.643   2.316  0.00  0.00    -0.073 A 
ATOM      7  C8  UNL d   1      -1.960   1.190   1.962  0.00  0.00     0.078 C 
ENDROOT
BRANCH   1   8
ATOM      8  C1  UNL d   1      -0.017   0.240  -0.143  0.00  0.00     0.053 C 
ATOM      9  C   UNL d   1       0.731  -0.823  -0.933  0.00  0.00     0.018 C 
ENDBRANCH   1   8
TORSDOF 1
ENDMDL
