MODEL 1
REMARK minimizedAffinity -5.56631184
REMARK minimizedRMSD -1
REMARK  1 active torsions:
REMARK  status: ('A' for Active; 'I' for Inactive)
REMARK    1  A    between atoms: C1_2  and  C2_3 
ROOT
ATOM      1  C2  UNL d   1      -0.314   0.515   1.066  0.00  0.00    -0.076 A 
ATOM      2  C3  UNL d   1      -0.904   1.169   2.162  0.00  0.00     0.004 A 
ATOM      3  C4  UNL d   1      -0.202   1.348   3.353  0.00  0.00    -0.003 A 
ATOM      4  C5  UNL d   1       1.101   0.877   3.467  0.00  0.00     0.000 A 
ATOM      5  C6  UNL d   1       1.708   0.241   2.384  0.00  0.00     0.000 A 
ATOM      6  C7  UNL d   1       1.020   0.067   1.171  0.00  0.00    -0.073 A 
ATOM      7  C8  UNL d   1       1.721  -0.631   0.038  0.00  0.00     0.078 C 
ENDROOT
BRANCH   1   8
ATOM      8  C1  UNL d   1      -1.134   0.325  -0.191  0.00  0.00     0.053 C 
ATOM      9  C   UNL d   1      -2.531  -0.202   0.099  0.00  0.00     0.018 C 
ENDBRANCH   1   8
TORSDOF 1
ENDMDL
