MODEL 1
REMARK minimizedAffinity -2.43204474
REMARK minimizedRMSD -1
REMARK  0 active torsions:
REMARK  status: ('A' for Active; 'I' for Inactive)
ROOT
ATOM      1  O1  BZF d   1      -1.119   3.019   1.031  0.00  0.00    -0.204 OA
ATOM      2  C2  BZF d   1      -2.198   3.727   1.524  0.00  0.00     0.174 A 
ATOM      3  C3  BZF d   1      -2.932   4.242   0.516  0.00  0.00    -0.012 A 
ATOM      4  C3A BZF d   1      -2.322   3.753  -0.682  0.00  0.00    -0.107 A 
ATOM      5  C4  BZF d   1      -2.605   3.906  -2.009  0.00  0.00     0.055 A 
ATOM      6  C5  BZF d   1      -1.770   3.357  -2.930  0.00  0.00    -0.016 A 
ATOM      7  C6  BZF d   1      -0.642   2.655  -2.559  0.00  0.00     0.022 A 
ATOM      8  C7  BZF d   1      -0.322   2.473  -1.255  0.00  0.00     0.029 A 
ATOM      9  C7A BZF d   1      -1.182   2.998  -0.322  0.00  0.00     0.058 A 
ENDROOT
TORSDOF 0
ENDMDL
