MODEL 1
REMARK minimizedAffinity 4.68488407
REMARK minimizedRMSD -1
REMARK  0 active torsions:
REMARK  status: ('A' for Active; 'I' for Inactive)
ROOT
ATOM      1  O1  BZF d   1       1.617  -0.790   3.596  0.00  0.00    -0.204 OA
ATOM      2  C2  BZF d   1       0.998  -1.110   4.789  0.00  0.00     0.174 A 
ATOM      3  C3  BZF d   1       0.012  -0.233   5.067  0.00  0.00    -0.012 A 
ATOM      4  C3A BZF d   1      -0.046   0.639   3.934  0.00  0.00    -0.107 A 
ATOM      5  C4  BZF d   1      -0.834   1.706   3.609  0.00  0.00     0.055 A 
ATOM      6  C5  BZF d   1      -0.585   2.386   2.459  0.00  0.00    -0.016 A 
ATOM      7  C6  BZF d   1       0.446   2.030   1.614  0.00  0.00     0.022 A 
ATOM      8  C7  BZF d   1       1.251   0.976   1.891  0.00  0.00     0.029 A 
ATOM      9  C7A BZF d   1       0.981   0.267   3.036  0.00  0.00     0.058 A 
ENDROOT
TORSDOF 0
ENDMDL
