MODEL 1
REMARK minimizedAffinity 7.34646654
REMARK minimizedRMSD -1
REMARK  0 active torsions:
REMARK  status: ('A' for Active; 'I' for Inactive)
ROOT
ATOM      1  O1  BZF d   1      -0.889   3.010  -3.024  0.00  0.00    -0.204 OA
ATOM      2  C2  BZF d   1      -0.456   1.760  -2.627  0.00  0.00     0.174 A 
ATOM      3  C3  BZF d   1      -1.425   1.110  -1.951  0.00  0.00    -0.012 A 
ATOM      4  C3A BZF d   1      -2.565   1.973  -2.004  0.00  0.00    -0.107 A 
ATOM      5  C4  BZF d   1      -3.840   1.874  -1.527  0.00  0.00     0.055 A 
ATOM      6  C5  BZF d   1      -4.688   2.924  -1.685  0.00  0.00    -0.016 A 
ATOM      7  C6  BZF d   1      -4.293   4.089  -2.310  0.00  0.00     0.022 A 
ATOM      8  C7  BZF d   1      -3.039   4.232  -2.804  0.00  0.00     0.029 A 
ATOM      9  C7A BZF d   1      -2.190   3.160  -2.675  0.00  0.00     0.058 A 
ENDROOT
TORSDOF 0
ENDMDL
