MODEL 1
REMARK minimizedAffinity 9.75534534
REMARK minimizedRMSD -1
REMARK  0 active torsions:
REMARK  status: ('A' for Active; 'I' for Inactive)
ROOT
ATOM      1  O1  BZF d   1      -5.079   0.320   1.945  0.00  0.00    -0.204 OA
ATOM      2  C2  BZF d   1      -3.977  -0.025   1.187  0.00  0.00     0.174 A 
ATOM      3  C3  BZF d   1      -3.255  -0.984   1.801  0.00  0.00    -0.012 A 
ATOM      4  C3A BZF d   1      -4.000  -1.321   2.975  0.00  0.00    -0.107 A 
ATOM      5  C4  BZF d   1      -3.805  -2.220   3.985  0.00  0.00     0.055 A 
ATOM      6  C5  BZF d   1      -4.682  -2.249   5.022  0.00  0.00    -0.016 A 
ATOM      7  C6  BZF d   1      -5.761  -1.392   5.085  0.00  0.00     0.022 A 
ATOM      8  C7  BZF d   1      -5.999  -0.486   4.105  0.00  0.00     0.029 A 
ATOM      9  C7A BZF d   1      -5.132  -0.477   3.039  0.00  0.00     0.058 A 
ENDROOT
TORSDOF 0
ENDMDL
