MODEL 1
REMARK minimizedAffinity 3.57754016
REMARK minimizedRMSD -1
REMARK  0 active torsions:
REMARK  status: ('A' for Active; 'I' for Inactive)
ROOT
ATOM      1  O1  BZF d   1       3.342  -2.469  -2.332  0.00  0.00    -0.204 OA
ATOM      2  C2  BZF d   1       3.594  -1.680  -1.227  0.00  0.00     0.174 A 
ATOM      3  C3  BZF d   1       4.452  -2.294  -0.386  0.00  0.00    -0.012 A 
ATOM      4  C3A BZF d   1       4.826  -3.505  -1.050  0.00  0.00    -0.107 A 
ATOM      5  C4  BZF d   1       5.667  -4.531  -0.725  0.00  0.00     0.055 A 
ATOM      6  C5  BZF d   1       5.754  -5.602  -1.558  0.00  0.00    -0.016 A 
ATOM      7  C6  BZF d   1       5.012  -5.681  -2.719  0.00  0.00     0.022 A 
ATOM      8  C7  BZF d   1       4.169  -4.685  -3.085  0.00  0.00     0.029 A 
ATOM      9  C7A BZF d   1       4.104  -3.587  -2.262  0.00  0.00     0.058 A 
ENDROOT
TORSDOF 0
ENDMDL
