MODEL 1
REMARK minimizedAffinity 0.685646832
REMARK minimizedRMSD -1
REMARK  0 active torsions:
REMARK  status: ('A' for Active; 'I' for Inactive)
ROOT
ATOM      1  O1  BZF d   1      -0.066   1.222  -0.829  0.00  0.00    -0.204 OA
ATOM      2  C2  BZF d   1      -0.114  -0.141  -1.049  0.00  0.00     0.174 A 
ATOM      3  C3  BZF d   1       0.106  -0.819   0.095  0.00  0.00    -0.012 A 
ATOM      4  C3A BZF d   1       0.213   0.183   1.111  0.00  0.00    -0.107 A 
ATOM      5  C4  BZF d   1       0.417   0.133   2.461  0.00  0.00     0.055 A 
ATOM      6  C5  BZF d   1       0.543   1.296   3.153  0.00  0.00    -0.016 A 
ATOM      7  C6  BZF d   1       0.477   2.524   2.528  0.00  0.00     0.022 A 
ATOM      8  C7  BZF d   1       0.271   2.624   1.192  0.00  0.00     0.029 A 
ATOM      9  C7A BZF d   1       0.110   1.451   0.495  0.00  0.00     0.058 A 
ENDROOT
TORSDOF 0
ENDMDL
