MODEL 1
REMARK minimizedAffinity 2.3628664
REMARK minimizedRMSD -1
REMARK  0 active torsions:
REMARK  status: ('A' for Active; 'I' for Inactive)
ROOT
ATOM      1  O1  BZF d   1       1.620   1.438   1.603  0.00  0.00    -0.204 OA
ATOM      2  C2  BZF d   1       1.443   0.699   2.757  0.00  0.00     0.174 A 
ATOM      3  C3  BZF d   1       0.547  -0.289   2.559  0.00  0.00    -0.012 A 
ATOM      4  C3A BZF d   1       0.207  -0.216   1.171  0.00  0.00    -0.107 A 
ATOM      5  C4  BZF d   1      -0.623  -0.945   0.368  0.00  0.00     0.055 A 
ATOM      6  C5  BZF d   1      -0.786  -0.570  -0.928  0.00  0.00    -0.016 A 
ATOM      7  C6  BZF d   1      -0.139   0.530  -1.452  0.00  0.00     0.022 A 
ATOM      8  C7  BZF d   1       0.699   1.280  -0.696  0.00  0.00     0.029 A 
ATOM      9  C7A BZF d   1       0.891   0.884   0.605  0.00  0.00     0.058 A 
ENDROOT
TORSDOF 0
ENDMDL
