MODEL 1
REMARK minimizedAffinity 9.60262871
REMARK minimizedRMSD -1
REMARK  0 active torsions:
REMARK  status: ('A' for Active; 'I' for Inactive)
ROOT
ATOM      1  O1  BZF d   1       1.515  -0.022   3.008  0.00  0.00    -0.204 OA
ATOM      2  C2  BZF d   1       0.555   0.665   3.725  0.00  0.00     0.174 A 
ATOM      3  C3  BZF d   1      -0.322   1.267   2.896  0.00  0.00    -0.012 A 
ATOM      4  C3A BZF d   1       0.063   0.859   1.580  0.00  0.00    -0.107 A 
ATOM      5  C4  BZF d   1      -0.434   1.115   0.334  0.00  0.00     0.055 A 
ATOM      6  C5  BZF d   1       0.218   0.622  -0.751  0.00  0.00    -0.016 A 
ATOM      7  C6  BZF d   1       1.372  -0.125  -0.628  0.00  0.00     0.022 A 
ATOM      8  C7  BZF d   1       1.900  -0.409   0.587  0.00  0.00     0.029 A 
ATOM      9  C7A BZF d   1       1.225   0.059   1.687  0.00  0.00     0.058 A 
ENDROOT
TORSDOF 0
ENDMDL
