MODEL 1
REMARK minimizedAffinity -0.153331861
REMARK minimizedRMSD -1
REMARK  0 active torsions:
REMARK  status: ('A' for Active; 'I' for Inactive)
ROOT
ATOM      1  C   UNL d   1       2.451  -3.038  -0.079  0.00  0.00     0.172 C 
ATOM      2  N   UNL d   1       1.266  -2.650   0.649  0.00  0.00    -0.070 N 
ATOM      3  C1  UNL d   1       1.110  -1.491   1.361  0.00  0.00    -0.004 A 
ATOM      4  C2  UNL d   1      -0.157  -1.496   1.904  0.00  0.00    -0.047 A 
ATOM      5  C3  UNL d   1      -0.783  -2.701   1.506  0.00  0.00    -0.047 A 
ATOM      6  C4  UNL d   1       0.120  -3.397   0.730  0.00  0.00    -0.004 A 
ENDROOT
TORSDOF 0
ENDMDL
