MODEL 1
REMARK minimizedAffinity 6.94256735
REMARK minimizedRMSD -1
REMARK  0 active torsions:
REMARK  status: ('A' for Active; 'I' for Inactive)
ROOT
ATOM      1  C   UNL d   1       4.462  -4.466   2.387  0.00  0.00     0.172 C 
ATOM      2  N   UNL d   1       4.621  -4.108   3.777  0.00  0.00    -0.070 N 
ATOM      3  C1  UNL d   1       5.027  -2.887   4.246  0.00  0.00    -0.004 A 
ATOM      4  C2  UNL d   1       5.051  -2.950   5.622  0.00  0.00    -0.047 A 
ATOM      5  C3  UNL d   1       4.646  -4.254   5.994  0.00  0.00    -0.047 A 
ATOM      6  C4  UNL d   1       4.386  -4.950   4.832  0.00  0.00    -0.004 A 
ENDROOT
TORSDOF 0
ENDMDL
