MODEL 1
REMARK minimizedAffinity -2.55294371
REMARK minimizedRMSD -1
REMARK  0 active torsions:
REMARK  status: ('A' for Active; 'I' for Inactive)
ROOT
ATOM      1  C   UNL d   1      -3.834   2.850  -2.811  0.00  0.00     0.172 C 
ATOM      2  N   UNL d   1      -2.813   3.201  -3.770  0.00  0.00    -0.070 N 
ATOM      3  C1  UNL d   1      -2.944   4.125  -4.772  0.00  0.00    -0.004 A 
ATOM      4  C2  UNL d   1      -1.753   4.168  -5.465  0.00  0.00    -0.047 A 
ATOM      5  C3  UNL d   1      -0.877   3.237  -4.858  0.00  0.00    -0.047 A 
ATOM      6  C4  UNL d   1      -1.559   2.653  -3.812  0.00  0.00    -0.004 A 
ENDROOT
TORSDOF 0
ENDMDL
