MODEL 1
REMARK minimizedAffinity 5.92453098
REMARK minimizedRMSD -1
REMARK  0 active torsions:
REMARK  status: ('A' for Active; 'I' for Inactive)
ROOT
ATOM      1  C   UNL d   1       1.811  -3.107   0.029  0.00  0.00     0.172 C 
ATOM      2  N   UNL d   1       3.016  -3.797   0.427  0.00  0.00    -0.070 N 
ATOM      3  C1  UNL d   1       4.171  -3.873  -0.305  0.00  0.00    -0.004 A 
ATOM      4  C2  UNL d   1       5.080  -4.614   0.418  0.00  0.00    -0.047 A 
ATOM      5  C3  UNL d   1       4.450  -4.998   1.625  0.00  0.00    -0.047 A 
ATOM      6  C4  UNL d   1       3.173  -4.478   1.605  0.00  0.00    -0.004 A 
ENDROOT
TORSDOF 0
ENDMDL
