MODEL 1
REMARK minimizedAffinity 1.46945298
REMARK minimizedRMSD -1
REMARK  0 active torsions:
REMARK  status: ('A' for Active; 'I' for Inactive)
ROOT
ATOM      1  C   UNL d   1      -3.207   2.592  -3.338  0.00  0.00     0.172 C 
ATOM      2  N   UNL d   1      -2.113   3.044  -4.166  0.00  0.00    -0.070 N 
ATOM      3  C1  UNL d   1      -1.002   2.311  -4.490  0.00  0.00    -0.004 A 
ATOM      4  C2  UNL d   1      -0.201   3.094  -5.293  0.00  0.00    -0.047 A 
ATOM      5  C3  UNL d   1      -0.852   4.339  -5.456  0.00  0.00    -0.047 A 
ATOM      6  C4  UNL d   1      -2.034   4.281  -4.748  0.00  0.00    -0.004 A 
ENDROOT
TORSDOF 0
ENDMDL
