MODEL 1
REMARK minimizedAffinity 1.66365469
REMARK minimizedRMSD -1
REMARK  0 active torsions:
REMARK  status: ('A' for Active; 'I' for Inactive)
ROOT
ATOM      1  C   UNL d   1      -0.783  -3.399   2.237  0.00  0.00     0.172 C 
ATOM      2  N   UNL d   1       0.394  -3.290   1.407  0.00  0.00    -0.070 N 
ATOM      3  C1  UNL d   1       1.667  -3.057   1.853  0.00  0.00    -0.004 A 
ATOM      4  C2  UNL d   1       2.500  -3.024   0.756  0.00  0.00    -0.047 A 
ATOM      5  C3  UNL d   1       1.700  -3.244  -0.390  0.00  0.00    -0.047 A 
ATOM      6  C4  UNL d   1       0.400  -3.406   0.042  0.00  0.00    -0.004 A 
ENDROOT
TORSDOF 0
ENDMDL
