MODEL 1
REMARK minimizedAffinity 0.801172435
REMARK minimizedRMSD -1
REMARK  0 active torsions:
REMARK  status: ('A' for Active; 'I' for Inactive)
ROOT
ATOM      1  C   UNL d   1      -1.924   4.262  -4.371  0.00  0.00     0.172 C 
ATOM      2  N   UNL d   1      -2.782   3.858  -3.282  0.00  0.00    -0.070 N 
ATOM      3  C1  UNL d   1      -3.785   2.929  -3.358  0.00  0.00    -0.004 A 
ATOM      4  C2  UNL d   1      -4.364   2.829  -2.111  0.00  0.00    -0.047 A 
ATOM      5  C3  UNL d   1      -3.687   3.731  -1.256  0.00  0.00    -0.047 A 
ATOM      6  C4  UNL d   1      -2.712   4.355  -2.007  0.00  0.00    -0.004 A 
ENDROOT
TORSDOF 0
ENDMDL
