MODEL 1
REMARK minimizedAffinity 2.82474828
REMARK minimizedRMSD -1
REMARK  0 active torsions:
REMARK  status: ('A' for Active; 'I' for Inactive)
ROOT
ATOM      1  C   UNL d   1       5.046   5.869   5.993  0.00  0.00     0.172 C 
ATOM      2  N   UNL d   1       3.779   5.905   5.300  0.00  0.00    -0.070 N 
ATOM      3  C1  UNL d   1       2.545   5.859   5.891  0.00  0.00    -0.004 A 
ATOM      4  C2  UNL d   1       1.597   5.918   4.893  0.00  0.00    -0.047 A 
ATOM      5  C3  UNL d   1       2.285   6.000   3.659  0.00  0.00    -0.047 A 
ATOM      6  C4  UNL d   1       3.635   5.990   3.941  0.00  0.00    -0.004 A 
ENDROOT
TORSDOF 0
ENDMDL
