MODEL 1
REMARK minimizedAffinity 6.99183512
REMARK minimizedRMSD -1
REMARK  0 active torsions:
REMARK  status: ('A' for Active; 'I' for Inactive)
ROOT
ATOM      1  C   UNL d   1       4.981  -4.551   0.216  0.00  0.00     0.172 C 
ATOM      2  N   UNL d   1       3.691  -3.903   0.261  0.00  0.00    -0.070 N 
ATOM      3  C1  UNL d   1       3.057  -3.463   1.392  0.00  0.00    -0.004 A 
ATOM      4  C2  UNL d   1       1.856  -2.906   1.013  0.00  0.00    -0.047 A 
ATOM      5  C3  UNL d   1       1.764  -3.014  -0.395  0.00  0.00    -0.047 A 
ATOM      6  C4  UNL d   1       2.914  -3.636  -0.835  0.00  0.00    -0.004 A 
ENDROOT
TORSDOF 0
ENDMDL
