MODEL 1
REMARK minimizedAffinity 4.358006
REMARK minimizedRMSD -1
REMARK  0 active torsions:
REMARK  status: ('A' for Active; 'I' for Inactive)
ROOT
ATOM      1  C   UNL d   1      -1.310   3.752  -4.420  0.00  0.00     0.172 C 
ATOM      2  N   UNL d   1      -2.219   3.148  -3.475  0.00  0.00    -0.070 N 
ATOM      3  C1  UNL d   1      -3.323   2.402  -3.793  0.00  0.00    -0.004 A 
ATOM      4  C2  UNL d   1      -3.921   2.009  -2.615  0.00  0.00    -0.047 A 
ATOM      5  C3  UNL d   1      -3.150   2.536  -1.552  0.00  0.00    -0.047 A 
ATOM      6  C4  UNL d   1      -2.103   3.237  -2.112  0.00  0.00    -0.004 A 
ENDROOT
TORSDOF 0
ENDMDL
