MODEL 1
REMARK minimizedAffinity -4.05409956
REMARK minimizedRMSD -1
REMARK  1 active torsions:
REMARK  status: ('A' for Active; 'I' for Inactive)
REMARK    1  A    between atoms: C3_4  and  O_7 
ROOT
ATOM      1  C   UNL d   1      -3.038   3.410   4.866  0.00  0.00    -0.033 A 
ATOM      2  C1  UNL d   1      -1.903   2.628   4.645  0.00  0.00     0.039 A 
ATOM      3  C2  UNL d   1      -1.895   1.679   3.621  0.00  0.00    -0.080 A 
ATOM      4  C3  UNL d   1      -3.027   1.523   2.826  0.00  0.00     0.150 A 
ATOM      5  C4  UNL d   1      -4.161   2.301   3.038  0.00  0.00    -0.007 A 
ATOM      6  C5  UNL d   1      -4.167   3.247   4.062  0.00  0.00     0.039 A 
ENDROOT
BRANCH   4   7
ATOM      7  O   UNL d   1      -3.069   0.607   1.817  0.00  0.00    -0.526 OA
ATOM      8  H5  UNL d   1      -2.226   0.123   1.806  0.00  0.00     0.418 HD
ENDBRANCH   4   7
TORSDOF 1
ENDMDL
