MODEL 1
REMARK minimizedAffinity -1.43732858
REMARK minimizedRMSD -1
REMARK  1 active torsions:
REMARK  status: ('A' for Active; 'I' for Inactive)
REMARK    1  A    between atoms: C3_4  and  O_7 
ROOT
ATOM      1  C   UNL d   1      -0.397   0.515   1.184  0.00  0.00    -0.033 A 
ATOM      2  C1  UNL d   1       0.353   1.692   1.153  0.00  0.00     0.039 A 
ATOM      3  C2  UNL d   1       1.191   1.961   0.069  0.00  0.00    -0.080 A 
ATOM      4  C3  UNL d   1       1.268   1.046  -0.978  0.00  0.00     0.150 A 
ATOM      5  C4  UNL d   1       0.521  -0.127  -0.956  0.00  0.00    -0.007 A 
ATOM      6  C5  UNL d   1      -0.314  -0.394   0.128  0.00  0.00     0.039 A 
ENDROOT
BRANCH   4   7
ATOM      7  O   UNL d   1       2.075   1.263  -2.055  0.00  0.00    -0.526 OA
ATOM      8  H5  UNL d   1       2.552   2.099  -1.919  0.00  0.00     0.418 HD
ENDBRANCH   4   7
TORSDOF 1
ENDMDL
