MODEL 1
REMARK minimizedAffinity 1.7297312
REMARK minimizedRMSD -1
REMARK  1 active torsions:
REMARK  status: ('A' for Active; 'I' for Inactive)
REMARK    1  A    between atoms: C3_4  and  O_7 
ROOT
ATOM      1  C   UNL d   1       0.443   1.562   0.187  0.00  0.00    -0.033 A 
ATOM      2  C1  UNL d   1       1.377   0.848  -0.566  0.00  0.00     0.039 A 
ATOM      3  C2  UNL d   1       1.322  -0.547  -0.610  0.00  0.00    -0.080 A 
ATOM      4  C3  UNL d   1       0.329  -1.214   0.102  0.00  0.00     0.150 A 
ATOM      5  C4  UNL d   1      -0.607  -0.509   0.851  0.00  0.00    -0.007 A 
ATOM      6  C5  UNL d   1      -0.550   0.883   0.894  0.00  0.00     0.039 A 
ENDROOT
BRANCH   4   7
ATOM      7  O   UNL d   1       0.238  -2.574   0.094  0.00  0.00    -0.526 OA
ATOM      8  H5  UNL d   1       0.967  -2.928  -0.442  0.00  0.00     0.418 HD
ENDBRANCH   4   7
TORSDOF 1
ENDMDL
