MODEL 1
REMARK minimizedAffinity -4.61284113
REMARK minimizedRMSD -1
REMARK  1 active torsions:
REMARK  status: ('A' for Active; 'I' for Inactive)
REMARK    1  A    between atoms: C3_4  and  O_7 
ROOT
ATOM      1  C   UNL d   1      -0.021  -0.682   0.177  0.00  0.00    -0.033 A 
ATOM      2  C1  UNL d   1       0.553   0.579  -0.001  0.00  0.00     0.039 A 
ATOM      3  C2  UNL d   1       1.171   0.902  -1.210  0.00  0.00    -0.080 A 
ATOM      4  C3  UNL d   1       1.208  -0.043  -2.233  0.00  0.00     0.150 A 
ATOM      5  C4  UNL d   1       0.635  -1.299  -2.063  0.00  0.00    -0.007 A 
ATOM      6  C5  UNL d   1       0.019  -1.620  -0.855  0.00  0.00     0.039 A 
ENDROOT
BRANCH   4   7
ATOM      7  O   UNL d   1       1.805   0.225  -3.429  0.00  0.00    -0.526 OA
ATOM      8  H5  UNL d   1       2.182   1.120  -3.391  0.00  0.00     0.418 HD
ENDBRANCH   4   7
TORSDOF 1
ENDMDL
