MODEL 1
REMARK minimizedAffinity -2.91808105
REMARK minimizedRMSD -1
REMARK  1 active torsions:
REMARK  status: ('A' for Active; 'I' for Inactive)
REMARK    1  A    between atoms: C3_4  and  O_7 
ROOT
ATOM      1  C   UNL d   1      -3.014   0.260   2.647  0.00  0.00    -0.033 A 
ATOM      2  C1  UNL d   1      -1.685   0.582   2.929  0.00  0.00     0.039 A 
ATOM      3  C2  UNL d   1      -0.663   0.133   2.089  0.00  0.00    -0.080 A 
ATOM      4  C3  UNL d   1      -0.984  -0.634   0.973  0.00  0.00     0.150 A 
ATOM      5  C4  UNL d   1      -2.306  -0.955   0.684  0.00  0.00    -0.007 A 
ATOM      6  C5  UNL d   1      -3.325  -0.507   1.523  0.00  0.00     0.039 A 
ENDROOT
BRANCH   4   7
ATOM      7  O   UNL d   1      -0.020  -1.098   0.127  0.00  0.00    -0.526 OA
ATOM      8  H5  UNL d   1       0.847  -0.823   0.468  0.00  0.00     0.418 HD
ENDBRANCH   4   7
TORSDOF 1
ENDMDL
