MODEL 1
REMARK minimizedAffinity -4.07541037
REMARK minimizedRMSD -1
REMARK  1 active torsions:
REMARK  status: ('A' for Active; 'I' for Inactive)
REMARK    1  A    between atoms: C3_4  and  O_7 
ROOT
ATOM      1  C   UNL d   1      -5.073   1.763  -5.591  0.00  0.00    -0.033 A 
ATOM      2  C1  UNL d   1      -5.998   2.784  -5.366  0.00  0.00     0.039 A 
ATOM      3  C2  UNL d   1      -5.565   4.106  -5.241  0.00  0.00    -0.080 A 
ATOM      4  C3  UNL d   1      -4.207   4.392  -5.343  0.00  0.00     0.150 A 
ATOM      5  C4  UNL d   1      -3.280   3.380  -5.572  0.00  0.00    -0.007 A 
ATOM      6  C5  UNL d   1      -3.714   2.061  -5.696  0.00  0.00     0.039 A 
ENDROOT
BRANCH   4   7
ATOM      7  O   UNL d   1      -3.736   5.666  -5.223  0.00  0.00    -0.526 OA
ATOM      8  H5  UNL d   1      -4.487   6.255  -5.039  0.00  0.00     0.418 HD
ENDBRANCH   4   7
TORSDOF 1
ENDMDL
