MODEL 1
REMARK minimizedAffinity -3.38666582
REMARK minimizedRMSD -1
REMARK  1 active torsions:
REMARK  status: ('A' for Active; 'I' for Inactive)
REMARK    1  A    between atoms: C3_4  and  O_7 
ROOT
ATOM      1  C   UNL d   1      -0.207  -0.015   0.660  0.00  0.00    -0.033 A 
ATOM      2  C1  UNL d   1       0.468   1.067   0.092  0.00  0.00     0.039 A 
ATOM      3  C2  UNL d   1       1.191   0.898  -1.090  0.00  0.00    -0.080 A 
ATOM      4  C3  UNL d   1       1.231  -0.356  -1.694  0.00  0.00     0.150 A 
ATOM      5  C4  UNL d   1       0.558  -1.437  -1.135  0.00  0.00    -0.007 A 
ATOM      6  C5  UNL d   1      -0.163  -1.267   0.046  0.00  0.00     0.039 A 
ENDROOT
BRANCH   4   7
ATOM      7  O   UNL d   1       1.927  -0.570  -2.846  0.00  0.00    -0.526 OA
ATOM      8  H5  UNL d   1       2.365   0.259  -3.100  0.00  0.00     0.418 HD
ENDBRANCH   4   7
TORSDOF 1
ENDMDL
