MODEL 1
REMARK minimizedAffinity -2.70016837
REMARK minimizedRMSD -1
REMARK  1 active torsions:
REMARK  status: ('A' for Active; 'I' for Inactive)
REMARK    1  A    between atoms: C3_4  and  O_7 
ROOT
ATOM      1  C   UNL d   1      -5.426   4.357  -5.991  0.00  0.00    -0.033 A 
ATOM      2  C1  UNL d   1      -4.363   5.262  -5.992  0.00  0.00     0.039 A 
ATOM      3  C2  UNL d   1      -3.047   4.795  -5.994  0.00  0.00    -0.080 A 
ATOM      4  C3  UNL d   1      -2.808   3.424  -5.997  0.00  0.00     0.150 A 
ATOM      5  C4  UNL d   1      -3.862   2.517  -6.000  0.00  0.00    -0.007 A 
ATOM      6  C5  UNL d   1      -5.176   2.984  -5.997  0.00  0.00     0.039 A 
ENDROOT
BRANCH   4   7
ATOM      7  O   UNL d   1      -1.541   2.921  -5.994  0.00  0.00    -0.526 OA
ATOM      8  H5  UNL d   1      -0.915   3.664  -5.963  0.00  0.00     0.418 HD
ENDBRANCH   4   7
TORSDOF 1
ENDMDL
