MODEL 1
REMARK minimizedAffinity -4.01562452
REMARK minimizedRMSD -1
REMARK  1 active torsions:
REMARK  status: ('A' for Active; 'I' for Inactive)
REMARK    1  A    between atoms: C3_4  and  O_7 
ROOT
ATOM      1  C   UNL d   1      -0.030   1.087   0.726  0.00  0.00    -0.033 A 
ATOM      2  C1  UNL d   1       0.561   0.823  -0.512  0.00  0.00     0.039 A 
ATOM      3  C2  UNL d   1       0.831  -0.493  -0.892  0.00  0.00    -0.080 A 
ATOM      4  C3  UNL d   1       0.506  -1.535  -0.027  0.00  0.00     0.150 A 
ATOM      5  C4  UNL d   1      -0.085  -1.279   1.206  0.00  0.00    -0.007 A 
ATOM      6  C5  UNL d   1      -0.354   0.036   1.584  0.00  0.00     0.039 A 
ENDROOT
BRANCH   4   7
ATOM      7  O   UNL d   1       0.756  -2.835  -0.352  0.00  0.00    -0.526 OA
ATOM      8  H5  UNL d   1       1.193  -2.857  -1.219  0.00  0.00     0.418 HD
ENDBRANCH   4   7
TORSDOF 1
ENDMDL
