MODEL 1
REMARK minimizedAffinity -5.16841507
REMARK minimizedRMSD -1
REMARK  1 active torsions:
REMARK  status: ('A' for Active; 'I' for Inactive)
REMARK    1  A    between atoms: C3_4  and  O_7 
ROOT
ATOM      1  C   UNL d   1      -0.570  -0.245   0.061  0.00  0.00    -0.033 A 
ATOM      2  C1  UNL d   1      -0.180  -1.186  -0.894  0.00  0.00     0.039 A 
ATOM      3  C2  UNL d   1       0.580  -0.790  -1.997  0.00  0.00    -0.080 A 
ATOM      4  C3  UNL d   1       0.943   0.547  -2.131  0.00  0.00     0.150 A 
ATOM      5  C4  UNL d   1       0.561   1.489  -1.182  0.00  0.00    -0.007 A 
ATOM      6  C5  UNL d   1      -0.199   1.092  -0.082  0.00  0.00     0.039 A 
ENDROOT
BRANCH   4   7
ATOM      7  O   UNL d   1       1.680   0.982  -3.193  0.00  0.00    -0.526 OA
ATOM      8  H5  UNL d   1       1.846   0.227  -3.782  0.00  0.00     0.418 HD
ENDBRANCH   4   7
TORSDOF 1
ENDMDL
