MODEL 1
REMARK minimizedAffinity -1.8119694
REMARK minimizedRMSD -1
REMARK  1 active torsions:
REMARK  status: ('A' for Active; 'I' for Inactive)
REMARK    1  A    between atoms: C3_4  and  O_7 
ROOT
ATOM      1  C   UNL d   1      -0.610   0.888   1.684  0.00  0.00    -0.033 A 
ATOM      2  C1  UNL d   1       0.187   1.550   0.748  0.00  0.00     0.039 A 
ATOM      3  C2  UNL d   1       0.595   0.893  -0.414  0.00  0.00    -0.080 A 
ATOM      4  C3  UNL d   1       0.199  -0.424  -0.629  0.00  0.00     0.150 A 
ATOM      5  C4  UNL d   1      -0.598  -1.089   0.297  0.00  0.00    -0.007 A 
ATOM      6  C5  UNL d   1      -1.004  -0.431   1.457  0.00  0.00     0.039 A 
ENDROOT
BRANCH   4   7
ATOM      7  O   UNL d   1       0.576  -1.108  -1.746  0.00  0.00    -0.526 OA
ATOM      8  H5  UNL d   1       1.148  -0.533  -2.282  0.00  0.00     0.418 HD
ENDBRANCH   4   7
TORSDOF 1
ENDMDL
