MODEL 1
REMARK minimizedAffinity -4.2791276
REMARK minimizedRMSD -1
REMARK  1 active torsions:
REMARK  status: ('A' for Active; 'I' for Inactive)
REMARK    1  A    between atoms: C3_4  and  O_7 
ROOT
ATOM      1  C   UNL d   1       0.168   0.437   0.493  0.00  0.00    -0.033 A 
ATOM      2  C1  UNL d   1      -0.043  -0.774  -0.168  0.00  0.00     0.039 A 
ATOM      3  C2  UNL d   1       0.482  -0.975  -1.446  0.00  0.00    -0.080 A 
ATOM      4  C3  UNL d   1       1.216   0.042  -2.051  0.00  0.00     0.150 A 
ATOM      5  C4  UNL d   1       1.433   1.250  -1.397  0.00  0.00    -0.007 A 
ATOM      6  C5  UNL d   1       0.907   1.449  -0.121  0.00  0.00     0.039 A 
ENDROOT
BRANCH   4   7
ATOM      7  O   UNL d   1       1.744  -0.106  -3.299  0.00  0.00    -0.526 OA
ATOM      8  H5  UNL d   1       1.489  -0.980  -3.639  0.00  0.00     0.418 HD
ENDBRANCH   4   7
TORSDOF 1
ENDMDL
