MODEL 1
REMARK minimizedAffinity -5.22259331
REMARK minimizedRMSD -1
REMARK  1 active torsions:
REMARK  status: ('A' for Active; 'I' for Inactive)
REMARK    1  A    between atoms: C3_4  and  O_7 
ROOT
ATOM      1  C   UNL d   1       2.339  -0.798  -2.621  0.00  0.00    -0.033 A 
ATOM      2  C1  UNL d   1       2.083   0.441  -2.031  0.00  0.00     0.039 A 
ATOM      3  C2  UNL d   1       1.142   0.546  -1.005  0.00  0.00    -0.080 A 
ATOM      4  C3  UNL d   1       0.466  -0.593  -0.578  0.00  0.00     0.150 A 
ATOM      5  C4  UNL d   1       0.719  -1.832  -1.159  0.00  0.00    -0.007 A 
ATOM      6  C5  UNL d   1       1.658  -1.935  -2.184  0.00  0.00     0.039 A 
ENDROOT
BRANCH   4   7
ATOM      7  O   UNL d   1      -0.465  -0.539   0.417  0.00  0.00    -0.526 OA
ATOM      8  H5  UNL d   1      -0.556   0.385   0.703  0.00  0.00     0.418 HD
ENDBRANCH   4   7
TORSDOF 1
ENDMDL
