MODEL 1
REMARK minimizedAffinity -4.30040932
REMARK minimizedRMSD -1
REMARK  1 active torsions:
REMARK  status: ('A' for Active; 'I' for Inactive)
REMARK    1  A    between atoms: C3_4  and  O_7 
ROOT
ATOM      1  C   UNL d   1       2.143  -0.365  -2.498  0.00  0.00    -0.033 A 
ATOM      2  C1  UNL d   1       2.398   0.817  -1.800  0.00  0.00     0.039 A 
ATOM      3  C2  UNL d   1       1.594   1.178  -0.717  0.00  0.00    -0.080 A 
ATOM      4  C3  UNL d   1       0.540   0.349  -0.343  0.00  0.00     0.150 A 
ATOM      5  C4  UNL d   1       0.283  -0.832  -1.031  0.00  0.00    -0.007 A 
ATOM      6  C5  UNL d   1       1.086  -1.190  -2.113  0.00  0.00     0.039 A 
ENDROOT
BRANCH   4   7
ATOM      7  O   UNL d   1      -0.275   0.662   0.704  0.00  0.00    -0.526 OA
ATOM      8  H5  UNL d   1       0.005   1.519   1.067  0.00  0.00     0.418 HD
ENDBRANCH   4   7
TORSDOF 1
ENDMDL
