MODEL 1
REMARK minimizedAffinity -1.65319455
REMARK minimizedRMSD -1
REMARK  0 active torsions:
REMARK  status: ('A' for Active; 'I' for Inactive)
ROOT
ATOM      1  C   UNL d   1      -0.141   2.219   0.721  0.00  0.00     0.077 C 
ATOM      2  C1  UNL d   1       0.815   1.076   0.548  0.00  0.00    -0.074 A 
ATOM      3  C2  UNL d   1       2.113   1.140   1.065  0.00  0.00    -0.005 A 
ATOM      4  C3  UNL d   1       2.987   0.065   0.904  0.00  0.00     0.006 A 
ATOM      5  C4  UNL d   1       2.573  -1.083   0.227  0.00  0.00    -0.005 A 
ATOM      6  C5  UNL d   1       1.278  -1.165  -0.295  0.00  0.00    -0.074 A 
ATOM      7  C6  UNL d   1       0.814  -2.395  -1.017  0.00  0.00     0.077 C 
ATOM      8  C7  UNL d   1       0.403  -0.083  -0.124  0.00  0.00    -0.001 A 
ENDROOT
TORSDOF 0
ENDMDL
