MODEL 1
REMARK minimizedAffinity -3.60751247
REMARK minimizedRMSD -1
REMARK  0 active torsions:
REMARK  status: ('A' for Active; 'I' for Inactive)
ROOT
ATOM      1  C   UNL d   1       1.996   0.385  -1.823  0.00  0.00     0.077 C 
ATOM      2  C1  UNL d   1       0.547   0.276  -1.450  0.00  0.00    -0.074 A 
ATOM      3  C2  UNL d   1       0.132   0.442  -0.125  0.00  0.00    -0.005 A 
ATOM      4  C3  UNL d   1      -1.220   0.348   0.205  0.00  0.00     0.006 A 
ATOM      5  C4  UNL d   1      -2.169   0.087  -0.785  0.00  0.00    -0.005 A 
ATOM      6  C5  UNL d   1      -1.772  -0.081  -2.115  0.00  0.00    -0.074 A 
ATOM      7  C6  UNL d   1      -2.779  -0.352  -3.193  0.00  0.00     0.077 C 
ATOM      8  C7  UNL d   1      -0.413   0.022  -2.440  0.00  0.00    -0.001 A 
ENDROOT
TORSDOF 0
ENDMDL
