MODEL 1
REMARK minimizedAffinity -2.5075767
REMARK minimizedRMSD -1
REMARK  0 active torsions:
REMARK  status: ('A' for Active; 'I' for Inactive)
ROOT
ATOM      1  C   UNL d   1      -1.647   0.403  -1.433  0.00  0.00     0.077 C 
ATOM      2  C1  UNL d   1      -0.740  -0.336  -0.494  0.00  0.00    -0.074 A 
ATOM      3  C2  UNL d   1      -1.247  -1.290   0.393  0.00  0.00    -0.005 A 
ATOM      4  C3  UNL d   1      -0.391  -1.977   1.254  0.00  0.00     0.006 A 
ATOM      5  C4  UNL d   1       0.980  -1.716   1.236  0.00  0.00    -0.005 A 
ATOM      6  C5  UNL d   1       1.506  -0.766   0.354  0.00  0.00    -0.074 A 
ATOM      7  C6  UNL d   1       2.978  -0.481   0.315  0.00  0.00     0.077 C 
ATOM      8  C7  UNL d   1       0.639  -0.086  -0.512  0.00  0.00    -0.001 A 
ENDROOT
TORSDOF 0
ENDMDL
