MODEL 1
REMARK minimizedAffinity -2.93906355
REMARK minimizedRMSD -1
REMARK  0 active torsions:
REMARK  status: ('A' for Active; 'I' for Inactive)
ROOT
ATOM      1  C   UNL d   1       1.416  -1.756   2.829  0.00  0.00     0.077 C 
ATOM      2  C1  UNL d   1       1.162  -0.683   1.813  0.00  0.00    -0.074 A 
ATOM      3  C2  UNL d   1       2.141   0.270   1.512  0.00  0.00    -0.005 A 
ATOM      4  C3  UNL d   1       1.893   1.256   0.558  0.00  0.00     0.006 A 
ATOM      5  C4  UNL d   1       0.666   1.299  -0.105  0.00  0.00    -0.005 A 
ATOM      6  C5  UNL d   1      -0.325   0.355   0.181  0.00  0.00    -0.074 A 
ATOM      7  C6  UNL d   1      -1.646   0.381  -0.529  0.00  0.00     0.077 C 
ATOM      8  C7  UNL d   1      -0.066  -0.637   1.137  0.00  0.00    -0.001 A 
ENDROOT
TORSDOF 0
ENDMDL
