MODEL 1
REMARK minimizedAffinity -3.3654952
REMARK minimizedRMSD -1
REMARK  0 active torsions:
REMARK  status: ('A' for Active; 'I' for Inactive)
ROOT
ATOM      1  C   UNL d   1       3.475  -0.543   0.441  0.00  0.00     0.077 C 
ATOM      2  C1  UNL d   1       2.011  -0.223   0.499  0.00  0.00    -0.074 A 
ATOM      3  C2  UNL d   1       1.542   1.055   0.178  0.00  0.00    -0.005 A 
ATOM      4  C3  UNL d   1       0.176   1.335   0.227  0.00  0.00     0.006 A 
ATOM      5  C4  UNL d   1      -0.732   0.343   0.597  0.00  0.00    -0.005 A 
ATOM      6  C5  UNL d   1      -0.281  -0.941   0.920  0.00  0.00    -0.074 A 
ATOM      7  C6  UNL d   1      -1.245  -2.022   1.309  0.00  0.00     0.077 C 
ATOM      8  C7  UNL d   1       1.091  -1.217   0.862  0.00  0.00    -0.001 A 
ENDROOT
TORSDOF 0
ENDMDL
