MODEL 1
REMARK minimizedAffinity 14.8738413
REMARK minimizedRMSD -1
REMARK  0 active torsions:
REMARK  status: ('A' for Active; 'I' for Inactive)
ROOT
ATOM      1  C   UNL d   1      -5.034   6.000  -1.526  0.00  0.00     0.077 C 
ATOM      2  C1  UNL d   1      -5.035   4.500  -1.519  0.00  0.00    -0.074 A 
ATOM      3  C2  UNL d   1      -6.000   3.785  -0.802  0.00  0.00    -0.005 A 
ATOM      4  C3  UNL d   1      -5.994   2.390  -0.813  0.00  0.00     0.006 A 
ATOM      5  C4  UNL d   1      -5.025   1.697  -1.539  0.00  0.00    -0.005 A 
ATOM      6  C5  UNL d   1      -4.052   2.395  -2.262  0.00  0.00    -0.074 A 
ATOM      7  C6  UNL d   1      -3.009   1.666  -3.056  0.00  0.00     0.077 C 
ATOM      8  C7  UNL d   1      -4.069   3.797  -2.253  0.00  0.00    -0.001 A 
ENDROOT
TORSDOF 0
ENDMDL
