MODEL 1
REMARK minimizedAffinity -2.79747915
REMARK minimizedRMSD -1
REMARK  0 active torsions:
REMARK  status: ('A' for Active; 'I' for Inactive)
ROOT
ATOM      1  C   UNL d   1       2.770  -1.202   0.046  0.00  0.00     0.077 C 
ATOM      2  C1  UNL d   1       1.272  -1.269   0.104  0.00  0.00    -0.074 A 
ATOM      3  C2  UNL d   1       0.626  -2.219   0.901  0.00  0.00    -0.005 A 
ATOM      4  C3  UNL d   1      -0.767  -2.264   0.952  0.00  0.00     0.006 A 
ATOM      5  C4  UNL d   1      -1.527  -1.360   0.207  0.00  0.00    -0.005 A 
ATOM      6  C5  UNL d   1      -0.898  -0.403  -0.595  0.00  0.00    -0.074 A 
ATOM      7  C6  UNL d   1      -1.699   0.582  -1.394  0.00  0.00     0.077 C 
ATOM      8  C7  UNL d   1       0.503  -0.360  -0.635  0.00  0.00    -0.001 A 
ENDROOT
TORSDOF 0
ENDMDL
