MODEL 1
REMARK minimizedAffinity -0.17932561
REMARK minimizedRMSD -1
REMARK  1 active torsions:
REMARK  status: ('A' for Active; 'I' for Inactive)
REMARK    1  A    between atoms: C3_4  and  O_7 
ROOT
ATOM      1  C   UNL d   1      -3.995  -1.210  -0.063  0.00  0.00    -0.033 A 
ATOM      2  C1  UNL d   1      -2.733  -1.419   0.497  0.00  0.00     0.039 A 
ATOM      3  C2  UNL d   1      -2.570  -1.398   1.884  0.00  0.00    -0.080 A 
ATOM      4  C3  UNL d   1      -3.676  -1.170   2.698  0.00  0.00     0.150 A 
ATOM      5  C4  UNL d   1      -4.937  -0.966   2.147  0.00  0.00    -0.007 A 
ATOM      6  C5  UNL d   1      -5.097  -0.986   0.762  0.00  0.00     0.039 A 
ENDROOT
BRANCH   4   7
ATOM      7  O   UNL d   1      -3.566  -1.136   4.056  0.00  0.00    -0.526 OA
ATOM      8  H5  UNL d   1      -2.633  -1.265   4.293  0.00  0.00     0.418 HD
ENDBRANCH   4   7
TORSDOF 1
ENDMDL
