MODEL 1
REMARK minimizedAffinity 0.370197445
REMARK minimizedRMSD -1
REMARK  1 active torsions:
REMARK  status: ('A' for Active; 'I' for Inactive)
REMARK    1  A    between atoms: C3_4  and  O_7 
ROOT
ATOM      1  C   UNL d   1       5.993  -0.103   4.918  0.00  0.00    -0.033 A 
ATOM      2  C1  UNL d   1       5.566  -0.184   3.591  0.00  0.00     0.039 A 
ATOM      3  C2  UNL d   1       5.140   0.964   2.921  0.00  0.00    -0.080 A 
ATOM      4  C3  UNL d   1       5.148   2.186   3.588  0.00  0.00     0.150 A 
ATOM      5  C4  UNL d   1       5.576   2.275   4.909  0.00  0.00    -0.007 A 
ATOM      6  C5  UNL d   1       6.000   1.127   5.576  0.00  0.00     0.039 A 
ENDROOT
BRANCH   4   7
ATOM      7  O   UNL d   1       4.737   3.334   2.977  0.00  0.00    -0.526 OA
ATOM      8  H5  UNL d   1       4.442   3.115   2.078  0.00  0.00     0.418 HD
ENDBRANCH   4   7
TORSDOF 1
ENDMDL
