MODEL 1
REMARK minimizedAffinity 0.750016868
REMARK minimizedRMSD -1
REMARK  1 active torsions:
REMARK  status: ('A' for Active; 'I' for Inactive)
REMARK    1  A    between atoms: C3_4  and  O_7 
ROOT
ATOM      1  C   UNL d   1       5.659   0.317   4.618  0.00  0.00    -0.033 A 
ATOM      2  C1  UNL d   1       4.841   0.108   3.506  0.00  0.00     0.039 A 
ATOM      3  C2  UNL d   1       4.357   1.197   2.778  0.00  0.00    -0.080 A 
ATOM      4  C3  UNL d   1       4.699   2.488   3.171  0.00  0.00     0.150 A 
ATOM      5  C4  UNL d   1       5.517   2.703   4.276  0.00  0.00    -0.007 A 
ATOM      6  C5  UNL d   1       5.998   1.615   5.002  0.00  0.00     0.039 A 
ENDROOT
BRANCH   4   7
ATOM      7  O   UNL d   1       4.248   3.582   2.495  0.00  0.00    -0.526 OA
ATOM      8  H5  UNL d   1       3.671   3.281   1.773  0.00  0.00     0.418 HD
ENDBRANCH   4   7
TORSDOF 1
ENDMDL
