MODEL 1
REMARK minimizedAffinity -0.125125363
REMARK minimizedRMSD -1
REMARK  1 active torsions:
REMARK  status: ('A' for Active; 'I' for Inactive)
REMARK    1  A    between atoms: C3_4  and  O_7 
ROOT
ATOM      1  C   UNL d   1       5.997   0.151   4.860  0.00  0.00    -0.033 A 
ATOM      2  C1  UNL d   1       5.292  -0.274   3.733  0.00  0.00     0.039 A 
ATOM      3  C2  UNL d   1       4.583   0.649   2.961  0.00  0.00    -0.080 A 
ATOM      4  C3  UNL d   1       4.589   1.992   3.326  0.00  0.00     0.150 A 
ATOM      5  C4  UNL d   1       5.293   2.423   4.445  0.00  0.00    -0.007 A 
ATOM      6  C5  UNL d   1       5.999   1.500   5.215  0.00  0.00     0.039 A 
ENDROOT
BRANCH   4   7
ATOM      7  O   UNL d   1       3.908   2.929   2.607  0.00  0.00    -0.526 OA
ATOM      8  H5  UNL d   1       3.446   2.481   1.879  0.00  0.00     0.418 HD
ENDBRANCH   4   7
TORSDOF 1
ENDMDL
