MODEL 1
REMARK minimizedAffinity 3.38475299
REMARK minimizedRMSD -1
REMARK  1 active torsions:
REMARK  status: ('A' for Active; 'I' for Inactive)
REMARK    1  A    between atoms: C3_4  and  O_7 
ROOT
ATOM      1  C   UNL d   1      -1.836   1.803  -0.567  0.00  0.00    -0.033 A 
ATOM      2  C1  UNL d   1      -1.026   2.878  -0.196  0.00  0.00     0.039 A 
ATOM      3  C2  UNL d   1      -1.581   4.150  -0.038  0.00  0.00    -0.080 A 
ATOM      4  C3  UNL d   1      -2.944   4.332  -0.252  0.00  0.00     0.150 A 
ATOM      5  C4  UNL d   1      -3.757   3.264  -0.617  0.00  0.00    -0.007 A 
ATOM      6  C5  UNL d   1      -3.202   1.995  -0.776  0.00  0.00     0.039 A 
ENDROOT
BRANCH   4   7
ATOM      7  O   UNL d   1      -3.530   5.555  -0.114  0.00  0.00    -0.526 OA
ATOM      8  H5  UNL d   1      -2.842   6.202   0.114  0.00  0.00     0.418 HD
ENDBRANCH   4   7
TORSDOF 1
ENDMDL
