MODEL 1
REMARK minimizedAffinity -5.32916164
REMARK minimizedRMSD -1
REMARK  1 active torsions:
REMARK  status: ('A' for Active; 'I' for Inactive)
REMARK    1  A    between atoms: C3_4  and  O_7 
ROOT
ATOM      1  C   UNL d   1      -3.678  -0.605   1.061  0.00  0.00    -0.033 A 
ATOM      2  C1  UNL d   1      -3.008   0.600   0.837  0.00  0.00     0.039 A 
ATOM      3  C2  UNL d   1      -2.829   1.506   1.884  0.00  0.00    -0.080 A 
ATOM      4  C3  UNL d   1      -3.324   1.196   3.148  0.00  0.00     0.150 A 
ATOM      5  C4  UNL d   1      -3.989  -0.003   3.379  0.00  0.00    -0.007 A 
ATOM      6  C5  UNL d   1      -4.167  -0.907   2.332  0.00  0.00     0.039 A 
ENDROOT
BRANCH   4   7
ATOM      7  O   UNL d   1      -3.178   2.051   4.199  0.00  0.00    -0.526 OA
ATOM      8  H5  UNL d   1      -2.725   2.851   3.885  0.00  0.00     0.418 HD
ENDBRANCH   4   7
TORSDOF 1
ENDMDL
