MODEL 1
REMARK minimizedAffinity 0.944564581
REMARK minimizedRMSD -1
REMARK  1 active torsions:
REMARK  status: ('A' for Active; 'I' for Inactive)
REMARK    1  A    between atoms: C3_4  and  O_7 
ROOT
ATOM      1  C   UNL d   1       5.244   0.393   3.742  0.00  0.00    -0.033 A 
ATOM      2  C1  UNL d   1       6.000   1.015   4.737  0.00  0.00     0.039 A 
ATOM      3  C2  UNL d   1       5.998   2.407   4.849  0.00  0.00    -0.080 A 
ATOM      4  C3  UNL d   1       5.238   3.163   3.962  0.00  0.00     0.150 A 
ATOM      5  C4  UNL d   1       4.480   2.550   2.970  0.00  0.00    -0.007 A 
ATOM      6  C5  UNL d   1       4.483   1.160   2.859  0.00  0.00     0.039 A 
ENDROOT
BRANCH   4   7
ATOM      7  O   UNL d   1       5.209   4.525   4.029  0.00  0.00    -0.526 OA
ATOM      8  H5  UNL d   1       5.802   4.810   4.743  0.00  0.00     0.418 HD
ENDBRANCH   4   7
TORSDOF 1
ENDMDL
