MODEL 1
REMARK minimizedAffinity 2.09232664
REMARK minimizedRMSD -1
REMARK  1 active torsions:
REMARK  status: ('A' for Active; 'I' for Inactive)
REMARK    1  A    between atoms: C3_4  and  O_7 
ROOT
ATOM      1  C   UNL d   1      -4.230  -1.514   1.767  0.00  0.00    -0.033 A 
ATOM      2  C1  UNL d   1      -4.387  -1.814   3.121  0.00  0.00     0.039 A 
ATOM      3  C2  UNL d   1      -3.643  -1.125   4.081  0.00  0.00    -0.080 A 
ATOM      4  C3  UNL d   1      -2.748  -0.139   3.675  0.00  0.00     0.150 A 
ATOM      5  C4  UNL d   1      -2.590   0.167   2.327  0.00  0.00    -0.007 A 
ATOM      6  C5  UNL d   1      -3.333  -0.522   1.370  0.00  0.00     0.039 A 
ENDROOT
BRANCH   4   7
ATOM      7  O   UNL d   1      -1.997   0.557   4.574  0.00  0.00    -0.526 OA
ATOM      8  H5  UNL d   1      -2.191   0.218   5.464  0.00  0.00     0.418 HD
ENDBRANCH   4   7
TORSDOF 1
ENDMDL
