MODEL 1
REMARK minimizedAffinity -1.03882265
REMARK minimizedRMSD -1
REMARK  1 active torsions:
REMARK  status: ('A' for Active; 'I' for Inactive)
REMARK    1  A    between atoms: C3_4  and  O_7 
ROOT
ATOM      1  C   UNL d   1       4.239   3.024  -5.964  0.00  0.00    -0.033 A 
ATOM      2  C1  UNL d   1       3.635   1.766  -6.000  0.00  0.00     0.039 A 
ATOM      3  C2  UNL d   1       4.214   0.691  -5.321  0.00  0.00    -0.080 A 
ATOM      4  C3  UNL d   1       5.394   0.889  -4.610  0.00  0.00     0.150 A 
ATOM      5  C4  UNL d   1       6.000   2.140  -4.567  0.00  0.00    -0.007 A 
ATOM      6  C5  UNL d   1       5.421   3.212  -5.246  0.00  0.00     0.039 A 
ENDROOT
BRANCH   4   7
ATOM      7  O   UNL d   1       5.999  -0.130  -3.936  0.00  0.00    -0.526 OA
ATOM      8  H5  UNL d   1       5.484  -0.942  -4.079  0.00  0.00     0.418 HD
ENDBRANCH   4   7
TORSDOF 1
ENDMDL
