MODEL 1
REMARK minimizedAffinity 1.12948906
REMARK minimizedRMSD -1
REMARK  1 active torsions:
REMARK  status: ('A' for Active; 'I' for Inactive)
REMARK    1  A    between atoms: C3_4  and  O_7 
ROOT
ATOM      1  C   UNL d   1       5.913  -0.360   4.944  0.00  0.00    -0.033 A 
ATOM      2  C1  UNL d   1       5.352  -0.488   3.672  0.00  0.00     0.039 A 
ATOM      3  C2  UNL d   1       4.873   0.639   3.001  0.00  0.00    -0.080 A 
ATOM      4  C3  UNL d   1       4.962   1.887   3.612  0.00  0.00     0.150 A 
ATOM      5  C4  UNL d   1       5.524   2.022   4.878  0.00  0.00    -0.007 A 
ATOM      6  C5  UNL d   1       6.000   0.896   5.547  0.00  0.00     0.039 A 
ENDROOT
BRANCH   4   7
ATOM      7  O   UNL d   1       4.505   3.015   2.999  0.00  0.00    -0.526 OA
ATOM      8  H5  UNL d   1       4.118   2.764   2.143  0.00  0.00     0.418 HD
ENDBRANCH   4   7
TORSDOF 1
ENDMDL
