MODEL 1
REMARK minimizedAffinity -1.87727284
REMARK minimizedRMSD -1
REMARK  1 active torsions:
REMARK  status: ('A' for Active; 'I' for Inactive)
REMARK    1  A    between atoms: C3_4  and  O_7 
ROOT
ATOM      1  C   UNL d   1       5.894   1.014  -5.999  0.00  0.00    -0.033 A 
ATOM      2  C1  UNL d   1       5.955  -0.023  -5.066  0.00  0.00     0.039 A 
ATOM      3  C2  UNL d   1       4.933  -0.181  -4.128  0.00  0.00    -0.080 A 
ATOM      4  C3  UNL d   1       3.857   0.701  -4.135  0.00  0.00     0.150 A 
ATOM      5  C4  UNL d   1       3.787   1.734  -5.065  0.00  0.00    -0.007 A 
ATOM      6  C5  UNL d   1       4.810   1.891  -6.000  0.00  0.00     0.039 A 
ENDROOT
BRANCH   4   7
ATOM      7  O   UNL d   1       2.838   0.590  -3.236  0.00  0.00    -0.526 OA
ATOM      8  H5  UNL d   1       3.035  -0.150  -2.638  0.00  0.00     0.418 HD
ENDBRANCH   4   7
TORSDOF 1
ENDMDL
