MODEL 1
REMARK minimizedAffinity -1.11734605
REMARK minimizedRMSD -1
REMARK  1 active torsions:
REMARK  status: ('A' for Active; 'I' for Inactive)
REMARK    1  A    between atoms: C3_4  and  O_7 
ROOT
ATOM      1  C   UNL d   1       5.263   0.224   3.547  0.00  0.00    -0.033 A 
ATOM      2  C1  UNL d   1       4.528   0.934   2.595  0.00  0.00     0.039 A 
ATOM      3  C2  UNL d   1       4.525   2.330   2.612  0.00  0.00    -0.080 A 
ATOM      4  C3  UNL d   1       5.260   3.003   3.584  0.00  0.00     0.150 A 
ATOM      5  C4  UNL d   1       5.997   2.303   4.533  0.00  0.00    -0.007 A 
ATOM      6  C5  UNL d   1       5.999   0.909   4.515  0.00  0.00     0.039 A 
ENDROOT
BRANCH   4   7
ATOM      7  O   UNL d   1       5.283   4.365   3.643  0.00  0.00    -0.526 OA
ATOM      8  H5  UNL d   1       4.706   4.714   2.943  0.00  0.00     0.418 HD
ENDBRANCH   4   7
TORSDOF 1
ENDMDL
