MODEL 1
REMARK minimizedAffinity 3.54077315
REMARK minimizedRMSD -1
REMARK  1 active torsions:
REMARK  status: ('A' for Active; 'I' for Inactive)
REMARK    1  A    between atoms: C3_4  and  O_7 
ROOT
ATOM      1  C   UNL d   1       5.996   0.581   4.409  0.00  0.00    -0.033 A 
ATOM      2  C1  UNL d   1       5.224   0.026   3.387  0.00  0.00     0.039 A 
ATOM      3  C2  UNL d   1       4.452   0.850   2.566  0.00  0.00    -0.080 A 
ATOM      4  C3  UNL d   1       4.461   2.226   2.777  0.00  0.00     0.150 A 
ATOM      5  C4  UNL d   1       5.230   2.787   3.792  0.00  0.00    -0.007 A 
ATOM      6  C5  UNL d   1       6.000   1.962   4.611  0.00  0.00     0.039 A 
ENDROOT
BRANCH   4   7
ATOM      7  O   UNL d   1       3.720   3.071   2.005  0.00  0.00    -0.526 OA
ATOM      8  H5  UNL d   1       3.218   2.540   1.364  0.00  0.00     0.418 HD
ENDBRANCH   4   7
TORSDOF 1
ENDMDL
