MODEL 1
REMARK minimizedAffinity 0.895367742
REMARK minimizedRMSD -1
REMARK  1 active torsions:
REMARK  status: ('A' for Active; 'I' for Inactive)
REMARK    1  A    between atoms: C3_4  and  O_7 
ROOT
ATOM      1  C   UNL d   1      -2.908   1.127   0.779  0.00  0.00    -0.033 A 
ATOM      2  C1  UNL d   1      -2.622   2.141   1.695  0.00  0.00     0.039 A 
ATOM      3  C2  UNL d   1      -2.685   3.479   1.301  0.00  0.00    -0.080 A 
ATOM      4  C3  UNL d   1      -3.035   3.789  -0.010  0.00  0.00     0.150 A 
ATOM      5  C4  UNL d   1      -3.325   2.784  -0.927  0.00  0.00    -0.007 A 
ATOM      6  C5  UNL d   1      -3.261   1.449  -0.532  0.00  0.00     0.039 A 
ENDROOT
BRANCH   4   7
ATOM      7  O   UNL d   1      -3.105   5.080  -0.443  0.00  0.00    -0.526 OA
ATOM      8  H5  UNL d   1      -2.851   5.665   0.291  0.00  0.00     0.418 HD
ENDBRANCH   4   7
TORSDOF 1
ENDMDL
