MODEL 1
REMARK minimizedAffinity 2.41490006
REMARK minimizedRMSD -1
REMARK  1 active torsions:
REMARK  status: ('A' for Active; 'I' for Inactive)
REMARK    1  A    between atoms: C3_4  and  O_7 
ROOT
ATOM      1  C   UNL d   1      -2.521   4.126  -0.171  0.00  0.00    -0.033 A 
ATOM      2  C1  UNL d   1      -1.569   3.157  -0.492  0.00  0.00     0.039 A 
ATOM      3  C2  UNL d   1      -1.897   1.801  -0.415  0.00  0.00    -0.080 A 
ATOM      4  C3  UNL d   1      -3.178   1.430  -0.017  0.00  0.00     0.150 A 
ATOM      5  C4  UNL d   1      -4.133   2.391   0.300  0.00  0.00    -0.007 A 
ATOM      6  C5  UNL d   1      -3.803   3.743   0.223  0.00  0.00     0.039 A 
ENDROOT
BRANCH   4   7
ATOM      7  O   UNL d   1      -3.543   0.120   0.078  0.00  0.00    -0.526 OA
ATOM      8  H5  UNL d   1      -2.773  -0.431  -0.144  0.00  0.00     0.418 HD
ENDBRANCH   4   7
TORSDOF 1
ENDMDL
