MODEL 1
REMARK minimizedAffinity 1.4587388
REMARK minimizedRMSD -1
REMARK  1 active torsions:
REMARK  status: ('A' for Active; 'I' for Inactive)
REMARK    1  A    between atoms: C1_2  and  C2_3 
ROOT
ATOM      1  C2  UNL d   1       0.381  -0.615  -1.037  0.00  0.00    -0.076 A 
ATOM      2  C3  UNL d   1      -0.490   0.235  -0.333  0.00  0.00     0.004 A 
ATOM      3  C4  UNL d   1      -0.032   1.010   0.731  0.00  0.00    -0.003 A 
ATOM      4  C5  UNL d   1       1.305   0.947   1.109  0.00  0.00     0.000 A 
ATOM      5  C6  UNL d   1       2.186   0.122   0.411  0.00  0.00     0.000 A 
ATOM      6  C7  UNL d   1       1.744  -0.653  -0.675  0.00  0.00    -0.073 A 
ATOM      7  C8  UNL d   1       2.737  -1.529  -1.388  0.00  0.00     0.078 C 
ENDROOT
BRANCH   1   8
ATOM      8  C1  UNL d   1      -0.179  -1.451  -2.165  0.00  0.00     0.053 C 
ATOM      9  C   UNL d   1      -1.068  -0.647  -3.101  0.00  0.00     0.018 C 
ENDBRANCH   1   8
TORSDOF 1
ENDMDL
