MODEL 1
REMARK minimizedAffinity -0.0732827038
REMARK minimizedRMSD -1
REMARK  1 active torsions:
REMARK  status: ('A' for Active; 'I' for Inactive)
REMARK    1  A    between atoms: C1_2  and  C2_3 
ROOT
ATOM      1  C2  UNL d   1      -1.239  -0.053  -1.955  0.00  0.00    -0.076 A 
ATOM      2  C3  UNL d   1      -0.872  -1.402  -1.812  0.00  0.00     0.004 A 
ATOM      3  C4  UNL d   1      -0.928  -2.279  -2.893  0.00  0.00    -0.003 A 
ATOM      4  C5  UNL d   1      -1.351  -1.821  -4.136  0.00  0.00     0.000 A 
ATOM      5  C6  UNL d   1      -1.702  -0.482  -4.301  0.00  0.00     0.000 A 
ATOM      6  C7  UNL d   1      -1.635   0.420  -3.224  0.00  0.00    -0.073 A 
ATOM      7  C8  UNL d   1      -2.031   1.852  -3.457  0.00  0.00     0.078 C 
ENDROOT
BRANCH   1   8
ATOM      8  C1  UNL d   1      -1.183   0.846  -0.740  0.00  0.00     0.053 C 
ATOM      9  C   UNL d   1       0.121   0.706   0.029  0.00  0.00     0.018 C 
ENDBRANCH   1   8
TORSDOF 1
ENDMDL
