MODEL 1
REMARK minimizedAffinity -1.64770043
REMARK minimizedRMSD -1
REMARK  1 active torsions:
REMARK  status: ('A' for Active; 'I' for Inactive)
REMARK    1  A    between atoms: C1_2  and  C2_3 
ROOT
ATOM      1  C2  UNL d   1       1.214  -0.124   0.696  0.00  0.00    -0.076 A 
ATOM      2  C3  UNL d   1       0.169  -0.699  -0.047  0.00  0.00     0.004 A 
ATOM      3  C4  UNL d   1      -0.678   0.090  -0.823  0.00  0.00    -0.003 A 
ATOM      4  C5  UNL d   1      -0.493   1.467  -0.871  0.00  0.00     0.000 A 
ATOM      5  C6  UNL d   1       0.551   2.053  -0.154  0.00  0.00     0.000 A 
ATOM      6  C7  UNL d   1       1.423   1.270   0.621  0.00  0.00    -0.073 A 
ATOM      7  C8  UNL d   1       2.528   1.955   1.378  0.00  0.00     0.078 C 
ENDROOT
BRANCH   1   8
ATOM      8  C1  UNL d   1       2.084  -1.027   1.542  0.00  0.00     0.053 C 
ATOM      9  C   UNL d   1       3.229  -1.640   0.751  0.00  0.00     0.018 C 
ENDBRANCH   1   8
TORSDOF 1
ENDMDL
