MODEL 1
REMARK minimizedAffinity 8.82562351
REMARK minimizedRMSD -1
REMARK  0 active torsions:
REMARK  status: ('A' for Active; 'I' for Inactive)
ROOT
ATOM      1  C   UNL d   1       2.345   1.828   2.801  0.00  0.00    -0.002 A 
ATOM      2  C1  UNL d   1       1.973   1.676   4.130  0.00  0.00     0.010 A 
ATOM      3  C2  UNL d   1       1.772   0.405   4.670  0.00  0.00     0.041 A 
ATOM      4  C3  UNL d   1       1.956  -0.723   3.846  0.00  0.00    -0.075 A 
ATOM      5  S   UNL d   1       1.768  -2.378   4.291  0.00  0.00     0.015 SA
ATOM      6  C4  UNL d   1       2.177  -2.922   2.729  0.00  0.00     0.022 A 
ATOM      7  C5  UNL d   1       2.454  -1.880   1.876  0.00  0.00     0.026 A 
ATOM      8  C6  UNL d   1       2.331  -0.595   2.505  0.00  0.00    -0.082 A 
ATOM      9  C7  UNL d   1       2.526   0.707   1.987  0.00  0.00     0.045 A 
ENDROOT
TORSDOF 0
ENDMDL
