MODEL 1
REMARK minimizedAffinity 6.68147469
REMARK minimizedRMSD -1
REMARK  0 active torsions:
REMARK  status: ('A' for Active; 'I' for Inactive)
ROOT
ATOM      1  C   UNL d   1       3.316  -2.430   3.529  0.00  0.00    -0.002 A 
ATOM      2  C1  UNL d   1       2.044  -2.119   3.989  0.00  0.00     0.010 A 
ATOM      3  C2  UNL d   1       1.357  -1.014   3.483  0.00  0.00     0.041 A 
ATOM      4  C3  UNL d   1       1.974  -0.221   2.496  0.00  0.00    -0.075 A 
ATOM      5  S   UNL d   1       1.321   1.179   1.730  0.00  0.00     0.015 SA
ATOM      6  C4  UNL d   1       2.715   1.396   0.773  0.00  0.00     0.022 A 
ATOM      7  C5  UNL d   1       3.665   0.433   1.019  0.00  0.00     0.026 A 
ATOM      8  C6  UNL d   1       3.253  -0.515   2.016  0.00  0.00    -0.082 A 
ATOM      9  C7  UNL d   1       3.925  -1.641   2.550  0.00  0.00     0.045 A 
ENDROOT
TORSDOF 0
ENDMDL
