MODEL 1
REMARK minimizedAffinity 9.47003937
REMARK minimizedRMSD -1
REMARK  0 active torsions:
REMARK  status: ('A' for Active; 'I' for Inactive)
ROOT
ATOM      1  C   UNL d   1       1.907  -2.020   4.668  0.00  0.00    -0.002 A 
ATOM      2  C1  UNL d   1       2.259  -2.890   3.646  0.00  0.00     0.010 A 
ATOM      3  C2  UNL d   1       2.569  -2.403   2.374  0.00  0.00     0.041 A 
ATOM      4  C3  UNL d   1       2.521  -1.013   2.147  0.00  0.00    -0.075 A 
ATOM      5  S   UNL d   1       2.862  -0.190   0.671  0.00  0.00     0.015 SA
ATOM      6  C4  UNL d   1       2.549   1.336   1.363  0.00  0.00     0.022 A 
ATOM      7  C5  UNL d   1       2.192   1.238   2.687  0.00  0.00     0.026 A 
ATOM      8  C6  UNL d   1       2.170  -0.118   3.161  0.00  0.00    -0.082 A 
ATOM      9  C7  UNL d   1       1.860  -0.643   4.438  0.00  0.00     0.045 A 
ENDROOT
TORSDOF 0
ENDMDL
