MODEL 1
REMARK minimizedAffinity 10.9953976
REMARK minimizedRMSD -1
REMARK  0 active torsions:
REMARK  status: ('A' for Active; 'I' for Inactive)
ROOT
ATOM      1  C   UNL d   1       2.780  -1.068   2.074  0.00  0.00    -0.002 A 
ATOM      2  C1  UNL d   1       1.450  -1.128   2.466  0.00  0.00     0.010 A 
ATOM      3  C2  UNL d   1       0.587  -0.059   2.214  0.00  0.00     0.041 A 
ATOM      4  C3  UNL d   1       1.087   1.080   1.554  0.00  0.00    -0.075 A 
ATOM      5  S   UNL d   1       0.214   2.508   1.139  0.00  0.00     0.015 SA
ATOM      6  C4  UNL d   1       1.586   3.230   0.431  0.00  0.00     0.022 A 
ATOM      7  C5  UNL d   1       2.692   2.416   0.501  0.00  0.00     0.026 A 
ATOM      8  C6  UNL d   1       2.422   1.163   1.149  0.00  0.00    -0.082 A 
ATOM      9  C7  UNL d   1       3.272   0.064   1.419  0.00  0.00     0.045 A 
ENDROOT
TORSDOF 0
ENDMDL
