MODEL 1
REMARK minimizedAffinity 0.991679251
REMARK minimizedRMSD -1
REMARK  0 active torsions:
REMARK  status: ('A' for Active; 'I' for Inactive)
ROOT
ATOM      1  C1  DEN d   1      -4.977   1.994   0.239  0.00  0.00     0.130 A 
ATOM      2  C2  DEN d   1      -5.764   1.101   1.086  0.00  0.00    -0.031 A 
ATOM      3  C3  DEN d   1      -4.878   0.017   1.554  0.00  0.00     0.027 A 
ATOM      4  C4  DEN d   1      -2.375  -0.361   1.058  0.00  0.00     0.027 A 
ATOM      5  C5  DEN d   1      -1.279   0.125   0.381  0.00  0.00    -0.003 A 
ATOM      6  C6  DEN d   1      -1.346   1.240  -0.412  0.00  0.00     0.001 A 
ATOM      7  C7  DEN d   1      -2.525   1.932  -0.511  0.00  0.00     0.017 A 
ATOM      8  C8  DEN d   1      -3.636   1.443   0.163  0.00  0.00    -0.094 A 
ATOM      9  C9  DEN d   1      -3.545   0.322   0.969  0.00  0.00    -0.072 A 
ENDROOT
TORSDOF 0
ENDMDL
