MODEL 1
REMARK minimizedAffinity 8.97983265
REMARK minimizedRMSD -1
REMARK  0 active torsions:
REMARK  status: ('A' for Active; 'I' for Inactive)
ROOT
ATOM      1  C1  DEN d   1      -1.661   1.058  -0.338  0.00  0.00     0.130 A 
ATOM      2  C2  DEN d   1      -1.817   2.279  -1.124  0.00  0.00    -0.031 A 
ATOM      3  C3  DEN d   1      -3.214   2.736  -0.985  0.00  0.00     0.027 A 
ATOM      4  C4  DEN d   1      -5.140   1.681   0.367  0.00  0.00     0.027 A 
ATOM      5  C5  DEN d   1      -5.493   0.632   1.187  0.00  0.00    -0.003 A 
ATOM      6  C6  DEN d   1      -4.610  -0.359   1.526  0.00  0.00     0.001 A 
ATOM      7  C7  DEN d   1      -3.316  -0.297   1.079  0.00  0.00     0.017 A 
ATOM      8  C8  DEN d   1      -2.955   0.753   0.246  0.00  0.00    -0.094 A 
ATOM      9  C9  DEN d   1      -3.859   1.752  -0.075  0.00  0.00    -0.072 A 
ENDROOT
TORSDOF 0
ENDMDL
