MODEL 1
REMARK minimizedAffinity 5.61513329
REMARK minimizedRMSD -1
REMARK  0 active torsions:
REMARK  status: ('A' for Active; 'I' for Inactive)
ROOT
ATOM      1  C1  DEN d   1      -1.822   1.244   0.553  0.00  0.00     0.130 A 
ATOM      2  C2  DEN d   1      -1.434  -0.027   1.159  0.00  0.00    -0.031 A 
ATOM      3  C3  DEN d   1      -2.666  -0.739   1.554  0.00  0.00     0.027 A 
ATOM      4  C4  DEN d   1      -5.123  -0.004   1.283  0.00  0.00     0.027 A 
ATOM      5  C5  DEN d   1      -5.951   1.003   0.836  0.00  0.00    -0.003 A 
ATOM      6  C6  DEN d   1      -5.464   2.164   0.299  0.00  0.00     0.001 A 
ATOM      7  C7  DEN d   1      -4.112   2.330   0.154  0.00  0.00     0.017 A 
ATOM      8  C8  DEN d   1      -3.271   1.324   0.609  0.00  0.00    -0.094 A 
ATOM      9  C9  DEN d   1      -3.783   0.151   1.138  0.00  0.00    -0.072 A 
ENDROOT
TORSDOF 0
ENDMDL
