MODEL 1
REMARK minimizedAffinity 0.890866578
REMARK minimizedRMSD -1
REMARK  0 active torsions:
REMARK  status: ('A' for Active; 'I' for Inactive)
ROOT
ATOM      1  C1  DEN d   1      -2.417   1.767   0.180  0.00  0.00     0.130 A 
ATOM      2  C2  DEN d   1      -1.579   0.604   0.459  0.00  0.00    -0.031 A 
ATOM      3  C3  DEN d   1      -2.401  -0.387   1.182  0.00  0.00     0.027 A 
ATOM      4  C4  DEN d   1      -4.877  -0.238   1.888  0.00  0.00     0.027 A 
ATOM      5  C5  DEN d   1      -6.000   0.560   1.882  0.00  0.00    -0.003 A 
ATOM      6  C6  DEN d   1      -5.998   1.819   1.342  0.00  0.00     0.001 A 
ATOM      7  C7  DEN d   1      -4.862   2.300   0.746  0.00  0.00     0.017 A 
ATOM      8  C8  DEN d   1      -3.724   1.505   0.755  0.00  0.00    -0.094 A 
ATOM      9  C9  DEN d   1      -3.750   0.230   1.294  0.00  0.00    -0.072 A 
ENDROOT
TORSDOF 0
ENDMDL
