MODEL 1
REMARK minimizedAffinity 0.897244334
REMARK minimizedRMSD -1
REMARK  0 active torsions:
REMARK  status: ('A' for Active; 'I' for Inactive)
ROOT
ATOM      1  C1  DEN d   1      -1.497  -5.537  -3.630  0.00  0.00     0.130 A 
ATOM      2  C2  DEN d   1      -1.863  -5.082  -2.291  0.00  0.00    -0.031 A 
ATOM      3  C3  DEN d   1      -0.617  -4.858  -1.529  0.00  0.00     0.027 A 
ATOM      4  C4  DEN d   1       1.828  -5.166  -2.291  0.00  0.00     0.027 A 
ATOM      5  C5  DEN d   1       2.638  -5.546  -3.338  0.00  0.00    -0.003 A 
ATOM      6  C6  DEN d   1       2.130  -5.979  -4.534  0.00  0.00     0.001 A 
ATOM      7  C7  DEN d   1       0.775  -5.999  -4.729  0.00  0.00     0.017 A 
ATOM      8  C8  DEN d   1      -0.049  -5.624  -3.675  0.00  0.00    -0.094 A 
ATOM      9  C9  DEN d   1       0.484  -5.178  -2.478  0.00  0.00    -0.072 A 
ENDROOT
TORSDOF 0
ENDMDL
