MODEL 1
REMARK minimizedAffinity 21.0172043
REMARK minimizedRMSD -1
REMARK  0 active torsions:
REMARK  status: ('A' for Active; 'I' for Inactive)
ROOT
ATOM      1  C1  DEN d   1       5.993   4.678   5.981  0.00  0.00     0.130 A 
ATOM      2  C2  DEN d   1       5.403   6.000   5.788  0.00  0.00    -0.031 A 
ATOM      3  C3  DEN d   1       4.649   5.982   4.518  0.00  0.00     0.027 A 
ATOM      4  C4  DEN d   1       4.337   4.046   2.843  0.00  0.00     0.027 A 
ATOM      5  C5  DEN d   1       4.658   2.734   2.571  0.00  0.00    -0.003 A 
ATOM      6  C6  DEN d   1       5.468   1.995   3.392  0.00  0.00     0.001 A 
ATOM      7  C7  DEN d   1       5.948   2.549   4.549  0.00  0.00     0.017 A 
ATOM      8  C8  DEN d   1       5.634   3.873   4.827  0.00  0.00    -0.094 A 
ATOM      9  C9  DEN d   1       4.804   4.600   3.990  0.00  0.00    -0.072 A 
ENDROOT
TORSDOF 0
ENDMDL
