MODEL 1
REMARK minimizedAffinity 11.3534117
REMARK minimizedRMSD -1
REMARK  0 active torsions:
REMARK  status: ('A' for Active; 'I' for Inactive)
ROOT
ATOM      1  C1  DEN d   1       4.891   3.534   0.682  0.00  0.00     0.130 A 
ATOM      2  C2  DEN d   1       5.445   2.809   1.823  0.00  0.00    -0.031 A 
ATOM      3  C3  DEN d   1       4.996   1.405   1.734  0.00  0.00     0.027 A 
ATOM      4  C4  DEN d   1       3.508   0.288  -0.053  0.00  0.00     0.027 A 
ATOM      5  C5  DEN d   1       2.789   0.501  -1.208  0.00  0.00    -0.003 A 
ATOM      6  C6  DEN d   1       2.693   1.737  -1.790  0.00  0.00     0.001 A 
ATOM      7  C7  DEN d   1       3.364   2.799  -1.244  0.00  0.00     0.017 A 
ATOM      8  C8  DEN d   1       4.085   2.594  -0.075  0.00  0.00    -0.094 A 
ATOM      9  C9  DEN d   1       4.180   1.334   0.492  0.00  0.00    -0.072 A 
ENDROOT
TORSDOF 0
ENDMDL
