MODEL 1
REMARK minimizedAffinity 5.01221085
REMARK minimizedRMSD -1
REMARK  0 active torsions:
REMARK  status: ('A' for Active; 'I' for Inactive)
ROOT
ATOM      1  C1  DEN d   1       3.478   2.144   1.881  0.00  0.00     0.130 A 
ATOM      2  C2  DEN d   1       3.851   1.063   0.973  0.00  0.00    -0.031 A 
ATOM      3  C3  DEN d   1       2.616   0.534   0.360  0.00  0.00     0.027 A 
ATOM      4  C4  DEN d   1       0.175   1.284   0.723  0.00  0.00     0.027 A 
ATOM      5  C5  DEN d   1      -0.641   2.156   1.409  0.00  0.00    -0.003 A 
ATOM      6  C6  DEN d   1      -0.149   3.055   2.318  0.00  0.00     0.001 A 
ATOM      7  C7  DEN d   1       1.202   3.133   2.533  0.00  0.00     0.017 A 
ATOM      8  C8  DEN d   1       2.030   2.252   1.850  0.00  0.00    -0.094 A 
ATOM      9  C9  DEN d   1       1.515   1.359   0.926  0.00  0.00    -0.072 A 
ENDROOT
TORSDOF 0
ENDMDL
