MODEL 1
REMARK minimizedAffinity 3.94941068
REMARK minimizedRMSD -1
REMARK  0 active torsions:
REMARK  status: ('A' for Active; 'I' for Inactive)
ROOT
ATOM      1  C1  DEN d   1       3.114   1.471   1.588  0.00  0.00     0.130 A 
ATOM      2  C2  DEN d   1       3.036   0.724   0.336  0.00  0.00    -0.031 A 
ATOM      3  C3  DEN d   1       1.618   0.663  -0.071  0.00  0.00     0.027 A 
ATOM      4  C4  DEN d   1      -0.453   1.652   1.106  0.00  0.00     0.027 A 
ATOM      5  C5  DEN d   1      -0.888   2.361   2.205  0.00  0.00    -0.003 A 
ATOM      6  C6  DEN d   1      -0.031   2.790   3.183  0.00  0.00     0.001 A 
ATOM      7  C7  DEN d   1       1.312   2.553   3.061  0.00  0.00     0.017 A 
ATOM      8  C8  DEN d   1       1.758   1.833   1.960  0.00  0.00    -0.094 A 
ATOM      9  C9  DEN d   1       0.877   1.418   0.975  0.00  0.00    -0.072 A 
ENDROOT
TORSDOF 0
ENDMDL
