MODEL 1
REMARK minimizedAffinity 6.20589113
REMARK minimizedRMSD -1
REMARK  0 active torsions:
REMARK  status: ('A' for Active; 'I' for Inactive)
ROOT
ATOM      1  C1  DEN d   1      -1.728   4.753  -6.000  0.00  0.00     0.130 A 
ATOM      2  C2  DEN d   1      -3.174   4.954  -6.000  0.00  0.00    -0.031 A 
ATOM      3  C3  DEN d   1      -3.806   3.730  -5.466  0.00  0.00     0.027 A 
ATOM      4  C4  DEN d   1      -2.689   1.557  -4.641  0.00  0.00     0.027 A 
ATOM      5  C5  DEN d   1      -1.486   0.912  -4.458  0.00  0.00    -0.003 A 
ATOM      6  C6  DEN d   1      -0.291   1.484  -4.806  0.00  0.00     0.001 A 
ATOM      7  C7  DEN d   1      -0.270   2.757  -5.312  0.00  0.00     0.017 A 
ATOM      8  C8  DEN d   1      -1.480   3.411  -5.506  0.00  0.00    -0.094 A 
ATOM      9  C9  DEN d   1      -2.676   2.820  -5.137  0.00  0.00    -0.072 A 
ENDROOT
TORSDOF 0
ENDMDL
