MODEL 1
REMARK minimizedAffinity 1.12542677
REMARK minimizedRMSD -1
REMARK  0 active torsions:
REMARK  status: ('A' for Active; 'I' for Inactive)
ROOT
ATOM      1  C1  DEN d   1       0.822   2.938   3.347  0.00  0.00     0.130 A 
ATOM      2  C2  DEN d   1      -0.564   3.321   3.601  0.00  0.00    -0.031 A 
ATOM      3  C3  DEN d   1      -1.390   2.811   2.489  0.00  0.00     0.027 A 
ATOM      4  C4  DEN d   1      -0.663   1.466   0.411  0.00  0.00     0.027 A 
ATOM      5  C5  DEN d   1       0.413   0.912  -0.247  0.00  0.00    -0.003 A 
ATOM      6  C6  DEN d   1       1.694   1.022   0.225  0.00  0.00     0.001 A 
ATOM      7  C7  DEN d   1       1.927   1.664   1.413  0.00  0.00     0.017 A 
ATOM      8  C8  DEN d   1       0.848   2.232   2.078  0.00  0.00    -0.094 A 
ATOM      9  C9  DEN d   1      -0.441   2.099   1.591  0.00  0.00    -0.072 A 
ENDROOT
TORSDOF 0
ENDMDL
