MODEL 1
REMARK minimizedAffinity 13.3564463
REMARK minimizedRMSD -1
REMARK  0 active torsions:
REMARK  status: ('A' for Active; 'I' for Inactive)
ROOT
ATOM      1  C1  DEN d   1      -0.680   1.580   0.813  0.00  0.00     0.130 A 
ATOM      2  C2  DEN d   1      -0.855   2.093   2.168  0.00  0.00    -0.031 A 
ATOM      3  C3  DEN d   1       0.484   2.314   2.750  0.00  0.00     0.027 A 
ATOM      4  C4  DEN d   1       2.800   1.918   1.687  0.00  0.00     0.027 A 
ATOM      5  C5  DEN d   1       3.457   1.479   0.558  0.00  0.00    -0.003 A 
ATOM      6  C6  DEN d   1       2.787   1.015  -0.543  0.00  0.00     0.001 A 
ATOM      7  C7  DEN d   1       1.417   1.021  -0.556  0.00  0.00     0.017 A 
ATOM      8  C8  DEN d   1       0.748   1.455   0.581  0.00  0.00    -0.094 A 
ATOM      9  C9  DEN d   1       1.443   1.932   1.679  0.00  0.00    -0.072 A 
ENDROOT
TORSDOF 0
ENDMDL
