MODEL 1
REMARK minimizedAffinity 4.21742916
REMARK minimizedRMSD -1
REMARK  0 active torsions:
REMARK  status: ('A' for Active; 'I' for Inactive)
ROOT
ATOM      1  C   UNL d   1       4.495   0.830  -1.144  0.00  0.00     0.077 C 
ATOM      2  C1  UNL d   1       3.659  -0.403  -0.969  0.00  0.00    -0.074 A 
ATOM      3  C2  UNL d   1       3.815  -1.504  -1.817  0.00  0.00    -0.005 A 
ATOM      4  C3  UNL d   1       3.037  -2.647  -1.636  0.00  0.00     0.006 A 
ATOM      5  C4  UNL d   1       2.097  -2.702  -0.606  0.00  0.00    -0.005 A 
ATOM      6  C5  UNL d   1       1.928  -1.612   0.253  0.00  0.00    -0.074 A 
ATOM      7  C6  UNL d   1       0.929  -1.657   1.371  0.00  0.00     0.077 C 
ATOM      8  C7  UNL d   1       2.718  -0.469   0.069  0.00  0.00    -0.001 A 
ENDROOT
TORSDOF 0
ENDMDL
