MODEL 1
REMARK minimizedAffinity 5.13579988
REMARK minimizedRMSD -1
REMARK  0 active torsions:
REMARK  status: ('A' for Active; 'I' for Inactive)
ROOT
ATOM      1  C   UNL d   1       0.923  -3.531  -0.644  0.00  0.00     0.077 C 
ATOM      2  C1  UNL d   1       1.954  -2.530  -1.071  0.00  0.00    -0.074 A 
ATOM      3  C2  UNL d   1       2.782  -2.775  -2.172  0.00  0.00    -0.005 A 
ATOM      4  C3  UNL d   1       3.730  -1.831  -2.563  0.00  0.00     0.006 A 
ATOM      5  C4  UNL d   1       3.861  -0.633  -1.859  0.00  0.00    -0.005 A 
ATOM      6  C5  UNL d   1       3.042  -0.369  -0.757  0.00  0.00    -0.074 A 
ATOM      7  C6  UNL d   1       3.163   0.917   0.005  0.00  0.00     0.077 C 
ATOM      8  C7  UNL d   1       2.086  -1.321  -0.374  0.00  0.00    -0.001 A 
ENDROOT
TORSDOF 0
ENDMDL
