MODEL 1
REMARK minimizedAffinity 2.75370932
REMARK minimizedRMSD -1
REMARK  0 active torsions:
REMARK  status: ('A' for Active; 'I' for Inactive)
ROOT
ATOM      1  C   UNL d   1      -1.713   1.050  -0.625  0.00  0.00     0.077 C 
ATOM      2  C1  UNL d   1      -0.601   0.903   0.371  0.00  0.00    -0.074 A 
ATOM      3  C2  UNL d   1      -0.873   0.659   1.721  0.00  0.00    -0.005 A 
ATOM      4  C3  UNL d   1       0.172   0.515   2.634  0.00  0.00     0.006 A 
ATOM      5  C4  UNL d   1       1.496   0.614   2.207  0.00  0.00    -0.005 A 
ATOM      6  C5  UNL d   1       1.788   0.856   0.861  0.00  0.00    -0.074 A 
ATOM      7  C6  UNL d   1       3.206   0.955   0.384  0.00  0.00     0.077 C 
ATOM      8  C7  UNL d   1       0.733   0.993  -0.051  0.00  0.00    -0.001 A 
ENDROOT
TORSDOF 0
ENDMDL
