MODEL 1
REMARK minimizedAffinity 2.22697496
REMARK minimizedRMSD -1
REMARK  0 active torsions:
REMARK  status: ('A' for Active; 'I' for Inactive)
ROOT
ATOM      1  C   UNL d   1      -2.506   1.851   0.660  0.00  0.00     0.077 C 
ATOM      2  C1  UNL d   1      -1.190   1.422   1.238  0.00  0.00    -0.074 A 
ATOM      3  C2  UNL d   1      -1.065   1.127   2.599  0.00  0.00    -0.005 A 
ATOM      4  C3  UNL d   1       0.163   0.720   3.121  0.00  0.00     0.006 A 
ATOM      5  C4  UNL d   1       1.276   0.604   2.288  0.00  0.00    -0.005 A 
ATOM      6  C5  UNL d   1       1.170   0.894   0.924  0.00  0.00    -0.074 A 
ATOM      7  C6  UNL d   1       2.354   0.765   0.013  0.00  0.00     0.077 C 
ATOM      8  C7  UNL d   1      -0.069   1.296   0.406  0.00  0.00    -0.001 A 
ENDROOT
TORSDOF 0
ENDMDL
