MODEL 1
REMARK minimizedAffinity 3.21311998
REMARK minimizedRMSD -1
REMARK  0 active torsions:
REMARK  status: ('A' for Active; 'I' for Inactive)
ROOT
ATOM      1  C   UNL d   1       2.411  -2.096  -0.946  0.00  0.00     0.077 C 
ATOM      2  C1  UNL d   1       1.099  -2.745  -1.275  0.00  0.00    -0.074 A 
ATOM      3  C2  UNL d   1       0.173  -2.110  -2.109  0.00  0.00    -0.005 A 
ATOM      4  C3  UNL d   1      -1.039  -2.729  -2.414  0.00  0.00     0.006 A 
ATOM      5  C4  UNL d   1      -1.336  -3.987  -1.889  0.00  0.00    -0.005 A 
ATOM      6  C5  UNL d   1      -0.422  -4.638  -1.055  0.00  0.00    -0.074 A 
ATOM      7  C6  UNL d   1      -0.722  -5.995  -0.490  0.00  0.00     0.077 C 
ATOM      8  C7  UNL d   1       0.797  -4.012  -0.759  0.00  0.00    -0.001 A 
ENDROOT
TORSDOF 0
ENDMDL
