MODEL 1
REMARK minimizedAffinity 2.94031382
REMARK minimizedRMSD -1
REMARK  0 active torsions:
REMARK  status: ('A' for Active; 'I' for Inactive)
ROOT
ATOM      1  C   UNL d   1       3.404   0.751  -0.397  0.00  0.00     0.077 C 
ATOM      2  C1  UNL d   1       2.695   0.133   0.772  0.00  0.00    -0.074 A 
ATOM      3  C2  UNL d   1       2.991  -1.169   1.186  0.00  0.00    -0.005 A 
ATOM      4  C3  UNL d   1       2.330  -1.726   2.281  0.00  0.00     0.006 A 
ATOM      5  C4  UNL d   1       1.368  -0.988   2.971  0.00  0.00    -0.005 A 
ATOM      6  C5  UNL d   1       1.059   0.316   2.572  0.00  0.00    -0.074 A 
ATOM      7  C6  UNL d   1       0.035   1.127   3.308  0.00  0.00     0.077 C 
ATOM      8  C7  UNL d   1       1.733   0.872   1.475  0.00  0.00    -0.001 A 
ENDROOT
TORSDOF 0
ENDMDL
