MODEL 1
REMARK minimizedAffinity 11.6906252
REMARK minimizedRMSD -1
REMARK  0 active torsions:
REMARK  status: ('A' for Active; 'I' for Inactive)
ROOT
ATOM      1  C2' OXE d   1      -0.862  -2.711   1.665  0.00  0.00     0.078 C 
ATOM      2  C1' OXE d   1      -2.809  -1.442   0.091  0.00  0.00     0.078 C 
ATOM      3  C1  OXE d   1      -1.782  -0.574   0.774  0.00  0.00    -0.078 A 
ATOM      4  C2  OXE d   1      -0.861  -1.200   1.580  0.00  0.00    -0.078 A 
ATOM      5  C3  OXE d   1       0.142  -0.452   2.190  0.00  0.00     0.003 A 
ATOM      6  C4  OXE d   1       0.129   0.946   2.114  0.00  0.00    -0.002 A 
ATOM      7  C5  OXE d   1      -0.824   1.606   1.331  0.00  0.00    -0.002 A 
ATOM      8  C6  OXE d   1      -1.758   0.860   0.621  0.00  0.00     0.003 A 
ENDROOT
TORSDOF 0
ENDMDL
