MODEL 1
REMARK minimizedAffinity 1.86415005
REMARK minimizedRMSD -1
REMARK  0 active torsions:
REMARK  status: ('A' for Active; 'I' for Inactive)
ROOT
ATOM      1  C2' OXE d   1      -5.977  -0.597   2.282  0.00  0.00     0.078 C 
ATOM      2  C1' OXE d   1      -4.104   1.492   2.200  0.00  0.00     0.078 C 
ATOM      3  C1  OXE d   1      -4.598   1.043   3.552  0.00  0.00    -0.078 A 
ATOM      4  C2  OXE d   1      -5.550   0.052   3.581  0.00  0.00    -0.078 A 
ATOM      5  C3  OXE d   1      -6.000  -0.436   4.804  0.00  0.00     0.003 A 
ATOM      6  C4  OXE d   1      -5.607   0.177   6.000  0.00  0.00    -0.002 A 
ATOM      7  C5  OXE d   1      -4.669   1.214   5.991  0.00  0.00    -0.002 A 
ATOM      8  C6  OXE d   1      -4.124   1.630   4.781  0.00  0.00     0.003 A 
ENDROOT
TORSDOF 0
ENDMDL
