MODEL 1
REMARK minimizedAffinity 2.83814788
REMARK minimizedRMSD -1
REMARK  0 active torsions:
REMARK  status: ('A' for Active; 'I' for Inactive)
ROOT
ATOM      1  C2' OXE d   1       1.320   1.983   3.639  0.00  0.00     0.078 C 
ATOM      2  C1' OXE d   1       1.524   0.021   1.642  0.00  0.00     0.078 C 
ATOM      3  C1  OXE d   1       0.186   0.690   1.837  0.00  0.00    -0.078 A 
ATOM      4  C2  OXE d   1       0.084   1.615   2.848  0.00  0.00    -0.078 A 
ATOM      5  C3  OXE d   1      -1.113   2.301   3.035  0.00  0.00     0.003 A 
ATOM      6  C4  OXE d   1      -2.254   1.948   2.305  0.00  0.00    -0.002 A 
ATOM      7  C5  OXE d   1      -2.182   0.980   1.298  0.00  0.00    -0.002 A 
ATOM      8  C6  OXE d   1      -0.961   0.373   1.023  0.00  0.00     0.003 A 
ENDROOT
TORSDOF 0
ENDMDL
