MODEL 1
REMARK minimizedAffinity 0.0669742003
REMARK minimizedRMSD -1
REMARK  0 active torsions:
REMARK  status: ('A' for Active; 'I' for Inactive)
ROOT
ATOM      1  C2' OXE d   1      -3.594   0.903   1.708  0.00  0.00     0.078 C 
ATOM      2  C1' OXE d   1      -1.110   0.093   0.681  0.00  0.00     0.078 C 
ATOM      3  C1  OXE d   1      -1.111   0.973   1.906  0.00  0.00    -0.078 A 
ATOM      4  C2  OXE d   1      -2.330   1.402   2.374  0.00  0.00    -0.078 A 
ATOM      5  C3  OXE d   1      -2.391   2.171   3.534  0.00  0.00     0.003 A 
ATOM      6  C4  OXE d   1      -1.217   2.637   4.138  0.00  0.00    -0.002 A 
ATOM      7  C5  OXE d   1       0.035   2.244   3.654  0.00  0.00    -0.002 A 
ATOM      8  C6  OXE d   1       0.104   1.379   2.567  0.00  0.00     0.003 A 
ENDROOT
TORSDOF 0
ENDMDL
