MODEL 1
REMARK minimizedAffinity 0.0029705097
REMARK minimizedRMSD -1
REMARK  0 active torsions:
REMARK  status: ('A' for Active; 'I' for Inactive)
ROOT
ATOM      1  C2' OXE d   1      -4.291  -5.054   2.776  0.00  0.00     0.078 C 
ATOM      2  C1' OXE d   1      -3.441  -2.589   1.738  0.00  0.00     0.078 C 
ATOM      3  C1  OXE d   1      -3.476  -2.746   3.238  0.00  0.00    -0.078 A 
ATOM      4  C2  OXE d   1      -3.937  -3.940   3.737  0.00  0.00    -0.078 A 
ATOM      5  C3  OXE d   1      -3.938  -4.158   5.112  0.00  0.00     0.003 A 
ATOM      6  C4  OXE d   1      -3.619  -3.119   5.995  0.00  0.00    -0.002 A 
ATOM      7  C5  OXE d   1      -3.184  -1.882   5.507  0.00  0.00    -0.002 A 
ATOM      8  C6  OXE d   1      -3.067  -1.694   4.135  0.00  0.00     0.003 A 
ENDROOT
TORSDOF 0
ENDMDL
