MODEL 1
REMARK minimizedAffinity 7.03349018
REMARK minimizedRMSD -1
REMARK  0 active torsions:
REMARK  status: ('A' for Active; 'I' for Inactive)
ROOT
ATOM      1  C2' OXE d   1       5.753   0.130   2.834  0.00  0.00     0.078 C 
ATOM      2  C1' OXE d   1       3.109  -0.759   2.520  0.00  0.00     0.078 C 
ATOM      3  C1  OXE d   1       3.555   0.425   1.699  0.00  0.00    -0.078 A 
ATOM      4  C2  OXE d   1       4.836   0.882   1.893  0.00  0.00    -0.078 A 
ATOM      5  C3  OXE d   1       5.316   1.937   1.122  0.00  0.00     0.003 A 
ATOM      6  C4  OXE d   1       4.459   2.633   0.262  0.00  0.00    -0.002 A 
ATOM      7  C5  OXE d   1       3.139   2.209   0.078  0.00  0.00    -0.002 A 
ATOM      8  C6  OXE d   1       2.685   1.083   0.756  0.00  0.00     0.003 A 
ENDROOT
TORSDOF 0
ENDMDL
