MODEL 1
REMARK minimizedAffinity 4.43380928
REMARK minimizedRMSD -1
REMARK  0 active torsions:
REMARK  status: ('A' for Active; 'I' for Inactive)
ROOT
ATOM      1  C2' OXE d   1      -3.188   1.724   5.969  0.00  0.00     0.078 C 
ATOM      2  C1' OXE d   1      -5.994   1.786   5.910  0.00  0.00     0.078 C 
ATOM      3  C1  OXE d   1      -5.261   3.104   5.924  0.00  0.00    -0.078 A 
ATOM      4  C2  OXE d   1      -3.889   3.064   6.000  0.00  0.00    -0.078 A 
ATOM      5  C3  OXE d   1      -3.162   4.250   5.961  0.00  0.00     0.003 A 
ATOM      6  C4  OXE d   1      -3.819   5.486   6.000  0.00  0.00    -0.002 A 
ATOM      7  C5  OXE d   1      -5.216   5.549   5.963  0.00  0.00    -0.002 A 
ATOM      8  C6  OXE d   1      -5.949   4.371   5.882  0.00  0.00     0.003 A 
ENDROOT
TORSDOF 0
ENDMDL
