MODEL 1
REMARK minimizedAffinity 6.17841101
REMARK minimizedRMSD -1
REMARK  0 active torsions:
REMARK  status: ('A' for Active; 'I' for Inactive)
ROOT
ATOM      1  C2' OXE d   1      -5.975   2.815   5.431  0.00  0.00     0.078 C 
ATOM      2  C1' OXE d   1      -3.442   1.715   5.935  0.00  0.00     0.078 C 
ATOM      3  C1  OXE d   1      -3.548   3.215   5.826  0.00  0.00    -0.078 A 
ATOM      4  C2  OXE d   1      -4.783   3.742   5.533  0.00  0.00    -0.078 A 
ATOM      5  C3  OXE d   1      -4.947   5.123   5.475  0.00  0.00     0.003 A 
ATOM      6  C4  OXE d   1      -3.838   5.973   5.561  0.00  0.00    -0.002 A 
ATOM      7  C5  OXE d   1      -2.565   5.454   5.819  0.00  0.00    -0.002 A 
ATOM      8  C6  OXE d   1      -2.410   4.084   5.996  0.00  0.00     0.003 A 
ENDROOT
TORSDOF 0
ENDMDL
