MODEL 1
REMARK minimizedAffinity 12.4212446
REMARK minimizedRMSD -1
REMARK  0 active torsions:
REMARK  status: ('A' for Active; 'I' for Inactive)
ROOT
ATOM      1  C2' OXE d   1      -4.827  -3.862   2.478  0.00  0.00     0.078 C 
ATOM      2  C1' OXE d   1      -3.379  -1.522   1.925  0.00  0.00     0.078 C 
ATOM      3  C1  OXE d   1      -3.494  -1.954   3.365  0.00  0.00    -0.078 A 
ATOM      4  C2  OXE d   1      -4.243  -3.075   3.631  0.00  0.00    -0.078 A 
ATOM      5  C3  OXE d   1      -4.336  -3.548   4.937  0.00  0.00     0.003 A 
ATOM      6  C4  OXE d   1      -3.801  -2.809   5.999  0.00  0.00    -0.002 A 
ATOM      7  C5  OXE d   1      -3.068  -1.643   5.753  0.00  0.00    -0.002 A 
ATOM      8  C6  OXE d   1      -2.869  -1.226   4.442  0.00  0.00     0.003 A 
ENDROOT
TORSDOF 0
ENDMDL
