MODEL 1
REMARK minimizedAffinity -0.0875343382
REMARK minimizedRMSD -1
REMARK  0 active torsions:
REMARK  status: ('A' for Active; 'I' for Inactive)
ROOT
ATOM      1  C2' OXE d   1       2.689   1.116   0.969  0.00  0.00     0.078 C 
ATOM      2  C1' OXE d   1       4.964   0.075   2.242  0.00  0.00     0.078 C 
ATOM      3  C1  OXE d   1       3.727  -0.786   2.197  0.00  0.00    -0.078 A 
ATOM      4  C2  OXE d   1       2.604  -0.251   1.614  0.00  0.00    -0.078 A 
ATOM      5  C3  OXE d   1       1.452  -1.023   1.497  0.00  0.00     0.003 A 
ATOM      6  C4  OXE d   1       1.379  -2.283   2.104  0.00  0.00    -0.002 A 
ATOM      7  C5  OXE d   1       2.499  -2.831   2.738  0.00  0.00    -0.002 A 
ATOM      8  C6  OXE d   1       3.691  -2.115   2.756  0.00  0.00     0.003 A 
ENDROOT
TORSDOF 0
ENDMDL
