MODEL 1
REMARK minimizedAffinity 14.4068117
REMARK minimizedRMSD -1
REMARK  0 active torsions:
REMARK  status: ('A' for Active; 'I' for Inactive)
ROOT
ATOM      1  C2' OXE d   1       2.375   1.964   0.081  0.00  0.00     0.078 C 
ATOM      2  C1' OXE d   1       5.160   2.264   0.269  0.00  0.00     0.078 C 
ATOM      3  C1  OXE d   1       4.496   1.265   1.184  0.00  0.00    -0.078 A 
ATOM      4  C2  OXE d   1       3.128   1.159   1.118  0.00  0.00    -0.078 A 
ATOM      5  C3  OXE d   1       2.471   0.214   1.902  0.00  0.00     0.003 A 
ATOM      6  C4  OXE d   1       3.174  -0.519   2.866  0.00  0.00    -0.002 A 
ATOM      7  C5  OXE d   1       4.563  -0.397   2.977  0.00  0.00    -0.002 A 
ATOM      8  C6  OXE d   1       5.243   0.458   2.117  0.00  0.00     0.003 A 
ENDROOT
TORSDOF 0
ENDMDL
