MODEL 1
REMARK minimizedAffinity 4.44755173
REMARK minimizedRMSD -1
REMARK  0 active torsions:
REMARK  status: ('A' for Active; 'I' for Inactive)
ROOT
ATOM      1  C2' OXE d   1      -1.668   3.385   6.000  0.00  0.00     0.078 C 
ATOM      2  C1' OXE d   1      -2.690   5.999   5.979  0.00  0.00     0.078 C 
ATOM      3  C1  OXE d   1      -3.677   4.858   5.980  0.00  0.00    -0.078 A 
ATOM      4  C2  OXE d   1      -3.167   3.582   5.943  0.00  0.00    -0.078 A 
ATOM      5  C3  OXE d   1      -4.032   2.493   5.998  0.00  0.00     0.003 A 
ATOM      6  C4  OXE d   1      -5.418   2.684   5.935  0.00  0.00    -0.002 A 
ATOM      7  C5  OXE d   1      -5.957   3.975   5.932  0.00  0.00    -0.002 A 
ATOM      8  C6  OXE d   1      -5.103   5.070   5.997  0.00  0.00     0.003 A 
ENDROOT
TORSDOF 0
ENDMDL
