MODEL 1
REMARK minimizedAffinity 2.640172
REMARK minimizedRMSD -1
REMARK  0 active torsions:
REMARK  status: ('A' for Active; 'I' for Inactive)
ROOT
ATOM      1  C2' OXE d   1      -5.895   5.863   5.997  0.00  0.00     0.078 C 
ATOM      2  C1' OXE d   1      -5.728   3.060   5.994  0.00  0.00     0.078 C 
ATOM      3  C1  OXE d   1      -4.438   3.842   5.984  0.00  0.00    -0.078 A 
ATOM      4  C2  OXE d   1      -4.529   5.212   5.938  0.00  0.00    -0.078 A 
ATOM      5  C3  OXE d   1      -3.371   5.983   5.983  0.00  0.00     0.003 A 
ATOM      6  C4  OXE d   1      -2.112   5.373   5.918  0.00  0.00    -0.002 A 
ATOM      7  C5  OXE d   1      -1.997   3.979   5.923  0.00  0.00    -0.002 A 
ATOM      8  C6  OXE d   1      -3.146   3.201   5.999  0.00  0.00     0.003 A 
ENDROOT
TORSDOF 0
ENDMDL
