MODEL 1
REMARK minimizedAffinity 8.38610744
REMARK minimizedRMSD -1
REMARK  0 active torsions:
REMARK  status: ('A' for Active; 'I' for Inactive)
ROOT
ATOM      1  C2' OXE d   1       4.934  -0.642   3.250  0.00  0.00     0.078 C 
ATOM      2  C1' OXE d   1       2.820  -2.487   3.306  0.00  0.00     0.078 C 
ATOM      3  C1  OXE d   1       2.711  -1.321   2.355  0.00  0.00    -0.078 A 
ATOM      4  C2  OXE d   1       3.729  -0.398   2.368  0.00  0.00    -0.078 A 
ATOM      5  C3  OXE d   1       3.705   0.667   1.472  0.00  0.00     0.003 A 
ATOM      6  C4  OXE d   1       2.582   0.891   0.667  0.00  0.00    -0.002 A 
ATOM      7  C5  OXE d   1       1.517  -0.015   0.666  0.00  0.00    -0.002 A 
ATOM      8  C6  OXE d   1       1.584  -1.147   1.472  0.00  0.00     0.003 A 
ENDROOT
TORSDOF 0
ENDMDL
