MODEL 1
REMARK minimizedAffinity 11.5679302
REMARK minimizedRMSD -1
REMARK  0 active torsions:
REMARK  status: ('A' for Active; 'I' for Inactive)
ROOT
ATOM      1  C2' OXE d   1       5.547  -0.195   2.430  0.00  0.00     0.078 C 
ATOM      2  C1' OXE d   1       4.849   1.645   0.428  0.00  0.00     0.078 C 
ATOM      3  C1  OXE d   1       3.737   0.865   1.086  0.00  0.00    -0.078 A 
ATOM      4  C2  OXE d   1       4.092  -0.067   2.031  0.00  0.00    -0.078 A 
ATOM      5  C3  OXE d   1       3.103  -0.774   2.708  0.00  0.00     0.003 A 
ATOM      6  C4  OXE d   1       1.761  -0.656   2.326  0.00  0.00    -0.002 A 
ATOM      7  C5  OXE d   1       1.382   0.258   1.337  0.00  0.00    -0.002 A 
ATOM      8  C6  OXE d   1       2.351   1.055   0.739  0.00  0.00     0.003 A 
ENDROOT
TORSDOF 0
ENDMDL
