MODEL 1
REMARK minimizedAffinity 1.65491772
REMARK minimizedRMSD -1
REMARK  0 active torsions:
REMARK  status: ('A' for Active; 'I' for Inactive)
ROOT
ATOM      1  C2' OXE d   1       5.606  -0.037   2.565  0.00  0.00     0.078 C 
ATOM      2  C1' OXE d   1       4.883   1.300   0.204  0.00  0.00     0.078 C 
ATOM      3  C1  OXE d   1       3.810   0.532   0.935  0.00  0.00    -0.078 A 
ATOM      4  C2  OXE d   1       4.183  -0.158   2.064  0.00  0.00    -0.078 A 
ATOM      5  C3  OXE d   1       3.222  -0.837   2.806  0.00  0.00     0.003 A 
ATOM      6  C4  OXE d   1       1.910  -0.952   2.330  0.00  0.00    -0.002 A 
ATOM      7  C5  OXE d   1       1.518  -0.290   1.161  0.00  0.00    -0.002 A 
ATOM      8  C6  OXE d   1       2.444   0.489   0.477  0.00  0.00     0.003 A 
ENDROOT
TORSDOF 0
ENDMDL
