MODEL 1
REMARK minimizedAffinity 7.53838062
REMARK minimizedRMSD -1
REMARK  0 active torsions:
REMARK  status: ('A' for Active; 'I' for Inactive)
ROOT
ATOM      1  C2' OXE d   1       3.492   1.575  -5.820  0.00  0.00     0.078 C 
ATOM      2  C1' OXE d   1       4.800   0.554  -3.555  0.00  0.00     0.078 C 
ATOM      3  C1  OXE d   1       3.538  -0.136  -4.010  0.00  0.00    -0.078 A 
ATOM      4  C2  OXE d   1       2.879   0.399  -5.091  0.00  0.00    -0.078 A 
ATOM      5  C3  OXE d   1       1.740  -0.230  -5.585  0.00  0.00     0.003 A 
ATOM      6  C4  OXE d   1       1.174  -1.312  -4.899  0.00  0.00    -0.002 A 
ATOM      7  C5  OXE d   1       1.807  -1.848  -3.772  0.00  0.00    -0.002 A 
ATOM      8  C6  OXE d   1       3.010  -1.299  -3.341  0.00  0.00     0.003 A 
ENDROOT
TORSDOF 0
ENDMDL
