MODEL 1
REMARK minimizedAffinity 9.16961098
REMARK minimizedRMSD -1
REMARK  0 active torsions:
REMARK  status: ('A' for Active; 'I' for Inactive)
ROOT
ATOM      1  C2' OXE d   1      -0.937   3.668   5.893  0.00  0.00     0.078 C 
ATOM      2  C1' OXE d   1      -2.692   5.859   5.871  0.00  0.00     0.078 C 
ATOM      3  C1  OXE d   1      -3.293   4.476   5.914  0.00  0.00    -0.078 A 
ATOM      4  C2  OXE d   1      -2.428   3.409   5.878  0.00  0.00    -0.078 A 
ATOM      5  C3  OXE d   1      -2.928   2.113   5.971  0.00  0.00     0.003 A 
ATOM      6  C4  OXE d   1      -4.308   1.882   5.946  0.00  0.00    -0.002 A 
ATOM      7  C5  OXE d   1      -5.207   2.954   5.943  0.00  0.00    -0.002 A 
ATOM      8  C6  OXE d   1      -4.717   4.255   5.970  0.00  0.00     0.003 A 
ENDROOT
TORSDOF 0
ENDMDL
