MODEL 1
REMARK minimizedAffinity 12.0108318
REMARK minimizedRMSD -1
REMARK  0 active torsions:
REMARK  status: ('A' for Active; 'I' for Inactive)
ROOT
ATOM      1  C   UNL d   1      -0.152   0.940  -0.916  0.00  0.00     0.124 A 
ATOM      2  C1  UNL d   1      -0.392   2.275  -0.623  0.00  0.00     0.062 A 
ATOM      3  C2  UNL d   1       0.356   2.922   0.355  0.00  0.00     0.162 A 
ATOM      4  C3  UNL d   1       1.354   2.236   1.047  0.00  0.00    -0.034 A 
ATOM      5  C4  UNL d   1       1.590   0.893   0.747  0.00  0.00     0.162 A 
ATOM      6  C5  UNL d   1       0.839   0.250  -0.231  0.00  0.00     0.062 A 
ATOM      7  F   UNL d   1       1.072  -1.040  -0.513  0.00  0.00    -0.097 F 
ATOM      8  F1  UNL d   1       2.541   0.203   1.394  0.00  0.00    -0.096 F 
ATOM      9  I   UNL d   1       2.476   3.201   2.511  0.00  0.00    -0.060 I 
ATOM     10  F2  UNL d   1       0.102   4.213   0.618  0.00  0.00    -0.096 F 
ATOM     11  F3  UNL d   1      -1.349   2.943  -1.283  0.00  0.00    -0.097 F 
ATOM     12  F4  UNL d   1      -0.874   0.319  -1.858  0.00  0.00    -0.092 F 
ENDROOT
TORSDOF 0
ENDMDL
