MODEL 1
REMARK minimizedAffinity 9.06386566
REMARK minimizedRMSD -1
REMARK  0 active torsions:
REMARK  status: ('A' for Active; 'I' for Inactive)
ROOT
ATOM      1  C   UNL d   1      -4.680   2.391   0.713  0.00  0.00     0.124 A 
ATOM      2  C1  UNL d   1      -5.157   3.685   0.870  0.00  0.00     0.062 A 
ATOM      3  C2  UNL d   1      -5.534   4.145   2.128  0.00  0.00     0.162 A 
ATOM      4  C3  UNL d   1      -5.436   3.310   3.241  0.00  0.00    -0.034 A 
ATOM      5  C4  UNL d   1      -4.956   2.009   3.076  0.00  0.00     0.162 A 
ATOM      6  C5  UNL d   1      -4.580   1.555   1.816  0.00  0.00     0.062 A 
ATOM      7  F   UNL d   1      -4.120   0.304   1.667  0.00  0.00    -0.097 F 
ATOM      8  F1  UNL d   1      -4.849   1.179   4.124  0.00  0.00    -0.096 F 
ATOM      9  I   UNL d   1      -5.999   3.993   5.125  0.00  0.00    -0.060 I 
ATOM     10  F2  UNL d   1      -5.991   5.400   2.250  0.00  0.00    -0.096 F 
ATOM     11  F3  UNL d   1      -5.255   4.496  -0.194  0.00  0.00    -0.097 F 
ATOM     12  F4  UNL d   1      -4.318   1.952  -0.499  0.00  0.00    -0.092 F 
ENDROOT
TORSDOF 0
ENDMDL
