MODEL 1
REMARK minimizedAffinity 14.4334211
REMARK minimizedRMSD -1
REMARK  0 active torsions:
REMARK  status: ('A' for Active; 'I' for Inactive)
ROOT
ATOM      1  C   UNL d   1       0.396  -4.050   0.358  0.00  0.00     0.124 A 
ATOM      2  C1  UNL d   1       0.065  -3.862  -0.977  0.00  0.00     0.062 A 
ATOM      3  C2  UNL d   1       0.805  -2.986  -1.766  0.00  0.00     0.162 A 
ATOM      4  C3  UNL d   1       1.885  -2.291  -1.222  0.00  0.00    -0.034 A 
ATOM      5  C4  UNL d   1       2.211  -2.484   0.122  0.00  0.00     0.162 A 
ATOM      6  C5  UNL d   1       1.469  -3.361   0.906  0.00  0.00     0.062 A 
ATOM      7  F   UNL d   1       1.791  -3.541   2.195  0.00  0.00    -0.097 F 
ATOM      8  F1  UNL d   1       3.244  -1.832   0.677  0.00  0.00    -0.096 F 
ATOM      9  I   UNL d   1       2.993  -0.979  -2.397  0.00  0.00    -0.060 I 
ATOM     10  F2  UNL d   1       0.462  -2.824  -3.052  0.00  0.00    -0.096 F 
ATOM     11  F3  UNL d   1      -0.972  -4.526  -1.509  0.00  0.00    -0.097 F 
ATOM     12  F4  UNL d   1      -0.318  -4.893   1.114  0.00  0.00    -0.092 F 
ENDROOT
TORSDOF 0
ENDMDL
