MODEL 1
REMARK minimizedAffinity 9.0356741
REMARK minimizedRMSD -1
REMARK  0 active torsions:
REMARK  status: ('A' for Active; 'I' for Inactive)
ROOT
ATOM      1  C   UNL d   1      -0.110   1.246  -1.334  0.00  0.00     0.124 A 
ATOM      2  C1  UNL d   1      -1.112   0.308  -1.542  0.00  0.00     0.062 A 
ATOM      3  C2  UNL d   1      -0.839  -1.050  -1.407  0.00  0.00     0.162 A 
ATOM      4  C3  UNL d   1       0.443  -1.479  -1.060  0.00  0.00    -0.034 A 
ATOM      5  C4  UNL d   1       1.445  -0.530  -0.853  0.00  0.00     0.162 A 
ATOM      6  C5  UNL d   1       1.167   0.827  -0.990  0.00  0.00     0.062 A 
ATOM      7  F   UNL d   1       2.136   1.731  -0.788  0.00  0.00    -0.097 F 
ATOM      8  F1  UNL d   1       2.688  -0.907  -0.518  0.00  0.00    -0.096 F 
ATOM      9  I   UNL d   1       0.855  -3.508  -0.856  0.00  0.00    -0.060 I 
ATOM     10  F2  UNL d   1      -1.826  -1.934  -1.614  0.00  0.00    -0.096 F 
ATOM     11  F3  UNL d   1      -2.347   0.711  -1.876  0.00  0.00    -0.097 F 
ATOM     12  F4  UNL d   1      -0.376   2.552  -1.466  0.00  0.00    -0.092 F 
ENDROOT
TORSDOF 0
ENDMDL
