MODEL 1
REMARK minimizedAffinity 10.4578838
REMARK minimizedRMSD -1
REMARK  0 active torsions:
REMARK  status: ('A' for Active; 'I' for Inactive)
ROOT
ATOM      1  C   UNL d   1       2.028  -2.278  -0.597  0.00  0.00     0.124 A 
ATOM      2  C1  UNL d   1       0.920  -2.818  -1.234  0.00  0.00     0.062 A 
ATOM      3  C2  UNL d   1       0.019  -1.989  -1.895  0.00  0.00     0.162 A 
ATOM      4  C3  UNL d   1       0.222  -0.609  -1.924  0.00  0.00    -0.034 A 
ATOM      5  C4  UNL d   1       1.339  -0.073  -1.280  0.00  0.00     0.162 A 
ATOM      6  C5  UNL d   1       2.236  -0.906  -0.620  0.00  0.00     0.062 A 
ATOM      7  F   UNL d   1       3.306  -0.382  -0.005  0.00  0.00    -0.097 F 
ATOM      8  F1  UNL d   1       1.565   1.249  -1.287  0.00  0.00    -0.096 F 
ATOM      9  I   UNL d   1      -1.123   0.634  -2.911  0.00  0.00    -0.060 I 
ATOM     10  F2  UNL d   1      -1.043  -2.539  -2.503  0.00  0.00    -0.096 F 
ATOM     11  F3  UNL d   1       0.716  -4.143  -1.213  0.00  0.00    -0.097 F 
ATOM     12  F4  UNL d   1       2.893  -3.078   0.039  0.00  0.00    -0.092 F 
ENDROOT
TORSDOF 0
ENDMDL
