MODEL 1
REMARK minimizedAffinity 5.10451317
REMARK minimizedRMSD -1
REMARK  0 active torsions:
REMARK  status: ('A' for Active; 'I' for Inactive)
ROOT
ATOM      1  C   UNL d   1       1.515  -1.546  -0.983  0.00  0.00     0.124 A 
ATOM      2  C1  UNL d   1       0.203  -1.693  -1.411  0.00  0.00     0.062 A 
ATOM      3  C2  UNL d   1      -0.337  -2.963  -1.590  0.00  0.00     0.162 A 
ATOM      4  C3  UNL d   1       0.435  -4.098  -1.341  0.00  0.00    -0.034 A 
ATOM      5  C4  UNL d   1       1.754  -3.943  -0.912  0.00  0.00     0.162 A 
ATOM      6  C5  UNL d   1       2.289  -2.671  -0.734  0.00  0.00     0.062 A 
ATOM      7  F   UNL d   1       3.558  -2.532  -0.321  0.00  0.00    -0.097 F 
ATOM      8  F1  UNL d   1       2.524  -5.012  -0.664  0.00  0.00    -0.096 F 
ATOM      9  I   UNL d   1      -0.369  -5.999  -1.609  0.00  0.00    -0.060 I 
ATOM     10  F2  UNL d   1      -1.608  -3.074  -2.004  0.00  0.00    -0.096 F 
ATOM     11  F3  UNL d   1      -0.547  -0.608  -1.653  0.00  0.00    -0.097 F 
ATOM     12  F4  UNL d   1       2.033  -0.323  -0.812  0.00  0.00    -0.092 F 
ENDROOT
TORSDOF 0
ENDMDL
