MODEL 1
REMARK minimizedAffinity 1.73887122
REMARK minimizedRMSD -1
REMARK  0 active torsions:
REMARK  status: ('A' for Active; 'I' for Inactive)
ROOT
ATOM      1  C   UNL d   1       0.705   1.609  -1.809  0.00  0.00     0.124 A 
ATOM      2  C1  UNL d   1      -0.337   0.693  -1.824  0.00  0.00     0.062 A 
ATOM      3  C2  UNL d   1      -0.083  -0.659  -1.611  0.00  0.00     0.162 A 
ATOM      4  C3  UNL d   1       1.218  -1.103  -1.378  0.00  0.00    -0.034 A 
ATOM      5  C4  UNL d   1       2.262  -0.175  -1.365  0.00  0.00     0.162 A 
ATOM      6  C5  UNL d   1       2.003   1.175  -1.579  0.00  0.00     0.062 A 
ATOM      7  F   UNL d   1       3.011   2.059  -1.564  0.00  0.00    -0.097 F 
ATOM      8  F1  UNL d   1       3.525  -0.568  -1.144  0.00  0.00    -0.096 F 
ATOM      9  I   UNL d   1       1.602  -3.123  -1.058  0.00  0.00    -0.060 I 
ATOM     10  F2  UNL d   1      -1.110  -1.522  -1.631  0.00  0.00    -0.096 F 
ATOM     11  F3  UNL d   1      -1.591   1.110  -2.047  0.00  0.00    -0.097 F 
ATOM     12  F4  UNL d   1       0.459   2.909  -2.016  0.00  0.00    -0.092 F 
ENDROOT
TORSDOF 0
ENDMDL
