MODEL 1
REMARK minimizedAffinity -2.73317337
REMARK minimizedRMSD -1
REMARK  0 active torsions:
REMARK  status: ('A' for Active; 'I' for Inactive)
ROOT
ATOM      1  C   UNL d   1       2.837  -1.483  -1.210  0.00  0.00     0.124 A 
ATOM      2  C1  UNL d   1       2.658  -0.107  -1.211  0.00  0.00     0.062 A 
ATOM      3  C2  UNL d   1       1.390   0.434  -1.401  0.00  0.00     0.162 A 
ATOM      4  C3  UNL d   1       0.289  -0.403  -1.590  0.00  0.00    -0.034 A 
ATOM      5  C4  UNL d   1       0.478  -1.786  -1.589  0.00  0.00     0.162 A 
ATOM      6  C5  UNL d   1       1.747  -2.321  -1.399  0.00  0.00     0.062 A 
ATOM      7  F   UNL d   1       1.919  -3.651  -1.399  0.00  0.00    -0.097 F 
ATOM      8  F1  UNL d   1      -0.558  -2.619  -1.769  0.00  0.00    -0.096 F 
ATOM      9  I   UNL d   1      -1.609   0.402  -1.874  0.00  0.00    -0.060 I 
ATOM     10  F2  UNL d   1       1.246   1.767  -1.397  0.00  0.00    -0.096 F 
ATOM     11  F3  UNL d   1       3.710   0.705  -1.029  0.00  0.00    -0.097 F 
ATOM     12  F4  UNL d   1       4.059  -2.001  -1.029  0.00  0.00    -0.092 F 
ENDROOT
TORSDOF 0
ENDMDL
