MODEL 1
REMARK minimizedAffinity 10.6806202
REMARK minimizedRMSD -1
REMARK  0 active torsions:
REMARK  status: ('A' for Active; 'I' for Inactive)
ROOT
ATOM      1  N1  IND d   1       0.747   2.917   2.548  0.00  0.00    -0.196 N 
ATOM      2  C2  IND d   1       0.866   1.590   2.857  0.00  0.00     0.054 A 
ATOM      3  C3  IND d   1       0.693   0.832   1.751  0.00  0.00    -0.031 A 
ATOM      4  C4  IND d   1       0.306   1.562  -0.688  0.00  0.00     0.051 A 
ATOM      5  C5  IND d   1       0.087   2.669  -1.459  0.00  0.00    -0.031 A 
ATOM      6  C6  IND d   1       0.079   3.940  -0.924  0.00  0.00     0.015 A 
ATOM      7  C7  IND d   1       0.303   4.155   0.407  0.00  0.00    -0.016 A 
ATOM      8  C8  IND d   1       0.518   3.033   1.194  0.00  0.00    -0.047 A 
ATOM      9  C9  IND d   1       0.485   1.736   0.664  0.00  0.00    -0.096 A 
ATOM     10  HN1 IND d   1       0.805   3.569   3.105  0.00  0.00     0.298 HD
ENDROOT
TORSDOF 0
ENDMDL
