MODEL 1
REMARK minimizedAffinity 8.45196533
REMARK minimizedRMSD -1
REMARK  0 active torsions:
REMARK  status: ('A' for Active; 'I' for Inactive)
ROOT
ATOM      1  N1  IND d   1      -1.541  -3.568  -2.243  0.00  0.00    -0.196 N 
ATOM      2  C2  IND d   1      -0.698  -4.313  -1.466  0.00  0.00     0.054 A 
ATOM      3  C3  IND d   1       0.338  -3.558  -1.039  0.00  0.00    -0.031 A 
ATOM      4  C4  IND d   1       0.799  -1.052  -1.408  0.00  0.00     0.051 A 
ATOM      5  C5  IND d   1       0.330   0.041  -2.081  0.00  0.00    -0.031 A 
ATOM      6  C6  IND d   1      -0.810  -0.013  -2.856  0.00  0.00     0.015 A 
ATOM      7  C7  IND d   1      -1.534  -1.165  -2.978  0.00  0.00    -0.016 A 
ATOM      8  C8  IND d   1      -1.058  -2.279  -2.302  0.00  0.00    -0.047 A 
ATOM      9  C9  IND d   1       0.122  -2.241  -1.548  0.00  0.00    -0.096 A 
ATOM     10  HN1 IND d   1      -2.253  -3.856  -2.630  0.00  0.00     0.298 HD
ENDROOT
TORSDOF 0
ENDMDL
