MODEL 1
REMARK minimizedAffinity 3.04010558
REMARK minimizedRMSD -1
REMARK  0 active torsions:
REMARK  status: ('A' for Active; 'I' for Inactive)
ROOT
ATOM      1  N1  IND d   1       0.911   3.525  -0.893  0.00  0.00    -0.196 N 
ATOM      2  C2  IND d   1       1.228   4.717  -0.304  0.00  0.00     0.054 A 
ATOM      3  C3  IND d   1       1.297   4.575   1.039  0.00  0.00    -0.031 A 
ATOM      4  C4  IND d   1       1.026   2.456   2.476  0.00  0.00     0.051 A 
ATOM      5  C5  IND d   1       0.694   1.133   2.392  0.00  0.00    -0.031 A 
ATOM      6  C6  IND d   1       0.414   0.527   1.184  0.00  0.00     0.015 A 
ATOM      7  C7  IND d   1       0.467   1.221   0.009  0.00  0.00    -0.016 A 
ATOM      8  C8  IND d   1       0.797   2.567   0.091  0.00  0.00    -0.047 A 
ATOM      9  C9  IND d   1       1.041   3.198   1.318  0.00  0.00    -0.096 A 
ATOM     10  HN1 IND d   1       0.800   3.395  -1.735  0.00  0.00     0.298 HD
ENDROOT
TORSDOF 0
ENDMDL
