MODEL 1
REMARK minimizedAffinity 0.880540609
REMARK minimizedRMSD -1
REMARK  0 active torsions:
REMARK  status: ('A' for Active; 'I' for Inactive)
ROOT
ATOM      1  N1  IND d   1       0.475   2.580  -0.581  0.00  0.00    -0.196 N 
ATOM      2  C2  IND d   1       0.424   3.763   0.103  0.00  0.00     0.054 A 
ATOM      3  C3  IND d   1       0.556   3.544   1.431  0.00  0.00    -0.031 A 
ATOM      4  C4  IND d   1       0.971   1.338   2.691  0.00  0.00     0.051 A 
ATOM      5  C5  IND d   1       1.058  -0.012   2.500  0.00  0.00    -0.031 A 
ATOM      6  C6  IND d   1       0.956  -0.579   1.246  0.00  0.00     0.015 A 
ATOM      7  C7  IND d   1       0.773   0.189   0.130  0.00  0.00    -0.016 A 
ATOM      8  C8  IND d   1       0.678   1.560   0.322  0.00  0.00    -0.047 A 
ATOM      9  C9  IND d   1       0.738   2.137   1.597  0.00  0.00    -0.096 A 
ATOM     10  HN1 IND d   1       0.395   2.489  -1.432  0.00  0.00     0.298 HD
ENDROOT
TORSDOF 0
ENDMDL
