MODEL 1
REMARK minimizedAffinity -2.22961092
REMARK minimizedRMSD -1
REMARK  0 active torsions:
REMARK  status: ('A' for Active; 'I' for Inactive)
ROOT
ATOM      1  N1  IND d   1       0.703   3.940  -0.619  0.00  0.00    -0.196 N 
ATOM      2  C2  IND d   1       0.952   5.117   0.030  0.00  0.00     0.054 A 
ATOM      3  C3  IND d   1       1.124   4.898   1.353  0.00  0.00    -0.031 A 
ATOM      4  C4  IND d   1       1.143   2.677   2.654  0.00  0.00     0.051 A 
ATOM      5  C5  IND d   1       0.926   1.336   2.500  0.00  0.00    -0.031 A 
ATOM      6  C6  IND d   1       0.620   0.784   1.273  0.00  0.00     0.015 A 
ATOM      7  C7  IND d   1       0.531   1.553   0.147  0.00  0.00    -0.016 A 
ATOM      8  C8  IND d   1       0.743   2.915   0.302  0.00  0.00    -0.047 A 
ATOM      9  C9  IND d   1       1.012   3.488   1.552  0.00  0.00    -0.096 A 
ATOM     10  HN1 IND d   1       0.548   3.854  -1.460  0.00  0.00     0.298 HD
ENDROOT
TORSDOF 0
ENDMDL
