MODEL 1
REMARK minimizedAffinity -3.1085434
REMARK minimizedRMSD -1
REMARK  3 active torsions:
REMARK  status: ('A' for Active; 'I' for Inactive)
REMARK    1  A    between atoms: C3'_2  and  C2'_3 
REMARK    2  A    between atoms: C2'_3  and  C1'_4 
REMARK    3  A    between atoms: C1'_4  and  C1_5 
ROOT
ATOM      1  C1  N4B d   1       5.882   1.557   3.466  0.00  0.00    -0.075 A 
ATOM      2  C2  N4B d   1       5.762   0.325   2.786  0.00  0.00     0.002 A 
ATOM      3  C3  N4B d   1       5.755  -0.851   3.494  0.00  0.00     0.002 A 
ATOM      4  C4  N4B d   1       5.885  -0.822   4.875  0.00  0.00    -0.004 A 
ATOM      5  C5  N4B d   1       5.975   0.373   5.526  0.00  0.00     0.002 A 
ATOM      6  C6  N4B d   1       5.980   1.564   4.827  0.00  0.00     0.002 A 
ENDROOT
BRANCH   1   7
ATOM      7  C1' N4B d   1       5.981   2.865   2.729  0.00  0.00     0.057 C 
BRANCH   7   8
ATOM      8  C2' N4B d   1       5.983   4.010   3.737  0.00  0.00     0.009 C 
BRANCH   8   9
ATOM      9  C3' N4B d   1       5.575   5.328   3.101  0.00  0.00     0.004 C 
ATOM     10  C4' N4B d   1       5.176   5.180   1.663  0.00  0.00     0.003 C 
ENDBRANCH   8   9
ENDBRANCH   7   8
ENDBRANCH   1   7
TORSDOF 3
ENDMDL
