MODEL 1
REMARK minimizedAffinity 2.92388558
REMARK minimizedRMSD -1
REMARK  3 active torsions:
REMARK  status: ('A' for Active; 'I' for Inactive)
REMARK    1  A    between atoms: C3'_2  and  C2'_3 
REMARK    2  A    between atoms: C2'_3  and  C1'_4 
REMARK    3  A    between atoms: C1'_4  and  C1_5 
ROOT
ATOM      1  C1  N4B d   1       5.897   0.657   4.114  0.00  0.00    -0.075 A 
ATOM      2  C2  N4B d   1       5.893  -0.476   3.270  0.00  0.00     0.002 A 
ATOM      3  C3  N4B d   1       5.924  -1.737   3.814  0.00  0.00     0.002 A 
ATOM      4  C4  N4B d   1       5.979  -1.889   5.191  0.00  0.00    -0.004 A 
ATOM      5  C5  N4B d   1       5.957  -0.790   6.000  0.00  0.00     0.002 A 
ATOM      6  C6  N4B d   1       5.922   0.483   5.467  0.00  0.00     0.002 A 
ENDROOT
BRANCH   1   7
ATOM      7  C1' N4B d   1       5.950   2.056   3.564  0.00  0.00     0.057 C 
BRANCH   7   8
ATOM      8  C2' N4B d   1       4.544   2.488   3.157  0.00  0.00     0.009 C 
BRANCH   8   9
ATOM      9  C3' N4B d   1       3.879   1.472   2.245  0.00  0.00     0.004 C 
ATOM     10  C4' N4B d   1       3.308   2.091   1.004  0.00  0.00     0.003 C 
ENDBRANCH   8   9
ENDBRANCH   7   8
ENDBRANCH   1   7
TORSDOF 3
ENDMDL
