MODEL 1
REMARK minimizedAffinity 5.79020214
REMARK minimizedRMSD -1
REMARK  3 active torsions:
REMARK  status: ('A' for Active; 'I' for Inactive)
REMARK    1  A    between atoms: C3'_2  and  C2'_3 
REMARK    2  A    between atoms: C2'_3  and  C1'_4 
REMARK    3  A    between atoms: C1'_4  and  C1_5 
ROOT
ATOM      1  C1  N4B d   1       5.790   1.157   3.741  0.00  0.00    -0.075 A 
ATOM      2  C2  N4B d   1       5.427   0.270   4.778  0.00  0.00     0.002 A 
ATOM      3  C3  N4B d   1       5.270  -1.068   4.514  0.00  0.00     0.002 A 
ATOM      4  C4  N4B d   1       5.451  -1.538   3.222  0.00  0.00    -0.004 A 
ATOM      5  C5  N4B d   1       5.827  -0.680   2.231  0.00  0.00     0.002 A 
ATOM      6  C6  N4B d   1       5.993   0.667   2.483  0.00  0.00     0.002 A 
ENDROOT
BRANCH   1   7
ATOM      7  C1' N4B d   1       5.890   2.641   3.963  0.00  0.00     0.057 C 
BRANCH   7   8
ATOM      8  C2' N4B d   1       5.843   3.354   2.615  0.00  0.00     0.009 C 
BRANCH   8   9
ATOM      9  C3' N4B d   1       5.999   4.858   2.761  0.00  0.00     0.004 C 
ATOM     10  C4' N4B d   1       6.000   5.305   4.193  0.00  0.00     0.003 C 
ENDBRANCH   8   9
ENDBRANCH   7   8
ENDBRANCH   1   7
TORSDOF 3
ENDMDL
