MODEL 1
REMARK minimizedAffinity 1.1609385
REMARK minimizedRMSD -1
REMARK  3 active torsions:
REMARK  status: ('A' for Active; 'I' for Inactive)
REMARK    1  A    between atoms: C3'_2  and  C2'_3 
REMARK    2  A    between atoms: C2'_3  and  C1'_4 
REMARK    3  A    between atoms: C1'_4  and  C1_5 
ROOT
ATOM      1  C1  N4B d   1       5.919   0.616   4.997  0.00  0.00    -0.075 A 
ATOM      2  C2  N4B d   1       5.973   0.189   3.652  0.00  0.00     0.002 A 
ATOM      3  C3  N4B d   1       5.984  -1.152   3.358  0.00  0.00     0.002 A 
ATOM      4  C4  N4B d   1       5.961  -2.081   4.388  0.00  0.00    -0.004 A 
ATOM      5  C5  N4B d   1       5.884  -1.660   5.683  0.00  0.00     0.002 A 
ATOM      6  C6  N4B d   1       5.868  -0.315   5.993  0.00  0.00     0.002 A 
ENDROOT
BRANCH   1   7
ATOM      7  C1' N4B d   1       5.992   2.071   5.371  0.00  0.00     0.057 C 
BRANCH   7   8
ATOM      8  C2' N4B d   1       6.000   2.916   4.100  0.00  0.00     0.009 C 
BRANCH   8   9
ATOM      9  C3' N4B d   1       4.599   3.331   3.685  0.00  0.00     0.004 C 
ATOM     10  C4' N4B d   1       3.533   2.715   4.541  0.00  0.00     0.003 C 
ENDBRANCH   8   9
ENDBRANCH   7   8
ENDBRANCH   1   7
TORSDOF 3
ENDMDL
