MODEL 1
REMARK minimizedAffinity -1.6151613
REMARK minimizedRMSD -1
REMARK  3 active torsions:
REMARK  status: ('A' for Active; 'I' for Inactive)
REMARK    1  A    between atoms: C3'_2  and  C2'_3 
REMARK    2  A    between atoms: C2'_3  and  C1'_4 
REMARK    3  A    between atoms: C1'_4  and  C1_5 
ROOT
ATOM      1  C1  N4B d   1       5.896   1.422   3.916  0.00  0.00    -0.075 A 
ATOM      2  C2  N4B d   1       5.797   1.781   5.278  0.00  0.00     0.002 A 
ATOM      3  C3  N4B d   1       5.804   3.105   5.642  0.00  0.00     0.002 A 
ATOM      4  C4  N4B d   1       5.927   4.083   4.667  0.00  0.00    -0.004 A 
ATOM      5  C5  N4B d   1       5.997   3.729   3.351  0.00  0.00     0.002 A 
ATOM      6  C6  N4B d   1       5.988   2.402   2.971  0.00  0.00     0.002 A 
ENDROOT
BRANCH   1   7
ATOM      7  C1' N4B d   1       5.980  -0.014   3.477  0.00  0.00     0.057 C 
BRANCH   7   8
ATOM      8  C2' N4B d   1       5.312  -0.898   4.526  0.00  0.00     0.009 C 
BRANCH   8   9
ATOM      9  C3' N4B d   1       6.000  -2.246   4.655  0.00  0.00     0.004 C 
ATOM     10  C4' N4B d   1       5.875  -3.083   3.417  0.00  0.00     0.003 C 
ENDBRANCH   8   9
ENDBRANCH   7   8
ENDBRANCH   1   7
TORSDOF 3
ENDMDL
