MODEL 1
REMARK minimizedAffinity 7.08704567
REMARK minimizedRMSD -1
REMARK  3 active torsions:
REMARK  status: ('A' for Active; 'I' for Inactive)
REMARK    1  A    between atoms: C3'_2  and  C2'_3 
REMARK    2  A    between atoms: C2'_3  and  C1'_4 
REMARK    3  A    between atoms: C1'_4  and  C1_5 
ROOT
ATOM      1  C1  N4B d   1      -2.043   2.644   4.178  0.00  0.00    -0.075 A 
ATOM      2  C2  N4B d   1      -2.716   2.297   5.371  0.00  0.00     0.002 A 
ATOM      3  C3  N4B d   1      -3.121   1.001   5.578  0.00  0.00     0.002 A 
ATOM      4  C4  N4B d   1      -2.883   0.043   4.604  0.00  0.00    -0.004 A 
ATOM      5  C5  N4B d   1      -2.210   0.381   3.466  0.00  0.00     0.002 A 
ATOM      6  C6  N4B d   1      -1.793   1.679   3.246  0.00  0.00     0.002 A 
ENDROOT
BRANCH   1   7
ATOM      7  C1' N4B d   1      -1.657   4.064   3.869  0.00  0.00     0.057 C 
BRANCH   7   8
ATOM      8  C2' N4B d   1      -0.317   4.071   3.140  0.00  0.00     0.009 C 
BRANCH   8   9
ATOM      9  C3' N4B d   1      -0.474   4.387   1.663  0.00  0.00     0.004 C 
ATOM     10  C4' N4B d   1       0.354   3.495   0.787  0.00  0.00     0.003 C 
ENDBRANCH   8   9
ENDBRANCH   7   8
ENDBRANCH   1   7
TORSDOF 3
ENDMDL
