MODEL 1
REMARK minimizedAffinity 2.1505115
REMARK minimizedRMSD -1
REMARK  3 active torsions:
REMARK  status: ('A' for Active; 'I' for Inactive)
REMARK    1  A    between atoms: C3'_2  and  C2'_3 
REMARK    2  A    between atoms: C2'_3  and  C1'_4 
REMARK    3  A    between atoms: C1'_4  and  C1_5 
ROOT
ATOM      1  C1  N4B d   1       5.977   1.084   3.561  0.00  0.00    -0.075 A 
ATOM      2  C2  N4B d   1       5.999   1.394   4.939  0.00  0.00     0.002 A 
ATOM      3  C3  N4B d   1       5.989   0.384   5.870  0.00  0.00     0.002 A 
ATOM      4  C4  N4B d   1       5.938  -0.936   5.449  0.00  0.00    -0.004 A 
ATOM      5  C5  N4B d   1       5.943  -1.227   4.116  0.00  0.00     0.002 A 
ATOM      6  C6  N4B d   1       5.957  -0.223   3.169  0.00  0.00     0.002 A 
ENDROOT
BRANCH   1   7
ATOM      7  C1' N4B d   1       5.900   2.156   2.508  0.00  0.00     0.057 C 
BRANCH   7   8
ATOM      8  C2' N4B d   1       5.398   3.448   3.144  0.00  0.00     0.009 C 
BRANCH   8   9
ATOM      9  C3' N4B d   1       5.913   4.678   2.416  0.00  0.00     0.004 C 
ATOM     10  C4' N4B d   1       5.999   5.884   3.303  0.00  0.00     0.003 C 
ENDBRANCH   8   9
ENDBRANCH   7   8
ENDBRANCH   1   7
TORSDOF 3
ENDMDL
