MODEL 1
REMARK minimizedAffinity 11.5340271
REMARK minimizedRMSD -1
REMARK  3 active torsions:
REMARK  status: ('A' for Active; 'I' for Inactive)
REMARK    1  A    between atoms: C3'_2  and  C2'_3 
REMARK    2  A    between atoms: C2'_3  and  C1'_4 
REMARK    3  A    between atoms: C1'_4  and  C1_5 
ROOT
ATOM      1  C1  N4B d   1       4.373   2.504  -5.069  0.00  0.00    -0.075 A 
ATOM      2  C2  N4B d   1       3.500   1.496  -5.533  0.00  0.00     0.002 A 
ATOM      3  C3  N4B d   1       2.252   1.830  -6.000  0.00  0.00     0.002 A 
ATOM      4  C4  N4B d   1       1.851   3.157  -5.995  0.00  0.00    -0.004 A 
ATOM      5  C5  N4B d   1       2.710   4.128  -5.569  0.00  0.00     0.002 A 
ATOM      6  C6  N4B d   1       3.968   3.807  -5.101  0.00  0.00     0.002 A 
ENDROOT
BRANCH   1   7
ATOM      7  C1' N4B d   1       5.714   2.179  -4.470  0.00  0.00     0.057 C 
BRANCH   7   8
ATOM      8  C2' N4B d   1       5.549   1.050  -3.457  0.00  0.00     0.009 C 
BRANCH   8   9
ATOM      9  C3' N4B d   1       4.425   1.328  -2.473  0.00  0.00     0.004 C 
ATOM     10  C4' N4B d   1       3.619   0.106  -2.152  0.00  0.00     0.003 C 
ENDBRANCH   8   9
ENDBRANCH   7   8
ENDBRANCH   1   7
TORSDOF 3
ENDMDL
