MODEL 1
REMARK minimizedAffinity 1.06391859
REMARK minimizedRMSD -1
REMARK  3 active torsions:
REMARK  status: ('A' for Active; 'I' for Inactive)
REMARK    1  A    between atoms: C3'_2  and  C2'_3 
REMARK    2  A    between atoms: C2'_3  and  C1'_4 
REMARK    3  A    between atoms: C1'_4  and  C1_5 
ROOT
ATOM      1  C1  N4B d   1       5.433   1.973   4.524  0.00  0.00    -0.075 A 
ATOM      2  C2  N4B d   1       5.534   1.031   5.571  0.00  0.00     0.002 A 
ATOM      3  C3  N4B d   1       5.675  -0.304   5.282  0.00  0.00     0.002 A 
ATOM      4  C4  N4B d   1       5.699  -0.721   3.959  0.00  0.00    -0.004 A 
ATOM      5  C5  N4B d   1       5.626   0.198   2.954  0.00  0.00     0.002 A 
ATOM      6  C6  N4B d   1       5.487   1.544   3.230  0.00  0.00     0.002 A 
ENDROOT
BRANCH   1   7
ATOM      7  C1' N4B d   1       5.191   3.434   4.791  0.00  0.00     0.057 C 
BRANCH   7   8
ATOM      8  C2' N4B d   1       5.977   4.264   3.781  0.00  0.00     0.009 C 
BRANCH   8   9
ATOM      9  C3' N4B d   1       5.999   5.737   4.151  0.00  0.00     0.004 C 
ATOM     10  C4' N4B d   1       5.998   5.964   5.633  0.00  0.00     0.003 C 
ENDBRANCH   8   9
ENDBRANCH   7   8
ENDBRANCH   1   7
TORSDOF 3
ENDMDL
