MODEL 1
REMARK minimizedAffinity -0.881104946
REMARK minimizedRMSD -1
REMARK  1 active torsions:
REMARK  status: ('A' for Active; 'I' for Inactive)
REMARK    1  A    between atoms: C1_2  and  C2_3 
ROOT
ATOM      1  C2  UNL d   1       0.350  -1.403   1.075  0.00  0.00    -0.077 A 
ATOM      2  C3  UNL d   1       0.121  -1.523   2.453  0.00  0.00     0.002 A 
ATOM      3  C4  UNL d   1      -1.019  -0.960   3.030  0.00  0.00     0.002 A 
ATOM      4  C5  UNL d   1      -1.940  -0.278   2.237  0.00  0.00    -0.004 A 
ATOM      5  C6  UNL d   1      -1.720  -0.153   0.866  0.00  0.00     0.002 A 
ATOM      6  C7  UNL d   1      -0.580  -0.713   0.287  0.00  0.00     0.002 A 
ENDROOT
BRANCH   1   7
ATOM      7  C1  UNL d   1       1.554  -2.052   0.443  0.00  0.00     0.055 C 
ATOM      8  C   UNL d   1       1.807  -3.435   1.024  0.00  0.00     0.019 C 
ENDBRANCH   1   7
TORSDOF 1
ENDMDL
