MODEL 1
REMARK minimizedAffinity 3.03479099
REMARK minimizedRMSD -1
REMARK  1 active torsions:
REMARK  status: ('A' for Active; 'I' for Inactive)
REMARK    1  A    between atoms: C1_2  and  C2_3 
ROOT
ATOM      1  C2  UNL d   1      -0.680  -2.110   2.586  0.00  0.00    -0.077 A 
ATOM      2  C3  UNL d   1      -0.638  -1.137   1.577  0.00  0.00     0.002 A 
ATOM      3  C4  UNL d   1       0.454  -1.065   0.710  0.00  0.00     0.002 A 
ATOM      4  C5  UNL d   1       1.510  -1.966   0.840  0.00  0.00    -0.004 A 
ATOM      5  C6  UNL d   1       1.478  -2.936   1.841  0.00  0.00     0.002 A 
ATOM      6  C7  UNL d   1       0.388  -3.009   2.709  0.00  0.00     0.002 A 
ENDROOT
BRANCH   1   7
ATOM      7  C1  UNL d   1      -1.879  -2.221   3.490  0.00  0.00     0.055 C 
ATOM      8  C   UNL d   1      -1.929  -3.576   4.181  0.00  0.00     0.019 C 
ENDBRANCH   1   7
TORSDOF 1
ENDMDL
