MODEL 1
REMARK minimizedAffinity -3.46442056
REMARK minimizedRMSD -1
REMARK  1 active torsions:
REMARK  status: ('A' for Active; 'I' for Inactive)
REMARK    1  A    between atoms: C1_2  and  C2_3 
ROOT
ATOM      1  C2  UNL d   1       0.607  -2.789   1.584  0.00  0.00    -0.077 A 
ATOM      2  C3  UNL d   1      -0.717  -2.864   2.040  0.00  0.00     0.002 A 
ATOM      3  C4  UNL d   1      -1.102  -3.870   2.928  0.00  0.00     0.002 A 
ATOM      4  C5  UNL d   1      -0.169  -4.805   3.372  0.00  0.00    -0.004 A 
ATOM      5  C6  UNL d   1       1.149  -4.740   2.923  0.00  0.00     0.002 A 
ATOM      6  C7  UNL d   1       1.536  -3.736   2.034  0.00  0.00     0.002 A 
ENDROOT
BRANCH   1   7
ATOM      7  C1  UNL d   1       1.036  -1.676   0.665  0.00  0.00     0.055 C 
ATOM      8  C   UNL d   1      -0.164  -0.999   0.019  0.00  0.00     0.019 C 
ENDBRANCH   1   7
TORSDOF 1
ENDMDL
