MODEL 1
REMARK minimizedAffinity -3.43867421
REMARK minimizedRMSD -1
REMARK  1 active torsions:
REMARK  status: ('A' for Active; 'I' for Inactive)
REMARK    1  A    between atoms: C1_2  and  C2_3 
ROOT
ATOM      1  C2  UNL d   1       0.328  -2.149   1.892  0.00  0.00    -0.077 A 
ATOM      2  C3  UNL d   1      -0.702  -2.191   2.842  0.00  0.00     0.002 A 
ATOM      3  C4  UNL d   1      -1.811  -1.351   2.721  0.00  0.00     0.002 A 
ATOM      4  C5  UNL d   1      -1.902  -0.466   1.648  0.00  0.00    -0.004 A 
ATOM      5  C6  UNL d   1      -0.882  -0.415   0.699  0.00  0.00     0.002 A 
ATOM      6  C7  UNL d   1       0.227  -1.253   0.819  0.00  0.00     0.002 A 
ENDROOT
BRANCH   1   7
ATOM      7  C1  UNL d   1       1.500  -3.089   1.994  0.00  0.00     0.055 C 
ATOM      8  C   UNL d   1       1.042  -4.525   2.200  0.00  0.00     0.019 C 
ENDBRANCH   1   7
TORSDOF 1
ENDMDL
