MODEL 1
REMARK minimizedAffinity 3.25539422
REMARK minimizedRMSD -1
REMARK  1 active torsions:
REMARK  status: ('A' for Active; 'I' for Inactive)
REMARK    1  A    between atoms: C1_2  and  C2_3 
ROOT
ATOM      1  C2  UNL d   1      -4.557   1.635  -4.316  0.00  0.00    -0.077 A 
ATOM      2  C3  UNL d   1      -3.706   1.225  -5.353  0.00  0.00     0.002 A 
ATOM      3  C4  UNL d   1      -3.917   0.005  -5.998  0.00  0.00     0.002 A 
ATOM      4  C5  UNL d   1      -4.978  -0.813  -5.617  0.00  0.00    -0.004 A 
ATOM      5  C6  UNL d   1      -5.828  -0.415  -4.586  0.00  0.00     0.002 A 
ATOM      6  C7  UNL d   1      -5.619   0.803  -3.939  0.00  0.00     0.002 A 
ENDROOT
BRANCH   1   7
ATOM      7  C1  UNL d   1      -4.361   2.973  -3.652  0.00  0.00     0.055 C 
ATOM      8  C   UNL d   1      -2.990   3.072  -2.999  0.00  0.00     0.019 C 
ENDBRANCH   1   7
TORSDOF 1
ENDMDL
