MODEL 1
REMARK minimizedAffinity -2.60880804
REMARK minimizedRMSD -1
REMARK  1 active torsions:
REMARK  status: ('A' for Active; 'I' for Inactive)
REMARK    1  A    between atoms: C1_2  and  C2_3 
ROOT
ATOM      1  C2  UNL d   1       0.925   3.009  -3.284  0.00  0.00    -0.077 A 
ATOM      2  C3  UNL d   1       1.012   1.814  -4.014  0.00  0.00     0.002 A 
ATOM      3  C4  UNL d   1       2.224   1.127  -4.101  0.00  0.00     0.002 A 
ATOM      4  C5  UNL d   1       3.357   1.623  -3.459  0.00  0.00    -0.004 A 
ATOM      5  C6  UNL d   1       3.281   2.812  -2.733  0.00  0.00     0.002 A 
ATOM      6  C7  UNL d   1       2.070   3.501  -2.646  0.00  0.00     0.002 A 
ENDROOT
BRANCH   1   7
ATOM      7  C1  UNL d   1      -0.393   3.726  -3.148  0.00  0.00     0.055 C 
ATOM      8  C   UNL d   1      -1.428   2.854  -2.452  0.00  0.00     0.019 C 
ENDBRANCH   1   7
TORSDOF 1
ENDMDL
