MODEL 1
REMARK minimizedAffinity 1.29442072
REMARK minimizedRMSD -1
REMARK  1 active torsions:
REMARK  status: ('A' for Active; 'I' for Inactive)
REMARK    1  A    between atoms: C1_2  and  C2_3 
ROOT
ATOM      1  C2  UNL d   1      -1.015  -1.455   2.128  0.00  0.00    -0.077 A 
ATOM      2  C3  UNL d   1      -0.024  -0.657   1.540  0.00  0.00     0.002 A 
ATOM      3  C4  UNL d   1      -0.375   0.393   0.690  0.00  0.00     0.002 A 
ATOM      4  C5  UNL d   1      -1.716   0.657   0.423  0.00  0.00    -0.004 A 
ATOM      5  C6  UNL d   1      -2.710  -0.132   1.001  0.00  0.00     0.002 A 
ATOM      6  C7  UNL d   1      -2.361  -1.183   1.851  0.00  0.00     0.002 A 
ENDROOT
BRANCH   1   7
ATOM      7  C1  UNL d   1      -0.641  -2.557   3.085  0.00  0.00     0.055 C 
ATOM      8  C   UNL d   1      -1.846  -3.416   3.439  0.00  0.00     0.019 C 
ENDBRANCH   1   7
TORSDOF 1
ENDMDL
