MODEL 1
REMARK minimizedAffinity -0.626018286
REMARK minimizedRMSD -1
REMARK  0 active torsions:
REMARK  status: ('A' for Active; 'I' for Inactive)
ROOT
ATOM      1  C2' OXE d   1      -3.265  -0.237  -0.056  0.00  0.00     0.078 C 
ATOM      2  C1' OXE d   1      -2.699   0.176   2.662  0.00  0.00     0.078 C 
ATOM      3  C1  OXE d   1      -2.801   1.390   1.773  0.00  0.00    -0.078 A 
ATOM      4  C2  OXE d   1      -3.031   1.175   0.435  0.00  0.00    -0.078 A 
ATOM      5  C3  OXE d   1      -3.189   2.262  -0.420  0.00  0.00     0.003 A 
ATOM      6  C4  OXE d   1      -2.961   3.565   0.040  0.00  0.00    -0.002 A 
ATOM      7  C5  OXE d   1      -2.686   3.803   1.391  0.00  0.00    -0.002 A 
ATOM      8  C6  OXE d   1      -2.644   2.732   2.277  0.00  0.00     0.003 A 
ENDROOT
TORSDOF 0
ENDMDL
