MODEL 1
REMARK minimizedAffinity 0.315652579
REMARK minimizedRMSD -1
REMARK  0 active torsions:
REMARK  status: ('A' for Active; 'I' for Inactive)
ROOT
ATOM      1  C2' OXE d   1      -5.851  -1.528   2.695  0.00  0.00     0.078 C 
ATOM      2  C1' OXE d   1      -5.188   0.261   0.637  0.00  0.00     0.078 C 
ATOM      3  C1  OXE d   1      -4.180   0.053   1.739  0.00  0.00    -0.078 A 
ATOM      4  C2  OXE d   1      -4.532  -0.789   2.767  0.00  0.00    -0.078 A 
ATOM      5  C3  OXE d   1      -3.618  -1.060   3.781  0.00  0.00     0.003 A 
ATOM      6  C4  OXE d   1      -2.404  -0.365   3.845  0.00  0.00    -0.002 A 
ATOM      7  C5  OXE d   1      -2.043   0.527   2.829  0.00  0.00    -0.002 A 
ATOM      8  C6  OXE d   1      -2.899   0.715   1.750  0.00  0.00     0.003 A 
ENDROOT
TORSDOF 0
ENDMDL
