MODEL 1
REMARK minimizedAffinity 3.12014985
REMARK minimizedRMSD -1
REMARK  0 active torsions:
REMARK  status: ('A' for Active; 'I' for Inactive)
ROOT
ATOM      1  C2' OXE d   1      -3.263   0.099   0.048  0.00  0.00     0.078 C 
ATOM      2  C1' OXE d   1      -1.106   1.629  -0.892  0.00  0.00     0.078 C 
ATOM      3  C1  OXE d   1      -2.301   2.364  -0.338  0.00  0.00    -0.078 A 
ATOM      4  C2  OXE d   1      -3.371   1.608   0.076  0.00  0.00    -0.078 A 
ATOM      5  C3  OXE d   1      -4.476   2.233   0.646  0.00  0.00     0.003 A 
ATOM      6  C4  OXE d   1      -4.572   3.630   0.659  0.00  0.00    -0.002 A 
ATOM      7  C5  OXE d   1      -3.510   4.419   0.205  0.00  0.00    -0.002 A 
ATOM      8  C6  OXE d   1      -2.352   3.802  -0.257  0.00  0.00     0.003 A 
ENDROOT
TORSDOF 0
ENDMDL
