MODEL 1
REMARK minimizedAffinity 4.78866959
REMARK minimizedRMSD -1
REMARK  0 active torsions:
REMARK  status: ('A' for Active; 'I' for Inactive)
ROOT
ATOM      1  C2' OXE d   1      -3.263   2.413   0.376  0.00  0.00     0.078 C 
ATOM      2  C1' OXE d   1      -3.610  -0.211  -0.559  0.00  0.00     0.078 C 
ATOM      3  C1  OXE d   1      -3.131  -0.027   0.859  0.00  0.00    -0.078 A 
ATOM      4  C2  OXE d   1      -2.919   1.260   1.293  0.00  0.00    -0.078 A 
ATOM      5  C3  OXE d   1      -2.530   1.488   2.610  0.00  0.00     0.003 A 
ATOM      6  C4  OXE d   1      -2.205   0.415   3.449  0.00  0.00    -0.002 A 
ATOM      7  C5  OXE d   1      -2.376  -0.904   3.014  0.00  0.00    -0.002 A 
ATOM      8  C6  OXE d   1      -2.878  -1.141   1.739  0.00  0.00     0.003 A 
ENDROOT
TORSDOF 0
ENDMDL
