MODEL 1
REMARK minimizedAffinity -3.85337901
REMARK minimizedRMSD -1
REMARK  0 active torsions:
REMARK  status: ('A' for Active; 'I' for Inactive)
ROOT
ATOM      1  C2' OXE d   1      -4.220  -0.494  -0.249  0.00  0.00     0.078 C 
ATOM      2  C1' OXE d   1      -1.564  -1.376  -0.024  0.00  0.00     0.078 C 
ATOM      3  C1  OXE d   1      -2.229  -0.822   1.212  0.00  0.00    -0.078 A 
ATOM      4  C2  OXE d   1      -3.513  -0.350   1.081  0.00  0.00    -0.078 A 
ATOM      5  C3  OXE d   1      -4.191   0.121   2.201  0.00  0.00     0.003 A 
ATOM      6  C4  OXE d   1      -3.527   0.260   3.426  0.00  0.00    -0.002 A 
ATOM      7  C5  OXE d   1      -2.206  -0.178   3.571  0.00  0.00    -0.002 A 
ATOM      8  C6  OXE d   1      -1.558  -0.759   2.487  0.00  0.00     0.003 A 
ENDROOT
TORSDOF 0
ENDMDL
