MODEL 1
REMARK minimizedAffinity -1.56296456
REMARK minimizedRMSD -1
REMARK  0 active torsions:
REMARK  status: ('A' for Active; 'I' for Inactive)
ROOT
ATOM      1  C2' OXE d   1      -2.822  -1.306   0.788  0.00  0.00     0.078 C 
ATOM      2  C1' OXE d   1      -2.407  -0.013   3.245  0.00  0.00     0.078 C 
ATOM      3  C1  OXE d   1      -2.623   0.847   2.025  0.00  0.00    -0.078 A 
ATOM      4  C2  OXE d   1      -2.779   0.207   0.819  0.00  0.00    -0.078 A 
ATOM      5  C3  OXE d   1      -3.036   0.952  -0.328  0.00  0.00     0.003 A 
ATOM      6  C4  OXE d   1      -2.985   2.350  -0.292  0.00  0.00    -0.002 A 
ATOM      7  C5  OXE d   1      -2.788   3.022   0.919  0.00  0.00    -0.002 A 
ATOM      8  C6  OXE d   1      -2.649   2.288   2.091  0.00  0.00     0.003 A 
ENDROOT
TORSDOF 0
ENDMDL
