MODEL 1
REMARK minimizedAffinity -1.55883598
REMARK minimizedRMSD -1
REMARK  0 active torsions:
REMARK  status: ('A' for Active; 'I' for Inactive)
ROOT
ATOM      1  C2' OXE d   1      -2.499  -1.075   1.058  0.00  0.00     0.078 C 
ATOM      2  C1' OXE d   1      -1.966   0.634   3.220  0.00  0.00     0.078 C 
ATOM      3  C1  OXE d   1      -2.422   1.259   1.925  0.00  0.00    -0.078 A 
ATOM      4  C2  OXE d   1      -2.636   0.419   0.858  0.00  0.00    -0.078 A 
ATOM      5  C3  OXE d   1      -3.110   0.938  -0.343  0.00  0.00     0.003 A 
ATOM      6  C4  OXE d   1      -3.223   2.322  -0.523  0.00  0.00    -0.002 A 
ATOM      7  C5  OXE d   1      -2.973   3.198   0.539  0.00  0.00    -0.002 A 
ATOM      8  C6  OXE d   1      -2.613   2.681   1.779  0.00  0.00     0.003 A 
ENDROOT
TORSDOF 0
ENDMDL
