MODEL 1
REMARK minimizedAffinity 1.8496139
REMARK minimizedRMSD -1
REMARK  0 active torsions:
REMARK  status: ('A' for Active; 'I' for Inactive)
ROOT
ATOM      1  C2' OXE d   1      -2.904   4.134  -0.280  0.00  0.00     0.078 C 
ATOM      2  C1' OXE d   1      -2.686   4.166   2.519  0.00  0.00     0.078 C 
ATOM      3  C1  OXE d   1      -2.897   2.833   1.845  0.00  0.00    -0.078 A 
ATOM      4  C2  OXE d   1      -3.049   2.832   0.479  0.00  0.00    -0.078 A 
ATOM      5  C3  OXE d   1      -3.192   1.625  -0.198  0.00  0.00     0.003 A 
ATOM      6  C4  OXE d   1      -3.335   0.426   0.512  0.00  0.00    -0.002 A 
ATOM      7  C5  OXE d   1      -3.223   0.410   1.906  0.00  0.00    -0.002 A 
ATOM      8  C6  OXE d   1      -2.962   1.596   2.583  0.00  0.00     0.003 A 
ENDROOT
TORSDOF 0
ENDMDL
