MODEL 1
REMARK minimizedAffinity 0.652892053
REMARK minimizedRMSD -1
REMARK  0 active torsions:
REMARK  status: ('A' for Active; 'I' for Inactive)
ROOT
ATOM      1  C2' OXE d   1      -3.693  -1.725   2.967  0.00  0.00     0.078 C 
ATOM      2  C1' OXE d   1      -2.685   0.596   4.182  0.00  0.00     0.078 C 
ATOM      3  C1  OXE d   1      -2.875   0.611   2.686  0.00  0.00    -0.078 A 
ATOM      4  C2  OXE d   1      -3.325  -0.545   2.094  0.00  0.00    -0.078 A 
ATOM      5  C3  OXE d   1      -3.569  -0.568   0.724  0.00  0.00     0.003 A 
ATOM      6  C4  OXE d   1      -3.216   0.524  -0.077  0.00  0.00    -0.002 A 
ATOM      7  C5  OXE d   1      -2.720   1.698   0.500  0.00  0.00    -0.002 A 
ATOM      8  C6  OXE d   1      -2.584   1.772   1.882  0.00  0.00     0.003 A 
ENDROOT
TORSDOF 0
ENDMDL
