MODEL 1
REMARK minimizedAffinity -2.32965732
REMARK minimizedRMSD -1
REMARK  0 active torsions:
REMARK  status: ('A' for Active; 'I' for Inactive)
ROOT
ATOM      1  C2' OXE d   1      -2.741  -1.207   0.881  0.00  0.00     0.078 C 
ATOM      2  C1' OXE d   1      -2.521   0.011   3.401  0.00  0.00     0.078 C 
ATOM      3  C1  OXE d   1      -2.740   0.903   2.206  0.00  0.00    -0.078 A 
ATOM      4  C2  OXE d   1      -2.800   0.303   0.971  0.00  0.00    -0.078 A 
ATOM      5  C3  OXE d   1      -3.055   1.075  -0.159  0.00  0.00     0.003 A 
ATOM      6  C4  OXE d   1      -3.098   2.471  -0.069  0.00  0.00    -0.002 A 
ATOM      7  C5  OXE d   1      -2.999   3.106   1.174  0.00  0.00    -0.002 A 
ATOM      8  C6  OXE d   1      -2.863   2.335   2.324  0.00  0.00     0.003 A 
ENDROOT
TORSDOF 0
ENDMDL
