MODEL 1
REMARK minimizedAffinity -2.92896271
REMARK minimizedRMSD -1
REMARK  0 active torsions:
REMARK  status: ('A' for Active; 'I' for Inactive)
ROOT
ATOM      1  C2' OXE d   1      -2.583  -0.427   3.060  0.00  0.00     0.078 C 
ATOM      2  C1' OXE d   1      -2.146  -1.617   0.556  0.00  0.00     0.078 C 
ATOM      3  C1  OXE d   1      -2.248  -0.113   0.612  0.00  0.00    -0.078 A 
ATOM      4  C2  OXE d   1      -2.509   0.458   1.834  0.00  0.00    -0.078 A 
ATOM      5  C3  OXE d   1      -2.558   1.844   1.951  0.00  0.00     0.003 A 
ATOM      6  C4  OXE d   1      -2.498   2.654   0.811  0.00  0.00    -0.002 A 
ATOM      7  C5  OXE d   1      -2.273   2.090  -0.450  0.00  0.00    -0.002 A 
ATOM      8  C6  OXE d   1      -2.103   0.715  -0.560  0.00  0.00     0.003 A 
ENDROOT
TORSDOF 0
ENDMDL
