MODEL 1
REMARK minimizedAffinity 13.2909975
REMARK minimizedRMSD -1
REMARK  0 active torsions:
REMARK  status: ('A' for Active; 'I' for Inactive)
ROOT
ATOM      1  C2' OXE d   1      -5.293  -1.843   3.513  0.00  0.00     0.078 C 
ATOM      2  C1' OXE d   1      -4.823   0.105   5.479  0.00  0.00     0.078 C 
ATOM      3  C1  OXE d   1      -3.878   0.048   4.305  0.00  0.00    -0.078 A 
ATOM      4  C2  OXE d   1      -4.088  -0.938   3.371  0.00  0.00    -0.078 A 
ATOM      5  C3  OXE d   1      -3.279  -1.001   2.241  0.00  0.00     0.003 A 
ATOM      6  C4  OXE d   1      -2.161  -0.167   2.122  0.00  0.00    -0.002 A 
ATOM      7  C5  OXE d   1      -1.905   0.819   3.082  0.00  0.00    -0.002 A 
ATOM      8  C6  OXE d   1      -2.777   0.967   4.155  0.00  0.00     0.003 A 
ENDROOT
TORSDOF 0
ENDMDL
