MODEL 1
REMARK minimizedAffinity -2.43739486
REMARK minimizedRMSD -1
REMARK  0 active torsions:
REMARK  status: ('A' for Active; 'I' for Inactive)
ROOT
ATOM      1  C2' OXE d   1      -2.539  -1.427   0.811  0.00  0.00     0.078 C 
ATOM      2  C1' OXE d   1      -2.310  -0.206   3.328  0.00  0.00     0.078 C 
ATOM      3  C1  OXE d   1      -2.472   0.688   2.125  0.00  0.00    -0.078 A 
ATOM      4  C2  OXE d   1      -2.536   0.084   0.892  0.00  0.00    -0.078 A 
ATOM      5  C3  OXE d   1      -2.741   0.860  -0.246  0.00  0.00     0.003 A 
ATOM      6  C4  OXE d   1      -2.727   2.257  -0.163  0.00  0.00    -0.002 A 
ATOM      7  C5  OXE d   1      -2.623   2.894   1.079  0.00  0.00    -0.002 A 
ATOM      8  C6  OXE d   1      -2.538   2.125   2.234  0.00  0.00     0.003 A 
ENDROOT
TORSDOF 0
ENDMDL
