MODEL 1
REMARK minimizedAffinity -2.53852415
REMARK minimizedRMSD -1
REMARK  0 active torsions:
REMARK  status: ('A' for Active; 'I' for Inactive)
ROOT
ATOM      1  C2' OXE d   1      -5.159   2.111   5.032  0.00  0.00     0.078 C 
ATOM      2  C1' OXE d   1      -3.371   3.408   3.300  0.00  0.00     0.078 C 
ATOM      3  C1  OXE d   1      -3.375   1.899   3.307  0.00  0.00    -0.078 A 
ATOM      4  C2  OXE d   1      -4.220   1.273   4.192  0.00  0.00    -0.078 A 
ATOM      5  C3  OXE d   1      -4.302  -0.116   4.201  0.00  0.00     0.003 A 
ATOM      6  C4  OXE d   1      -3.422  -0.883   3.427  0.00  0.00    -0.002 A 
ATOM      7  C5  OXE d   1      -2.526  -0.265   2.548  0.00  0.00    -0.002 A 
ATOM      8  C6  OXE d   1      -2.519   1.121   2.445  0.00  0.00     0.003 A 
ENDROOT
TORSDOF 0
ENDMDL
