MODEL 1
REMARK minimizedAffinity 7.11158609
REMARK minimizedRMSD -1
REMARK  0 active torsions:
REMARK  status: ('A' for Active; 'I' for Inactive)
ROOT
ATOM      1  C2' OXE d   1      -2.176   1.391   0.508  0.00  0.00     0.078 C 
ATOM      2  C1' OXE d   1      -4.643   0.122   0.079  0.00  0.00     0.078 C 
ATOM      3  C1  OXE d   1      -4.017  -0.000   1.446  0.00  0.00    -0.078 A 
ATOM      4  C2  OXE d   1      -2.788   0.584   1.633  0.00  0.00    -0.078 A 
ATOM      5  C3  OXE d   1      -2.191   0.548   2.890  0.00  0.00     0.003 A 
ATOM      6  C4  OXE d   1      -2.759  -0.209   3.922  0.00  0.00    -0.002 A 
ATOM      7  C5  OXE d   1      -3.992  -0.845   3.741  0.00  0.00    -0.002 A 
ATOM      8  C6  OXE d   1      -4.653  -0.716   2.524  0.00  0.00     0.003 A 
ENDROOT
TORSDOF 0
ENDMDL
