MODEL 1
REMARK minimizedAffinity 3.2500267
REMARK minimizedRMSD -1
REMARK  0 active torsions:
REMARK  status: ('A' for Active; 'I' for Inactive)
ROOT
ATOM      1  C2' OXE d   1       3.742   2.625   1.875  0.00  0.00     0.078 C 
ATOM      2  C1' OXE d   1       5.611   3.922   3.518  0.00  0.00     0.078 C 
ATOM      3  C1  OXE d   1       5.312   2.471   3.802  0.00  0.00    -0.078 A 
ATOM      4  C2  OXE d   1       4.361   1.858   3.022  0.00  0.00    -0.078 A 
ATOM      5  C3  OXE d   1       4.087   0.506   3.206  0.00  0.00     0.003 A 
ATOM      6  C4  OXE d   1       4.657  -0.194   4.277  0.00  0.00    -0.002 A 
ATOM      7  C5  OXE d   1       5.598   0.423   5.108  0.00  0.00    -0.002 A 
ATOM      8  C6  OXE d   1       5.967   1.740   4.858  0.00  0.00     0.003 A 
ENDROOT
TORSDOF 0
ENDMDL
