MODEL 1
REMARK minimizedAffinity 4.26881552
REMARK minimizedRMSD -1
REMARK  0 active torsions:
REMARK  status: ('A' for Active; 'I' for Inactive)
ROOT
ATOM      1  C2' OXE d   1      -4.206   2.584   5.752  0.00  0.00     0.078 C 
ATOM      2  C1' OXE d   1      -3.199   3.403   3.263  0.00  0.00     0.078 C 
ATOM      3  C1  OXE d   1      -3.465   1.932   3.464  0.00  0.00    -0.078 A 
ATOM      4  C2  OXE d   1      -3.914   1.535   4.701  0.00  0.00    -0.078 A 
ATOM      5  C3  OXE d   1      -4.227   0.197   4.924  0.00  0.00     0.003 A 
ATOM      6  C4  OXE d   1      -3.943  -0.769   3.950  0.00  0.00    -0.002 A 
ATOM      7  C5  OXE d   1      -3.449  -0.390   2.697  0.00  0.00    -0.002 A 
ATOM      8  C6  OXE d   1      -3.245   0.958   2.424  0.00  0.00     0.003 A 
ENDROOT
TORSDOF 0
ENDMDL
