MODEL 1
REMARK minimizedAffinity 11.1347628
REMARK minimizedRMSD -1
REMARK  0 active torsions:
REMARK  status: ('A' for Active; 'I' for Inactive)
ROOT
ATOM      1  C4' PXY d   1      -4.940   3.895   0.515  0.00  0.00     0.077 C 
ATOM      2  C1' PXY d   1      -5.995   5.601   5.936  0.00  0.00     0.077 C 
ATOM      3  C1  PXY d   1      -5.709   5.145   4.519  0.00  0.00    -0.082 A 
ATOM      4  C2  PXY d   1      -5.982   5.950   3.505  0.00  0.00     0.003 A 
ATOM      5  C3  PXY d   1      -5.760   5.542   2.215  0.00  0.00     0.003 A 
ATOM      6  C4  PXY d   1      -5.203   4.317   1.963  0.00  0.00    -0.082 A 
ATOM      7  C5  PXY d   1      -4.912   3.493   2.992  0.00  0.00     0.003 A 
ATOM      8  C6  PXY d   1      -5.183   3.911   4.292  0.00  0.00     0.003 A 
ENDROOT
TORSDOF 0
ENDMDL
