MODEL 1
REMARK minimizedAffinity 4.71216202
REMARK minimizedRMSD -1
REMARK  0 active torsions:
REMARK  status: ('A' for Active; 'I' for Inactive)
ROOT
ATOM      1  C4' PXY d   1       1.286  -2.843  -0.839  0.00  0.00     0.077 C 
ATOM      2  C1' PXY d   1       4.366   1.705   0.961  0.00  0.00     0.077 C 
ATOM      3  C1  PXY d   1       3.551   0.521   0.482  0.00  0.00    -0.082 A 
ATOM      4  C2  PXY d   1       3.507  -0.581   1.212  0.00  0.00     0.003 A 
ATOM      5  C3  PXY d   1       2.800  -1.673   0.778  0.00  0.00     0.003 A 
ATOM      6  C4  PXY d   1       2.088  -1.618  -0.390  0.00  0.00    -0.082 A 
ATOM      7  C5  PXY d   1       2.120  -0.494  -1.136  0.00  0.00     0.003 A 
ATOM      8  C6  PXY d   1       2.877   0.589  -0.698  0.00  0.00     0.003 A 
ENDROOT
TORSDOF 0
ENDMDL
