MODEL 1
REMARK minimizedAffinity 3.03378224
REMARK minimizedRMSD -1
REMARK  0 active torsions:
REMARK  status: ('A' for Active; 'I' for Inactive)
ROOT
ATOM      1  C4' PXY d   1      -5.726   5.999   5.999  0.00  0.00     0.077 C 
ATOM      2  C1' PXY d   1      -4.035   2.722   1.548  0.00  0.00     0.077 C 
ATOM      3  C1  PXY d   1      -4.466   3.586   2.717  0.00  0.00    -0.082 A 
ATOM      4  C2  PXY d   1      -5.578   3.293   3.371  0.00  0.00     0.003 A 
ATOM      5  C3  PXY d   1      -6.000   4.082   4.410  0.00  0.00     0.003 A 
ATOM      6  C4  PXY d   1      -5.247   5.150   4.819  0.00  0.00    -0.082 A 
ATOM      7  C5  PXY d   1      -4.105   5.449   4.164  0.00  0.00     0.003 A 
ATOM      8  C6  PXY d   1      -3.716   4.660   3.085  0.00  0.00     0.003 A 
ENDROOT
TORSDOF 0
ENDMDL
