MODEL 1
REMARK minimizedAffinity 9.6173315
REMARK minimizedRMSD -1
REMARK  0 active torsions:
REMARK  status: ('A' for Active; 'I' for Inactive)
ROOT
ATOM      1  C4' PXY d   1      -0.918  -0.465  -3.240  0.00  0.00     0.077 C 
ATOM      2  C1' PXY d   1      -6.000   1.068  -5.528  0.00  0.00     0.077 C 
ATOM      3  C1  PXY d   1      -4.661   0.668  -4.939  0.00  0.00    -0.082 A 
ATOM      4  C2  PXY d   1      -4.623  -0.108  -3.869  0.00  0.00     0.003 A 
ATOM      5  C3  PXY d   1      -3.422  -0.453  -3.305  0.00  0.00     0.003 A 
ATOM      6  C4  PXY d   1      -2.246  -0.043  -3.874  0.00  0.00    -0.082 A 
ATOM      7  C5  PXY d   1      -2.276   0.740  -4.972  0.00  0.00     0.003 A 
ATOM      8  C6  PXY d   1      -3.507   1.113  -5.506  0.00  0.00     0.003 A 
ENDROOT
TORSDOF 0
ENDMDL
