MODEL 1
REMARK minimizedAffinity 6.17109632
REMARK minimizedRMSD -1
REMARK  0 active torsions:
REMARK  status: ('A' for Active; 'I' for Inactive)
ROOT
ATOM      1  C4' PXY d   1       2.129  -1.013  -1.524  0.00  0.00     0.077 C 
ATOM      2  C1' PXY d   1       3.189   3.534   1.884  0.00  0.00     0.077 C 
ATOM      3  C1  PXY d   1       2.899   2.347   0.987  0.00  0.00    -0.082 A 
ATOM      4  C2  PXY d   1       3.483   1.185   1.231  0.00  0.00     0.003 A 
ATOM      5  C3  PXY d   1       3.258   0.109   0.410  0.00  0.00     0.003 A 
ATOM      6  C4  PXY d   1       2.384   0.210  -0.639  0.00  0.00    -0.082 A 
ATOM      7  C5  PXY d   1       1.776   1.389  -0.888  0.00  0.00     0.003 A 
ATOM      8  C6  PXY d   1       2.051   2.480  -0.068  0.00  0.00     0.003 A 
ENDROOT
TORSDOF 0
ENDMDL
