MODEL 1
REMARK minimizedAffinity 5.28448629
REMARK minimizedRMSD -1
REMARK  0 active torsions:
REMARK  status: ('A' for Active; 'I' for Inactive)
ROOT
ATOM      1  C4' PXY d   1       1.044  -2.123  -1.135  0.00  0.00     0.077 C 
ATOM      2  C1' PXY d   1       4.516   1.946   1.055  0.00  0.00     0.077 C 
ATOM      3  C1  PXY d   1       3.612   0.870   0.487  0.00  0.00    -0.082 A 
ATOM      4  C2  PXY d   1       2.946   1.099  -0.633  0.00  0.00     0.003 A 
ATOM      5  C3  PXY d   1       2.100   0.149  -1.143  0.00  0.00     0.003 A 
ATOM      6  C4  PXY d   1       1.975  -1.069  -0.530  0.00  0.00    -0.082 A 
ATOM      7  C5  PXY d   1       2.660  -1.315   0.607  0.00  0.00     0.003 A 
ATOM      8  C6  PXY d   1       3.482  -0.322   1.131  0.00  0.00     0.003 A 
ENDROOT
TORSDOF 0
ENDMDL
