MODEL 1
REMARK minimizedAffinity 7.25376606
REMARK minimizedRMSD -1
REMARK  0 active torsions:
REMARK  status: ('A' for Active; 'I' for Inactive)
ROOT
ATOM      1  C4' PXY d   1       4.343   2.551   1.592  0.00  0.00     0.077 C 
ATOM      2  C1' PXY d   1       1.719  -1.536  -1.541  0.00  0.00     0.077 C 
ATOM      3  C1  PXY d   1       2.402  -0.470  -0.708  0.00  0.00    -0.082 A 
ATOM      4  C2  PXY d   1       2.673   0.708  -1.248  0.00  0.00     0.003 A 
ATOM      5  C3  PXY d   1       3.320   1.672  -0.519  0.00  0.00     0.003 A 
ATOM      6  C4  PXY d   1       3.645   1.448   0.792  0.00  0.00    -0.082 A 
ATOM      7  C5  PXY d   1       3.362   0.253   1.353  0.00  0.00     0.003 A 
ATOM      8  C6  PXY d   1       2.743  -0.727   0.584  0.00  0.00     0.003 A 
ENDROOT
TORSDOF 0
ENDMDL
