MODEL 1
REMARK minimizedAffinity 8.202878
REMARK minimizedRMSD -1
REMARK  0 active torsions:
REMARK  status: ('A' for Active; 'I' for Inactive)
ROOT
ATOM      1  C4' PXY d   1      -6.000   5.398   3.348  0.00  0.00     0.077 C 
ATOM      2  C1' PXY d   1      -0.764   5.999   5.723  0.00  0.00     0.077 C 
ATOM      3  C1  PXY d   1      -2.142   5.839   5.111  0.00  0.00    -0.082 A 
ATOM      4  C2  PXY d   1      -2.258   5.575   3.820  0.00  0.00     0.003 A 
ATOM      5  C3  PXY d   1      -3.497   5.459   3.245  0.00  0.00     0.003 A 
ATOM      6  C4  PXY d   1      -4.628   5.559   4.009  0.00  0.00    -0.082 A 
ATOM      7  C5  PXY d   1      -4.518   5.817   5.330  0.00  0.00     0.003 A 
ATOM      8  C6  PXY d   1      -3.252   5.973   5.887  0.00  0.00     0.003 A 
ENDROOT
TORSDOF 0
ENDMDL
