MODEL 1
REMARK minimizedAffinity 3.23390603
REMARK minimizedRMSD -1
REMARK  0 active torsions:
REMARK  status: ('A' for Active; 'I' for Inactive)
ROOT
ATOM      1  C4' PXY d   1       3.669   1.942   0.861  0.00  0.00     0.077 C 
ATOM      2  C1' PXY d   1       1.875  -3.152  -1.199  0.00  0.00     0.077 C 
ATOM      3  C1  PXY d   1       2.347  -1.812  -0.671  0.00  0.00    -0.082 A 
ATOM      4  C2  PXY d   1       2.879  -1.736   0.538  0.00  0.00     0.003 A 
ATOM      5  C3  PXY d   1       3.282  -0.526   1.043  0.00  0.00     0.003 A 
ATOM      6  C4  PXY d   1       3.188   0.608   0.283  0.00  0.00    -0.082 A 
ATOM      7  C5  PXY d   1       2.656   0.537  -0.956  0.00  0.00     0.003 A 
ATOM      8  C6  PXY d   1       2.215  -0.693  -1.435  0.00  0.00     0.003 A 
ENDROOT
TORSDOF 0
ENDMDL
