MODEL 1
REMARK minimizedAffinity 15.8340807
REMARK minimizedRMSD -1
REMARK  0 active torsions:
REMARK  status: ('A' for Active; 'I' for Inactive)
ROOT
ATOM      1  C4' PXY d   1       3.557   2.691   1.532  0.00  0.00     0.077 C 
ATOM      2  C1' PXY d   1       1.633  -1.575  -1.861  0.00  0.00     0.077 C 
ATOM      3  C1  PXY d   1       2.135  -0.463  -0.961  0.00  0.00    -0.082 A 
ATOM      4  C2  PXY d   1       2.122   0.786  -1.395  0.00  0.00     0.003 A 
ATOM      5  C3  PXY d   1       2.602   1.800  -0.606  0.00  0.00     0.003 A 
ATOM      6  C4  PXY d   1       3.051   1.538   0.661  0.00  0.00    -0.082 A 
ATOM      7  C5  PXY d   1       3.057   0.267   1.115  0.00  0.00     0.003 A 
ATOM      8  C6  PXY d   1       2.604  -0.753   0.283  0.00  0.00     0.003 A 
ENDROOT
TORSDOF 0
ENDMDL
