MODEL 1
REMARK minimizedAffinity 5.18332672
REMARK minimizedRMSD -1
REMARK  0 active torsions:
REMARK  status: ('A' for Active; 'I' for Inactive)
ROOT
ATOM      1  C   UNL d   1      -3.706  -5.052  -1.398  0.00  0.00     0.023 A 
ATOM      2  C1  UNL d   1      -2.906  -5.545  -0.367  0.00  0.00     0.003 A 
ATOM      3  C2  UNL d   1      -2.080  -4.678   0.353  0.00  0.00     0.048 A 
ATOM      4  C3  UNL d   1      -2.061  -3.320   0.037  0.00  0.00     0.023 A 
ATOM      5  C4  UNL d   1      -2.862  -2.823  -0.993  0.00  0.00     0.048 A 
ATOM      6  C5  UNL d   1      -3.684  -3.693  -1.710  0.00  0.00     0.003 A 
ATOM      7  I   UNL d   1      -0.834  -2.028   1.107  0.00  0.00    -0.146 I 
ENDROOT
TORSDOF 0
ENDMDL
