MODEL 1
REMARK minimizedAffinity 0.117644645
REMARK minimizedRMSD -1
REMARK  0 active torsions:
REMARK  status: ('A' for Active; 'I' for Inactive)
ROOT
ATOM      1  C   UNL d   1      -1.218   0.210  -0.291  0.00  0.00     0.023 A 
ATOM      2  C1  UNL d   1       0.065  -0.248  -0.590  0.00  0.00     0.003 A 
ATOM      3  C2  UNL d   1       1.181   0.392  -0.048  0.00  0.00     0.048 A 
ATOM      4  C3  UNL d   1       1.007   1.490   0.793  0.00  0.00     0.023 A 
ATOM      5  C4  UNL d   1      -0.275   1.952   1.096  0.00  0.00     0.048 A 
ATOM      6  C5  UNL d   1      -1.388   1.309   0.551  0.00  0.00     0.003 A 
ATOM      7  I   UNL d   1       2.666   2.445   1.602  0.00  0.00    -0.146 I 
ENDROOT
TORSDOF 0
ENDMDL
