MODEL 1
REMARK minimizedAffinity 8.53229904
REMARK minimizedRMSD -1
REMARK  0 active torsions:
REMARK  status: ('A' for Active; 'I' for Inactive)
ROOT
ATOM      1  C   UNL d   1       5.999   4.371   3.765  0.00  0.00     0.023 A 
ATOM      2  C1  UNL d   1       5.308   5.365   3.071  0.00  0.00     0.003 A 
ATOM      3  C2  UNL d   1       4.492   5.024   1.990  0.00  0.00     0.048 A 
ATOM      4  C3  UNL d   1       4.370   3.688   1.610  0.00  0.00     0.023 A 
ATOM      5  C4  UNL d   1       5.059   2.691   2.302  0.00  0.00     0.048 A 
ATOM      6  C5  UNL d   1       5.874   3.036   3.381  0.00  0.00     0.003 A 
ATOM      7  I   UNL d   1       3.156   3.179   0.001  0.00  0.00    -0.146 I 
ENDROOT
TORSDOF 0
ENDMDL
