MODEL 1
REMARK minimizedAffinity -1.7695576
REMARK minimizedRMSD -1
REMARK  0 active torsions:
REMARK  status: ('A' for Active; 'I' for Inactive)
ROOT
ATOM      1  C   UNL d   1      -5.991   4.003  -0.727  0.00  0.00     0.023 A 
ATOM      2  C1  UNL d   1      -5.999   5.390  -0.867  0.00  0.00     0.003 A 
ATOM      3  C2  UNL d   1      -6.000   5.965  -2.140  0.00  0.00     0.048 A 
ATOM      4  C3  UNL d   1      -5.994   5.146  -3.268  0.00  0.00     0.023 A 
ATOM      5  C4  UNL d   1      -5.988   3.757  -3.133  0.00  0.00     0.048 A 
ATOM      6  C5  UNL d   1      -5.986   3.187  -1.859  0.00  0.00     0.003 A 
ATOM      7  I   UNL d   1      -5.996   6.000  -5.163  0.00  0.00    -0.146 I 
ENDROOT
TORSDOF 0
ENDMDL
