MODEL 1
REMARK minimizedAffinity -2.18190742
REMARK minimizedRMSD -1
REMARK  0 active torsions:
REMARK  status: ('A' for Active; 'I' for Inactive)
ROOT
ATOM      1  C   UNL d   1      -5.998   3.195  -1.078  0.00  0.00     0.023 A 
ATOM      2  C1  UNL d   1      -6.000   4.584  -0.950  0.00  0.00     0.003 A 
ATOM      3  C2  UNL d   1      -5.810   5.391  -2.074  0.00  0.00     0.048 A 
ATOM      4  C3  UNL d   1      -5.619   4.801  -3.323  0.00  0.00     0.023 A 
ATOM      5  C4  UNL d   1      -5.618   3.412  -3.457  0.00  0.00     0.048 A 
ATOM      6  C5  UNL d   1      -5.807   2.610  -2.330  0.00  0.00     0.003 A 
ATOM      7  I   UNL d   1      -5.337   6.000  -4.998  0.00  0.00    -0.146 I 
ENDROOT
TORSDOF 0
ENDMDL
