MODEL 1
REMARK minimizedAffinity 1.8710736
REMARK minimizedRMSD -1
REMARK  0 active torsions:
REMARK  status: ('A' for Active; 'I' for Inactive)
ROOT
ATOM      1  C   UNL d   1      -0.879  -0.145   1.398  0.00  0.00     0.023 A 
ATOM      2  C1  UNL d   1      -0.406  -1.352   0.883  0.00  0.00     0.003 A 
ATOM      3  C2  UNL d   1       0.262  -1.374  -0.344  0.00  0.00     0.048 A 
ATOM      4  C3  UNL d   1       0.453  -0.186  -1.048  0.00  0.00     0.023 A 
ATOM      5  C4  UNL d   1      -0.018   1.023  -0.536  0.00  0.00     0.048 A 
ATOM      6  C5  UNL d   1      -0.686   1.041   0.690  0.00  0.00     0.003 A 
ATOM      7  I   UNL d   1       1.447  -0.217  -2.874  0.00  0.00    -0.146 I 
ENDROOT
TORSDOF 0
ENDMDL
