MODEL 1
REMARK minimizedAffinity 12.1239834
REMARK minimizedRMSD -1
REMARK  0 active torsions:
REMARK  status: ('A' for Active; 'I' for Inactive)
ROOT
ATOM      1  C   UNL d   1      -0.784   0.754  -4.786  0.00  0.00     0.023 A 
ATOM      2  C1  UNL d   1       0.113   1.383  -5.650  0.00  0.00     0.003 A 
ATOM      3  C2  UNL d   1      -0.074   2.722  -6.000  0.00  0.00     0.048 A 
ATOM      4  C3  UNL d   1      -1.159   3.427  -5.480  0.00  0.00     0.023 A 
ATOM      5  C4  UNL d   1      -2.058   2.802  -4.614  0.00  0.00     0.048 A 
ATOM      6  C5  UNL d   1      -1.868   1.463  -4.269  0.00  0.00     0.003 A 
ATOM      7  I   UNL d   1      -1.439   5.420  -5.998  0.00  0.00    -0.146 I 
ENDROOT
TORSDOF 0
ENDMDL
