MODEL 1
REMARK minimizedAffinity 9.37569618
REMARK minimizedRMSD -1
REMARK  0 active torsions:
REMARK  status: ('A' for Active; 'I' for Inactive)
ROOT
ATOM      1  C   UNL d   1      -1.885  -4.325   0.535  0.00  0.00     0.023 A 
ATOM      2  C1  UNL d   1      -2.553  -3.594  -0.447  0.00  0.00     0.003 A 
ATOM      3  C2  UNL d   1      -2.916  -2.267  -0.205  0.00  0.00     0.048 A 
ATOM      4  C3  UNL d   1      -2.607  -1.678   1.020  0.00  0.00     0.023 A 
ATOM      5  C4  UNL d   1      -1.938  -2.406   2.006  0.00  0.00     0.048 A 
ATOM      6  C5  UNL d   1      -1.578  -3.732   1.760  0.00  0.00     0.003 A 
ATOM      7  I   UNL d   1      -3.146   0.296   1.382  0.00  0.00    -0.146 I 
ENDROOT
TORSDOF 0
ENDMDL
