MODEL 1
REMARK minimizedAffinity 2.9491756
REMARK minimizedRMSD -1
REMARK  0 active torsions:
REMARK  status: ('A' for Active; 'I' for Inactive)
ROOT
ATOM      1  C   UNL d   1       5.907   3.870  -5.984  0.00  0.00     0.023 A 
ATOM      2  C1  UNL d   1       5.005   2.806  -5.988  0.00  0.00     0.003 A 
ATOM      3  C2  UNL d   1       3.631   3.053  -5.991  0.00  0.00     0.048 A 
ATOM      4  C3  UNL d   1       3.165   4.368  -5.991  0.00  0.00     0.023 A 
ATOM      5  C4  UNL d   1       4.064   5.436  -5.988  0.00  0.00     0.048 A 
ATOM      6  C5  UNL d   1       5.437   5.183  -5.984  0.00  0.00     0.003 A 
ATOM      7  I   UNL d   1       1.120   4.739  -5.996  0.00  0.00    -0.146 I 
ENDROOT
TORSDOF 0
ENDMDL
