MODEL 1
REMARK minimizedAffinity 5.32274914
REMARK minimizedRMSD -1
REMARK  0 active torsions:
REMARK  status: ('A' for Active; 'I' for Inactive)
ROOT
ATOM      1  C   UNL d   1      -3.951  -4.118  -1.897  0.00  0.00     0.023 A 
ATOM      2  C1  UNL d   1      -2.977  -3.240  -2.373  0.00  0.00     0.003 A 
ATOM      3  C2  UNL d   1      -1.817  -3.739  -2.969  0.00  0.00     0.048 A 
ATOM      4  C3  UNL d   1      -1.638  -5.117  -3.086  0.00  0.00     0.023 A 
ATOM      5  C4  UNL d   1      -2.610  -5.999  -2.611  0.00  0.00     0.048 A 
ATOM      6  C5  UNL d   1      -3.768  -5.496  -2.016  0.00  0.00     0.003 A 
ATOM      7  I   UNL d   1       0.088  -5.862  -3.971  0.00  0.00    -0.146 I 
ENDROOT
TORSDOF 0
ENDMDL
