MODEL 1
REMARK minimizedAffinity 3.83448982
REMARK minimizedRMSD -1
REMARK  0 active torsions:
REMARK  status: ('A' for Active; 'I' for Inactive)
ROOT
ATOM      1  C   UNL d   1       0.124   0.897   1.050  0.00  0.00     0.023 A 
ATOM      2  C1  UNL d   1      -0.140   2.064   1.767  0.00  0.00     0.003 A 
ATOM      3  C2  UNL d   1       0.906   2.915   2.129  0.00  0.00     0.048 A 
ATOM      4  C3  UNL d   1       2.214   2.594   1.768  0.00  0.00     0.023 A 
ATOM      5  C4  UNL d   1       2.483   1.429   1.049  0.00  0.00     0.048 A 
ATOM      6  C5  UNL d   1       1.434   0.580   0.691  0.00  0.00     0.003 A 
ATOM      7  I   UNL d   1       3.773   3.860   2.304  0.00  0.00    -0.146 I 
ENDROOT
TORSDOF 0
ENDMDL
