MODEL 1
REMARK minimizedAffinity 1.02189994
REMARK minimizedRMSD -1
REMARK  0 active torsions:
REMARK  status: ('A' for Active; 'I' for Inactive)
ROOT
ATOM      1  C   UNL d   1       3.987   5.996   5.978  0.00  0.00     0.023 A 
ATOM      2  C1  UNL d   1       5.352   5.997   5.692  0.00  0.00     0.003 A 
ATOM      3  C2  UNL d   1       5.789   5.997   4.365  0.00  0.00     0.048 A 
ATOM      4  C3  UNL d   1       4.854   5.998   3.330  0.00  0.00     0.023 A 
ATOM      5  C4  UNL d   1       3.487   5.998   3.612  0.00  0.00     0.048 A 
ATOM      6  C5  UNL d   1       3.056   5.997   4.940  0.00  0.00     0.003 A 
ATOM      7  I   UNL d   1       5.501   5.999   1.355  0.00  0.00    -0.146 I 
ENDROOT
TORSDOF 0
ENDMDL
