MODEL 1
REMARK minimizedAffinity 5.53444767
REMARK minimizedRMSD -1
REMARK  0 active torsions:
REMARK  status: ('A' for Active; 'I' for Inactive)
ROOT
ATOM      1  C   UNL d   1      -1.130   1.117   0.934  0.00  0.00     0.023 A 
ATOM      2  C1  UNL d   1      -2.084   1.753   1.728  0.00  0.00     0.003 A 
ATOM      3  C2  UNL d   1      -1.689   2.453   2.871  0.00  0.00     0.048 A 
ATOM      4  C3  UNL d   1      -0.338   2.513   3.212  0.00  0.00     0.023 A 
ATOM      5  C4  UNL d   1       0.620   1.878   2.419  0.00  0.00     0.048 A 
ATOM      6  C5  UNL d   1       0.220   1.179   1.279  0.00  0.00     0.003 A 
ATOM      7  I   UNL d   1       0.253   3.553   4.911  0.00  0.00    -0.146 I 
ENDROOT
TORSDOF 0
ENDMDL
