MODEL 1
REMARK minimizedAffinity 9.87251377
REMARK minimizedRMSD -1
REMARK  0 active torsions:
REMARK  status: ('A' for Active; 'I' for Inactive)
ROOT
ATOM      1  C   UNL d   1      -2.229  -3.476   3.443  0.00  0.00     0.023 A 
ATOM      2  C1  UNL d   1      -1.723  -3.415   2.145  0.00  0.00     0.003 A 
ATOM      3  C2  UNL d   1      -1.922  -2.270   1.370  0.00  0.00     0.048 A 
ATOM      4  C3  UNL d   1      -2.626  -1.190   1.900  0.00  0.00     0.023 A 
ATOM      5  C4  UNL d   1      -3.134  -1.247   3.199  0.00  0.00     0.048 A 
ATOM      6  C5  UNL d   1      -2.934  -2.394   3.970  0.00  0.00     0.003 A 
ATOM      7  I   UNL d   1      -2.923   0.515   0.749  0.00  0.00    -0.146 I 
ENDROOT
TORSDOF 0
ENDMDL
