MODEL 1
REMARK minimizedAffinity 3.82062078
REMARK minimizedRMSD -1
REMARK  0 active torsions:
REMARK  status: ('A' for Active; 'I' for Inactive)
ROOT
ATOM      1  C   UNL d   1       1.852   1.745   0.304  0.00  0.00     0.023 A 
ATOM      2  C1  UNL d   1       1.867   0.607   1.110  0.00  0.00     0.003 A 
ATOM      3  C2  UNL d   1       0.682  -0.089   1.361  0.00  0.00     0.048 A 
ATOM      4  C3  UNL d   1      -0.514   0.359   0.801  0.00  0.00     0.023 A 
ATOM      5  C4  UNL d   1      -0.534   1.497  -0.007  0.00  0.00     0.048 A 
ATOM      6  C5  UNL d   1       0.653   2.190  -0.254  0.00  0.00     0.003 A 
ATOM      7  I   UNL d   1      -2.278  -0.675   1.173  0.00  0.00    -0.146 I 
ENDROOT
TORSDOF 0
ENDMDL
