MODEL 1
REMARK minimizedAffinity -2.84089112
REMARK minimizedRMSD -1
REMARK  0 active torsions:
REMARK  status: ('A' for Active; 'I' for Inactive)
ROOT
ATOM      1  C   UNL d   1      -6.000   2.022  -3.278  0.00  0.00     0.023 A 
ATOM      2  C1  UNL d   1      -5.827   1.902  -4.657  0.00  0.00     0.003 A 
ATOM      3  C2  UNL d   1      -5.632   3.043  -5.440  0.00  0.00     0.048 A 
ATOM      4  C3  UNL d   1      -5.610   4.300  -4.836  0.00  0.00     0.023 A 
ATOM      5  C4  UNL d   1      -5.782   4.424  -3.456  0.00  0.00     0.048 A 
ATOM      6  C5  UNL d   1      -5.978   3.281  -2.679  0.00  0.00     0.003 A 
ATOM      7  I   UNL d   1      -5.319   5.998  -5.998  0.00  0.00    -0.146 I 
ENDROOT
TORSDOF 0
ENDMDL
