MODEL 1
REMARK minimizedAffinity 4.80732775
REMARK minimizedRMSD -1
REMARK  0 active torsions:
REMARK  status: ('A' for Active; 'I' for Inactive)
ROOT
ATOM      1  C2' OXE d   1      -0.369  -1.467   1.308  0.00  0.00     0.078 C 
ATOM      2  C1' OXE d   1       0.768   0.994   2.040  0.00  0.00     0.078 C 
ATOM      3  C1  OXE d   1       1.699  -0.108   1.600  0.00  0.00    -0.078 A 
ATOM      4  C2  OXE d   1       1.138  -1.323   1.288  0.00  0.00    -0.078 A 
ATOM      5  C3  OXE d   1       1.946  -2.357   0.824  0.00  0.00     0.003 A 
ATOM      6  C4  OXE d   1       3.339  -2.220   0.818  0.00  0.00    -0.002 A 
ATOM      7  C5  OXE d   1       3.934  -1.004   1.170  0.00  0.00    -0.002 A 
ATOM      8  C6  OXE d   1       3.127   0.073   1.521  0.00  0.00     0.003 A 
ENDROOT
TORSDOF 0
ENDMDL
