MODEL 1
REMARK minimizedAffinity 2.29137802
REMARK minimizedRMSD -1
REMARK  0 active torsions:
REMARK  status: ('A' for Active; 'I' for Inactive)
ROOT
ATOM      1  C2' OXE d   1       0.199  -1.440   0.490  0.00  0.00     0.078 C 
ATOM      2  C1' OXE d   1       2.513   0.149   0.448  0.00  0.00     0.078 C 
ATOM      3  C1  OXE d   1       2.502  -1.055   1.356  0.00  0.00    -0.078 A 
ATOM      4  C2  OXE d   1       1.349  -1.800   1.405  0.00  0.00    -0.078 A 
ATOM      5  C3  OXE d   1       1.305  -2.953   2.185  0.00  0.00     0.003 A 
ATOM      6  C4  OXE d   1       2.369  -3.273   3.036  0.00  0.00    -0.002 A 
ATOM      7  C5  OXE d   1       3.538  -2.505   3.032  0.00  0.00    -0.002 A 
ATOM      8  C6  OXE d   1       3.637  -1.420   2.168  0.00  0.00     0.003 A 
ENDROOT
TORSDOF 0
ENDMDL
