MODEL 1
REMARK minimizedAffinity 8.47311115
REMARK minimizedRMSD -1
REMARK  0 active torsions:
REMARK  status: ('A' for Active; 'I' for Inactive)
ROOT
ATOM      1  C2' OXE d   1       4.187  -1.067   2.611  0.00  0.00     0.078 C 
ATOM      2  C1' OXE d   1       3.466   1.468   3.579  0.00  0.00     0.078 C 
ATOM      3  C1  OXE d   1       2.537   0.800   2.596  0.00  0.00    -0.078 A 
ATOM      4  C2  OXE d   1       2.920  -0.420   2.092  0.00  0.00    -0.078 A 
ATOM      5  C3  OXE d   1       2.074  -1.104   1.225  0.00  0.00     0.003 A 
ATOM      6  C4  OXE d   1       0.910  -0.495   0.742  0.00  0.00    -0.002 A 
ATOM      7  C5  OXE d   1       0.520   0.764   1.213  0.00  0.00    -0.002 A 
ATOM      8  C6  OXE d   1       1.299   1.405   2.170  0.00  0.00     0.003 A 
ENDROOT
TORSDOF 0
ENDMDL
