MODEL 1
REMARK minimizedAffinity 6.93619013
REMARK minimizedRMSD -1
REMARK  0 active torsions:
REMARK  status: ('A' for Active; 'I' for Inactive)
ROOT
ATOM      1  C2' OXE d   1       0.613   1.559   1.479  0.00  0.00     0.078 C 
ATOM      2  C1' OXE d   1       2.492   2.699  -0.267  0.00  0.00     0.078 C 
ATOM      3  C1  OXE d   1       2.760   1.305   0.242  0.00  0.00    -0.078 A 
ATOM      4  C2  OXE d   1       1.859   0.773   1.132  0.00  0.00    -0.078 A 
ATOM      5  C3  OXE d   1       2.031  -0.530   1.591  0.00  0.00     0.003 A 
ATOM      6  C4  OXE d   1       3.192  -1.246   1.274  0.00  0.00    -0.002 A 
ATOM      7  C5  OXE d   1       4.142  -0.707   0.400  0.00  0.00    -0.002 A 
ATOM      8  C6  OXE d   1       3.921   0.548  -0.157  0.00  0.00     0.003 A 
ENDROOT
TORSDOF 0
ENDMDL
