MODEL 1
REMARK minimizedAffinity 3.50677872
REMARK minimizedRMSD -1
REMARK  0 active torsions:
REMARK  status: ('A' for Active; 'I' for Inactive)
ROOT
ATOM      1  C2' OXE d   1      -3.228   2.754  -1.854  0.00  0.00     0.078 C 
ATOM      2  C1' OXE d   1      -5.300   4.615  -1.502  0.00  0.00     0.078 C 
ATOM      3  C1  OXE d   1      -4.983   3.690  -0.354  0.00  0.00    -0.078 A 
ATOM      4  C2  OXE d   1      -3.998   2.752  -0.551  0.00  0.00    -0.078 A 
ATOM      5  C3  OXE d   1      -3.629   1.910   0.494  0.00  0.00     0.003 A 
ATOM      6  C4  OXE d   1      -4.353   1.908   1.692  0.00  0.00    -0.002 A 
ATOM      7  C5  OXE d   1      -5.385   2.829   1.899  0.00  0.00    -0.002 A 
ATOM      8  C6  OXE d   1      -5.684   3.753   0.905  0.00  0.00     0.003 A 
ENDROOT
TORSDOF 0
ENDMDL
