MODEL 1
REMARK minimizedAffinity 3.19109344
REMARK minimizedRMSD -1
REMARK  0 active torsions:
REMARK  status: ('A' for Active; 'I' for Inactive)
ROOT
ATOM      1  C2' OXE d   1       2.897   1.706   1.612  0.00  0.00     0.078 C 
ATOM      2  C1' OXE d   1       3.431  -0.991   1.047  0.00  0.00     0.078 C 
ATOM      3  C1  OXE d   1       1.990  -0.581   1.221  0.00  0.00    -0.078 A 
ATOM      4  C2  OXE d   1       1.741   0.732   1.544  0.00  0.00    -0.078 A 
ATOM      5  C3  OXE d   1       0.427   1.175   1.662  0.00  0.00     0.003 A 
ATOM      6  C4  OXE d   1      -0.636   0.266   1.607  0.00  0.00    -0.002 A 
ATOM      7  C5  OXE d   1      -0.402  -1.083   1.319  0.00  0.00    -0.002 A 
ATOM      8  C6  OXE d   1       0.899  -1.513   1.081  0.00  0.00     0.003 A 
ENDROOT
TORSDOF 0
ENDMDL
