MODEL 1
REMARK minimizedAffinity 10.0840769
REMARK minimizedRMSD -1
REMARK  0 active torsions:
REMARK  status: ('A' for Active; 'I' for Inactive)
ROOT
ATOM      1  C2' OXE d   1      -0.040  -1.139   1.554  0.00  0.00     0.078 C 
ATOM      2  C1' OXE d   1       2.710  -1.223   0.999  0.00  0.00     0.078 C 
ATOM      3  C1  OXE d   1       1.754  -1.407  -0.153  0.00  0.00    -0.078 A 
ATOM      4  C2  OXE d   1       0.410  -1.411   0.135  0.00  0.00    -0.078 A 
ATOM      5  C3  OXE d   1      -0.516  -1.522  -0.898  0.00  0.00     0.003 A 
ATOM      6  C4  OXE d   1      -0.091  -1.784  -2.206  0.00  0.00    -0.002 A 
ATOM      7  C5  OXE d   1       1.273  -1.824  -2.515  0.00  0.00    -0.002 A 
ATOM      8  C6  OXE d   1       2.206  -1.595  -1.510  0.00  0.00     0.003 A 
ENDROOT
TORSDOF 0
ENDMDL
