MODEL 1
REMARK minimizedAffinity 16.5474358
REMARK minimizedRMSD -1
REMARK  0 active torsions:
REMARK  status: ('A' for Active; 'I' for Inactive)
ROOT
ATOM      1  C2' OXE d   1       1.179   2.214   2.142  0.00  0.00     0.078 C 
ATOM      2  C1' OXE d   1       2.847   2.886  -0.014  0.00  0.00     0.078 C 
ATOM      3  C1  OXE d   1       2.999   1.513   0.592  0.00  0.00    -0.078 A 
ATOM      4  C2  OXE d   1       2.211   1.210   1.676  0.00  0.00    -0.078 A 
ATOM      5  C3  OXE d   1       2.273  -0.062   2.239  0.00  0.00     0.003 A 
ATOM      6  C4  OXE d   1       3.237  -0.981   1.809  0.00  0.00    -0.002 A 
ATOM      7  C5  OXE d   1       4.076  -0.678   0.732  0.00  0.00    -0.002 A 
ATOM      8  C6  OXE d   1       3.941   0.546   0.086  0.00  0.00     0.003 A 
ENDROOT
TORSDOF 0
ENDMDL
