MODEL 1
REMARK minimizedAffinity -5.23096848
REMARK minimizedRMSD -1
REMARK  0 active torsions:
REMARK  status: ('A' for Active; 'I' for Inactive)
ROOT
ATOM      1  C2' OXE d   1      -0.804  -0.733   0.014  0.00  0.00     0.078 C 
ATOM      2  C1' OXE d   1       0.796   1.571   0.117  0.00  0.00     0.078 C 
ATOM      3  C1  OXE d   1       1.399   0.274   0.596  0.00  0.00    -0.078 A 
ATOM      4  C2  OXE d   1       0.593  -0.840   0.585  0.00  0.00    -0.078 A 
ATOM      5  C3  OXE d   1       1.116  -2.072   0.965  0.00  0.00     0.003 A 
ATOM      6  C4  OXE d   1       2.406  -2.160   1.502  0.00  0.00    -0.002 A 
ATOM      7  C5  OXE d   1       3.230  -1.031   1.559  0.00  0.00    -0.002 A 
ATOM      8  C6  OXE d   1       2.757   0.182   1.071  0.00  0.00     0.003 A 
ENDROOT
TORSDOF 0
ENDMDL
