MODEL 1
REMARK minimizedAffinity -2.10367107
REMARK minimizedRMSD -1
REMARK  1 active torsions:
REMARK  status: ('A' for Active; 'I' for Inactive)
REMARK    1  A    between atoms: C1_2  and  C2_3 
ROOT
ATOM      1  C2  UNL d   1       1.081  -0.633  -0.567  0.00  0.00    -0.077 A 
ATOM      2  C3  UNL d   1       0.152  -1.487   0.043  0.00  0.00     0.002 A 
ATOM      3  C4  UNL d   1      -1.031  -0.975   0.579  0.00  0.00     0.002 A 
ATOM      4  C5  UNL d   1      -1.297   0.391   0.508  0.00  0.00    -0.004 A 
ATOM      5  C6  UNL d   1      -0.378   1.249  -0.095  0.00  0.00     0.002 A 
ATOM      6  C7  UNL d   1       0.806   0.739  -0.631  0.00  0.00     0.002 A 
ENDROOT
BRANCH   1   7
ATOM      7  C1  UNL d   1       2.335  -1.189  -1.190  0.00  0.00     0.055 C 
ATOM      8  C   UNL d   1       2.784  -0.348  -2.376  0.00  0.00     0.019 C 
ENDBRANCH   1   7
TORSDOF 1
ENDMDL
