MODEL 1
REMARK minimizedAffinity -2.24189949
REMARK minimizedRMSD -1
REMARK  1 active torsions:
REMARK  status: ('A' for Active; 'I' for Inactive)
REMARK    1  A    between atoms: C1_2  and  C2_3 
ROOT
ATOM      1  C2  UNL d   1      -0.276  -0.127   0.237  0.00  0.00    -0.077 A 
ATOM      2  C3  UNL d   1       0.357  -1.377   0.280  0.00  0.00     0.002 A 
ATOM      3  C4  UNL d   1       1.421  -1.660  -0.579  0.00  0.00     0.002 A 
ATOM      4  C5  UNL d   1       1.864  -0.697  -1.483  0.00  0.00    -0.004 A 
ATOM      5  C6  UNL d   1       1.239   0.549  -1.535  0.00  0.00     0.002 A 
ATOM      6  C7  UNL d   1       0.175   0.833  -0.678  0.00  0.00     0.002 A 
ENDROOT
BRANCH   1   7
ATOM      7  C1  UNL d   1      -1.392   0.197   1.197  0.00  0.00     0.055 C 
ATOM      8  C   UNL d   1      -0.849   0.643   2.547  0.00  0.00     0.019 C 
ENDBRANCH   1   7
TORSDOF 1
ENDMDL
