MODEL 1
REMARK minimizedAffinity -4.62948036
REMARK minimizedRMSD -1
REMARK  1 active torsions:
REMARK  status: ('A' for Active; 'I' for Inactive)
REMARK    1  A    between atoms: C1_2  and  C2_3 
ROOT
ATOM      1  C2  UNL d   1       0.435  -0.364  -0.605  0.00  0.00    -0.077 A 
ATOM      2  C3  UNL d   1       0.253   0.901  -1.180  0.00  0.00     0.002 A 
ATOM      3  C4  UNL d   1       1.066   1.322  -2.234  0.00  0.00     0.002 A 
ATOM      4  C5  UNL d   1       2.063   0.481  -2.725  0.00  0.00    -0.004 A 
ATOM      5  C6  UNL d   1       2.253  -0.778  -2.158  0.00  0.00     0.002 A 
ATOM      6  C7  UNL d   1       1.442  -1.200  -1.104  0.00  0.00     0.002 A 
ENDROOT
BRANCH   1   7
ATOM      7  C1  UNL d   1      -0.474  -0.839   0.499  0.00  0.00     0.055 C 
ATOM      8  C   UNL d   1      -1.408   0.270   0.962  0.00  0.00     0.019 C 
ENDBRANCH   1   7
TORSDOF 1
ENDMDL
