MODEL 1
REMARK minimizedAffinity -3.19223905
REMARK minimizedRMSD -1
REMARK  1 active torsions:
REMARK  status: ('A' for Active; 'I' for Inactive)
REMARK    1  A    between atoms: C1_2  and  C2_3 
ROOT
ATOM      1  C2  UNL d   1      -0.848  -0.284   0.614  0.00  0.00    -0.077 A 
ATOM      2  C3  UNL d   1      -0.398  -1.610   0.545  0.00  0.00     0.002 A 
ATOM      3  C4  UNL d   1       0.680  -1.948  -0.275  0.00  0.00     0.002 A 
ATOM      4  C5  UNL d   1       1.319  -0.966  -1.029  0.00  0.00    -0.004 A 
ATOM      5  C6  UNL d   1       0.878   0.355  -0.969  0.00  0.00     0.002 A 
ATOM      6  C7  UNL d   1      -0.201   0.695  -0.150  0.00  0.00     0.002 A 
ENDROOT
BRANCH   1   7
ATOM      7  C1  UNL d   1      -1.979   0.092   1.536  0.00  0.00     0.055 C 
ATOM      8  C   UNL d   1      -1.539   1.130   2.557  0.00  0.00     0.019 C 
ENDBRANCH   1   7
TORSDOF 1
ENDMDL
