MODEL 1
REMARK minimizedAffinity -0.148325264
REMARK minimizedRMSD -1
REMARK  1 active torsions:
REMARK  status: ('A' for Active; 'I' for Inactive)
REMARK    1  A    between atoms: C1_2  and  C2_3 
ROOT
ATOM      1  C2  UNL d   1      -0.161  -0.155   0.114  0.00  0.00    -0.077 A 
ATOM      2  C3  UNL d   1       0.720   0.040  -0.960  0.00  0.00     0.002 A 
ATOM      3  C4  UNL d   1       1.537  -1.003  -1.401  0.00  0.00     0.002 A 
ATOM      4  C5  UNL d   1       1.478  -2.248  -0.779  0.00  0.00    -0.004 A 
ATOM      5  C6  UNL d   1       0.607  -2.451   0.291  0.00  0.00     0.002 A 
ATOM      6  C7  UNL d   1      -0.209  -1.410   0.735  0.00  0.00     0.002 A 
ENDROOT
BRANCH   1   7
ATOM      7  C1  UNL d   1      -1.078   0.953   0.560  0.00  0.00     0.055 C 
ATOM      8  C   UNL d   1      -1.882   0.546   1.786  0.00  0.00     0.019 C 
ENDBRANCH   1   7
TORSDOF 1
ENDMDL
