MODEL 1
REMARK minimizedAffinity -1.67280543
REMARK minimizedRMSD -1
REMARK  1 active torsions:
REMARK  status: ('A' for Active; 'I' for Inactive)
REMARK    1  A    between atoms: C1_2  and  C2_3 
ROOT
ATOM      1  C2  UNL d   1      -0.855   0.244   0.615  0.00  0.00    -0.077 A 
ATOM      2  C3  UNL d   1       0.031   1.039  -0.125  0.00  0.00     0.002 A 
ATOM      3  C4  UNL d   1       1.082   0.453  -0.833  0.00  0.00     0.002 A 
ATOM      4  C5  UNL d   1       1.254  -0.930  -0.811  0.00  0.00    -0.004 A 
ATOM      5  C6  UNL d   1       0.379  -1.728  -0.076  0.00  0.00     0.002 A 
ATOM      6  C7  UNL d   1      -0.671  -1.144   0.633  0.00  0.00     0.002 A 
ENDROOT
BRANCH   1   7
ATOM      7  C1  UNL d   1      -2.018   0.870   1.340  0.00  0.00     0.055 C 
ATOM      8  C   UNL d   1      -1.940   0.613   2.838  0.00  0.00     0.019 C 
ENDBRANCH   1   7
TORSDOF 1
ENDMDL
