MODEL 1
REMARK minimizedAffinity -3.70955348
REMARK minimizedRMSD -1
REMARK  1 active torsions:
REMARK  status: ('A' for Active; 'I' for Inactive)
REMARK    1  A    between atoms: C1_2  and  C2_3 
ROOT
ATOM      1  C2  UNL d   1      -0.360   0.074  -0.121  0.00  0.00    -0.077 A 
ATOM      2  C3  UNL d   1       0.109   0.960  -1.101  0.00  0.00     0.002 A 
ATOM      3  C4  UNL d   1       1.229   0.636  -1.868  0.00  0.00     0.002 A 
ATOM      4  C5  UNL d   1       1.886  -0.576  -1.667  0.00  0.00    -0.004 A 
ATOM      5  C6  UNL d   1       1.429  -1.463  -0.694  0.00  0.00     0.002 A 
ATOM      6  C7  UNL d   1       0.310  -1.140   0.075  0.00  0.00     0.002 A 
ENDROOT
BRANCH   1   7
ATOM      7  C1  UNL d   1      -1.598   0.400   0.674  0.00  0.00     0.055 C 
ATOM      8  C   UNL d   1      -1.252   1.150   1.953  0.00  0.00     0.019 C 
ENDBRANCH   1   7
TORSDOF 1
ENDMDL
