MODEL 1
REMARK minimizedAffinity -4.04339838
REMARK minimizedRMSD -1
REMARK  1 active torsions:
REMARK  status: ('A' for Active; 'I' for Inactive)
REMARK    1  A    between atoms: C1_2  and  C2_3 
ROOT
ATOM      1  C2  UNL d   1      -1.095   0.349   0.957  0.00  0.00    -0.077 A 
ATOM      2  C3  UNL d   1      -2.371   0.897   1.152  0.00  0.00     0.002 A 
ATOM      3  C4  UNL d   1      -2.740   1.399   2.401  0.00  0.00     0.002 A 
ATOM      4  C5  UNL d   1      -1.839   1.362   3.463  0.00  0.00    -0.004 A 
ATOM      5  C6  UNL d   1      -0.569   0.818   3.280  0.00  0.00     0.002 A 
ATOM      6  C7  UNL d   1      -0.198   0.314   2.032  0.00  0.00     0.002 A 
ENDROOT
BRANCH   1   7
ATOM      7  C1  UNL d   1      -0.678  -0.148  -0.403  0.00  0.00     0.055 C 
ATOM      8  C   UNL d   1       0.182  -1.399  -0.294  0.00  0.00     0.019 C 
ENDBRANCH   1   7
TORSDOF 1
ENDMDL
