MODEL 1
REMARK minimizedAffinity -3.51802158
REMARK minimizedRMSD -1
REMARK  1 active torsions:
REMARK  status: ('A' for Active; 'I' for Inactive)
REMARK    1  A    between atoms: C1_2  and  C2_3 
ROOT
ATOM      1  C2  UNL d   1       0.500   0.731  -1.260  0.00  0.00    -0.077 A 
ATOM      2  C3  UNL d   1       0.927   1.406  -2.412  0.00  0.00     0.002 A 
ATOM      3  C4  UNL d   1       1.821   0.798  -3.296  0.00  0.00     0.002 A 
ATOM      4  C5  UNL d   1       2.292  -0.487  -3.039  0.00  0.00    -0.004 A 
ATOM      5  C6  UNL d   1       1.875  -1.166  -1.894  0.00  0.00     0.002 A 
ATOM      6  C7  UNL d   1       0.982  -0.560  -1.009  0.00  0.00     0.002 A 
ENDROOT
BRANCH   1   7
ATOM      7  C1  UNL d   1      -0.502   1.365  -0.331  0.00  0.00     0.055 C 
ATOM      8  C   UNL d   1      -1.473   0.333   0.224  0.00  0.00     0.019 C 
ENDBRANCH   1   7
TORSDOF 1
ENDMDL
