MODEL 1
REMARK minimizedAffinity -3.9112041
REMARK minimizedRMSD -1
REMARK  1 active torsions:
REMARK  status: ('A' for Active; 'I' for Inactive)
REMARK    1  A    between atoms: C1_2  and  C2_3 
ROOT
ATOM      1  C2  UNL d   1       1.273  -0.137  -1.907  0.00  0.00    -0.077 A 
ATOM      2  C3  UNL d   1       0.439   0.426  -0.931  0.00  0.00     0.002 A 
ATOM      3  C4  UNL d   1       0.245  -0.221   0.291  0.00  0.00     0.002 A 
ATOM      4  C5  UNL d   1       0.885  -1.431   0.550  0.00  0.00    -0.004 A 
ATOM      5  C6  UNL d   1       1.716  -2.000  -0.415  0.00  0.00     0.002 A 
ATOM      6  C7  UNL d   1       1.910  -1.355  -1.637  0.00  0.00     0.002 A 
ENDROOT
BRANCH   1   7
ATOM      7  C1  UNL d   1       1.523   0.584  -3.206  0.00  0.00     0.055 C 
ATOM      8  C   UNL d   1       1.082   2.038  -3.126  0.00  0.00     0.019 C 
ENDBRANCH   1   7
TORSDOF 1
ENDMDL
