MODEL 1
REMARK minimizedAffinity -3.44605327
REMARK minimizedRMSD -1
REMARK  1 active torsions:
REMARK  status: ('A' for Active; 'I' for Inactive)
REMARK    1  A    between atoms: C1_2  and  C2_3 
ROOT
ATOM      1  C2  UNL d   1       1.339   0.025  -1.722  0.00  0.00    -0.077 A 
ATOM      2  C3  UNL d   1       0.183   0.240  -0.960  0.00  0.00     0.002 A 
ATOM      3  C4  UNL d   1      -0.124  -0.601   0.111  0.00  0.00     0.002 A 
ATOM      4  C5  UNL d   1       0.723  -1.660   0.433  0.00  0.00    -0.004 A 
ATOM      5  C6  UNL d   1       1.875  -1.883  -0.321  0.00  0.00     0.002 A 
ATOM      6  C7  UNL d   1       2.182  -1.044  -1.392  0.00  0.00     0.002 A 
ENDROOT
BRANCH   1   7
ATOM      7  C1  UNL d   1       1.698   0.961  -2.847  0.00  0.00     0.055 C 
ATOM      8  C   UNL d   1       1.015   2.311  -2.683  0.00  0.00     0.019 C 
ENDBRANCH   1   7
TORSDOF 1
ENDMDL
