MODEL 1
REMARK minimizedAffinity 9.22799206
REMARK minimizedRMSD -1
REMARK  1 active torsions:
REMARK  status: ('A' for Active; 'I' for Inactive)
REMARK    1  A    between atoms: C1_2  and  C2_3 
ROOT
ATOM      1  C2  UNL d   1       5.092  -4.306  -0.508  0.00  0.00    -0.073 A 
ATOM      2  C3  UNL d   1       5.978  -3.804  -1.468  0.00  0.00    -0.002 A 
ATOM      3  C4  UNL d   1       5.944  -2.455  -1.823  0.00  0.00     0.004 A 
ATOM      4  C5  UNL d   1       5.030  -1.593  -1.217  0.00  0.00    -0.004 A 
ATOM      5  C6  UNL d   1       4.144  -2.073  -0.247  0.00  0.00    -0.075 A 
ATOM      6  C7  UNL d   1       3.153  -1.159   0.413  0.00  0.00     0.076 C 
ATOM      7  C8  UNL d   1       4.183  -3.429   0.102  0.00  0.00     0.001 A 
ENDROOT
BRANCH   1   8
ATOM      8  C1  UNL d   1       5.130  -5.760  -0.118  0.00  0.00     0.053 C 
ATOM      9  C   UNL d   1       6.000  -6.000   1.106  0.00  0.00     0.018 C 
ENDBRANCH   1   8
TORSDOF 1
ENDMDL
