MODEL 1
REMARK minimizedAffinity 2.77296901
REMARK minimizedRMSD -1
REMARK  1 active torsions:
REMARK  status: ('A' for Active; 'I' for Inactive)
REMARK    1  A    between atoms: C1_2  and  C2_3 
ROOT
ATOM      1  C2  UNL d   1      -0.107   2.111  -0.199  0.00  0.00    -0.073 A 
ATOM      2  C3  UNL d   1       0.633   1.084  -0.796  0.00  0.00    -0.002 A 
ATOM      3  C4  UNL d   1      -0.018   0.029  -1.438  0.00  0.00     0.004 A 
ATOM      4  C5  UNL d   1      -1.411  -0.007  -1.495  0.00  0.00    -0.004 A 
ATOM      5  C6  UNL d   1      -2.167   1.017  -0.914  0.00  0.00    -0.075 A 
ATOM      6  C7  UNL d   1      -3.666   0.992  -0.965  0.00  0.00     0.076 C 
ATOM      7  C8  UNL d   1      -1.507   2.072  -0.270  0.00  0.00     0.001 A 
ENDROOT
BRANCH   1   8
ATOM      8  C1  UNL d   1       0.591   3.256   0.489  0.00  0.00     0.053 C 
ATOM      9  C   UNL d   1       0.434   4.561  -0.275  0.00  0.00     0.018 C 
ENDBRANCH   1   8
TORSDOF 1
ENDMDL
