MODEL 1
REMARK minimizedAffinity 10.5543079
REMARK minimizedRMSD -1
REMARK  1 active torsions:
REMARK  status: ('A' for Active; 'I' for Inactive)
REMARK    1  A    between atoms: C1_2  and  C2_3 
ROOT
ATOM      1  C2  UNL d   1       1.995  -0.971  -0.634  0.00  0.00    -0.073 A 
ATOM      2  C3  UNL d   1       1.634  -2.041   0.193  0.00  0.00    -0.002 A 
ATOM      3  C4  UNL d   1       2.592  -2.969   0.604  0.00  0.00     0.004 A 
ATOM      4  C5  UNL d   1       3.920  -2.834   0.198  0.00  0.00    -0.004 A 
ATOM      5  C6  UNL d   1       4.302  -1.765  -0.619  0.00  0.00    -0.075 A 
ATOM      6  C7  UNL d   1       5.726  -1.607  -1.066  0.00  0.00     0.076 C 
ATOM      7  C8  UNL d   1       3.334  -0.839  -1.029  0.00  0.00     0.001 A 
ENDROOT
BRANCH   1   8
ATOM      8  C1  UNL d   1       0.966   0.037  -1.074  0.00  0.00     0.053 C 
ATOM      9  C   UNL d   1      -0.183  -0.614  -1.828  0.00  0.00     0.018 C 
ENDBRANCH   1   8
TORSDOF 1
ENDMDL
