MODEL 1
REMARK minimizedAffinity -2.23666716
REMARK minimizedRMSD -1
REMARK  1 active torsions:
REMARK  status: ('A' for Active; 'I' for Inactive)
REMARK    1  A    between atoms: C1_2  and  C2_3 
ROOT
ATOM      1  C2  UNL d   1      -0.781   0.734  -1.267  0.00  0.00    -0.076 A 
ATOM      2  C3  UNL d   1      -0.886   0.390  -2.626  0.00  0.00     0.004 A 
ATOM      3  C4  UNL d   1      -1.863   0.964  -3.438  0.00  0.00    -0.003 A 
ATOM      4  C5  UNL d   1      -2.751   1.892  -2.903  0.00  0.00     0.000 A 
ATOM      5  C6  UNL d   1      -2.650   2.257  -1.561  0.00  0.00     0.000 A 
ATOM      6  C7  UNL d   1      -1.660   1.700  -0.733  0.00  0.00    -0.073 A 
ATOM      7  C8  UNL d   1      -1.601   2.126   0.708  0.00  0.00     0.078 C 
ENDROOT
BRANCH   1   8
ATOM      8  C1  UNL d   1       0.281   0.058  -0.429  0.00  0.00     0.053 C 
ATOM      9  C   UNL d   1      -0.230  -1.200   0.256  0.00  0.00     0.018 C 
ENDBRANCH   1   8
TORSDOF 1
ENDMDL
