MODEL 1
REMARK minimizedAffinity 0.0352179222
REMARK minimizedRMSD -1
REMARK  1 active torsions:
REMARK  status: ('A' for Active; 'I' for Inactive)
REMARK    1  A    between atoms: C1_2  and  C2_3 
ROOT
ATOM      1  C2  UNL d   1      -1.536   3.147  -2.326  0.00  0.00    -0.076 A 
ATOM      2  C3  UNL d   1      -0.576   4.148  -2.554  0.00  0.00     0.004 A 
ATOM      3  C4  UNL d   1      -0.397   4.695  -3.823  0.00  0.00    -0.003 A 
ATOM      4  C5  UNL d   1      -1.176   4.250  -4.886  0.00  0.00     0.000 A 
ATOM      5  C6  UNL d   1      -2.145   3.270  -4.674  0.00  0.00     0.000 A 
ATOM      6  C7  UNL d   1      -2.350   2.720  -3.397  0.00  0.00    -0.073 A 
ATOM      7  C8  UNL d   1      -3.405   1.662  -3.227  0.00  0.00     0.078 C 
ENDROOT
BRANCH   1   8
ATOM      8  C1  UNL d   1      -1.667   2.572  -0.933  0.00  0.00     0.053 C 
ATOM      9  C   UNL d   1      -0.569   1.571  -0.611  0.00  0.00     0.018 C 
ENDBRANCH   1   8
TORSDOF 1
ENDMDL
