MODEL 1
REMARK minimizedAffinity -5.11858463
REMARK minimizedRMSD -1
REMARK  1 active torsions:
REMARK  status: ('A' for Active; 'I' for Inactive)
REMARK    1  A    between atoms: C1_2  and  C2_3 
ROOT
ATOM      1  C2  UNL d   1      -0.342   0.021   0.541  0.00  0.00    -0.076 A 
ATOM      2  C3  UNL d   1      -1.133  -0.759   1.402  0.00  0.00     0.004 A 
ATOM      3  C4  UNL d   1      -0.664  -1.971   1.906  0.00  0.00    -0.003 A 
ATOM      4  C5  UNL d   1       0.604  -2.422   1.558  0.00  0.00     0.000 A 
ATOM      5  C6  UNL d   1       1.409  -1.652   0.719  0.00  0.00     0.000 A 
ATOM      6  C7  UNL d   1       0.958  -0.420   0.215  0.00  0.00    -0.073 A 
ATOM      7  C8  UNL d   1       1.866   0.366  -0.691  0.00  0.00     0.078 C 
ENDROOT
BRANCH   1   8
ATOM      8  C1  UNL d   1      -0.915   1.313   0.004  0.00  0.00     0.053 C 
ATOM      9  C   UNL d   1      -1.982   1.083  -1.055  0.00  0.00     0.018 C 
ENDBRANCH   1   8
TORSDOF 1
ENDMDL
