MODEL 1
REMARK minimizedAffinity -4.66114473
REMARK minimizedRMSD -1
REMARK  1 active torsions:
REMARK  status: ('A' for Active; 'I' for Inactive)
REMARK    1  A    between atoms: C1_2  and  C2_3 
ROOT
ATOM      1  C2  UNL d   1       0.074  -1.009   0.485  0.00  0.00    -0.076 A 
ATOM      2  C3  UNL d   1       0.635  -0.304  -0.593  0.00  0.00     0.004 A 
ATOM      3  C4  UNL d   1       0.287   1.023  -0.842  0.00  0.00    -0.003 A 
ATOM      4  C5  UNL d   1      -0.627   1.666  -0.015  0.00  0.00     0.000 A 
ATOM      5  C6  UNL d   1      -1.181   0.987   1.070  0.00  0.00     0.000 A 
ATOM      6  C7  UNL d   1      -0.829  -0.345   1.344  0.00  0.00    -0.073 A 
ATOM      7  C8  UNL d   1      -1.461  -1.031   2.524  0.00  0.00     0.078 C 
ENDROOT
BRANCH   1   8
ATOM      8  C1  UNL d   1       0.468  -2.455   0.689  0.00  0.00     0.053 C 
ATOM      9  C   UNL d   1       1.668  -2.606   1.611  0.00  0.00     0.018 C 
ENDBRANCH   1   8
TORSDOF 1
ENDMDL
