MODEL 1
REMARK minimizedAffinity -5.81990623
REMARK minimizedRMSD -1
REMARK  1 active torsions:
REMARK  status: ('A' for Active; 'I' for Inactive)
REMARK    1  A    between atoms: C1_2  and  C2_3 
ROOT
ATOM      1  C2  UNL d   1       0.148   0.429  -0.126  0.00  0.00    -0.076 A 
ATOM      2  C3  UNL d   1      -0.651  -0.286   0.783  0.00  0.00     0.004 A 
ATOM      3  C4  UNL d   1      -0.171  -1.434   1.411  0.00  0.00    -0.003 A 
ATOM      4  C5  UNL d   1       1.116  -1.885   1.141  0.00  0.00     0.000 A 
ATOM      5  C6  UNL d   1       1.929  -1.178   0.256  0.00  0.00     0.000 A 
ATOM      6  C7  UNL d   1       1.466  -0.009  -0.373  0.00  0.00    -0.073 A 
ATOM      7  C8  UNL d   1       2.383   0.711  -1.323  0.00  0.00     0.078 C 
ENDROOT
BRANCH   1   8
ATOM      8  C1  UNL d   1      -0.436   1.652  -0.797  0.00  0.00     0.053 C 
ATOM      9  C   UNL d   1      -1.693   1.335  -1.594  0.00  0.00     0.018 C 
ENDBRANCH   1   8
TORSDOF 1
ENDMDL
