MODEL 1
REMARK minimizedAffinity 0.441889912
REMARK minimizedRMSD -1
REMARK  1 active torsions:
REMARK  status: ('A' for Active; 'I' for Inactive)
REMARK    1  A    between atoms: C1_2  and  C2_3 
ROOT
ATOM      1  C2  UNL d   1       1.613  -1.297   1.039  0.00  0.00    -0.076 A 
ATOM      2  C3  UNL d   1       0.568  -2.168   1.390  0.00  0.00     0.004 A 
ATOM      3  C4  UNL d   1      -0.761  -1.834   1.136  0.00  0.00    -0.003 A 
ATOM      4  C5  UNL d   1      -1.066  -0.622   0.526  0.00  0.00     0.000 A 
ATOM      5  C6  UNL d   1      -0.041   0.247   0.155  0.00  0.00     0.000 A 
ATOM      6  C7  UNL d   1       1.305  -0.082   0.389  0.00  0.00    -0.073 A 
ATOM      7  C8  UNL d   1       2.371   0.895  -0.026  0.00  0.00     0.078 C 
ENDROOT
BRANCH   1   8
ATOM      8  C1  UNL d   1       3.034  -1.701   1.364  0.00  0.00     0.053 C 
ATOM      9  C   UNL d   1       3.417  -1.377   2.799  0.00  0.00     0.018 C 
ENDBRANCH   1   8
TORSDOF 1
ENDMDL
