MODEL 1
REMARK minimizedAffinity -0.26461333
REMARK minimizedRMSD -1
REMARK  1 active torsions:
REMARK  status: ('A' for Active; 'I' for Inactive)
REMARK    1  A    between atoms: C1_2  and  C2_3 
ROOT
ATOM      1  C2  UNL d   1      -0.120  -0.867   0.753  0.00  0.00    -0.076 A 
ATOM      2  C3  UNL d   1      -0.303   0.397   0.166  0.00  0.00     0.004 A 
ATOM      3  C4  UNL d   1       0.719   1.005  -0.561  0.00  0.00    -0.003 A 
ATOM      4  C5  UNL d   1       1.941   0.359  -0.712  0.00  0.00     0.000 A 
ATOM      5  C6  UNL d   1       2.134  -0.903  -0.151  0.00  0.00     0.000 A 
ATOM      6  C7  UNL d   1       1.108  -1.537   0.571  0.00  0.00    -0.073 A 
ATOM      7  C8  UNL d   1       1.373  -2.896   1.159  0.00  0.00     0.078 C 
ENDROOT
BRANCH   1   8
ATOM      8  C1  UNL d   1      -1.255  -1.465   1.553  0.00  0.00     0.053 C 
ATOM      9  C   UNL d   1      -2.029  -0.418   2.339  0.00  0.00     0.018 C 
ENDBRANCH   1   8
TORSDOF 1
ENDMDL
