MODEL 1
REMARK minimizedAffinity -5.33954382
REMARK minimizedRMSD -1
REMARK  1 active torsions:
REMARK  status: ('A' for Active; 'I' for Inactive)
REMARK    1  A    between atoms: C1_2  and  C2_3 
ROOT
ATOM      1  C2  UNL d   1       0.080   0.031   0.112  0.00  0.00    -0.076 A 
ATOM      2  C3  UNL d   1      -0.763  -0.765   0.907  0.00  0.00     0.004 A 
ATOM      3  C4  UNL d   1      -0.320  -1.978   1.431  0.00  0.00    -0.003 A 
ATOM      4  C5  UNL d   1       0.974  -2.415   1.169  0.00  0.00     0.000 A 
ATOM      5  C6  UNL d   1       1.830  -1.630   0.397  0.00  0.00     0.000 A 
ATOM      6  C7  UNL d   1       1.404  -0.396  -0.125  0.00  0.00    -0.073 A 
ATOM      7  C8  UNL d   1       2.366   0.407  -0.956  0.00  0.00     0.078 C 
ENDROOT
BRANCH   1   8
ATOM      8  C1  UNL d   1      -0.465   1.324  -0.451  0.00  0.00     0.053 C 
ATOM      9  C   UNL d   1      -1.550   1.095  -1.492  0.00  0.00     0.018 C 
ENDBRANCH   1   8
TORSDOF 1
ENDMDL
