MODEL 1
REMARK minimizedAffinity -4.09436846
REMARK minimizedRMSD -1
REMARK  1 active torsions:
REMARK  status: ('A' for Active; 'I' for Inactive)
REMARK    1  A    between atoms: C1_2  and  C2_3 
ROOT
ATOM      1  C2  UNL d   1      -0.413  -0.860   0.624  0.00  0.00    -0.076 A 
ATOM      2  C3  UNL d   1      -0.613  -2.083   1.289  0.00  0.00     0.004 A 
ATOM      3  C4  UNL d   1       0.458  -2.929   1.571  0.00  0.00    -0.003 A 
ATOM      4  C5  UNL d   1       1.746  -2.566   1.195  0.00  0.00     0.000 A 
ATOM      5  C6  UNL d   1       1.965  -1.349   0.551  0.00  0.00     0.000 A 
ATOM      6  C7  UNL d   1       0.899  -0.477   0.273  0.00  0.00    -0.073 A 
ATOM      7  C8  UNL d   1       1.191   0.821  -0.430  0.00  0.00     0.078 C 
ENDROOT
BRANCH   1   8
ATOM      8  C1  UNL d   1      -1.616   0.004   0.321  0.00  0.00     0.053 C 
ATOM      9  C   UNL d   1      -2.252   0.579   1.576  0.00  0.00     0.018 C 
ENDBRANCH   1   8
TORSDOF 1
ENDMDL
