MODEL 1
REMARK minimizedAffinity -3.76877451
REMARK minimizedRMSD -1
REMARK  1 active torsions:
REMARK  status: ('A' for Active; 'I' for Inactive)
REMARK    1  A    between atoms: C1_2  and  C2_3 
ROOT
ATOM      1  C2  UNL d   1      -0.198  -0.085  -0.212  0.00  0.00    -0.076 A 
ATOM      2  C3  UNL d   1      -1.111  -1.121   0.048  0.00  0.00     0.004 A 
ATOM      3  C4  UNL d   1      -0.674  -2.370   0.488  0.00  0.00    -0.003 A 
ATOM      4  C5  UNL d   1       0.684  -2.602   0.676  0.00  0.00     0.000 A 
ATOM      5  C6  UNL d   1       1.603  -1.580   0.440  0.00  0.00     0.000 A 
ATOM      6  C7  UNL d   1       1.177  -0.311   0.011  0.00  0.00    -0.073 A 
ATOM      7  C8  UNL d   1       2.213   0.753  -0.234  0.00  0.00     0.078 C 
ENDROOT
BRANCH   1   8
ATOM      8  C1  UNL d   1      -0.728   1.239  -0.714  0.00  0.00     0.053 C 
ATOM      9  C   UNL d   1      -1.873   1.072  -1.701  0.00  0.00     0.018 C 
ENDBRANCH   1   8
TORSDOF 1
ENDMDL
