MODEL 1
REMARK minimizedAffinity -3.27868605
REMARK minimizedRMSD -1
REMARK  1 active torsions:
REMARK  status: ('A' for Active; 'I' for Inactive)
REMARK    1  A    between atoms: C1_2  and  C2_3 
ROOT
ATOM      1  C2  UNL d   1       0.098  -0.495  -0.090  0.00  0.00    -0.076 A 
ATOM      2  C3  UNL d   1      -0.549  -1.665   0.344  0.00  0.00     0.004 A 
ATOM      3  C4  UNL d   1       0.180  -2.752   0.823  0.00  0.00    -0.003 A 
ATOM      4  C5  UNL d   1       1.568  -2.687   0.876  0.00  0.00     0.000 A 
ATOM      5  C6  UNL d   1       2.225  -1.527   0.466  0.00  0.00     0.000 A 
ATOM      6  C7  UNL d   1       1.505  -0.416  -0.004  0.00  0.00    -0.073 A 
ATOM      7  C8  UNL d   1       2.265   0.807  -0.439  0.00  0.00     0.078 C 
ENDROOT
BRANCH   1   8
ATOM      8  C1  UNL d   1      -0.743   0.642  -0.625  0.00  0.00     0.053 C 
ATOM      9  C   UNL d   1      -1.288   0.360  -2.017  0.00  0.00     0.018 C 
ENDBRANCH   1   8
TORSDOF 1
ENDMDL
