MODEL 1
REMARK minimizedAffinity -1.45181167
REMARK minimizedRMSD -1
REMARK  1 active torsions:
REMARK  status: ('A' for Active; 'I' for Inactive)
REMARK    1  A    between atoms: C1_2  and  C2_3 
ROOT
ATOM      1  C2  UNL d   1      -0.370   0.835  -0.397  0.00  0.00    -0.076 A 
ATOM      2  C3  UNL d   1      -1.484   0.367   0.320  0.00  0.00     0.004 A 
ATOM      3  C4  UNL d   1      -1.347  -0.620   1.295  0.00  0.00    -0.003 A 
ATOM      4  C5  UNL d   1      -0.093  -1.154   1.569  0.00  0.00     0.000 A 
ATOM      5  C6  UNL d   1       1.026  -0.688   0.879  0.00  0.00     0.000 A 
ATOM      6  C7  UNL d   1       0.908   0.318  -0.095  0.00  0.00    -0.073 A 
ATOM      7  C8  UNL d   1       2.147   0.778  -0.813  0.00  0.00     0.078 C 
ENDROOT
BRANCH   1   8
ATOM      8  C1  UNL d   1      -0.584   1.888  -1.462  0.00  0.00     0.053 C 
ATOM      9  C   UNL d   1      -1.595   1.456  -2.513  0.00  0.00     0.018 C 
ENDBRANCH   1   8
TORSDOF 1
ENDMDL
