MODEL 1
REMARK minimizedAffinity -5.57096767
REMARK minimizedRMSD -1
REMARK  1 active torsions:
REMARK  status: ('A' for Active; 'I' for Inactive)
REMARK    1  A    between atoms: C1_2  and  C2_3 
ROOT
ATOM      1  C2  UNL d   1       0.615  -1.213   0.389  0.00  0.00    -0.076 A 
ATOM      2  C3  UNL d   1       1.316  -0.437  -0.551  0.00  0.00     0.004 A 
ATOM      3  C4  UNL d   1       0.946   0.881  -0.812  0.00  0.00    -0.003 A 
ATOM      4  C5  UNL d   1      -0.131   1.445  -0.137  0.00  0.00     0.000 A 
ATOM      5  C6  UNL d   1      -0.827   0.696   0.811  0.00  0.00     0.000 A 
ATOM      6  C7  UNL d   1      -0.457  -0.629   1.098  0.00  0.00    -0.073 A 
ATOM      7  C8  UNL d   1      -1.246  -1.393   2.125  0.00  0.00     0.078 C 
ENDROOT
BRANCH   1   8
ATOM      8  C1  UNL d   1       1.045  -2.645   0.611  0.00  0.00     0.053 C 
ATOM      9  C   UNL d   1       2.116  -2.773   1.683  0.00  0.00     0.018 C 
ENDBRANCH   1   8
TORSDOF 1
ENDMDL
