MODEL 1
REMARK minimizedAffinity -5.28048372
REMARK minimizedRMSD -1
REMARK  0 active torsions:
REMARK  status: ('A' for Active; 'I' for Inactive)
ROOT
ATOM      1  C1  BNZ d   1      -0.759   3.355  -0.040  0.00  0.00     0.000 A 
ATOM      2  C2  BNZ d   1      -1.390   2.881   1.079  0.00  0.00     0.000 A 
ATOM      3  C3  BNZ d   1      -1.341   1.554   1.401  0.00  0.00     0.000 A 
ATOM      4  C4  BNZ d   1      -0.696   0.697   0.584  0.00  0.00     0.000 A 
ATOM      5  C5  BNZ d   1      -0.062   1.158  -0.553  0.00  0.00     0.000 A 
ATOM      6  C6  BNZ d   1      -0.081   2.501  -0.853  0.00  0.00     0.000 A 
ENDROOT
TORSDOF 0
ENDMDL
