MODEL 1
REMARK minimizedAffinity -4.64916992
REMARK minimizedRMSD -1
REMARK  0 active torsions:
REMARK  status: ('A' for Active; 'I' for Inactive)
ROOT
ATOM      1  C1  BNZ d   1      -0.336  -0.279   1.461  0.00  0.00     0.000 A 
ATOM      2  C2  BNZ d   1      -1.097   0.681   2.074  0.00  0.00     0.000 A 
ATOM      3  C3  BNZ d   1      -1.590   1.741   1.366  0.00  0.00     0.000 A 
ATOM      4  C4  BNZ d   1      -1.288   1.862   0.057  0.00  0.00     0.000 A 
ATOM      5  C5  BNZ d   1      -0.514   0.908  -0.573  0.00  0.00     0.000 A 
ATOM      6  C6  BNZ d   1      -0.053  -0.178   0.134  0.00  0.00     0.000 A 
ENDROOT
TORSDOF 0
ENDMDL
