MODEL 1
REMARK minimizedAffinity -3.14281702
REMARK minimizedRMSD -1
REMARK  0 active torsions:
REMARK  status: ('A' for Active; 'I' for Inactive)
ROOT
ATOM      1  C1  BNZ d   1       0.348  -1.576  -2.107  0.00  0.00     0.000 A 
ATOM      2  C2  BNZ d   1      -0.043  -2.588  -2.942  0.00  0.00     0.000 A 
ATOM      3  C3  BNZ d   1       0.101  -3.896  -2.573  0.00  0.00     0.000 A 
ATOM      4  C4  BNZ d   1       0.672  -4.191  -1.387  0.00  0.00     0.000 A 
ATOM      5  C5  BNZ d   1       1.080  -3.182  -0.538  0.00  0.00     0.000 A 
ATOM      6  C6  BNZ d   1       0.898  -1.866  -0.896  0.00  0.00     0.000 A 
ENDROOT
TORSDOF 0
ENDMDL
