MODEL 1
REMARK minimizedAffinity -3.4029448
REMARK minimizedRMSD -1
REMARK  0 active torsions:
REMARK  status: ('A' for Active; 'I' for Inactive)
ROOT
ATOM      1  C1  BNZ d   1       0.076   0.396  -0.777  0.00  0.00     0.000 A 
ATOM      2  C2  BNZ d   1      -0.646   1.559  -0.738  0.00  0.00     0.000 A 
ATOM      3  C3  BNZ d   1      -1.375   1.894   0.370  0.00  0.00     0.000 A 
ATOM      4  C4  BNZ d   1      -1.413   1.048   1.419  0.00  0.00     0.000 A 
ATOM      5  C5  BNZ d   1      -0.698  -0.133   1.391  0.00  0.00     0.000 A 
ATOM      6  C6  BNZ d   1       0.065  -0.449   0.290  0.00  0.00     0.000 A 
ENDROOT
TORSDOF 0
ENDMDL
