MODEL 1
REMARK minimizedAffinity -4.12333155
REMARK minimizedRMSD -1
REMARK  0 active torsions:
REMARK  status: ('A' for Active; 'I' for Inactive)
ROOT
ATOM      1  C1  BNZ d   1       0.095   0.060  -0.476  0.00  0.00     0.000 A 
ATOM      2  C2  BNZ d   1      -0.754   1.126  -0.344  0.00  0.00     0.000 A 
ATOM      3  C3  BNZ d   1      -1.346   1.405   0.856  0.00  0.00     0.000 A 
ATOM      4  C4  BNZ d   1      -1.121   0.594   1.911  0.00  0.00     0.000 A 
ATOM      5  C5  BNZ d   1      -0.275  -0.490   1.791  0.00  0.00     0.000 A 
ATOM      6  C6  BNZ d   1       0.350  -0.745   0.592  0.00  0.00     0.000 A 
ENDROOT
TORSDOF 0
ENDMDL
