MODEL 1
REMARK minimizedAffinity -4.6288352
REMARK minimizedRMSD -1
REMARK  0 active torsions:
REMARK  status: ('A' for Active; 'I' for Inactive)
ROOT
ATOM      1  C1  BNZ d   1      -0.487   0.667  -0.470  0.00  0.00     0.000 A 
ATOM      2  C2  BNZ d   1      -1.263   1.738  -0.118  0.00  0.00     0.000 A 
ATOM      3  C3  BNZ d   1      -1.862   1.796   1.109  0.00  0.00     0.000 A 
ATOM      4  C4  BNZ d   1      -1.718   0.765   1.967  0.00  0.00     0.000 A 
ATOM      5  C5  BNZ d   1      -0.946  -0.327   1.623  0.00  0.00     0.000 A 
ATOM      6  C6  BNZ d   1      -0.313  -0.364   0.402  0.00  0.00     0.000 A 
ENDROOT
TORSDOF 0
ENDMDL
