MODEL 1
REMARK minimizedAffinity -3.51941085
REMARK minimizedRMSD -1
REMARK  0 active torsions:
REMARK  status: ('A' for Active; 'I' for Inactive)
ROOT
ATOM      1  C1  BNZ d   1       0.795  -0.352  -0.010  0.00  0.00     0.000 A 
ATOM      2  C2  BNZ d   1      -0.089  -0.153   1.017  0.00  0.00     0.000 A 
ATOM      3  C3  BNZ d   1      -1.035   0.832   0.945  0.00  0.00     0.000 A 
ATOM      4  C4  BNZ d   1      -1.070   1.640  -0.134  0.00  0.00     0.000 A 
ATOM      5  C5  BNZ d   1      -0.181   1.457  -1.174  0.00  0.00     0.000 A 
ATOM      6  C6  BNZ d   1       0.745   0.441  -1.115  0.00  0.00     0.000 A 
ENDROOT
TORSDOF 0
ENDMDL
