MODEL 1
REMARK minimizedAffinity -4.7680912
REMARK minimizedRMSD -1
REMARK  0 active torsions:
REMARK  status: ('A' for Active; 'I' for Inactive)
ROOT
ATOM      1  C1  BNZ d   1      -1.677   2.036   1.144  0.00  0.00     0.000 A 
ATOM      2  C2  BNZ d   1      -1.429   3.270   0.604  0.00  0.00     0.000 A 
ATOM      3  C3  BNZ d   1      -0.621   3.406  -0.490  0.00  0.00     0.000 A 
ATOM      4  C4  BNZ d   1      -0.031   2.315  -1.018  0.00  0.00     0.000 A 
ATOM      5  C5  BNZ d   1      -0.264   1.065  -0.480  0.00  0.00     0.000 A 
ATOM      6  C6  BNZ d   1      -1.109   0.927   0.597  0.00  0.00     0.000 A 
ENDROOT
TORSDOF 0
ENDMDL
