MODEL 1
REMARK minimizedAffinity -4.76061678
REMARK minimizedRMSD -1
REMARK  0 active torsions:
REMARK  status: ('A' for Active; 'I' for Inactive)
ROOT
ATOM      1  C1  BNZ d   1      -1.690   0.357   2.381  0.00  0.00     0.000 A 
ATOM      2  C2  BNZ d   1      -0.721  -0.550   2.044  0.00  0.00     0.000 A 
ATOM      3  C3  BNZ d   1      -0.119  -0.508   0.817  0.00  0.00     0.000 A 
ATOM      4  C4  BNZ d   1      -0.515   0.414  -0.084  0.00  0.00     0.000 A 
ATOM      5  C5  BNZ d   1      -1.497   1.329   0.238  0.00  0.00     0.000 A 
ATOM      6  C6  BNZ d   1      -2.073   1.308   1.487  0.00  0.00     0.000 A 
ENDROOT
TORSDOF 0
ENDMDL
