MODEL 1
REMARK minimizedAffinity -3.01222086
REMARK minimizedRMSD -1
REMARK  0 active torsions:
REMARK  status: ('A' for Active; 'I' for Inactive)
ROOT
ATOM      1  C1  BNZ d   1      -0.439   1.262  -0.762  0.00  0.00     0.000 A 
ATOM      2  C2  BNZ d   1       0.458   0.600  -1.557  0.00  0.00     0.000 A 
ATOM      3  C3  BNZ d   1       1.004  -0.587  -1.158  0.00  0.00     0.000 A 
ATOM      4  C4  BNZ d   1       0.685  -1.091   0.051  0.00  0.00     0.000 A 
ATOM      5  C5  BNZ d   1      -0.211  -0.431   0.869  0.00  0.00     0.000 A 
ATOM      6  C6  BNZ d   1      -0.789   0.744   0.447  0.00  0.00     0.000 A 
ENDROOT
TORSDOF 0
ENDMDL
