MODEL 1
REMARK minimizedAffinity -3.06290364
REMARK minimizedRMSD -1
REMARK  0 active torsions:
REMARK  status: ('A' for Active; 'I' for Inactive)
ROOT
ATOM      1  C1  BNZ d   1      -0.129  -0.607   0.692  0.00  0.00     0.000 A 
ATOM      2  C2  BNZ d   1      -1.048  -0.247   1.641  0.00  0.00     0.000 A 
ATOM      3  C3  BNZ d   1      -1.723   0.938   1.547  0.00  0.00     0.000 A 
ATOM      4  C4  BNZ d   1      -1.449   1.779   0.529  0.00  0.00     0.000 A 
ATOM      5  C5  BNZ d   1      -0.518   1.435  -0.431  0.00  0.00     0.000 A 
ATOM      6  C6  BNZ d   1       0.131   0.224  -0.355  0.00  0.00     0.000 A 
ENDROOT
TORSDOF 0
ENDMDL
