MODEL 1
REMARK minimizedAffinity -3.52511835
REMARK minimizedRMSD -1
REMARK  0 active torsions:
REMARK  status: ('A' for Active; 'I' for Inactive)
ROOT
ATOM      1  C1  BNZ d   1      -1.071   1.225   1.887  0.00  0.00     0.000 A 
ATOM      2  C2  BNZ d   1      -0.435   0.064   1.537  0.00  0.00     0.000 A 
ATOM      3  C3  BNZ d   1       0.221  -0.041   0.343  0.00  0.00     0.000 A 
ATOM      4  C4  BNZ d   1       0.207   0.999  -0.516  0.00  0.00     0.000 A 
ATOM      5  C5  BNZ d   1      -0.438   2.173  -0.181  0.00  0.00     0.000 A 
ATOM      6  C6  BNZ d   1      -1.064   2.289   1.038  0.00  0.00     0.000 A 
ENDROOT
TORSDOF 0
ENDMDL
