MODEL 1
REMARK minimizedAffinity -4.10897112
REMARK minimizedRMSD -1
REMARK  0 active torsions:
REMARK  status: ('A' for Active; 'I' for Inactive)
ROOT
ATOM      1  C1  BNZ d   1      -0.778   0.753  -0.588  0.00  0.00     0.000 A 
ATOM      2  C2  BNZ d   1       0.008   0.022   0.262  0.00  0.00     0.000 A 
ATOM      3  C3  BNZ d   1      -0.207   0.049   1.611  0.00  0.00     0.000 A 
ATOM      4  C4  BNZ d   1      -1.179   0.838   2.112  0.00  0.00     0.000 A 
ATOM      5  C5  BNZ d   1      -1.974   1.589   1.269  0.00  0.00     0.000 A 
ATOM      6  C6  BNZ d   1      -1.780   1.529  -0.092  0.00  0.00     0.000 A 
ENDROOT
TORSDOF 0
ENDMDL
