MODEL 1
REMARK minimizedAffinity -4.53142357
REMARK minimizedRMSD -1
REMARK  0 active torsions:
REMARK  status: ('A' for Active; 'I' for Inactive)
ROOT
ATOM      1  C1  BNZ d   1      -0.250  -0.003   1.547  0.00  0.00     0.000 A 
ATOM      2  C2  BNZ d   1      -0.891   1.075   2.097  0.00  0.00     0.000 A 
ATOM      3  C3  BNZ d   1      -1.170   2.182   1.345  0.00  0.00     0.000 A 
ATOM      4  C4  BNZ d   1      -0.771   2.227   0.057  0.00  0.00     0.000 A 
ATOM      5  C5  BNZ d   1      -0.115   1.152  -0.509  0.00  0.00     0.000 A 
ATOM      6  C6  BNZ d   1       0.128   0.023   0.240  0.00  0.00     0.000 A 
ENDROOT
TORSDOF 0
ENDMDL
