MODEL 1
REMARK minimizedAffinity -4.62957811
REMARK minimizedRMSD -1
REMARK  0 active torsions:
REMARK  status: ('A' for Active; 'I' for Inactive)
ROOT
ATOM      1  C1  BNZ d   1      -0.311  -0.438   0.805  0.00  0.00     0.000 A 
ATOM      2  C2  BNZ d   1      -1.189  -0.265   1.842  0.00  0.00     0.000 A 
ATOM      3  C3  BNZ d   1      -1.919   0.885   1.956  0.00  0.00     0.000 A 
ATOM      4  C4  BNZ d   1      -1.742   1.875   1.058  0.00  0.00     0.000 A 
ATOM      5  C5  BNZ d   1      -0.853   1.720   0.013  0.00  0.00     0.000 A 
ATOM      6  C6  BNZ d   1      -0.149   0.546  -0.121  0.00  0.00     0.000 A 
ENDROOT
TORSDOF 0
ENDMDL
