MODEL 1
REMARK minimizedAffinity -1.76049542
REMARK minimizedRMSD -1
REMARK  0 active torsions:
REMARK  status: ('A' for Active; 'I' for Inactive)
ROOT
ATOM      1  C1  BNZ d   1       0.174  -1.066   0.570  0.00  0.00     0.000 A 
ATOM      2  C2  BNZ d   1      -0.656  -0.231   1.270  0.00  0.00     0.000 A 
ATOM      3  C3  BNZ d   1      -1.230   0.853   0.666  0.00  0.00     0.000 A 
ATOM      4  C4  BNZ d   1      -0.941   1.123  -0.624  0.00  0.00     0.000 A 
ATOM      5  C5  BNZ d   1      -0.099   0.296  -1.340  0.00  0.00     0.000 A 
ATOM      6  C6  BNZ d   1       0.446  -0.816  -0.739  0.00  0.00     0.000 A 
ENDROOT
TORSDOF 0
ENDMDL
