MODEL 1
REMARK minimizedAffinity -5.71636486
REMARK minimizedRMSD -1
REMARK  3 active torsions:
REMARK  status: ('A' for Active; 'I' for Inactive)
REMARK    1  A    between atoms: C3'_2  and  C2'_3 
REMARK    2  A    between atoms: C2'_3  and  C1'_4 
REMARK    3  A    between atoms: C1'_4  and  C1_5 
ROOT
ATOM      1  C1  N4B d   1       0.567  -0.137   0.376  0.00  0.00    -0.075 A 
ATOM      2  C2  N4B d   1       1.043   0.622   1.467  0.00  0.00     0.002 A 
ATOM      3  C3  N4B d   1       0.446   0.503   2.699  0.00  0.00     0.002 A 
ATOM      4  C4  N4B d   1      -0.636  -0.349   2.857  0.00  0.00    -0.004 A 
ATOM      5  C5  N4B d   1      -1.074  -1.097   1.804  0.00  0.00     0.002 A 
ATOM      6  C6  N4B d   1      -0.481  -0.992   0.562  0.00  0.00     0.002 A 
ENDROOT
BRANCH   1   7
ATOM      7  C1' N4B d   1       1.132   0.023  -1.009  0.00  0.00     0.057 C 
BRANCH   7   8
ATOM      8  C2' N4B d   1       0.397  -0.916  -1.961  0.00  0.00     0.009 C 
BRANCH   8   9
ATOM      9  C3' N4B d   1       1.087  -1.011  -3.311  0.00  0.00     0.004 C 
ATOM     10  C4' N4B d   1       1.966  -2.220  -3.430  0.00  0.00     0.003 C 
ENDBRANCH   8   9
ENDBRANCH   7   8
ENDBRANCH   1   7
TORSDOF 3
ENDMDL
