MODEL 1
REMARK minimizedAffinity -5.00732851
REMARK minimizedRMSD -1
REMARK  3 active torsions:
REMARK  status: ('A' for Active; 'I' for Inactive)
REMARK    1  A    between atoms: C3'_2  and  C2'_3 
REMARK    2  A    between atoms: C2'_3  and  C1'_4 
REMARK    3  A    between atoms: C1'_4  and  C1_5 
ROOT
ATOM      1  C1  N4B d   1      -0.194  -0.439   0.149  0.00  0.00    -0.075 A 
ATOM      2  C2  N4B d   1       1.043   0.018   0.655  0.00  0.00     0.002 A 
ATOM      3  C3  N4B d   1       1.277   0.010   2.008  0.00  0.00     0.002 A 
ATOM      4  C4  N4B d   1       0.286  -0.431   2.872  0.00  0.00    -0.004 A 
ATOM      5  C5  N4B d   1      -0.896  -0.894   2.375  0.00  0.00     0.002 A 
ATOM      6  C6  N4B d   1      -1.143  -0.896   1.016  0.00  0.00     0.002 A 
ENDROOT
BRANCH   1   7
ATOM      7  C1' N4B d   1      -0.528  -0.369  -1.316  0.00  0.00     0.057 C 
BRANCH   7   8
ATOM      8  C2' N4B d   1       0.761  -0.460  -2.128  0.00  0.00     0.009 C 
BRANCH   8   9
ATOM      9  C3' N4B d   1       0.740  -1.630  -3.097  0.00  0.00     0.004 C 
ATOM     10  C4' N4B d   1       2.111  -2.151  -3.408  0.00  0.00     0.003 C 
ENDBRANCH   8   9
ENDBRANCH   7   8
ENDBRANCH   1   7
TORSDOF 3
ENDMDL
