MODEL 1
REMARK minimizedAffinity -5.74574566
REMARK minimizedRMSD -1
REMARK  3 active torsions:
REMARK  status: ('A' for Active; 'I' for Inactive)
REMARK    1  A    between atoms: C3'_2  and  C2'_3 
REMARK    2  A    between atoms: C2'_3  and  C1'_4 
REMARK    3  A    between atoms: C1'_4  and  C1_5 
ROOT
ATOM      1  C1  N4B d   1      -0.019   0.352   0.636  0.00  0.00    -0.075 A 
ATOM      2  C2  N4B d   1      -1.420   0.194   0.560  0.00  0.00     0.002 A 
ATOM      3  C3  N4B d   1      -2.138  -0.119   1.688  0.00  0.00     0.002 A 
ATOM      4  C4  N4B d   1      -1.477  -0.296   2.894  0.00  0.00    -0.004 A 
ATOM      5  C5  N4B d   1      -0.127  -0.116   2.964  0.00  0.00     0.002 A 
ATOM      6  C6  N4B d   1       0.607   0.202   1.840  0.00  0.00     0.002 A 
ENDROOT
BRANCH   1   7
ATOM      7  C1' N4B d   1       0.819   0.610  -0.587  0.00  0.00     0.057 C 
BRANCH   7   8
ATOM      8  C2' N4B d   1       0.172  -0.071  -1.789  0.00  0.00     0.009 C 
BRANCH   8   9
ATOM      9  C3' N4B d   1       1.207  -0.628  -2.752  0.00  0.00     0.004 C 
ATOM     10  C4' N4B d   1       0.718  -1.834  -3.496  0.00  0.00     0.003 C 
ENDBRANCH   8   9
ENDBRANCH   7   8
ENDBRANCH   1   7
TORSDOF 3
ENDMDL
