MODEL 1
REMARK minimizedAffinity -3.69376922
REMARK minimizedRMSD -1
REMARK  3 active torsions:
REMARK  status: ('A' for Active; 'I' for Inactive)
REMARK    1  A    between atoms: C3'_2  and  C2'_3 
REMARK    2  A    between atoms: C2'_3  and  C1'_4 
REMARK    3  A    between atoms: C1'_4  and  C1_5 
ROOT
ATOM      1  C1  N4B d   1      -0.114   0.235   0.637  0.00  0.00    -0.075 A 
ATOM      2  C2  N4B d   1      -0.982  -0.863   0.827  0.00  0.00     0.002 A 
ATOM      3  C3  N4B d   1      -1.250  -1.314   2.096  0.00  0.00     0.002 A 
ATOM      4  C4  N4B d   1      -0.651  -0.698   3.184  0.00  0.00    -0.004 A 
ATOM      5  C5  N4B d   1       0.166   0.378   2.994  0.00  0.00     0.002 A 
ATOM      6  C6  N4B d   1       0.441   0.845   1.724  0.00  0.00     0.002 A 
ENDROOT
BRANCH   1   7
ATOM      7  C1' N4B d   1       0.277   0.710  -0.736  0.00  0.00     0.057 C 
BRANCH   7   8
ATOM      8  C2' N4B d   1       0.255  -0.473  -1.700  0.00  0.00     0.009 C 
BRANCH   8   9
ATOM      9  C3' N4B d   1       1.309  -0.340  -2.786  0.00  0.00     0.004 C 
ATOM     10  C4' N4B d   1       1.465  -1.591  -3.599  0.00  0.00     0.003 C 
ENDBRANCH   8   9
ENDBRANCH   7   8
ENDBRANCH   1   7
TORSDOF 3
ENDMDL
