MODEL 1
REMARK minimizedAffinity -5.29590845
REMARK minimizedRMSD -1
REMARK  3 active torsions:
REMARK  status: ('A' for Active; 'I' for Inactive)
REMARK    1  A    between atoms: C3'_2  and  C2'_3 
REMARK    2  A    between atoms: C2'_3  and  C1'_4 
REMARK    3  A    between atoms: C1'_4  and  C1_5 
ROOT
ATOM      1  C1  N4B d   1      -0.244   0.058   0.342  0.00  0.00    -0.075 A 
ATOM      2  C2  N4B d   1      -1.589   0.420   0.573  0.00  0.00     0.002 A 
ATOM      3  C3  N4B d   1      -2.164   0.183   1.797  0.00  0.00     0.002 A 
ATOM      4  C4  N4B d   1      -1.422  -0.430   2.796  0.00  0.00    -0.004 A 
ATOM      5  C5  N4B d   1      -0.116  -0.754   2.573  0.00  0.00     0.002 A 
ATOM      6  C6  N4B d   1       0.476  -0.517   1.349  0.00  0.00     0.002 A 
ENDROOT
BRANCH   1   7
ATOM      7  C1' N4B d   1       0.402   0.219  -1.007  0.00  0.00     0.057 C 
BRANCH   7   8
ATOM      8  C2' N4B d   1       0.263  -1.084  -1.788  0.00  0.00     0.009 C 
BRANCH   8   9
ATOM      9  C3' N4B d   1       1.198  -1.133  -2.983  0.00  0.00     0.004 C 
ATOM     10  C4' N4B d   1       1.590  -2.531  -3.358  0.00  0.00     0.003 C 
ENDBRANCH   8   9
ENDBRANCH   7   8
ENDBRANCH   1   7
TORSDOF 3
ENDMDL
