MODEL 1
REMARK minimizedAffinity -6.31676769
REMARK minimizedRMSD -1
REMARK  3 active torsions:
REMARK  status: ('A' for Active; 'I' for Inactive)
REMARK    1  A    between atoms: C3'_2  and  C2'_3 
REMARK    2  A    between atoms: C2'_3  and  C1'_4 
REMARK    3  A    between atoms: C1'_4  and  C1_5 
ROOT
ATOM      1  C1  N4B d   1       0.438  -0.061  -0.109  0.00  0.00    -0.075 A 
ATOM      2  C2  N4B d   1       1.397   0.148   0.906  0.00  0.00     0.002 A 
ATOM      3  C3  N4B d   1       1.021   0.104   2.226  0.00  0.00     0.002 A 
ATOM      4  C4  N4B d   1      -0.307  -0.127   2.553  0.00  0.00    -0.004 A 
ATOM      5  C5  N4B d   1      -1.223  -0.353   1.568  0.00  0.00     0.002 A 
ATOM      6  C6  N4B d   1      -0.858  -0.316   0.237  0.00  0.00     0.002 A 
ENDROOT
BRANCH   1   7
ATOM      7  C1' N4B d   1       0.785   0.063  -1.567  0.00  0.00     0.057 C 
BRANCH   7   8
ATOM      8  C2' N4B d   1      -0.029  -0.952  -2.364  0.00  0.00     0.009 C 
BRANCH   8   9
ATOM      9  C3' N4B d   1       0.672  -1.361  -3.648  0.00  0.00     0.004 C 
ATOM     10  C4' N4B d   1       1.897  -2.190  -3.403  0.00  0.00     0.003 C 
ENDBRANCH   8   9
ENDBRANCH   7   8
ENDBRANCH   1   7
TORSDOF 3
ENDMDL
