MODEL 1
REMARK minimizedAffinity 5.91018438
REMARK minimizedRMSD -1
REMARK  3 active torsions:
REMARK  status: ('A' for Active; 'I' for Inactive)
REMARK    1  A    between atoms: C3'_2  and  C2'_3 
REMARK    2  A    between atoms: C2'_3  and  C1'_4 
REMARK    3  A    between atoms: C1'_4  and  C1_5 
ROOT
ATOM      1  C1  N4B d   1       0.406   0.536   2.159  0.00  0.00    -0.075 A 
ATOM      2  C2  N4B d   1      -0.252   0.419   0.915  0.00  0.00     0.002 A 
ATOM      3  C3  N4B d   1       0.393   0.791  -0.240  0.00  0.00     0.002 A 
ATOM      4  C4  N4B d   1       1.682   1.297  -0.173  0.00  0.00    -0.004 A 
ATOM      5  C5  N4B d   1       2.319   1.383   1.030  0.00  0.00     0.002 A 
ATOM      6  C6  N4B d   1       1.685   1.009   2.198  0.00  0.00     0.002 A 
ENDROOT
BRANCH   1   7
ATOM      7  C1' N4B d   1      -0.288   0.223   3.456  0.00  0.00     0.057 C 
BRANCH   7   8
ATOM      8  C2' N4B d   1      -1.085   1.444   3.906  0.00  0.00     0.009 C 
BRANCH   8   9
ATOM      9  C3' N4B d   1      -0.319   2.736   3.680  0.00  0.00     0.004 C 
ATOM     10  C4' N4B d   1       0.699   3.003   4.749  0.00  0.00     0.003 C 
ENDBRANCH   8   9
ENDBRANCH   7   8
ENDBRANCH   1   7
TORSDOF 3
ENDMDL
