MODEL 1
REMARK minimizedAffinity 0.16705896
REMARK minimizedRMSD -1
REMARK  3 active torsions:
REMARK  status: ('A' for Active; 'I' for Inactive)
REMARK    1  A    between atoms: C3'_2  and  C2'_3 
REMARK    2  A    between atoms: C2'_3  and  C1'_4 
REMARK    3  A    between atoms: C1'_4  and  C1_5 
ROOT
ATOM      1  C1  N4B d   1      -0.266   0.616   1.302  0.00  0.00    -0.075 A 
ATOM      2  C2  N4B d   1      -1.654   0.824   1.151  0.00  0.00     0.002 A 
ATOM      3  C3  N4B d   1      -2.266   0.533  -0.044  0.00  0.00     0.002 A 
ATOM      4  C4  N4B d   1      -1.510   0.052  -1.102  0.00  0.00    -0.004 A 
ATOM      5  C5  N4B d   1      -0.173  -0.170  -0.940  0.00  0.00     0.002 A 
ATOM      6  C6  N4B d   1       0.454   0.115   0.257  0.00  0.00     0.002 A 
ENDROOT
BRANCH   1   7
ATOM      7  C1' N4B d   1       0.462   1.001   2.561  0.00  0.00     0.057 C 
BRANCH   7   8
ATOM      8  C2' N4B d   1      -0.527   1.027   3.723  0.00  0.00     0.009 C 
BRANCH   8   9
ATOM      9  C3' N4B d   1      -0.875  -0.371   4.204  0.00  0.00     0.004 C 
ATOM     10  C4' N4B d   1      -2.164  -0.418   4.970  0.00  0.00     0.003 C 
ENDBRANCH   8   9
ENDBRANCH   7   8
ENDBRANCH   1   7
TORSDOF 3
ENDMDL
