MODEL 1
REMARK minimizedAffinity -2.09976554
REMARK minimizedRMSD -1
REMARK  3 active torsions:
REMARK  status: ('A' for Active; 'I' for Inactive)
REMARK    1  A    between atoms: C3'_2  and  C2'_3 
REMARK    2  A    between atoms: C2'_3  and  C1'_4 
REMARK    3  A    between atoms: C1'_4  and  C1_5 
ROOT
ATOM      1  C1  N4B d   1       0.260  -0.175   0.505  0.00  0.00    -0.075 A 
ATOM      2  C2  N4B d   1       0.637   0.735   1.517  0.00  0.00     0.002 A 
ATOM      3  C3  N4B d   1       0.266   0.505   2.819  0.00  0.00     0.002 A 
ATOM      4  C4  N4B d   1      -0.495  -0.612   3.129  0.00  0.00    -0.004 A 
ATOM      5  C5  N4B d   1      -0.833  -1.499   2.150  0.00  0.00     0.002 A 
ATOM      6  C6  N4B d   1      -0.464  -1.284   0.837  0.00  0.00     0.002 A 
ENDROOT
BRANCH   1   7
ATOM      7  C1' N4B d   1       0.569   0.077  -0.946  0.00  0.00     0.057 C 
BRANCH   7   8
ATOM      8  C2' N4B d   1       0.741  -1.259  -1.661  0.00  0.00     0.009 C 
BRANCH   8   9
ATOM      9  C3' N4B d   1       1.696  -1.155  -2.837  0.00  0.00     0.004 C 
ATOM     10  C4' N4B d   1       1.777  -2.423  -3.634  0.00  0.00     0.003 C 
ENDBRANCH   8   9
ENDBRANCH   7   8
ENDBRANCH   1   7
TORSDOF 3
ENDMDL
