MODEL 1
REMARK minimizedAffinity -0.571346641
REMARK minimizedRMSD -1
REMARK  1 active torsions:
REMARK  status: ('A' for Active; 'I' for Inactive)
REMARK    1  A    between atoms: C3_4  and  O_7 
ROOT
ATOM      1  C   UNL d   1       1.067   3.248  -4.382  0.00  0.00    -0.033 A 
ATOM      2  C1  UNL d   1       1.031   2.614  -3.138  0.00  0.00     0.039 A 
ATOM      3  C2  UNL d   1       1.520   1.314  -3.001  0.00  0.00    -0.080 A 
ATOM      4  C3  UNL d   1       2.042   0.659  -4.113  0.00  0.00     0.150 A 
ATOM      5  C4  UNL d   1       2.084   1.285  -5.354  0.00  0.00    -0.007 A 
ATOM      6  C5  UNL d   1       1.595   2.584  -5.490  0.00  0.00     0.039 A 
ENDROOT
BRANCH   4   7
ATOM      7  O   UNL d   1       2.526  -0.613  -4.029  0.00  0.00    -0.526 OA
ATOM      8  H5  UNL d   1       2.405  -0.928  -3.118  0.00  0.00     0.418 HD
ENDBRANCH   4   7
TORSDOF 1
ENDMDL
