MODEL 1
REMARK minimizedAffinity -2.57603884
REMARK minimizedRMSD -1
REMARK  1 active torsions:
REMARK  status: ('A' for Active; 'I' for Inactive)
REMARK    1  A    between atoms: C3_4  and  O_7 
ROOT
ATOM      1  C   UNL d   1       0.369   0.410  -0.579  0.00  0.00    -0.033 A 
ATOM      2  C1  UNL d   1       1.387   0.490   0.373  0.00  0.00     0.039 A 
ATOM      3  C2  UNL d   1       1.156   0.059   1.681  0.00  0.00    -0.080 A 
ATOM      4  C3  UNL d   1      -0.094  -0.449   2.023  0.00  0.00     0.150 A 
ATOM      5  C4  UNL d   1      -1.111  -0.535   1.078  0.00  0.00    -0.007 A 
ATOM      6  C5  UNL d   1      -0.880  -0.103  -0.227  0.00  0.00     0.039 A 
ENDROOT
BRANCH   4   7
ATOM      7  O   UNL d   1      -0.367  -0.877   3.288  0.00  0.00    -0.526 OA
ATOM      8  H5  UNL d   1       0.420  -0.731   3.839  0.00  0.00     0.418 HD
ENDBRANCH   4   7
TORSDOF 1
ENDMDL
