MODEL 1
REMARK minimizedAffinity -3.73198199
REMARK minimizedRMSD -1
REMARK  1 active torsions:
REMARK  status: ('A' for Active; 'I' for Inactive)
REMARK    1  A    between atoms: C3_4  and  O_7 
ROOT
ATOM      1  C   UNL d   1      -0.153   0.637   0.110  0.00  0.00    -0.033 A 
ATOM      2  C1  UNL d   1      -1.352  -0.040   0.344  0.00  0.00     0.039 A 
ATOM      3  C2  UNL d   1      -1.492  -0.847   1.475  0.00  0.00    -0.080 A 
ATOM      4  C3  UNL d   1      -0.427  -0.968   2.363  0.00  0.00     0.150 A 
ATOM      5  C4  UNL d   1       0.769  -0.294   2.139  0.00  0.00    -0.007 A 
ATOM      6  C5  UNL d   1       0.907   0.511   1.009  0.00  0.00     0.039 A 
ENDROOT
BRANCH   4   7
ATOM      7  O   UNL d   1      -0.514  -1.748   3.478  0.00  0.00    -0.526 OA
ATOM      8  H5  UNL d   1      -1.388  -2.174   3.487  0.00  0.00     0.418 HD
ENDBRANCH   4   7
TORSDOF 1
ENDMDL
