MODEL 1
REMARK minimizedAffinity -4.74407482
REMARK minimizedRMSD -1
REMARK  1 active torsions:
REMARK  status: ('A' for Active; 'I' for Inactive)
REMARK    1  A    between atoms: C3_4  and  O_7 
ROOT
ATOM      1  C   UNL d   1      -0.188   0.396  -0.395  0.00  0.00    -0.033 A 
ATOM      2  C1  UNL d   1      -1.430  -0.183  -0.125  0.00  0.00     0.039 A 
ATOM      3  C2  UNL d   1      -1.700  -0.701   1.144  0.00  0.00    -0.080 A 
ATOM      4  C3  UNL d   1      -0.721  -0.632   2.132  0.00  0.00     0.150 A 
ATOM      5  C4  UNL d   1       0.516  -0.054   1.870  0.00  0.00    -0.007 A 
ATOM      6  C5  UNL d   1       0.784   0.462   0.603  0.00  0.00     0.039 A 
ENDROOT
BRANCH   4   7
ATOM      7  O   UNL d   1      -0.936  -1.128   3.383  0.00  0.00    -0.526 OA
ATOM      8  H5  UNL d   1      -1.824  -1.523   3.409  0.00  0.00     0.418 HD
ENDBRANCH   4   7
TORSDOF 1
ENDMDL
