MODEL 1
REMARK minimizedAffinity -4.82595825
REMARK minimizedRMSD -1
REMARK  1 active torsions:
REMARK  status: ('A' for Active; 'I' for Inactive)
REMARK    1  A    between atoms: C3_4  and  O_7 
ROOT
ATOM      1  C   UNL d   1       0.483   0.109  -0.166  0.00  0.00    -0.033 A 
ATOM      2  C1  UNL d   1      -0.648  -0.686   0.024  0.00  0.00     0.039 A 
ATOM      3  C2  UNL d   1      -1.035  -1.058   1.313  0.00  0.00    -0.080 A 
ATOM      4  C3  UNL d   1      -0.284  -0.627   2.402  0.00  0.00     0.150 A 
ATOM      5  C4  UNL d   1       0.842   0.170   2.222  0.00  0.00    -0.007 A 
ATOM      6  C5  UNL d   1       1.228   0.539   0.934  0.00  0.00     0.039 A 
ENDROOT
BRANCH   4   7
ATOM      7  O   UNL d   1      -0.620  -0.967   3.679  0.00  0.00    -0.526 OA
ATOM      8  H5  UNL d   1      -1.402  -1.543   3.648  0.00  0.00     0.418 HD
ENDBRANCH   4   7
TORSDOF 1
ENDMDL
