MODEL 1
REMARK minimizedAffinity 0.625125289
REMARK minimizedRMSD -1
REMARK  1 active torsions:
REMARK  status: ('A' for Active; 'I' for Inactive)
REMARK    1  A    between atoms: C3_4  and  O_7 
ROOT
ATOM      1  C   UNL d   1      -1.367  -0.569   0.611  0.00  0.00    -0.033 A 
ATOM      2  C1  UNL d   1      -1.377   0.542  -0.235  0.00  0.00     0.039 A 
ATOM      3  C2  UNL d   1      -0.544   0.576  -1.355  0.00  0.00    -0.080 A 
ATOM      4  C3  UNL d   1       0.292  -0.506  -1.618  0.00  0.00     0.150 A 
ATOM      5  C4  UNL d   1       0.304  -1.617  -0.782  0.00  0.00    -0.007 A 
ATOM      6  C5  UNL d   1      -0.527  -1.649   0.337  0.00  0.00     0.039 A 
ENDROOT
BRANCH   4   7
ATOM      7  O   UNL d   1       1.126  -0.516  -2.696  0.00  0.00    -0.526 OA
ATOM      8  H5  UNL d   1       1.031   0.329  -3.167  0.00  0.00     0.418 HD
ENDBRANCH   4   7
TORSDOF 1
ENDMDL
