MODEL 1
REMARK minimizedAffinity -4.33750153
REMARK minimizedRMSD -1
REMARK  1 active torsions:
REMARK  status: ('A' for Active; 'I' for Inactive)
REMARK    1  A    between atoms: C3_4  and  O_7 
ROOT
ATOM      1  C   UNL d   1      -0.734   0.869  -0.713  0.00  0.00    -0.033 A 
ATOM      2  C1  UNL d   1      -1.983   0.334  -0.391  0.00  0.00     0.039 A 
ATOM      3  C2  UNL d   1      -2.158  -0.364   0.805  0.00  0.00    -0.080 A 
ATOM      4  C3  UNL d   1      -1.079  -0.519   1.671  0.00  0.00     0.150 A 
ATOM      5  C4  UNL d   1       0.167   0.014   1.359  0.00  0.00    -0.007 A 
ATOM      6  C5  UNL d   1       0.341   0.710   0.163  0.00  0.00     0.039 A 
ENDROOT
BRANCH   4   7
ATOM      7  O   UNL d   1      -1.201  -1.197   2.847  0.00  0.00    -0.526 OA
ATOM      8  H5  UNL d   1      -2.109  -1.534   2.916  0.00  0.00     0.418 HD
ENDBRANCH   4   7
TORSDOF 1
ENDMDL
