MODEL 1
REMARK minimizedAffinity -5.16556883
REMARK minimizedRMSD -1
REMARK  1 active torsions:
REMARK  status: ('A' for Active; 'I' for Inactive)
REMARK    1  A    between atoms: C3_4  and  O_7 
ROOT
ATOM      1  C   UNL d   1      -0.977  -0.284   3.428  0.00  0.00    -0.033 A 
ATOM      2  C1  UNL d   1      -1.637  -1.170   2.574  0.00  0.00     0.039 A 
ATOM      3  C2  UNL d   1      -1.304  -1.214   1.219  0.00  0.00    -0.080 A 
ATOM      4  C3  UNL d   1      -0.310  -0.370   0.731  0.00  0.00     0.150 A 
ATOM      5  C4  UNL d   1       0.354   0.512   1.578  0.00  0.00    -0.007 A 
ATOM      6  C5  UNL d   1       0.020   0.555   2.930  0.00  0.00     0.039 A 
ENDROOT
BRANCH   4   7
ATOM      7  O   UNL d   1       0.046  -0.374  -0.584  0.00  0.00    -0.526 OA
ATOM      8  H5  UNL d   1      -0.516  -1.012  -1.054  0.00  0.00     0.418 HD
ENDBRANCH   4   7
TORSDOF 1
ENDMDL
