MODEL 1
REMARK minimizedAffinity -5.6064949
REMARK minimizedRMSD -1
REMARK  1 active torsions:
REMARK  status: ('A' for Active; 'I' for Inactive)
REMARK    1  A    between atoms: C3_4  and  O_7 
ROOT
ATOM      1  C   UNL d   1       1.407   0.024   1.448  0.00  0.00    -0.033 A 
ATOM      2  C1  UNL d   1       0.544  -0.450   2.438  0.00  0.00     0.039 A 
ATOM      3  C2  UNL d   1      -0.822  -0.575   2.175  0.00  0.00    -0.080 A 
ATOM      4  C3  UNL d   1      -1.311  -0.224   0.920  0.00  0.00     0.150 A 
ATOM      5  C4  UNL d   1      -0.457   0.245  -0.072  0.00  0.00    -0.007 A 
ATOM      6  C5  UNL d   1       0.907   0.370   0.193  0.00  0.00     0.039 A 
ENDROOT
BRANCH   4   7
ATOM      7  O   UNL d   1      -2.637  -0.324   0.618  0.00  0.00    -0.526 OA
ATOM      8  H5  UNL d   1      -3.109  -0.635   1.409  0.00  0.00     0.418 HD
ENDBRANCH   4   7
TORSDOF 1
ENDMDL
