MODEL 1
REMARK minimizedAffinity -5.0114007
REMARK minimizedRMSD -1
REMARK  1 active torsions:
REMARK  status: ('A' for Active; 'I' for Inactive)
REMARK    1  A    between atoms: C3_4  and  O_7 
ROOT
ATOM      1  C   UNL d   1       0.925   0.602   0.289  0.00  0.00    -0.033 A 
ATOM      2  C1  UNL d   1      -0.316   0.012   0.043  0.00  0.00     0.039 A 
ATOM      3  C2  UNL d   1      -1.056  -0.529   1.097  0.00  0.00    -0.080 A 
ATOM      4  C3  UNL d   1      -0.544  -0.472   2.390  0.00  0.00     0.150 A 
ATOM      5  C4  UNL d   1       0.690   0.118   2.643  0.00  0.00    -0.007 A 
ATOM      6  C5  UNL d   1       1.428   0.656   1.589  0.00  0.00     0.039 A 
ENDROOT
BRANCH   4   7
ATOM      7  O   UNL d   1      -1.227  -0.990   3.450  0.00  0.00    -0.526 OA
ATOM      8  H5  UNL d   1      -2.049  -1.390   3.121  0.00  0.00     0.418 HD
ENDBRANCH   4   7
TORSDOF 1
ENDMDL
