MODEL 1
REMARK minimizedAffinity -4.56909752
REMARK minimizedRMSD -1
REMARK  1 active torsions:
REMARK  status: ('A' for Active; 'I' for Inactive)
REMARK    1  A    between atoms: C3_4  and  O_7 
ROOT
ATOM      1  C   UNL d   1      -0.009   0.126  -0.383  0.00  0.00    -0.033 A 
ATOM      2  C1  UNL d   1      -1.255  -0.288   0.091  0.00  0.00     0.039 A 
ATOM      3  C2  UNL d   1      -1.420  -0.608   1.440  0.00  0.00    -0.080 A 
ATOM      4  C3  UNL d   1      -0.332  -0.509   2.303  0.00  0.00     0.150 A 
ATOM      5  C4  UNL d   1       0.911  -0.093   1.838  0.00  0.00    -0.007 A 
ATOM      6  C5  UNL d   1       1.074   0.225   0.491  0.00  0.00     0.039 A 
ENDROOT
BRANCH   4   7
ATOM      7  O   UNL d   1      -0.443  -0.815   3.627  0.00  0.00    -0.526 OA
ATOM      8  H5  UNL d   1      -1.351  -1.114   3.799  0.00  0.00     0.418 HD
ENDBRANCH   4   7
TORSDOF 1
ENDMDL
