MODEL 1
REMARK minimizedAffinity -4.97346973
REMARK minimizedRMSD -1
REMARK  1 active torsions:
REMARK  status: ('A' for Active; 'I' for Inactive)
REMARK    1  A    between atoms: C3_4  and  O_7 
ROOT
ATOM      1  C   UNL d   1       0.369   0.481  -0.116  0.00  0.00    -0.033 A 
ATOM      2  C1  UNL d   1      -0.940   0.090   0.170  0.00  0.00     0.039 A 
ATOM      3  C2  UNL d   1      -1.271  -0.366   1.447  0.00  0.00    -0.080 A 
ATOM      4  C3  UNL d   1      -0.285  -0.425   2.428  0.00  0.00     0.150 A 
ATOM      5  C4  UNL d   1       1.020  -0.033   2.152  0.00  0.00    -0.007 A 
ATOM      6  C5  UNL d   1       1.349   0.421   0.875  0.00  0.00     0.039 A 
ENDROOT
BRANCH   4   7
ATOM      7  O   UNL d   1      -0.560  -0.868   3.688  0.00  0.00    -0.526 OA
ATOM      8  H5  UNL d   1      -1.494  -1.131   3.725  0.00  0.00     0.418 HD
ENDBRANCH   4   7
TORSDOF 1
ENDMDL
