MODEL 1
REMARK minimizedAffinity -3.424896
REMARK minimizedRMSD -1
REMARK  1 active torsions:
REMARK  status: ('A' for Active; 'I' for Inactive)
REMARK    1  A    between atoms: C3_4  and  O_7 
ROOT
ATOM      1  C   UNL d   1      -0.739   0.482  -0.977  0.00  0.00    -0.033 A 
ATOM      2  C1  UNL d   1       0.593   0.375  -0.569  0.00  0.00     0.039 A 
ATOM      3  C2  UNL d   1       0.898   0.181   0.779  0.00  0.00    -0.080 A 
ATOM      4  C3  UNL d   1      -0.135   0.095   1.708  0.00  0.00     0.150 A 
ATOM      5  C4  UNL d   1      -1.463   0.197   1.309  0.00  0.00    -0.007 A 
ATOM      6  C5  UNL d   1      -1.767   0.392  -0.038  0.00  0.00     0.039 A 
ENDROOT
BRANCH   4   7
ATOM      7  O   UNL d   1       0.114  -0.090   3.036  0.00  0.00    -0.526 OA
ATOM      8  H5  UNL d   1       1.077  -0.114   3.168  0.00  0.00     0.418 HD
ENDBRANCH   4   7
TORSDOF 1
ENDMDL
