MODEL 1
REMARK minimizedAffinity -3.71058011
REMARK minimizedRMSD -1
REMARK  0 active torsions:
REMARK  status: ('A' for Active; 'I' for Inactive)
ROOT
ATOM      1  C1  BNZ d   1      -2.388  -0.445   2.012  0.00  0.00     0.000 A 
ATOM      2  C2  BNZ d   1      -1.510   0.220   2.825  0.00  0.00     0.000 A 
ATOM      3  C3  BNZ d   1      -0.442   0.893   2.300  0.00  0.00     0.000 A 
ATOM      4  C4  BNZ d   1      -0.231   0.865   0.968  0.00  0.00     0.000 A 
ATOM      5  C5  BNZ d   1      -1.102   0.191   0.136  0.00  0.00     0.000 A 
ATOM      6  C6  BNZ d   1      -2.198  -0.452   0.664  0.00  0.00     0.000 A 
ENDROOT
TORSDOF 0
ENDMDL
