MODEL 1
REMARK minimizedAffinity -4.02273703
REMARK minimizedRMSD -1
REMARK  0 active torsions:
REMARK  status: ('A' for Active; 'I' for Inactive)
ROOT
ATOM      1  C1  BNZ d   1       0.983  -0.754  -1.937  0.00  0.00     0.000 A 
ATOM      2  C2  BNZ d   1       1.606  -0.400  -3.104  0.00  0.00     0.000 A 
ATOM      3  C3  BNZ d   1       1.221   0.718  -3.791  0.00  0.00     0.000 A 
ATOM      4  C4  BNZ d   1       0.190   1.456  -3.332  0.00  0.00     0.000 A 
ATOM      5  C5  BNZ d   1      -0.454   1.107  -2.162  0.00  0.00     0.000 A 
ATOM      6  C6  BNZ d   1      -0.039   0.003  -1.452  0.00  0.00     0.000 A 
ENDROOT
TORSDOF 0
ENDMDL
