MODEL 1
REMARK minimizedAffinity -5.01868057
REMARK minimizedRMSD -1
REMARK  0 active torsions:
REMARK  status: ('A' for Active; 'I' for Inactive)
ROOT
ATOM      1  C1  BNZ d   1       0.126   1.037   1.021  0.00  0.00     0.000 A 
ATOM      2  C2  BNZ d   1      -0.308   1.392   2.270  0.00  0.00     0.000 A 
ATOM      3  C3  BNZ d   1      -1.535   0.995   2.724  0.00  0.00     0.000 A 
ATOM      4  C4  BNZ d   1      -2.342   0.280   1.913  0.00  0.00     0.000 A 
ATOM      5  C5  BNZ d   1      -1.922  -0.077   0.647  0.00  0.00     0.000 A 
ATOM      6  C6  BNZ d   1      -0.671   0.290   0.209  0.00  0.00     0.000 A 
ENDROOT
TORSDOF 0
ENDMDL
