MODEL 1
REMARK minimizedAffinity -2.68449664
REMARK minimizedRMSD -1
REMARK  0 active torsions:
REMARK  status: ('A' for Active; 'I' for Inactive)
ROOT
ATOM      1  C1  BNZ d   1      -0.246  -1.395  -1.381  0.00  0.00     0.000 A 
ATOM      2  C2  BNZ d   1       0.651  -0.551  -0.782  0.00  0.00     0.000 A 
ATOM      3  C3  BNZ d   1       0.238   0.365   0.145  0.00  0.00     0.000 A 
ATOM      4  C4  BNZ d   1      -1.074   0.463   0.441  0.00  0.00     0.000 A 
ATOM      5  C5  BNZ d   1      -1.991  -0.375  -0.161  0.00  0.00     0.000 A 
ATOM      6  C6  BNZ d   1      -1.567  -1.322  -1.065  0.00  0.00     0.000 A 
ENDROOT
TORSDOF 0
ENDMDL
