MODEL 1
REMARK minimizedAffinity -3.86583877
REMARK minimizedRMSD -1
REMARK  0 active torsions:
REMARK  status: ('A' for Active; 'I' for Inactive)
ROOT
ATOM      1  C1  BNZ d   1       1.731  -0.417   1.115  0.00  0.00     0.000 A 
ATOM      2  C2  BNZ d   1       2.251  -1.326   0.233  0.00  0.00     0.000 A 
ATOM      3  C3  BNZ d   1       1.607  -1.611  -0.939  0.00  0.00     0.000 A 
ATOM      4  C4  BNZ d   1       0.426  -1.019  -1.208  0.00  0.00     0.000 A 
ATOM      5  C5  BNZ d   1      -0.116  -0.107  -0.324  0.00  0.00     0.000 A 
ATOM      6  C6  BNZ d   1       0.554   0.207   0.836  0.00  0.00     0.000 A 
ENDROOT
TORSDOF 0
ENDMDL
