MODEL 1
REMARK minimizedAffinity -4.30599499
REMARK minimizedRMSD -1
REMARK  0 active torsions:
REMARK  status: ('A' for Active; 'I' for Inactive)
ROOT
ATOM      1  C1  BNZ d   1      -0.744   0.391   2.537  0.00  0.00     0.000 A 
ATOM      2  C2  BNZ d   1       0.418   0.321   1.816  0.00  0.00     0.000 A 
ATOM      3  C3  BNZ d   1       0.426  -0.194   0.550  0.00  0.00     0.000 A 
ATOM      4  C4  BNZ d   1      -0.718  -0.675   0.022  0.00  0.00     0.000 A 
ATOM      5  C5  BNZ d   1      -1.896  -0.620   0.741  0.00  0.00     0.000 A 
ATOM      6  C6  BNZ d   1      -1.908  -0.066   2.000  0.00  0.00     0.000 A 
ENDROOT
TORSDOF 0
ENDMDL
