MODEL 1
REMARK minimizedAffinity -4.0657506
REMARK minimizedRMSD -1
REMARK  0 active torsions:
REMARK  status: ('A' for Active; 'I' for Inactive)
ROOT
ATOM      1  C1  BNZ d   1       0.360  -0.529  -3.438  0.00  0.00     0.000 A 
ATOM      2  C2  BNZ d   1      -0.583  -0.139  -4.352  0.00  0.00     0.000 A 
ATOM      3  C3  BNZ d   1      -0.522   1.095  -4.938  0.00  0.00     0.000 A 
ATOM      4  C4  BNZ d   1       0.457   1.951  -4.580  0.00  0.00     0.000 A 
ATOM      5  C5  BNZ d   1       1.409   1.576  -3.653  0.00  0.00     0.000 A 
ATOM      6  C6  BNZ d   1       1.367   0.319  -3.095  0.00  0.00     0.000 A 
ENDROOT
TORSDOF 0
ENDMDL
