MODEL 1
REMARK minimizedAffinity 0.912216842
REMARK minimizedRMSD -1
REMARK  0 active torsions:
REMARK  status: ('A' for Active; 'I' for Inactive)
ROOT
ATOM      1  C   UNL d   1      -0.581  -1.401   0.840  0.00  0.00     0.077 C 
ATOM      2  C1  UNL d   1       0.496  -0.361   0.928  0.00  0.00    -0.074 A 
ATOM      3  C2  UNL d   1       1.520  -0.464   1.875  0.00  0.00    -0.005 A 
ATOM      4  C3  UNL d   1       2.520   0.506   1.938  0.00  0.00     0.006 A 
ATOM      5  C4  UNL d   1       2.507   1.587   1.056  0.00  0.00    -0.005 A 
ATOM      6  C5  UNL d   1       1.491   1.707   0.102  0.00  0.00    -0.074 A 
ATOM      7  C6  UNL d   1       1.468   2.858  -0.860  0.00  0.00     0.077 C 
ATOM      8  C7  UNL d   1       0.494   0.725   0.040  0.00  0.00    -0.001 A 
ENDROOT
TORSDOF 0
ENDMDL
