MODEL 1
REMARK minimizedAffinity -3.25438118
REMARK minimizedRMSD -1
REMARK  0 active torsions:
REMARK  status: ('A' for Active; 'I' for Inactive)
ROOT
ATOM      1  C   UNL d   1       2.864   0.442   1.748  0.00  0.00     0.077 C 
ATOM      2  C1  UNL d   1       2.096   1.435   0.929  0.00  0.00    -0.074 A 
ATOM      3  C2  UNL d   1       2.732   2.206  -0.050  0.00  0.00    -0.005 A 
ATOM      4  C3  UNL d   1       2.002   3.119  -0.810  0.00  0.00     0.006 A 
ATOM      5  C4  UNL d   1       0.631   3.271  -0.601  0.00  0.00    -0.005 A 
ATOM      6  C5  UNL d   1      -0.023   2.509   0.373  0.00  0.00    -0.074 A 
ATOM      7  C6  UNL d   1      -1.498   2.653   0.604  0.00  0.00     0.077 C 
ATOM      8  C7  UNL d   1       0.716   1.588   1.128  0.00  0.00    -0.001 A 
ENDROOT
TORSDOF 0
ENDMDL
