MODEL 1
REMARK minimizedAffinity 2.36290693
REMARK minimizedRMSD -1
REMARK  0 active torsions:
REMARK  status: ('A' for Active; 'I' for Inactive)
ROOT
ATOM      1  C   UNL d   1       3.118   0.182   1.568  0.00  0.00     0.077 C 
ATOM      2  C1  UNL d   1       2.188   1.188   0.957  0.00  0.00    -0.074 A 
ATOM      3  C2  UNL d   1       2.667   2.176   0.091  0.00  0.00    -0.005 A 
ATOM      4  C3  UNL d   1       1.788   3.099  -0.477  0.00  0.00     0.006 A 
ATOM      5  C4  UNL d   1       0.425   3.043  -0.185  0.00  0.00    -0.005 A 
ATOM      6  C5  UNL d   1      -0.072   2.061   0.678  0.00  0.00    -0.074 A 
ATOM      7  C6  UNL d   1      -1.536   1.980   0.995  0.00  0.00     0.077 C 
ATOM      8  C7  UNL d   1       0.816   1.133   1.239  0.00  0.00    -0.001 A 
ENDROOT
TORSDOF 0
ENDMDL
