MODEL 1
REMARK minimizedAffinity 1.28617799
REMARK minimizedRMSD -1
REMARK  0 active torsions:
REMARK  status: ('A' for Active; 'I' for Inactive)
ROOT
ATOM      1  C   UNL d   1      -0.781  -1.660   1.307  0.00  0.00     0.077 C 
ATOM      2  C1  UNL d   1      -0.781  -1.840  -0.182  0.00  0.00    -0.074 A 
ATOM      3  C2  UNL d   1       0.358  -2.300  -0.851  0.00  0.00    -0.005 A 
ATOM      4  C3  UNL d   1       0.339  -2.472  -2.235  0.00  0.00     0.006 A 
ATOM      5  C4  UNL d   1      -0.817  -2.186  -2.963  0.00  0.00    -0.005 A 
ATOM      6  C5  UNL d   1      -1.965  -1.726  -2.311  0.00  0.00    -0.074 A 
ATOM      7  C6  UNL d   1      -3.219  -1.423  -3.077  0.00  0.00     0.077 C 
ATOM      8  C7  UNL d   1      -1.941  -1.563  -0.919  0.00  0.00    -0.001 A 
ENDROOT
TORSDOF 0
ENDMDL
