MODEL 1
REMARK minimizedAffinity -0.677052498
REMARK minimizedRMSD -1
REMARK  0 active torsions:
REMARK  status: ('A' for Active; 'I' for Inactive)
ROOT
ATOM      1  C   UNL d   1       2.378   0.965   0.736  0.00  0.00     0.077 C 
ATOM      2  C1  UNL d   1       1.428   2.069   0.378  0.00  0.00    -0.074 A 
ATOM      3  C2  UNL d   1       0.059   1.952   0.641  0.00  0.00    -0.005 A 
ATOM      4  C3  UNL d   1      -0.812   2.991   0.311  0.00  0.00     0.006 A 
ATOM      5  C4  UNL d   1      -0.323   4.155  -0.283  0.00  0.00    -0.005 A 
ATOM      6  C5  UNL d   1       1.043   4.290  -0.552  0.00  0.00    -0.074 A 
ATOM      7  C6  UNL d   1       1.586   5.539  -1.181  0.00  0.00     0.077 C 
ATOM      8  C7  UNL d   1       1.912   3.245  -0.212  0.00  0.00    -0.001 A 
ENDROOT
TORSDOF 0
ENDMDL
