MODEL 1
REMARK minimizedAffinity 1.94906104
REMARK minimizedRMSD -1
REMARK  0 active torsions:
REMARK  status: ('A' for Active; 'I' for Inactive)
ROOT
ATOM      1  C   UNL d   1      -2.420  -1.457  -1.929  0.00  0.00     0.077 C 
ATOM      2  C1  UNL d   1      -1.626  -2.702  -1.667  0.00  0.00    -0.074 A 
ATOM      3  C2  UNL d   1      -2.249  -3.952  -1.603  0.00  0.00    -0.005 A 
ATOM      4  C3  UNL d   1      -1.496  -5.103  -1.369  0.00  0.00     0.006 A 
ATOM      5  C4  UNL d   1      -0.114  -5.015  -1.197  0.00  0.00    -0.005 A 
ATOM      6  C5  UNL d   1       0.527  -3.774  -1.258  0.00  0.00    -0.074 A 
ATOM      7  C6  UNL d   1       2.012  -3.663  -1.085  0.00  0.00     0.077 C 
ATOM      8  C7  UNL d   1      -0.236  -2.623  -1.501  0.00  0.00    -0.001 A 
ENDROOT
TORSDOF 0
ENDMDL
