MODEL 1
REMARK minimizedAffinity 11.1791582
REMARK minimizedRMSD -1
REMARK  0 active torsions:
REMARK  status: ('A' for Active; 'I' for Inactive)
ROOT
ATOM      1  C   UNL d   1       3.921  -0.872   0.020  0.00  0.00     0.077 C 
ATOM      2  C1  UNL d   1       3.224   0.325   0.596  0.00  0.00    -0.074 A 
ATOM      3  C2  UNL d   1       2.731   0.309   1.904  0.00  0.00    -0.005 A 
ATOM      4  C3  UNL d   1       2.093   1.432   2.429  0.00  0.00     0.006 A 
ATOM      5  C4  UNL d   1       1.942   2.582   1.653  0.00  0.00    -0.005 A 
ATOM      6  C5  UNL d   1       2.430   2.617   0.343  0.00  0.00    -0.074 A 
ATOM      7  C6  UNL d   1       2.286   3.848  -0.502  0.00  0.00     0.077 C 
ATOM      8  C7  UNL d   1       3.076   1.486  -0.175  0.00  0.00    -0.001 A 
ENDROOT
TORSDOF 0
ENDMDL
