MODEL 1
REMARK minimizedAffinity 4.5847764
REMARK minimizedRMSD -1
REMARK  0 active torsions:
REMARK  status: ('A' for Active; 'I' for Inactive)
ROOT
ATOM      1  C   UNL d   1       0.939  -5.948   4.189  0.00  0.00     0.077 C 
ATOM      2  C1  UNL d   1       1.350  -4.570   4.615  0.00  0.00    -0.074 A 
ATOM      3  C2  UNL d   1       2.304  -4.382   5.620  0.00  0.00    -0.005 A 
ATOM      4  C3  UNL d   1       2.683  -3.095   5.999  0.00  0.00     0.006 A 
ATOM      5  C4  UNL d   1       2.113  -1.983   5.378  0.00  0.00    -0.005 A 
ATOM      6  C5  UNL d   1       1.158  -2.151   4.370  0.00  0.00    -0.074 A 
ATOM      7  C6  UNL d   1       0.543  -0.967   3.685  0.00  0.00     0.077 C 
ATOM      8  C7  UNL d   1       0.788  -3.448   3.990  0.00  0.00    -0.001 A 
ENDROOT
TORSDOF 0
ENDMDL
