MODEL 1
REMARK minimizedAffinity -2.36475921
REMARK minimizedRMSD -1
REMARK  0 active torsions:
REMARK  status: ('A' for Active; 'I' for Inactive)
ROOT
ATOM      1  C   UNL d   1      -0.528  -1.839  -0.124  0.00  0.00     0.077 C 
ATOM      2  C1  UNL d   1       0.385  -0.982   0.702  0.00  0.00    -0.074 A 
ATOM      3  C2  UNL d   1       0.868   0.235   0.211  0.00  0.00    -0.005 A 
ATOM      4  C3  UNL d   1       1.708   1.025   0.995  0.00  0.00     0.006 A 
ATOM      5  C4  UNL d   1       2.074   0.608   2.275  0.00  0.00    -0.005 A 
ATOM      6  C5  UNL d   1       1.600  -0.606   2.783  0.00  0.00    -0.074 A 
ATOM      7  C6  UNL d   1       1.975  -1.065   4.161  0.00  0.00     0.077 C 
ATOM      8  C7  UNL d   1       0.750  -1.392   1.992  0.00  0.00    -0.001 A 
ENDROOT
TORSDOF 0
ENDMDL
