MODEL 1
REMARK minimizedAffinity 12.5608091
REMARK minimizedRMSD -1
REMARK  0 active torsions:
REMARK  status: ('A' for Active; 'I' for Inactive)
ROOT
ATOM      1  C   UNL d   1       2.753   0.935   2.952  0.00  0.00     0.124 A 
ATOM      2  C1  UNL d   1       2.231  -0.194   3.567  0.00  0.00     0.062 A 
ATOM      3  C2  UNL d   1       1.597  -1.175   2.809  0.00  0.00     0.162 A 
ATOM      4  C3  UNL d   1       1.483  -1.031   1.426  0.00  0.00    -0.034 A 
ATOM      5  C4  UNL d   1       2.010   0.108   0.814  0.00  0.00     0.162 A 
ATOM      6  C5  UNL d   1       2.642   1.086   1.576  0.00  0.00     0.062 A 
ATOM      7  F   UNL d   1       3.146   2.176   0.980  0.00  0.00    -0.097 F 
ATOM      8  F1  UNL d   1       1.918   0.279  -0.513  0.00  0.00    -0.096 F 
ATOM      9  I   UNL d   1       0.537  -2.495   0.289  0.00  0.00    -0.060 I 
ATOM     10  F2  UNL d   1       1.102  -2.255   3.430  0.00  0.00    -0.096 F 
ATOM     11  F3  UNL d   1       2.336  -0.341   4.895  0.00  0.00    -0.097 F 
ATOM     12  F4  UNL d   1       3.361   1.878   3.684  0.00  0.00    -0.092 F 
ENDROOT
TORSDOF 0
ENDMDL
