MODEL 1
REMARK minimizedAffinity 20.2181854
REMARK minimizedRMSD -1
REMARK  0 active torsions:
REMARK  status: ('A' for Active; 'I' for Inactive)
ROOT
ATOM      1  C   UNL d   1       3.604  -3.986   4.343  0.00  0.00     0.124 A 
ATOM      2  C1  UNL d   1       4.698  -3.329   3.799  0.00  0.00     0.062 A 
ATOM      3  C2  UNL d   1       4.511  -2.265   2.921  0.00  0.00     0.162 A 
ATOM      4  C3  UNL d   1       3.223  -1.850   2.583  0.00  0.00    -0.034 A 
ATOM      5  C4  UNL d   1       2.127  -2.516   3.134  0.00  0.00     0.162 A 
ATOM      6  C5  UNL d   1       2.319  -3.579   4.011  0.00  0.00     0.062 A 
ATOM      7  F   UNL d   1       1.260  -4.212   4.536  0.00  0.00    -0.097 F 
ATOM      8  F1  UNL d   1       0.875  -2.143   2.831  0.00  0.00    -0.096 F 
ATOM      9  I   UNL d   1       2.939  -0.259   1.271  0.00  0.00    -0.060 I 
ATOM     10  F2  UNL d   1       5.587  -1.649   2.410  0.00  0.00    -0.096 F 
ATOM     11  F3  UNL d   1       5.940  -3.721   4.118  0.00  0.00    -0.097 F 
ATOM     12  F4  UNL d   1       3.787  -5.010   5.187  0.00  0.00    -0.092 F 
ENDROOT
TORSDOF 0
ENDMDL
