MODEL 1
REMARK minimizedAffinity 14.0600033
REMARK minimizedRMSD -1
REMARK  0 active torsions:
REMARK  status: ('A' for Active; 'I' for Inactive)
ROOT
ATOM      1  C   UNL d   1      -0.062  -1.976   0.881  0.00  0.00     0.124 A 
ATOM      2  C1  UNL d   1      -0.026  -2.506  -0.401  0.00  0.00     0.062 A 
ATOM      3  C2  UNL d   1       0.715  -3.655  -0.663  0.00  0.00     0.162 A 
ATOM      4  C3  UNL d   1       1.426  -4.282   0.360  0.00  0.00    -0.034 A 
ATOM      5  C4  UNL d   1       1.386  -3.742   1.647  0.00  0.00     0.162 A 
ATOM      6  C5  UNL d   1       0.644  -2.594   1.904  0.00  0.00     0.062 A 
ATOM      7  F   UNL d   1       0.611  -2.083   3.143  0.00  0.00    -0.097 F 
ATOM      8  F1  UNL d   1       2.059  -4.320   2.654  0.00  0.00    -0.096 F 
ATOM      9  I   UNL d   1       2.535  -6.000  -0.027  0.00  0.00    -0.060 I 
ATOM     10  F2  UNL d   1       0.731  -4.146  -1.911  0.00  0.00    -0.096 F 
ATOM     11  F3  UNL d   1      -0.706  -1.910  -1.391  0.00  0.00    -0.097 F 
ATOM     12  F4  UNL d   1      -0.775  -0.870   1.130  0.00  0.00    -0.092 F 
ENDROOT
TORSDOF 0
ENDMDL
