MODEL 1
REMARK minimizedAffinity 5.19425392
REMARK minimizedRMSD -1
REMARK  0 active torsions:
REMARK  status: ('A' for Active; 'I' for Inactive)
ROOT
ATOM      1  C   UNL d   1       2.501   0.887   2.522  0.00  0.00     0.124 A 
ATOM      2  C1  UNL d   1       2.127   1.151   1.212  0.00  0.00     0.062 A 
ATOM      3  C2  UNL d   1       1.413   0.204   0.483  0.00  0.00     0.162 A 
ATOM      4  C3  UNL d   1       1.067  -1.017   1.064  0.00  0.00    -0.034 A 
ATOM      5  C4  UNL d   1       1.447  -1.275   2.382  0.00  0.00     0.162 A 
ATOM      6  C5  UNL d   1       2.161  -0.326   3.106  0.00  0.00     0.062 A 
ATOM      7  F   UNL d   1       2.521  -0.583   4.371  0.00  0.00    -0.097 F 
ATOM      8  F1  UNL d   1       1.131  -2.438   2.971  0.00  0.00    -0.096 F 
ATOM      9  I   UNL d   1      -0.000  -2.435  -0.022  0.00  0.00    -0.060 I 
ATOM     10  F2  UNL d   1       1.064   0.486  -0.781  0.00  0.00    -0.096 F 
ATOM     11  F3  UNL d   1       2.455   2.321   0.645  0.00  0.00    -0.097 F 
ATOM     12  F4  UNL d   1       3.188   1.799   3.220  0.00  0.00    -0.092 F 
ENDROOT
TORSDOF 0
ENDMDL
