MODEL 1
REMARK minimizedAffinity 7.85970116
REMARK minimizedRMSD -1
REMARK  0 active torsions:
REMARK  status: ('A' for Active; 'I' for Inactive)
ROOT
ATOM      1  C   UNL d   1       1.226   1.497  -0.134  0.00  0.00     0.124 A 
ATOM      2  C1  UNL d   1       2.099   2.004   0.819  0.00  0.00     0.062 A 
ATOM      3  C2  UNL d   1       2.396   1.265   1.960  0.00  0.00     0.162 A 
ATOM      4  C3  UNL d   1       1.820   0.009   2.155  0.00  0.00    -0.034 A 
ATOM      5  C4  UNL d   1       0.942  -0.494   1.192  0.00  0.00     0.162 A 
ATOM      6  C5  UNL d   1       0.649   0.249   0.053  0.00  0.00     0.062 A 
ATOM      7  F   UNL d   1      -0.194  -0.242  -0.867  0.00  0.00    -0.097 F 
ATOM      8  F1  UNL d   1       0.371  -1.697   1.347  0.00  0.00    -0.096 F 
ATOM      9  I   UNL d   1       2.261  -1.100   3.860  0.00  0.00    -0.060 I 
ATOM     10  F2  UNL d   1       3.242   1.779   2.864  0.00  0.00    -0.096 F 
ATOM     11  F3  UNL d   1       2.657   3.210   0.641  0.00  0.00    -0.097 F 
ATOM     12  F4  UNL d   1       0.942   2.211  -1.231  0.00  0.00    -0.092 F 
ENDROOT
TORSDOF 0
ENDMDL
