MODEL 1
REMARK minimizedAffinity 2.48054504
REMARK minimizedRMSD -1
REMARK  0 active torsions:
REMARK  status: ('A' for Active; 'I' for Inactive)
ROOT
ATOM      1  C   UNL d   1       2.675   1.501   2.416  0.00  0.00     0.124 A 
ATOM      2  C1  UNL d   1       2.090   1.822   1.199  0.00  0.00     0.062 A 
ATOM      3  C2  UNL d   1       1.282   0.897   0.544  0.00  0.00     0.162 A 
ATOM      4  C3  UNL d   1       1.053  -0.359   1.107  0.00  0.00    -0.034 A 
ATOM      5  C4  UNL d   1       1.645  -0.675   2.331  0.00  0.00     0.162 A 
ATOM      6  C5  UNL d   1       2.452   0.253   2.980  0.00  0.00     0.062 A 
ATOM      7  F   UNL d   1       3.016  -0.059   4.156  0.00  0.00    -0.097 F 
ATOM      8  F1  UNL d   1       1.446  -1.873   2.899  0.00  0.00    -0.096 F 
ATOM      9  I   UNL d   1      -0.155  -1.745   0.132  0.00  0.00    -0.060 I 
ATOM     10  F2  UNL d   1       0.730   1.235  -0.630  0.00  0.00    -0.096 F 
ATOM     11  F3  UNL d   1       2.305   3.027   0.650  0.00  0.00    -0.097 F 
ATOM     12  F4  UNL d   1       3.453   2.393   3.042  0.00  0.00    -0.092 F 
ENDROOT
TORSDOF 0
ENDMDL
