MODEL 1
REMARK minimizedAffinity 14.1701727
REMARK minimizedRMSD -1
REMARK  0 active torsions:
REMARK  status: ('A' for Active; 'I' for Inactive)
ROOT
ATOM      1  C   UNL d   1       2.014   1.383   0.939  0.00  0.00     0.124 A 
ATOM      2  C1  UNL d   1       2.011   0.199   1.663  0.00  0.00     0.062 A 
ATOM      3  C2  UNL d   1       1.012  -0.747   1.453  0.00  0.00     0.162 A 
ATOM      4  C3  UNL d   1       0.007  -0.513   0.515  0.00  0.00    -0.034 A 
ATOM      5  C4  UNL d   1       0.016   0.681  -0.209  0.00  0.00     0.162 A 
ATOM      6  C5  UNL d   1       1.017   1.623   0.004  0.00  0.00     0.062 A 
ATOM      7  F   UNL d   1       1.018   2.767  -0.696  0.00  0.00    -0.097 F 
ATOM      8  F1  UNL d   1      -0.935   0.938  -1.119  0.00  0.00    -0.096 F 
ATOM      9  I   UNL d   1      -1.489  -1.925   0.198  0.00  0.00    -0.060 I 
ATOM     10  F2  UNL d   1       1.034  -1.883   2.167  0.00  0.00    -0.096 F 
ATOM     11  F3  UNL d   1       2.973  -0.035   2.567  0.00  0.00    -0.097 F 
ATOM     12  F4  UNL d   1       2.976   2.292   1.143  0.00  0.00    -0.092 F 
ENDROOT
TORSDOF 0
ENDMDL
