MODEL 1
REMARK minimizedAffinity 4.10462713
REMARK minimizedRMSD -1
REMARK  0 active torsions:
REMARK  status: ('A' for Active; 'I' for Inactive)
ROOT
ATOM      1  C   UNL d   1       0.736   3.324   1.466  0.00  0.00     0.078 C 
ATOM      2  C1  UNL d   1      -0.097   2.185   0.959  0.00  0.00    -0.077 A 
ATOM      3  C2  UNL d   1      -1.494   2.221   1.043  0.00  0.00    -0.001 A 
ATOM      4  C3  UNL d   1      -2.257   1.150   0.575  0.00  0.00     0.003 A 
ATOM      5  C4  UNL d   1      -1.632   0.034   0.021  0.00  0.00    -0.005 A 
ATOM      6  C5  UNL d   1      -0.242  -0.011  -0.064  0.00  0.00     0.003 A 
ATOM      7  C6  UNL d   1       0.523   1.059   0.403  0.00  0.00    -0.001 A 
ENDROOT
TORSDOF 0
ENDMDL
