MODEL 1
REMARK minimizedAffinity 3.12262893
REMARK minimizedRMSD -1
REMARK  0 active torsions:
REMARK  status: ('A' for Active; 'I' for Inactive)
ROOT
ATOM      1  C   UNL d   1       2.266   4.224   1.840  0.00  0.00     0.078 C 
ATOM      2  C1  UNL d   1       0.856   3.784   2.102  0.00  0.00    -0.077 A 
ATOM      3  C2  UNL d   1       0.272   3.951   3.363  0.00  0.00    -0.001 A 
ATOM      4  C3  UNL d   1      -1.038   3.528   3.595  0.00  0.00     0.003 A 
ATOM      5  C4  UNL d   1      -1.774   2.935   2.571  0.00  0.00    -0.005 A 
ATOM      6  C5  UNL d   1      -1.200   2.763   1.313  0.00  0.00     0.003 A 
ATOM      7  C6  UNL d   1       0.110   3.185   1.079  0.00  0.00    -0.001 A 
ENDROOT
TORSDOF 0
ENDMDL
