MODEL 1
REMARK minimizedAffinity 2.65374541
REMARK minimizedRMSD -1
REMARK  0 active torsions:
REMARK  status: ('A' for Active; 'I' for Inactive)
ROOT
ATOM      1  C   UNL d   1      -2.002   2.610  -0.222  0.00  0.00     0.078 C 
ATOM      2  C1  UNL d   1      -0.748   2.449   0.584  0.00  0.00    -0.077 A 
ATOM      3  C2  UNL d   1       0.424   1.949   0.003  0.00  0.00    -0.001 A 
ATOM      4  C3  UNL d   1       1.581   1.796   0.767  0.00  0.00     0.003 A 
ATOM      5  C4  UNL d   1       1.579   2.139   2.118  0.00  0.00    -0.005 A 
ATOM      6  C5  UNL d   1       0.417   2.635   2.706  0.00  0.00     0.003 A 
ATOM      7  C6  UNL d   1      -0.742   2.789   1.943  0.00  0.00    -0.001 A 
ENDROOT
TORSDOF 0
ENDMDL
