MODEL 1
REMARK minimizedAffinity 0.22653538
REMARK minimizedRMSD -1
REMARK  0 active torsions:
REMARK  status: ('A' for Active; 'I' for Inactive)
ROOT
ATOM      1  C   UNL d   1      -4.898  -0.671   3.003  0.00  0.00     0.078 C 
ATOM      2  C1  UNL d   1      -3.906  -0.135   2.015  0.00  0.00    -0.077 A 
ATOM      3  C2  UNL d   1      -4.329   0.527   0.856  0.00  0.00    -0.001 A 
ATOM      4  C3  UNL d   1      -3.394   1.013  -0.060  0.00  0.00     0.003 A 
ATOM      5  C4  UNL d   1      -2.031   0.841   0.173  0.00  0.00    -0.005 A 
ATOM      6  C5  UNL d   1      -1.601   0.182   1.323  0.00  0.00     0.003 A 
ATOM      7  C6  UNL d   1      -2.534  -0.304   2.240  0.00  0.00    -0.001 A 
ENDROOT
TORSDOF 0
ENDMDL
