MODEL 1
REMARK minimizedAffinity 0.479625493
REMARK minimizedRMSD -1
REMARK  0 active torsions:
REMARK  status: ('A' for Active; 'I' for Inactive)
ROOT
ATOM      1  C   UNL d   1      -1.125   0.340   0.633  0.00  0.00     0.078 C 
ATOM      2  C1  UNL d   1      -0.226   0.690  -0.516  0.00  0.00    -0.077 A 
ATOM      3  C2  UNL d   1       1.092   0.221  -0.569  0.00  0.00    -0.001 A 
ATOM      4  C3  UNL d   1       1.920   0.563  -1.640  0.00  0.00     0.003 A 
ATOM      5  C4  UNL d   1       1.440   1.378  -2.663  0.00  0.00    -0.005 A 
ATOM      6  C5  UNL d   1       0.130   1.851  -2.617  0.00  0.00     0.003 A 
ATOM      7  C6  UNL d   1      -0.700   1.510  -1.548  0.00  0.00    -0.001 A 
ENDROOT
TORSDOF 0
ENDMDL
