MODEL 1
REMARK minimizedAffinity -1.78046834
REMARK minimizedRMSD -1
REMARK  0 active torsions:
REMARK  status: ('A' for Active; 'I' for Inactive)
ROOT
ATOM      1  C   UNL d   1       3.092  -2.265  -3.365  0.00  0.00     0.078 C 
ATOM      2  C1  UNL d   1       2.364  -3.570  -3.237  0.00  0.00    -0.077 A 
ATOM      3  C2  UNL d   1       3.059  -4.765  -3.014  0.00  0.00    -0.001 A 
ATOM      4  C3  UNL d   1       2.369  -5.973  -2.907  0.00  0.00     0.003 A 
ATOM      5  C4  UNL d   1       0.981  -5.999  -3.023  0.00  0.00    -0.005 A 
ATOM      6  C5  UNL d   1       0.281  -4.816  -3.248  0.00  0.00     0.003 A 
ATOM      7  C6  UNL d   1       0.969  -3.606  -3.355  0.00  0.00    -0.001 A 
ENDROOT
TORSDOF 0
ENDMDL
