MODEL 1
REMARK minimizedAffinity -4.84675694
REMARK minimizedRMSD -1
REMARK  0 active torsions:
REMARK  status: ('A' for Active; 'I' for Inactive)
ROOT
ATOM      1  C   UNL d   1      -0.583  -2.886   0.051  0.00  0.00     0.078 C 
ATOM      2  C1  UNL d   1       0.419  -1.826  -0.297  0.00  0.00    -0.077 A 
ATOM      3  C2  UNL d   1       0.587  -0.698   0.516  0.00  0.00    -0.001 A 
ATOM      4  C3  UNL d   1       1.517   0.286   0.175  0.00  0.00     0.003 A 
ATOM      5  C4  UNL d   1       2.285   0.152  -0.980  0.00  0.00    -0.005 A 
ATOM      6  C5  UNL d   1       2.124  -0.966  -1.796  0.00  0.00     0.003 A 
ATOM      7  C6  UNL d   1       1.195  -1.951  -1.456  0.00  0.00    -0.001 A 
ENDROOT
TORSDOF 0
ENDMDL
