MODEL 1
REMARK minimizedAffinity 0.51396513
REMARK minimizedRMSD -1
REMARK  0 active torsions:
REMARK  status: ('A' for Active; 'I' for Inactive)
ROOT
ATOM      1  C   UNL d   1       0.527   2.726  -5.299  0.00  0.00     0.078 C 
ATOM      2  C1  UNL d   1       1.956   2.874  -4.869  0.00  0.00    -0.077 A 
ATOM      3  C2  UNL d   1       2.440   2.211  -3.734  0.00  0.00    -0.001 A 
ATOM      4  C3  UNL d   1       3.770   2.365  -3.339  0.00  0.00     0.003 A 
ATOM      5  C4  UNL d   1       4.627   3.183  -4.073  0.00  0.00    -0.005 A 
ATOM      6  C5  UNL d   1       4.154   3.848  -5.203  0.00  0.00     0.003 A 
ATOM      7  C6  UNL d   1       2.824   3.695  -5.599  0.00  0.00    -0.001 A 
ENDROOT
TORSDOF 0
ENDMDL
