MODEL 1
REMARK minimizedAffinity -2.7487421
REMARK minimizedRMSD -1
REMARK  0 active torsions:
REMARK  status: ('A' for Active; 'I' for Inactive)
ROOT
ATOM      1  C   UNL d   1      -0.543   2.611  -6.000  0.00  0.00     0.078 C 
ATOM      2  C1  UNL d   1      -1.639   3.608  -5.767  0.00  0.00    -0.077 A 
ATOM      3  C2  UNL d   1      -2.982   3.211  -5.744  0.00  0.00    -0.001 A 
ATOM      4  C3  UNL d   1      -3.992   4.151  -5.536  0.00  0.00     0.003 A 
ATOM      5  C4  UNL d   1      -3.670   5.494  -5.351  0.00  0.00    -0.005 A 
ATOM      6  C5  UNL d   1      -2.337   5.899  -5.374  0.00  0.00     0.003 A 
ATOM      7  C6  UNL d   1      -1.325   4.960  -5.582  0.00  0.00    -0.001 A 
ENDROOT
TORSDOF 0
ENDMDL
