MODEL 1
REMARK minimizedAffinity -1.31805456
REMARK minimizedRMSD -1
REMARK  0 active torsions:
REMARK  status: ('A' for Active; 'I' for Inactive)
ROOT
ATOM      1  C   UNL d   1       2.616   2.259   2.111  0.00  0.00     0.078 C 
ATOM      2  C1  UNL d   1       1.316   1.824   1.503  0.00  0.00    -0.077 A 
ATOM      3  C2  UNL d   1       0.173   2.628   1.591  0.00  0.00    -0.001 A 
ATOM      4  C3  UNL d   1      -1.033   2.205   1.029  0.00  0.00     0.003 A 
ATOM      5  C4  UNL d   1      -1.107   0.977   0.375  0.00  0.00    -0.005 A 
ATOM      6  C5  UNL d   1       0.024   0.169   0.284  0.00  0.00     0.003 A 
ATOM      7  C6  UNL d   1       1.231   0.590   0.846  0.00  0.00    -0.001 A 
ENDROOT
TORSDOF 0
ENDMDL
