MODEL 1
REMARK minimizedAffinity 0.0641997755
REMARK minimizedRMSD -1
REMARK  0 active torsions:
REMARK  status: ('A' for Active; 'I' for Inactive)
ROOT
ATOM      1  C   UNL d   1       1.199  -0.028   0.550  0.00  0.00     0.078 C 
ATOM      2  C1  UNL d   1      -0.220   0.453   0.618  0.00  0.00    -0.077 A 
ATOM      3  C2  UNL d   1      -1.291  -0.436   0.464  0.00  0.00    -0.001 A 
ATOM      4  C3  UNL d   1      -2.606   0.027   0.520  0.00  0.00     0.003 A 
ATOM      5  C4  UNL d   1      -2.863   1.381   0.728  0.00  0.00    -0.005 A 
ATOM      6  C5  UNL d   1      -1.804   2.273   0.880  0.00  0.00     0.003 A 
ATOM      7  C6  UNL d   1      -0.488   1.812   0.825  0.00  0.00    -0.001 A 
ENDROOT
TORSDOF 0
ENDMDL
