MODEL 1
REMARK minimizedAffinity -1.89786124
REMARK minimizedRMSD -1
REMARK  0 active torsions:
REMARK  status: ('A' for Active; 'I' for Inactive)
ROOT
ATOM      1  C   UNL d   1       2.802   3.025   2.541  0.00  0.00     0.078 C 
ATOM      2  C1  UNL d   1       1.625   2.446   1.814  0.00  0.00    -0.077 A 
ATOM      3  C2  UNL d   1       0.386   3.099   1.813  0.00  0.00    -0.001 A 
ATOM      4  C3  UNL d   1      -0.703   2.543   1.140  0.00  0.00     0.003 A 
ATOM      5  C4  UNL d   1      -0.566   1.332   0.466  0.00  0.00    -0.005 A 
ATOM      6  C5  UNL d   1       0.663   0.674   0.463  0.00  0.00     0.003 A 
ATOM      7  C6  UNL d   1       1.754   1.228   1.135  0.00  0.00    -0.001 A 
ENDROOT
TORSDOF 0
ENDMDL
