MODEL 1
REMARK minimizedAffinity -2.04679227
REMARK minimizedRMSD -1
REMARK  0 active torsions:
REMARK  status: ('A' for Active; 'I' for Inactive)
ROOT
ATOM      1  C   UNL d   1      -3.002   2.281  -5.947  0.00  0.00     0.078 C 
ATOM      2  C1  UNL d   1      -3.762   3.574  -5.967  0.00  0.00    -0.077 A 
ATOM      3  C2  UNL d   1      -3.093   4.804  -5.965  0.00  0.00    -0.001 A 
ATOM      4  C3  UNL d   1      -3.813   5.999  -5.973  0.00  0.00     0.003 A 
ATOM      5  C4  UNL d   1      -5.206   5.977  -5.982  0.00  0.00    -0.005 A 
ATOM      6  C5  UNL d   1      -5.881   4.758  -5.982  0.00  0.00     0.003 A 
ATOM      7  C6  UNL d   1      -5.163   3.561  -5.974  0.00  0.00    -0.001 A 
ENDROOT
TORSDOF 0
ENDMDL
