MODEL 1
REMARK minimizedAffinity 0.919099808
REMARK minimizedRMSD -1
REMARK  0 active torsions:
REMARK  status: ('A' for Active; 'I' for Inactive)
ROOT
ATOM      1  C   UNL d   1       1.878   0.189   0.355  0.00  0.00     0.078 C 
ATOM      2  C1  UNL d   1       0.453   0.449   0.742  0.00  0.00    -0.077 A 
ATOM      3  C2  UNL d   1      -0.455  -0.605   0.902  0.00  0.00    -0.001 A 
ATOM      4  C3  UNL d   1      -1.781  -0.348   1.252  0.00  0.00     0.003 A 
ATOM      5  C4  UNL d   1      -2.212   0.963   1.445  0.00  0.00    -0.005 A 
ATOM      6  C5  UNL d   1      -1.317   2.019   1.286  0.00  0.00     0.003 A 
ATOM      7  C6  UNL d   1       0.010   1.764   0.935  0.00  0.00    -0.001 A 
ENDROOT
TORSDOF 0
ENDMDL
