MODEL 1
REMARK minimizedAffinity 2.9033215
REMARK minimizedRMSD -1
REMARK  0 active torsions:
REMARK  status: ('A' for Active; 'I' for Inactive)
ROOT
ATOM      1  C   UNL d   1       1.825   2.391   2.475  0.00  0.00     0.078 C 
ATOM      2  C1  UNL d   1       0.510   2.005   1.865  0.00  0.00    -0.077 A 
ATOM      3  C2  UNL d   1      -0.617   2.824   2.001  0.00  0.00    -0.001 A 
ATOM      4  C3  UNL d   1      -1.836   2.448   1.437  0.00  0.00     0.003 A 
ATOM      5  C4  UNL d   1      -1.940   1.250   0.732  0.00  0.00    -0.005 A 
ATOM      6  C5  UNL d   1      -0.825   0.426   0.593  0.00  0.00     0.003 A 
ATOM      7  C6  UNL d   1       0.395   0.802   1.158  0.00  0.00    -0.001 A 
ENDROOT
TORSDOF 0
ENDMDL
