MODEL 1
REMARK minimizedAffinity -0.332322121
REMARK minimizedRMSD -1
REMARK  1 active torsions:
REMARK  status: ('A' for Active; 'I' for Inactive)
REMARK    1  A    between atoms: C1_2  and  C2_3 
ROOT
ATOM      1  C2  UNL d   1      -2.394  -1.437  -0.702  0.00  0.00    -0.077 A 
ATOM      2  C3  UNL d   1      -2.795  -0.104  -0.866  0.00  0.00     0.002 A 
ATOM      3  C4  UNL d   1      -3.233   0.354  -2.111  0.00  0.00     0.002 A 
ATOM      4  C5  UNL d   1      -3.277  -0.515  -3.199  0.00  0.00    -0.004 A 
ATOM      5  C6  UNL d   1      -2.878  -1.842  -3.046  0.00  0.00     0.002 A 
ATOM      6  C7  UNL d   1      -2.439  -2.302  -1.804  0.00  0.00     0.002 A 
ENDROOT
BRANCH   1   7
ATOM      7  C1  UNL d   1      -1.969  -1.946   0.650  0.00  0.00     0.055 C 
ATOM      8  C   UNL d   1      -1.319  -0.845   1.476  0.00  0.00     0.019 C 
ENDBRANCH   1   7
TORSDOF 1
ENDMDL
