MODEL 1
REMARK minimizedAffinity 7.12835789
REMARK minimizedRMSD -1
REMARK  1 active torsions:
REMARK  status: ('A' for Active; 'I' for Inactive)
REMARK    1  A    between atoms: C1_2  and  C2_3 
ROOT
ATOM      1  C2  UNL d   1      -3.132  -0.996  -0.922  0.00  0.00    -0.077 A 
ATOM      2  C3  UNL d   1      -2.373  -1.073   0.254  0.00  0.00     0.002 A 
ATOM      3  C4  UNL d   1      -2.024  -2.314   0.790  0.00  0.00     0.002 A 
ATOM      4  C5  UNL d   1      -2.426  -3.487   0.155  0.00  0.00    -0.004 A 
ATOM      5  C6  UNL d   1      -3.183  -3.422  -1.014  0.00  0.00     0.002 A 
ATOM      6  C7  UNL d   1      -3.534  -2.182  -1.551  0.00  0.00     0.002 A 
ENDROOT
BRANCH   1   7
ATOM      7  C1  UNL d   1      -3.468   0.341  -1.529  0.00  0.00     0.055 C 
ATOM      8  C   UNL d   1      -2.899   0.469  -2.935  0.00  0.00     0.019 C 
ENDBRANCH   1   7
TORSDOF 1
ENDMDL
