MODEL 1
REMARK minimizedAffinity 15.9215651
REMARK minimizedRMSD -1
REMARK  1 active torsions:
REMARK  status: ('A' for Active; 'I' for Inactive)
REMARK    1  A    between atoms: C1_2  and  C2_3 
ROOT
ATOM      1  C2  UNL d   1      -1.424   0.472   0.477  0.00  0.00    -0.077 A 
ATOM      2  C3  UNL d   1      -1.806  -0.836   0.808  0.00  0.00     0.002 A 
ATOM      3  C4  UNL d   1      -2.741  -1.517   0.026  0.00  0.00     0.002 A 
ATOM      4  C5  UNL d   1      -3.297  -0.901  -1.093  0.00  0.00    -0.004 A 
ATOM      5  C6  UNL d   1      -2.925   0.399  -1.429  0.00  0.00     0.002 A 
ATOM      6  C7  UNL d   1      -1.992   1.083  -0.648  0.00  0.00     0.002 A 
ENDROOT
BRANCH   1   7
ATOM      7  C1  UNL d   1      -0.379   1.190   1.290  0.00  0.00     0.055 C 
ATOM      8  C   UNL d   1       0.534   0.209   2.010  0.00  0.00     0.019 C 
ENDBRANCH   1   7
TORSDOF 1
ENDMDL
