MODEL 1
REMARK minimizedAffinity 2.32673812
REMARK minimizedRMSD -1
REMARK  0 active torsions:
REMARK  status: ('A' for Active; 'I' for Inactive)
ROOT
ATOM      1  C   UNL d   1      -1.474   0.823   1.418  0.00  0.00     0.020 A 
ATOM      2  C1  UNL d   1      -1.590  -0.350   0.674  0.00  0.00     0.020 A 
ATOM      3  C2  UNL d   1      -0.448  -1.081   0.340  0.00  0.00     0.034 A 
ATOM      4  C3  UNL d   1       0.815  -0.639   0.750  0.00  0.00     0.017 A 
ATOM      5  C4  UNL d   1       0.930   0.539   1.498  0.00  0.00     0.017 A 
ATOM      6  C5  UNL d   1      -0.216   1.266   1.829  0.00  0.00     0.034 A 
ATOM      7 Cl   UNL d   1       2.455   1.147   2.040  0.00  0.00    -0.070 Cl
ATOM      8 Cl1  UNL d   1       2.184  -1.593   0.302  0.00  0.00    -0.070 Cl
ENDROOT
TORSDOF 0
ENDMDL
