MODEL 1
REMARK minimizedAffinity 7.97566843
REMARK minimizedRMSD -1
REMARK  0 active torsions:
REMARK  status: ('A' for Active; 'I' for Inactive)
ROOT
ATOM      1  C   UNL d   1      -3.763  -1.448   3.315  0.00  0.00     0.020 A 
ATOM      2  C1  UNL d   1      -2.849  -1.121   4.315  0.00  0.00     0.020 A 
ATOM      3  C2  UNL d   1      -1.674  -0.438   3.991  0.00  0.00     0.034 A 
ATOM      4  C3  UNL d   1      -1.411  -0.082   2.663  0.00  0.00     0.017 A 
ATOM      5  C4  UNL d   1      -2.330  -0.411   1.660  0.00  0.00     0.017 A 
ATOM      6  C5  UNL d   1      -3.504  -1.095   1.990  0.00  0.00     0.034 A 
ATOM      7 Cl   UNL d   1      -2.074  -0.005  -0.000  0.00  0.00    -0.070 Cl
ATOM      8 Cl1  UNL d   1       0.061   0.761   2.335  0.00  0.00    -0.070 Cl
ENDROOT
TORSDOF 0
ENDMDL
