MODEL 1
REMARK minimizedAffinity 6.77339506
REMARK minimizedRMSD -1
REMARK  0 active torsions:
REMARK  status: ('A' for Active; 'I' for Inactive)
ROOT
ATOM      1  C   UNL d   1       0.942   0.289  -5.922  0.00  0.00     0.020 A 
ATOM      2  C1  UNL d   1      -0.033  -0.240  -5.078  0.00  0.00     0.020 A 
ATOM      3  C2  UNL d   1       0.214  -0.349  -3.708  0.00  0.00     0.034 A 
ATOM      4  C3  UNL d   1       1.439   0.071  -3.178  0.00  0.00     0.017 A 
ATOM      5  C4  UNL d   1       2.418   0.603  -4.026  0.00  0.00     0.017 A 
ATOM      6  C5  UNL d   1       2.165   0.710  -5.397  0.00  0.00     0.034 A 
ATOM      7 Cl   UNL d   1       3.953   1.143  -3.446  0.00  0.00    -0.070 Cl
ATOM      8 Cl1  UNL d   1       1.677  -0.093  -1.474  0.00  0.00    -0.070 Cl
ENDROOT
TORSDOF 0
ENDMDL
