MODEL 1
REMARK minimizedAffinity 4.9970274
REMARK minimizedRMSD -1
REMARK  0 active torsions:
REMARK  status: ('A' for Active; 'I' for Inactive)
ROOT
ATOM      1  C   UNL d   1       1.633   0.692  -4.246  0.00  0.00     0.020 A 
ATOM      2  C1  UNL d   1       2.951   0.480  -4.649  0.00  0.00     0.020 A 
ATOM      3  C2  UNL d   1       3.905   0.054  -3.722  0.00  0.00     0.034 A 
ATOM      4  C3  UNL d   1       3.542  -0.161  -2.387  0.00  0.00     0.017 A 
ATOM      5  C4  UNL d   1       2.219   0.052  -1.983  0.00  0.00     0.017 A 
ATOM      6  C5  UNL d   1       1.268   0.478  -2.916  0.00  0.00     0.034 A 
ATOM      7 Cl   UNL d   1       1.696  -0.192  -0.354  0.00  0.00    -0.070 Cl
ATOM      8 Cl1  UNL d   1       4.773  -0.687  -1.295  0.00  0.00    -0.070 Cl
ENDROOT
TORSDOF 0
ENDMDL
