MODEL 1
REMARK minimizedAffinity 8.54791546
REMARK minimizedRMSD -1
REMARK  0 active torsions:
REMARK  status: ('A' for Active; 'I' for Inactive)
ROOT
ATOM      1  C   UNL d   1       1.826   0.809  -4.618  0.00  0.00     0.020 A 
ATOM      2  C1  UNL d   1       2.649   1.153  -3.546  0.00  0.00     0.020 A 
ATOM      3  C2  UNL d   1       2.374   0.661  -2.269  0.00  0.00     0.034 A 
ATOM      4  C3  UNL d   1       1.273  -0.178  -2.060  0.00  0.00     0.017 A 
ATOM      5  C4  UNL d   1       0.447  -0.522  -3.136  0.00  0.00     0.017 A 
ATOM      6  C5  UNL d   1       0.728  -0.027  -4.413  0.00  0.00     0.034 A 
ATOM      7 Cl   UNL d   1      -0.929  -1.552  -2.956  0.00  0.00    -0.070 Cl
ATOM      8 Cl1  UNL d   1       0.992  -0.750  -0.454  0.00  0.00    -0.070 Cl
ENDROOT
TORSDOF 0
ENDMDL
