MODEL 1
REMARK minimizedAffinity 6.21357822
REMARK minimizedRMSD -1
REMARK  0 active torsions:
REMARK  status: ('A' for Active; 'I' for Inactive)
ROOT
ATOM      1  C   UNL d   1       0.323  -5.629  -5.359  0.00  0.00     0.020 A 
ATOM      2  C1  UNL d   1      -0.801  -4.882  -5.013  0.00  0.00     0.020 A 
ATOM      3  C2  UNL d   1      -0.699  -3.497  -4.859  0.00  0.00     0.034 A 
ATOM      4  C3  UNL d   1       0.530  -2.856  -5.050  0.00  0.00     0.017 A 
ATOM      5  C4  UNL d   1       1.659  -3.608  -5.398  0.00  0.00     0.017 A 
ATOM      6  C5  UNL d   1       1.551  -4.993  -5.551  0.00  0.00     0.034 A 
ATOM      7 Cl   UNL d   1       3.209  -2.888  -5.651  0.00  0.00    -0.070 Cl
ATOM      8 Cl1  UNL d   1       0.583  -1.142  -4.843  0.00  0.00    -0.070 Cl
ENDROOT
TORSDOF 0
ENDMDL
