MODEL 1
REMARK minimizedAffinity 3.71284556
REMARK minimizedRMSD -1
REMARK  0 active torsions:
REMARK  status: ('A' for Active; 'I' for Inactive)
ROOT
ATOM      1  C   UNL d   1      -0.038   0.184  -4.628  0.00  0.00     0.020 A 
ATOM      2  C1  UNL d   1      -0.632  -0.819  -3.862  0.00  0.00     0.020 A 
ATOM      3  C2  UNL d   1      -0.182  -1.065  -2.564  0.00  0.00     0.034 A 
ATOM      4  C3  UNL d   1       0.865  -0.307  -2.026  0.00  0.00     0.017 A 
ATOM      5  C4  UNL d   1       1.461   0.699  -2.795  0.00  0.00     0.017 A 
ATOM      6  C5  UNL d   1       1.006   0.941  -4.095  0.00  0.00     0.034 A 
ATOM      7 Cl   UNL d   1       2.757   1.676  -2.200  0.00  0.00    -0.070 Cl
ATOM      8 Cl1  UNL d   1       1.370  -0.666  -0.413  0.00  0.00    -0.070 Cl
ENDROOT
TORSDOF 0
ENDMDL
