MODEL 1
REMARK minimizedAffinity 4.7111268
REMARK minimizedRMSD -1
REMARK  0 active torsions:
REMARK  status: ('A' for Active; 'I' for Inactive)
ROOT
ATOM      1  C   UNL d   1      -1.000   1.284   3.123  0.00  0.00     0.020 A 
ATOM      2  C1  UNL d   1      -2.041   0.687   2.413  0.00  0.00     0.020 A 
ATOM      3  C2  UNL d   1      -1.759  -0.199   1.372  0.00  0.00     0.034 A 
ATOM      4  C3  UNL d   1      -0.431  -0.490   1.036  0.00  0.00     0.017 A 
ATOM      5  C4  UNL d   1       0.613   0.110   1.749  0.00  0.00     0.017 A 
ATOM      6  C5  UNL d   1       0.324   0.996   2.791  0.00  0.00     0.034 A 
ATOM      7 Cl   UNL d   1       2.276  -0.200   1.393  0.00  0.00    -0.070 Cl
ATOM      8 Cl1  UNL d   1      -0.155  -1.595  -0.263  0.00  0.00    -0.070 Cl
ENDROOT
TORSDOF 0
ENDMDL
