MODEL 1
REMARK minimizedAffinity 5.83176136
REMARK minimizedRMSD -1
REMARK  0 active torsions:
REMARK  status: ('A' for Active; 'I' for Inactive)
ROOT
ATOM      1  C   UNL d   1       2.236   0.963  -2.649  0.00  0.00     0.020 A 
ATOM      2  C1  UNL d   1       2.360   1.497  -3.931  0.00  0.00     0.020 A 
ATOM      3  C2  UNL d   1       1.507   1.071  -4.951  0.00  0.00     0.034 A 
ATOM      4  C3  UNL d   1       0.525   0.108  -4.690  0.00  0.00     0.017 A 
ATOM      5  C4  UNL d   1       0.401  -0.428  -3.403  0.00  0.00     0.017 A 
ATOM      6  C5  UNL d   1       1.259   0.003  -2.386  0.00  0.00     0.034 A 
ATOM      7 Cl   UNL d   1      -0.785  -1.620  -3.005  0.00  0.00    -0.070 Cl
ATOM      8 Cl1  UNL d   1      -0.496  -0.373  -5.998  0.00  0.00    -0.070 Cl
ENDROOT
TORSDOF 0
ENDMDL
