MODEL 1
REMARK minimizedAffinity -0.1836842
REMARK minimizedRMSD -1
REMARK  0 active torsions:
REMARK  status: ('A' for Active; 'I' for Inactive)
ROOT
ATOM      1  C1  BNZ d   1       4.542   4.332   6.000  0.00  0.00     0.000 A 
ATOM      2  C2  BNZ d   1       4.727   3.499   4.929  0.00  0.00     0.000 A 
ATOM      3  C3  BNZ d   1       5.474   3.896   3.854  0.00  0.00     0.000 A 
ATOM      4  C4  BNZ d   1       6.000   5.138   3.835  0.00  0.00     0.000 A 
ATOM      5  C5  BNZ d   1       5.814   5.993   4.903  0.00  0.00     0.000 A 
ATOM      6  C6  BNZ d   1       5.094   5.576   5.999  0.00  0.00     0.000 A 
ENDROOT
TORSDOF 0
ENDMDL
