MODEL 1
REMARK minimizedAffinity -3.62242413
REMARK minimizedRMSD -1
REMARK  0 active torsions:
REMARK  status: ('A' for Active; 'I' for Inactive)
ROOT
ATOM      1  C1  BNZ d   1       3.237  -1.475  -1.009  0.00  0.00     0.000 A 
ATOM      2  C2  BNZ d   1       3.626  -0.178  -0.806  0.00  0.00     0.000 A 
ATOM      3  C3  BNZ d   1       2.835   0.688  -0.103  0.00  0.00     0.000 A 
ATOM      4  C4  BNZ d   1       1.641   0.267   0.361  0.00  0.00     0.000 A 
ATOM      5  C5  BNZ d   1       1.230  -1.035   0.157  0.00  0.00     0.000 A 
ATOM      6  C6  BNZ d   1       2.046  -1.914  -0.518  0.00  0.00     0.000 A 
ENDROOT
TORSDOF 0
ENDMDL
