MODEL 1
REMARK minimizedAffinity -2.84547305
REMARK minimizedRMSD -1
REMARK  0 active torsions:
REMARK  status: ('A' for Active; 'I' for Inactive)
ROOT
ATOM      1  C1  BNZ d   1       2.687  -2.649  -0.850  0.00  0.00     0.000 A 
ATOM      2  C2  BNZ d   1       2.148  -1.678  -0.048  0.00  0.00     0.000 A 
ATOM      3  C3  BNZ d   1       2.566  -0.380  -0.143  0.00  0.00     0.000 A 
ATOM      4  C4  BNZ d   1       3.549  -0.062  -1.011  0.00  0.00     0.000 A 
ATOM      5  C5  BNZ d   1       4.108  -1.031  -1.819  0.00  0.00     0.000 A 
ATOM      6  C6  BNZ d   1       3.658  -2.330  -1.748  0.00  0.00     0.000 A 
ENDROOT
TORSDOF 0
ENDMDL
