MODEL 1
REMARK minimizedAffinity 2.22706723
REMARK minimizedRMSD -1
REMARK  0 active torsions:
REMARK  status: ('A' for Active; 'I' for Inactive)
ROOT
ATOM      1  C1  BNZ d   1      -0.004  -2.830  -0.518  0.00  0.00     0.000 A 
ATOM      2  C2  BNZ d   1       1.183  -2.255  -0.152  0.00  0.00     0.000 A 
ATOM      3  C3  BNZ d   1       1.280  -0.903   0.030  0.00  0.00     0.000 A 
ATOM      4  C4  BNZ d   1       0.201  -0.126  -0.194  0.00  0.00     0.000 A 
ATOM      5  C5  BNZ d   1      -1.001  -0.690  -0.572  0.00  0.00     0.000 A 
ATOM      6  C6  BNZ d   1      -1.105  -2.054  -0.716  0.00  0.00     0.000 A 
ENDROOT
TORSDOF 0
ENDMDL
