MODEL 1
REMARK minimizedAffinity -1.18320262
REMARK minimizedRMSD -1
REMARK  0 active torsions:
REMARK  status: ('A' for Active; 'I' for Inactive)
ROOT
ATOM      1  C1  BNZ d   1       4.124   3.554   5.168  0.00  0.00     0.000 A 
ATOM      2  C2  BNZ d   1       4.138   4.658   5.977  0.00  0.00     0.000 A 
ATOM      3  C3  BNZ d   1       5.063   5.648   5.794  0.00  0.00     0.000 A 
ATOM      4  C4  BNZ d   1       5.996   5.514   4.829  0.00  0.00     0.000 A 
ATOM      5  C5  BNZ d   1       6.000   4.402   4.011  0.00  0.00     0.000 A 
ATOM      6  C6  BNZ d   1       5.044   3.426   4.173  0.00  0.00     0.000 A 
ENDROOT
TORSDOF 0
ENDMDL
