MODEL 1
REMARK minimizedAffinity 4.27077961
REMARK minimizedRMSD -1
REMARK  0 active torsions:
REMARK  status: ('A' for Active; 'I' for Inactive)
ROOT
ATOM      1  C1  BNZ d   1      -0.324  -2.581  -1.035  0.00  0.00     0.000 A 
ATOM      2  C2  BNZ d   1       0.927  -3.060  -0.751  0.00  0.00     0.000 A 
ATOM      3  C3  BNZ d   1       1.792  -2.342   0.025  0.00  0.00     0.000 A 
ATOM      4  C4  BNZ d   1       1.422  -1.128   0.482  0.00  0.00     0.000 A 
ATOM      5  C5  BNZ d   1       0.167  -0.627   0.197  0.00  0.00     0.000 A 
ATOM      6  C6  BNZ d   1      -0.716  -1.370  -0.552  0.00  0.00     0.000 A 
ENDROOT
TORSDOF 0
ENDMDL
