MODEL 1
REMARK minimizedAffinity 2.96304154
REMARK minimizedRMSD -1
REMARK  0 active torsions:
REMARK  status: ('A' for Active; 'I' for Inactive)
ROOT
ATOM      1  C1  BNZ d   1       5.996   4.402   4.612  0.00  0.00     0.000 A 
ATOM      2  C2  BNZ d   1       5.996   5.562   5.339  0.00  0.00     0.000 A 
ATOM      3  C3  BNZ d   1       4.871   5.978   5.994  0.00  0.00     0.000 A 
ATOM      4  C4  BNZ d   1       3.737   5.255   5.888  0.00  0.00     0.000 A 
ATOM      5  C5  BNZ d   1       3.718   4.087   5.151  0.00  0.00     0.000 A 
ATOM      6  C6  BNZ d   1       4.864   3.652   4.525  0.00  0.00     0.000 A 
ENDROOT
TORSDOF 0
ENDMDL
