MODEL 1
REMARK minimizedAffinity -1.97550797
REMARK minimizedRMSD -1
REMARK  0 active torsions:
REMARK  status: ('A' for Active; 'I' for Inactive)
ROOT
ATOM      1  C1  BNZ d   1      -0.453   1.171   0.667  0.00  0.00     0.000 A 
ATOM      2  C2  BNZ d   1      -0.756   1.859   1.812  0.00  0.00     0.000 A 
ATOM      3  C3  BNZ d   1      -2.036   1.897   2.288  0.00  0.00     0.000 A 
ATOM      4  C4  BNZ d   1      -3.018   1.281   1.598  0.00  0.00     0.000 A 
ATOM      5  C5  BNZ d   1      -2.730   0.591   0.437  0.00  0.00     0.000 A 
ATOM      6  C6  BNZ d   1      -1.433   0.522  -0.018  0.00  0.00     0.000 A 
ENDROOT
TORSDOF 0
ENDMDL
