MODEL 1
REMARK minimizedAffinity 0.370358795
REMARK minimizedRMSD -1
REMARK  0 active torsions:
REMARK  status: ('A' for Active; 'I' for Inactive)
ROOT
ATOM      1  C1  BNZ d   1       4.394  -2.252  -2.680  0.00  0.00     0.000 A 
ATOM      2  C2  BNZ d   1       3.403  -3.037  -3.206  0.00  0.00     0.000 A 
ATOM      3  C3  BNZ d   1       2.209  -3.186  -2.557  0.00  0.00     0.000 A 
ATOM      4  C4  BNZ d   1       2.022  -2.582  -1.366  0.00  0.00     0.000 A 
ATOM      5  C5  BNZ d   1       3.015  -1.794  -0.819  0.00  0.00     0.000 A 
ATOM      6  C6  BNZ d   1       4.201  -1.615  -1.493  0.00  0.00     0.000 A 
ENDROOT
TORSDOF 0
ENDMDL
