MODEL 1
REMARK minimizedAffinity -1.57776368
REMARK minimizedRMSD -1
REMARK  0 active torsions:
REMARK  status: ('A' for Active; 'I' for Inactive)
ROOT
ATOM      1  C1  BNZ d   1       1.846   0.398  -0.462  0.00  0.00     0.000 A 
ATOM      2  C2  BNZ d   1       3.211   0.508  -0.440  0.00  0.00     0.000 A 
ATOM      3  C3  BNZ d   1       3.999  -0.452  -1.009  0.00  0.00     0.000 A 
ATOM      4  C4  BNZ d   1       3.425  -1.539  -1.564  0.00  0.00     0.000 A 
ATOM      5  C5  BNZ d   1       2.051  -1.669  -1.585  0.00  0.00     0.000 A 
ATOM      6  C6  BNZ d   1       1.259  -0.681  -1.046  0.00  0.00     0.000 A 
ENDROOT
TORSDOF 0
ENDMDL
