MODEL 1
REMARK minimizedAffinity -4.42661572
REMARK minimizedRMSD -1
REMARK  1 active torsions:
REMARK  status: ('A' for Active; 'I' for Inactive)
REMARK    1  A    between atoms: C3_4  and  O_7 
ROOT
ATOM      1  C   UNL d   1       0.673   0.570  -0.813  0.00  0.00    -0.033 A 
ATOM      2  C1  UNL d   1       0.672   0.009   0.466  0.00  0.00     0.039 A 
ATOM      3  C2  UNL d   1      -0.123   0.562   1.472  0.00  0.00    -0.080 A 
ATOM      4  C3  UNL d   1      -0.913   1.672   1.186  0.00  0.00     0.150 A 
ATOM      5  C4  UNL d   1      -0.920   2.233  -0.087  0.00  0.00    -0.007 A 
ATOM      6  C5  UNL d   1      -0.124   1.681  -1.090  0.00  0.00     0.039 A 
ENDROOT
BRANCH   4   7
ATOM      7  O   UNL d   1      -1.702   2.249   2.136  0.00  0.00    -0.526 OA
ATOM      8  H5  UNL d   1      -1.573   1.773   2.974  0.00  0.00     0.418 HD
ENDBRANCH   4   7
TORSDOF 1
ENDMDL
