MODEL 1
REMARK minimizedAffinity -5.43972921
REMARK minimizedRMSD -1
REMARK  1 active torsions:
REMARK  status: ('A' for Active; 'I' for Inactive)
REMARK    1  A    between atoms: C3_4  and  O_7 
ROOT
ATOM      1  C   UNL d   1       0.032   0.774  -0.736  0.00  0.00    -0.033 A 
ATOM      2  C1  UNL d   1       0.274   0.185   0.506  0.00  0.00     0.039 A 
ATOM      3  C2  UNL d   1      -0.249   0.760   1.666  0.00  0.00    -0.080 A 
ATOM      4  C3  UNL d   1      -1.012   1.921   1.570  0.00  0.00     0.150 A 
ATOM      5  C4  UNL d   1      -1.259   2.511   0.335  0.00  0.00    -0.007 A 
ATOM      6  C5  UNL d   1      -0.736   1.936  -0.822  0.00  0.00     0.039 A 
ENDROOT
BRANCH   4   7
ATOM      7  O   UNL d   1      -1.539   2.521   2.675  0.00  0.00    -0.526 OA
ATOM      8  H5  UNL d   1      -1.261   2.019   3.459  0.00  0.00     0.418 HD
ENDBRANCH   4   7
TORSDOF 1
ENDMDL
