MODEL 1
REMARK minimizedAffinity -4.39860392
REMARK minimizedRMSD -1
REMARK  1 active torsions:
REMARK  status: ('A' for Active; 'I' for Inactive)
REMARK    1  A    between atoms: C3_4  and  O_7 
ROOT
ATOM      1  C   UNL d   1      -1.084   2.924   1.201  0.00  0.00    -0.033 A 
ATOM      2  C1  UNL d   1      -1.508   2.745  -0.117  0.00  0.00     0.039 A 
ATOM      3  C2  UNL d   1      -1.288   1.528  -0.764  0.00  0.00    -0.080 A 
ATOM      4  C3  UNL d   1      -0.644   0.499  -0.084  0.00  0.00     0.150 A 
ATOM      5  C4  UNL d   1      -0.222   0.668   1.231  0.00  0.00    -0.007 A 
ATOM      6  C5  UNL d   1      -0.442   1.885   1.876  0.00  0.00     0.039 A 
ENDROOT
BRANCH   4   7
ATOM      7  O   UNL d   1      -0.403  -0.705  -0.676  0.00  0.00    -0.526 OA
ATOM      8  H5  UNL d   1      -0.723  -0.668  -1.592  0.00  0.00     0.418 HD
ENDBRANCH   4   7
TORSDOF 1
ENDMDL
