MODEL 1
REMARK minimizedAffinity -4.90267277
REMARK minimizedRMSD -1
REMARK  1 active torsions:
REMARK  status: ('A' for Active; 'I' for Inactive)
REMARK    1  A    between atoms: C3_4  and  O_7 
ROOT
ATOM      1  C   UNL d   1       0.509  -0.346   0.214  0.00  0.00    -0.033 A 
ATOM      2  C1  UNL d   1       0.601  -0.018   1.568  0.00  0.00     0.039 A 
ATOM      3  C2  UNL d   1      -0.096   1.082   2.071  0.00  0.00    -0.080 A 
ATOM      4  C3  UNL d   1      -0.882   1.845   1.211  0.00  0.00     0.150 A 
ATOM      5  C4  UNL d   1      -0.981   1.521  -0.138  0.00  0.00    -0.007 A 
ATOM      6  C5  UNL d   1      -0.284   0.423  -0.639  0.00  0.00     0.039 A 
ENDROOT
BRANCH   4   7
ATOM      7  O   UNL d   1      -1.577   2.930   1.655  0.00  0.00    -0.526 OA
ATOM      8  H5  UNL d   1      -1.390   3.049   2.601  0.00  0.00     0.418 HD
ENDBRANCH   4   7
TORSDOF 1
ENDMDL
