MODEL 1
REMARK minimizedAffinity -5.64641571
REMARK minimizedRMSD -1
REMARK  1 active torsions:
REMARK  status: ('A' for Active; 'I' for Inactive)
REMARK    1  A    between atoms: C3_4  and  O_7 
ROOT
ATOM      1  C   UNL d   1      -0.631   1.640  -1.260  0.00  0.00    -0.033 A 
ATOM      2  C1  UNL d   1      -0.699   0.783  -0.160  0.00  0.00     0.039 A 
ATOM      3  C2  UNL d   1      -0.985   1.293   1.108  0.00  0.00    -0.080 A 
ATOM      4  C3  UNL d   1      -1.201   2.660   1.262  0.00  0.00     0.150 A 
ATOM      5  C4  UNL d   1      -1.139   3.519   0.169  0.00  0.00    -0.007 A 
ATOM      6  C5  UNL d   1      -0.853   3.008  -1.096  0.00  0.00     0.039 A 
ENDROOT
BRANCH   4   7
ATOM      7  O   UNL d   1      -1.479   3.204   2.480  0.00  0.00    -0.526 OA
ATOM      8  H5  UNL d   1      -1.461   2.496   3.145  0.00  0.00     0.418 HD
ENDBRANCH   4   7
TORSDOF 1
ENDMDL
