MODEL 1
REMARK minimizedAffinity -3.74873948
REMARK minimizedRMSD -1
REMARK  1 active torsions:
REMARK  status: ('A' for Active; 'I' for Inactive)
REMARK    1  A    between atoms: C3_4  and  O_7 
ROOT
ATOM      1  C   UNL d   1       0.055   0.681   1.606  0.00  0.00    -0.033 A 
ATOM      2  C1  UNL d   1       0.151   0.273   0.275  0.00  0.00     0.039 A 
ATOM      3  C2  UNL d   1       0.074   1.214  -0.753  0.00  0.00    -0.080 A 
ATOM      4  C3  UNL d   1      -0.098   2.559  -0.437  0.00  0.00     0.150 A 
ATOM      5  C4  UNL d   1      -0.190   2.973   0.888  0.00  0.00    -0.007 A 
ATOM      6  C5  UNL d   1      -0.114   2.031   1.913  0.00  0.00     0.039 A 
ENDROOT
BRANCH   4   7
ATOM      7  O   UNL d   1      -0.184   3.514  -1.406  0.00  0.00    -0.526 OA
ATOM      8  H5  UNL d   1      -0.132   3.078  -2.273  0.00  0.00     0.418 HD
ENDBRANCH   4   7
TORSDOF 1
ENDMDL
