MODEL 1
REMARK minimizedAffinity -1.84951854
REMARK minimizedRMSD -1
REMARK  1 active torsions:
REMARK  status: ('A' for Active; 'I' for Inactive)
REMARK    1  A    between atoms: C3_4  and  O_7 
ROOT
ATOM      1  C   UNL d   1       0.340   0.507   1.545  0.00  0.00    -0.033 A 
ATOM      2  C1  UNL d   1       0.273   1.897   1.651  0.00  0.00     0.039 A 
ATOM      3  C2  UNL d   1       0.125   2.681   0.505  0.00  0.00    -0.080 A 
ATOM      4  C3  UNL d   1       0.044   2.062  -0.740  0.00  0.00     0.150 A 
ATOM      5  C4  UNL d   1       0.107   0.677  -0.853  0.00  0.00    -0.007 A 
ATOM      6  C5  UNL d   1       0.256  -0.103   0.293  0.00  0.00     0.039 A 
ENDROOT
BRANCH   4   7
ATOM      7  O   UNL d   1      -0.096   2.786  -1.887  0.00  0.00    -0.526 OA
ATOM      8  H5  UNL d   1      -0.095   3.730  -1.657  0.00  0.00     0.418 HD
ENDBRANCH   4   7
TORSDOF 1
ENDMDL
