MODEL 1
REMARK minimizedAffinity -4.14197254
REMARK minimizedRMSD -1
REMARK  1 active torsions:
REMARK  status: ('A' for Active; 'I' for Inactive)
REMARK    1  A    between atoms: C3_4  and  O_7 
ROOT
ATOM      1  C   UNL d   1       0.547  -0.064   0.797  0.00  0.00    -0.033 A 
ATOM      2  C1  UNL d   1       0.572  -0.030  -0.599  0.00  0.00     0.039 A 
ATOM      3  C2  UNL d   1       0.318   1.166  -1.274  0.00  0.00    -0.080 A 
ATOM      4  C3  UNL d   1       0.043   2.318  -0.543  0.00  0.00     0.150 A 
ATOM      5  C4  UNL d   1       0.020   2.291   0.848  0.00  0.00    -0.007 A 
ATOM      6  C5  UNL d   1       0.272   1.096   1.520  0.00  0.00     0.039 A 
ENDROOT
BRANCH   4   7
ATOM      7  O   UNL d   1      -0.216   3.507  -1.157  0.00  0.00    -0.526 OA
ATOM      8  H5  UNL d   1      -0.194   3.368  -2.119  0.00  0.00     0.418 HD
ENDBRANCH   4   7
TORSDOF 1
ENDMDL
