MODEL 1
REMARK minimizedAffinity -4.30654335
REMARK minimizedRMSD -1
REMARK  1 active torsions:
REMARK  status: ('A' for Active; 'I' for Inactive)
REMARK    1  A    between atoms: C3_4  and  O_7 
ROOT
ATOM      1  C   UNL d   1      -1.834   3.301   0.184  0.00  0.00    -0.033 A 
ATOM      2  C1  UNL d   1      -1.286   2.652  -0.924  0.00  0.00     0.039 A 
ATOM      3  C2  UNL d   1      -0.521   1.497  -0.752  0.00  0.00    -0.080 A 
ATOM      4  C3  UNL d   1      -0.314   1.000   0.532  0.00  0.00     0.150 A 
ATOM      5  C4  UNL d   1      -0.860   1.639   1.641  0.00  0.00    -0.007 A 
ATOM      6  C5  UNL d   1      -1.622   2.793   1.467  0.00  0.00     0.039 A 
ENDROOT
BRANCH   4   7
ATOM      7  O   UNL d   1       0.429  -0.122   0.751  0.00  0.00    -0.526 OA
ATOM      8  H5  UNL d   1       0.767  -0.439  -0.104  0.00  0.00     0.418 HD
ENDBRANCH   4   7
TORSDOF 1
ENDMDL
