MODEL 1
REMARK minimizedAffinity -4.7947073
REMARK minimizedRMSD -1
REMARK  1 active torsions:
REMARK  status: ('A' for Active; 'I' for Inactive)
REMARK    1  A    between atoms: C3_4  and  O_7 
ROOT
ATOM      1  C   UNL d   1       0.653  -0.272   1.066  0.00  0.00    -0.033 A 
ATOM      2  C1  UNL d   1       1.544  -0.744   0.100  0.00  0.00     0.039 A 
ATOM      3  C2  UNL d   1       1.598  -0.138  -1.157  0.00  0.00    -0.080 A 
ATOM      4  C3  UNL d   1       0.759   0.938  -1.434  0.00  0.00     0.150 A 
ATOM      5  C4  UNL d   1      -0.128   1.415  -0.475  0.00  0.00    -0.007 A 
ATOM      6  C5  UNL d   1      -0.182   0.808   0.779  0.00  0.00     0.039 A 
ENDROOT
BRANCH   4   7
ATOM      7  O   UNL d   1       0.773   1.558  -2.648  0.00  0.00    -0.526 OA
ATOM      8  H5  UNL d   1       1.415   1.103  -3.219  0.00  0.00     0.418 HD
ENDBRANCH   4   7
TORSDOF 1
ENDMDL
