MODEL 1
REMARK minimizedAffinity 1.83460581
REMARK minimizedRMSD -1
REMARK  1 active torsions:
REMARK  status: ('A' for Active; 'I' for Inactive)
REMARK    1  A    between atoms: C3_4  and  O_7 
ROOT
ATOM      1  C   UNL d   1      -1.883  -4.068  -2.604  0.00  0.00    -0.033 A 
ATOM      2  C1  UNL d   1      -0.916  -3.801  -3.575  0.00  0.00     0.039 A 
ATOM      3  C2  UNL d   1      -1.039  -2.679  -4.396  0.00  0.00    -0.080 A 
ATOM      4  C3  UNL d   1      -2.132  -1.832  -4.236  0.00  0.00     0.150 A 
ATOM      5  C4  UNL d   1      -3.098  -2.089  -3.268  0.00  0.00    -0.007 A 
ATOM      6  C5  UNL d   1      -2.973  -3.211  -2.449  0.00  0.00     0.039 A 
ENDROOT
BRANCH   4   7
ATOM      7  O   UNL d   1      -2.298  -0.727  -5.017  0.00  0.00    -0.526 OA
ATOM      8  H5  UNL d   1      -1.570  -0.693  -5.660  0.00  0.00     0.418 HD
ENDBRANCH   4   7
TORSDOF 1
ENDMDL
