MODEL 1
REMARK minimizedAffinity -3.28429556
REMARK minimizedRMSD -1
REMARK  0 active torsions:
REMARK  status: ('A' for Active; 'I' for Inactive)
ROOT
ATOM      1  C   UNL d   1       0.424  -0.111  -1.364  0.00  0.00     0.023 A 
ATOM      2  C1  UNL d   1      -0.118  -0.839  -0.304  0.00  0.00     0.003 A 
ATOM      3  C2  UNL d   1       0.062  -0.400   1.009  0.00  0.00     0.048 A 
ATOM      4  C3  UNL d   1       0.784   0.768   1.255  0.00  0.00     0.023 A 
ATOM      5  C4  UNL d   1       1.327   1.499   0.198  0.00  0.00     0.048 A 
ATOM      6  C5  UNL d   1       1.145   1.056  -1.114  0.00  0.00     0.003 A 
ATOM      7  I   UNL d   1       1.053   1.423   3.209  0.00  0.00    -0.146 I 
ENDROOT
TORSDOF 0
ENDMDL
