MODEL 1
REMARK minimizedAffinity 5.87170076
REMARK minimizedRMSD -1
REMARK  0 active torsions:
REMARK  status: ('A' for Active; 'I' for Inactive)
ROOT
ATOM      1  C   UNL d   1       0.451  -1.005  -0.517  0.00  0.00     0.023 A 
ATOM      2  C1  UNL d   1      -0.557  -1.942  -0.289  0.00  0.00     0.003 A 
ATOM      3  C2  UNL d   1      -1.780  -1.537   0.250  0.00  0.00     0.048 A 
ATOM      4  C3  UNL d   1      -1.988  -0.193   0.558  0.00  0.00     0.023 A 
ATOM      5  C4  UNL d   1      -0.983   0.748   0.332  0.00  0.00     0.048 A 
ATOM      6  C5  UNL d   1       0.239   0.338  -0.207  0.00  0.00     0.003 A 
ATOM      7  I   UNL d   1      -3.807   0.413   1.360  0.00  0.00    -0.146 I 
ENDROOT
TORSDOF 0
ENDMDL
