MODEL 1
REMARK minimizedAffinity -3.11664438
REMARK minimizedRMSD -1
REMARK  0 active torsions:
REMARK  status: ('A' for Active; 'I' for Inactive)
ROOT
ATOM      1  C   UNL d   1       1.540  -0.271  -2.684  0.00  0.00     0.023 A 
ATOM      2  C1  UNL d   1       0.782  -1.362  -2.256  0.00  0.00     0.003 A 
ATOM      3  C2  UNL d   1       0.072  -1.291  -1.055  0.00  0.00     0.048 A 
ATOM      4  C3  UNL d   1       0.123  -0.127  -0.289  0.00  0.00     0.023 A 
ATOM      5  C4  UNL d   1       0.879   0.966  -0.715  0.00  0.00     0.048 A 
ATOM      6  C5  UNL d   1       1.588   0.891  -1.915  0.00  0.00     0.003 A 
ATOM      7  I   UNL d   1      -0.933  -0.020   1.498  0.00  0.00    -0.146 I 
ENDROOT
TORSDOF 0
ENDMDL
