MODEL 1
REMARK minimizedAffinity -1.50231242
REMARK minimizedRMSD -1
REMARK  0 active torsions:
REMARK  status: ('A' for Active; 'I' for Inactive)
ROOT
ATOM      1  C   UNL d   1      -0.108   0.272  -2.030  0.00  0.00     0.023 A 
ATOM      2  C1  UNL d   1       0.886  -0.017  -2.964  0.00  0.00     0.003 A 
ATOM      3  C2  UNL d   1       2.224   0.255  -2.669  0.00  0.00     0.048 A 
ATOM      4  C3  UNL d   1       2.560   0.814  -1.437  0.00  0.00     0.023 A 
ATOM      5  C4  UNL d   1       1.568   1.104  -0.498  0.00  0.00     0.048 A 
ATOM      6  C5  UNL d   1       0.232   0.831  -0.798  0.00  0.00     0.003 A 
ATOM      7  I   UNL d   1       4.550   1.219  -0.995  0.00  0.00    -0.146 I 
ENDROOT
TORSDOF 0
ENDMDL
