MODEL 1
REMARK minimizedAffinity -3.07999134
REMARK minimizedRMSD -1
REMARK  0 active torsions:
REMARK  status: ('A' for Active; 'I' for Inactive)
ROOT
ATOM      1  C   UNL d   1       1.550   0.332  -1.360  0.00  0.00     0.023 A 
ATOM      2  C1  UNL d   1       0.442  -0.284  -1.943  0.00  0.00     0.003 A 
ATOM      3  C2  UNL d   1      -0.739  -0.434  -1.214  0.00  0.00     0.048 A 
ATOM      4  C3  UNL d   1      -0.806   0.034   0.098  0.00  0.00     0.023 A 
ATOM      5  C4  UNL d   1       0.300   0.652   0.685  0.00  0.00     0.048 A 
ATOM      6  C5  UNL d   1       1.479   0.799  -0.048  0.00  0.00     0.003 A 
ATOM      7  I   UNL d   1      -2.563  -0.189   1.186  0.00  0.00    -0.146 I 
ENDROOT
TORSDOF 0
ENDMDL
