MODEL 1
REMARK minimizedAffinity 0.211962909
REMARK minimizedRMSD -1
REMARK  0 active torsions:
REMARK  status: ('A' for Active; 'I' for Inactive)
ROOT
ATOM      1  C   UNL d   1      -0.135  -0.490  -1.858  0.00  0.00     0.023 A 
ATOM      2  C1  UNL d   1       0.009   0.082  -0.594  0.00  0.00     0.003 A 
ATOM      3  C2  UNL d   1       1.235   0.627  -0.209  0.00  0.00     0.048 A 
ATOM      4  C3  UNL d   1       2.314   0.597  -1.093  0.00  0.00     0.023 A 
ATOM      5  C4  UNL d   1       2.174   0.027  -2.359  0.00  0.00     0.048 A 
ATOM      6  C5  UNL d   1       0.946  -0.518  -2.739  0.00  0.00     0.003 A 
ATOM      7  I   UNL d   1       4.140   1.408  -0.521  0.00  0.00    -0.146 I 
ENDROOT
TORSDOF 0
ENDMDL
