MODEL 1
REMARK minimizedAffinity -2.31029677
REMARK minimizedRMSD -1
REMARK  0 active torsions:
REMARK  status: ('A' for Active; 'I' for Inactive)
ROOT
ATOM      1  C   UNL d   1       2.241   2.265   4.095  0.00  0.00     0.023 A 
ATOM      2  C1  UNL d   1       2.599   2.906   2.909  0.00  0.00     0.003 A 
ATOM      3  C2  UNL d   1       2.104   2.444   1.687  0.00  0.00     0.048 A 
ATOM      4  C3  UNL d   1       1.251   1.342   1.660  0.00  0.00     0.023 A 
ATOM      5  C4  UNL d   1       0.890   0.698   2.844  0.00  0.00     0.048 A 
ATOM      6  C5  UNL d   1       1.388   1.162   4.063  0.00  0.00     0.003 A 
ATOM      7  I   UNL d   1       0.513   0.652  -0.157  0.00  0.00    -0.146 I 
ENDROOT
TORSDOF 0
ENDMDL
