MODEL 1
REMARK minimizedAffinity -0.79335165
REMARK minimizedRMSD -1
REMARK  0 active torsions:
REMARK  status: ('A' for Active; 'I' for Inactive)
ROOT
ATOM      1  C   UNL d   1      -3.060  -0.577   0.524  0.00  0.00     0.023 A 
ATOM      2  C1  UNL d   1      -1.901   0.007   1.036  0.00  0.00     0.003 A 
ATOM      3  C2  UNL d   1      -1.988   0.963   2.050  0.00  0.00     0.048 A 
ATOM      4  C3  UNL d   1      -3.238   1.329   2.548  0.00  0.00     0.023 A 
ATOM      5  C4  UNL d   1      -4.400   0.747   2.040  0.00  0.00     0.048 A 
ATOM      6  C5  UNL d   1      -4.308  -0.207   1.025  0.00  0.00     0.003 A 
ATOM      7  I   UNL d   1      -3.370   2.752   4.058  0.00  0.00    -0.146 I 
ENDROOT
TORSDOF 0
ENDMDL
