MODEL 1
REMARK minimizedAffinity -1.44814372
REMARK minimizedRMSD -1
REMARK  0 active torsions:
REMARK  status: ('A' for Active; 'I' for Inactive)
ROOT
ATOM      1  C   UNL d   1      -0.699  -1.382   0.992  0.00  0.00     0.023 A 
ATOM      2  C1  UNL d   1      -0.451  -0.034   0.735  0.00  0.00     0.003 A 
ATOM      3  C2  UNL d   1       0.334   0.336  -0.359  0.00  0.00     0.048 A 
ATOM      4  C3  UNL d   1       0.868  -0.647  -1.192  0.00  0.00     0.023 A 
ATOM      5  C4  UNL d   1       0.621  -1.997  -0.939  0.00  0.00     0.048 A 
ATOM      6  C5  UNL d   1      -0.164  -2.363   0.157  0.00  0.00     0.003 A 
ATOM      7  I   UNL d   1       2.037  -0.098  -2.820  0.00  0.00    -0.146 I 
ENDROOT
TORSDOF 0
ENDMDL
