MODEL 1
REMARK minimizedAffinity -0.966093719
REMARK minimizedRMSD -1
REMARK  0 active torsions:
REMARK  status: ('A' for Active; 'I' for Inactive)
ROOT
ATOM      1  C   UNL d   1       2.243   2.139   2.811  0.00  0.00     0.023 A 
ATOM      2  C1  UNL d   1       2.310   2.375   1.438  0.00  0.00     0.003 A 
ATOM      3  C2  UNL d   1       1.548   1.604   0.558  0.00  0.00     0.048 A 
ATOM      4  C3  UNL d   1       0.720   0.599   1.059  0.00  0.00     0.023 A 
ATOM      5  C4  UNL d   1       0.650   0.360   2.432  0.00  0.00     0.048 A 
ATOM      6  C5  UNL d   1       1.414   1.133   3.308  0.00  0.00     0.003 A 
ATOM      7  I   UNL d   1      -0.415  -0.550  -0.249  0.00  0.00    -0.146 I 
ENDROOT
TORSDOF 0
ENDMDL
