MODEL 1
REMARK minimizedAffinity -0.369793266
REMARK minimizedRMSD -1
REMARK  0 active torsions:
REMARK  status: ('A' for Active; 'I' for Inactive)
ROOT
ATOM      1  C   UNL d   1       2.205   2.535   2.686  0.00  0.00     0.023 A 
ATOM      2  C1  UNL d   1       1.658   1.569   3.530  0.00  0.00     0.003 A 
ATOM      3  C2  UNL d   1       0.749   0.635   3.029  0.00  0.00     0.048 A 
ATOM      4  C3  UNL d   1       0.394   0.672   1.681  0.00  0.00     0.023 A 
ATOM      5  C4  UNL d   1       0.940   1.635   0.831  0.00  0.00     0.048 A 
ATOM      6  C5  UNL d   1       1.847   2.568   1.338  0.00  0.00     0.003 A 
ATOM      7  I   UNL d   1      -0.958  -0.718   0.931  0.00  0.00    -0.146 I 
ENDROOT
TORSDOF 0
ENDMDL
