MODEL 1
REMARK minimizedAffinity 0.105074443
REMARK minimizedRMSD -1
REMARK  0 active torsions:
REMARK  status: ('A' for Active; 'I' for Inactive)
ROOT
ATOM      1  C   UNL d   1      -5.011  -0.089   1.833  0.00  0.00     0.023 A 
ATOM      2  C1  UNL d   1      -4.319  -1.297   1.752  0.00  0.00     0.003 A 
ATOM      3  C2  UNL d   1      -2.969  -1.307   1.394  0.00  0.00     0.048 A 
ATOM      4  C3  UNL d   1      -2.317  -0.105   1.120  0.00  0.00     0.023 A 
ATOM      5  C4  UNL d   1      -3.006   1.106   1.201  0.00  0.00     0.048 A 
ATOM      6  C5  UNL d   1      -4.355   1.112   1.558  0.00  0.00     0.003 A 
ATOM      7  I   UNL d   1      -0.308  -0.118   0.588  0.00  0.00    -0.146 I 
ENDROOT
TORSDOF 0
ENDMDL
