MODEL 1
REMARK minimizedAffinity -4.61269808
REMARK minimizedRMSD -1
REMARK  0 active torsions:
REMARK  status: ('A' for Active; 'I' for Inactive)
ROOT
ATOM      1  C   UNL d   1      -3.906   0.804   2.257  0.00  0.00     0.023 A 
ATOM      2  C1  UNL d   1      -3.454   1.608   3.304  0.00  0.00     0.003 A 
ATOM      3  C2  UNL d   1      -2.091   1.673   3.599  0.00  0.00     0.048 A 
ATOM      4  C3  UNL d   1      -1.184   0.932   2.842  0.00  0.00     0.023 A 
ATOM      5  C4  UNL d   1      -1.631   0.127   1.793  0.00  0.00     0.048 A 
ATOM      6  C5  UNL d   1      -2.995   0.065   1.502  0.00  0.00     0.003 A 
ATOM      7  I   UNL d   1       0.846   1.027   3.278  0.00  0.00    -0.146 I 
ENDROOT
TORSDOF 0
ENDMDL
