MODEL 1
REMARK minimizedAffinity -3.38156939
REMARK minimizedRMSD -1
REMARK  0 active torsions:
REMARK  status: ('A' for Active; 'I' for Inactive)
ROOT
ATOM      1  C   UNL d   1       2.371   2.895   2.911  0.00  0.00     0.023 A 
ATOM      2  C1  UNL d   1       2.264   2.993   1.524  0.00  0.00     0.003 A 
ATOM      3  C2  UNL d   1       1.431   2.119   0.823  0.00  0.00     0.048 A 
ATOM      4  C3  UNL d   1       0.707   1.148   1.516  0.00  0.00     0.023 A 
ATOM      5  C4  UNL d   1       0.811   1.047   2.904  0.00  0.00     0.048 A 
ATOM      6  C5  UNL d   1       1.646   1.922   3.600  0.00  0.00     0.003 A 
ATOM      7  I   UNL d   1      -0.533  -0.154   0.474  0.00  0.00    -0.146 I 
ENDROOT
TORSDOF 0
ENDMDL
