MODEL 1
REMARK minimizedAffinity -4.28884697
REMARK minimizedRMSD -1
REMARK  0 active torsions:
REMARK  status: ('A' for Active; 'I' for Inactive)
ROOT
ATOM      1  C   UNL d   1       2.209   0.362  -2.447  0.00  0.00     0.023 A 
ATOM      2  C1  UNL d   1       1.411  -0.782  -2.418  0.00  0.00     0.003 A 
ATOM      3  C2  UNL d   1       0.463  -0.949  -1.406  0.00  0.00     0.048 A 
ATOM      4  C3  UNL d   1       0.317   0.033  -0.427  0.00  0.00     0.023 A 
ATOM      5  C4  UNL d   1       1.113   1.180  -0.452  0.00  0.00     0.048 A 
ATOM      6  C5  UNL d   1       2.060   1.342  -1.465  0.00  0.00     0.003 A 
ATOM      7  I   UNL d   1      -1.093  -0.212   1.080  0.00  0.00    -0.146 I 
ENDROOT
TORSDOF 0
ENDMDL
