MODEL 1
REMARK minimizedAffinity -1.058599
REMARK minimizedRMSD -1
REMARK  0 active torsions:
REMARK  status: ('A' for Active; 'I' for Inactive)
ROOT
ATOM      1  C   UNL d   1       0.410  -1.661  -1.789  0.00  0.00     0.023 A 
ATOM      2  C1  UNL d   1       1.611  -1.098  -2.222  0.00  0.00     0.003 A 
ATOM      3  C2  UNL d   1       2.082   0.079  -1.637  0.00  0.00     0.048 A 
ATOM      4  C3  UNL d   1       1.348   0.687  -0.619  0.00  0.00     0.023 A 
ATOM      5  C4  UNL d   1       0.146   0.127  -0.183  0.00  0.00     0.048 A 
ATOM      6  C5  UNL d   1      -0.321  -1.050  -0.771  0.00  0.00     0.003 A 
ATOM      7  I   UNL d   1       2.048   2.439   0.254  0.00  0.00    -0.146 I 
ENDROOT
TORSDOF 0
ENDMDL
