MODEL 1
REMARK minimizedAffinity 10.5413265
REMARK minimizedRMSD -1
REMARK  1 active torsions:
REMARK  status: ('A' for Active; 'I' for Inactive)
REMARK    1  A    between atoms: C1_2  and  C2_3 
ROOT
ATOM      1  C2  UNL d   1       4.254   5.171   4.387  0.00  0.00    -0.081 A 
ATOM      2  C3  UNL d   1       3.536   5.226   3.186  0.00  0.00     0.006 A 
ATOM      3  C4  UNL d   1       2.275   4.634   3.087  0.00  0.00     0.002 A 
ATOM      4  C5  UNL d   1       1.707   3.984   4.188  0.00  0.00    -0.080 A 
ATOM      5  C6  UNL d   1       0.341   3.370   4.103  0.00  0.00     0.076 C 
ATOM      6  C7  UNL d   1       2.432   3.913   5.382  0.00  0.00     0.002 A 
ATOM      7  C8  UNL d   1       3.693   4.504   5.482  0.00  0.00     0.006 A 
ENDROOT
BRANCH   1   8
ATOM      8  C1  UNL d   1       5.586   5.864   4.516  0.00  0.00     0.054 C 
ATOM      9  C   UNL d   1       6.000   6.000   5.975  0.00  0.00     0.018 C 
ENDBRANCH   1   8
TORSDOF 1
ENDMDL
