MODEL 1
REMARK minimizedAffinity 11.764185
REMARK minimizedRMSD -1
REMARK  1 active torsions:
REMARK  status: ('A' for Active; 'I' for Inactive)
REMARK    1  A    between atoms: C1_2  and  C2_3 
ROOT
ATOM      1  C2  UNL d   1       2.110  -2.830   1.678  0.00  0.00    -0.081 A 
ATOM      2  C3  UNL d   1       1.253  -2.046   2.460  0.00  0.00     0.006 A 
ATOM      3  C4  UNL d   1      -0.124  -2.281   2.455  0.00  0.00     0.002 A 
ATOM      4  C5  UNL d   1      -0.665  -3.309   1.675  0.00  0.00    -0.080 A 
ATOM      5  C6  UNL d   1      -2.138  -3.592   1.684  0.00  0.00     0.076 C 
ATOM      6  C7  UNL d   1       0.189  -4.082   0.881  0.00  0.00     0.002 A 
ATOM      7  C8  UNL d   1       1.566  -3.846   0.885  0.00  0.00     0.006 A 
ENDROOT
BRANCH   1   8
ATOM      8  C1  UNL d   1       3.602  -2.620   1.731  0.00  0.00     0.054 C 
ATOM      9  C   UNL d   1       4.128  -2.742   3.154  0.00  0.00     0.018 C 
ENDBRANCH   1   8
TORSDOF 1
ENDMDL
