MODEL 1
REMARK minimizedAffinity -4.2897048
REMARK minimizedRMSD -1
REMARK  1 active torsions:
REMARK  status: ('A' for Active; 'I' for Inactive)
REMARK    1  A    between atoms: C1_2  and  C2_3 
ROOT
ATOM      1  C2  UNL d   1       2.928   5.379   4.218  0.00  0.00    -0.081 A 
ATOM      2  C3  UNL d   1       2.401   5.968   5.374  0.00  0.00     0.006 A 
ATOM      3  C4  UNL d   1       1.022   5.987   5.593  0.00  0.00     0.002 A 
ATOM      4  C5  UNL d   1       0.147   5.411   4.665  0.00  0.00    -0.080 A 
ATOM      5  C6  UNL d   1      -1.333   5.398   4.904  0.00  0.00     0.076 C 
ATOM      6  C7  UNL d   1       0.672   4.838   3.502  0.00  0.00     0.002 A 
ATOM      7  C8  UNL d   1       2.052   4.819   3.282  0.00  0.00     0.006 A 
ENDROOT
BRANCH   1   8
ATOM      8  C1  UNL d   1       4.419   5.300   4.009  0.00  0.00     0.054 C 
ATOM      9  C   UNL d   1       5.153   5.107   5.329  0.00  0.00     0.018 C 
ENDBRANCH   1   8
TORSDOF 1
ENDMDL
