MODEL 1
REMARK minimizedAffinity 7.32487059
REMARK minimizedRMSD -1
REMARK  1 active torsions:
REMARK  status: ('A' for Active; 'I' for Inactive)
REMARK    1  A    between atoms: C1_2  and  C2_3 
ROOT
ATOM      1  C2  UNL d   1       3.680   5.285   4.724  0.00  0.00    -0.081 A 
ATOM      2  C3  UNL d   1       2.726   4.958   5.695  0.00  0.00     0.006 A 
ATOM      3  C4  UNL d   1       1.511   4.374   5.326  0.00  0.00     0.002 A 
ATOM      4  C5  UNL d   1       1.235   4.100   3.982  0.00  0.00    -0.080 A 
ATOM      5  C6  UNL d   1      -0.052   3.445   3.576  0.00  0.00     0.076 C 
ATOM      6  C7  UNL d   1       2.181   4.442   3.010  0.00  0.00     0.002 A 
ATOM      7  C8  UNL d   1       3.395   5.027   3.378  0.00  0.00     0.006 A 
ENDROOT
BRANCH   1   8
ATOM      8  C1  UNL d   1       5.017   5.855   5.124  0.00  0.00     0.054 C 
ATOM      9  C   UNL d   1       5.974   5.904   3.942  0.00  0.00     0.018 C 
ENDBRANCH   1   8
TORSDOF 1
ENDMDL
