MODEL 1
REMARK minimizedAffinity 11.5514784
REMARK minimizedRMSD -1
REMARK  0 active torsions:
REMARK  status: ('A' for Active; 'I' for Inactive)
ROOT
ATOM      1  C4' PXY d   1       0.694  -1.466   3.817  0.00  0.00     0.077 C 
ATOM      2  C1' PXY d   1      -3.919   0.499   0.940  0.00  0.00     0.077 C 
ATOM      3  C1  PXY d   1      -2.710  -0.006   1.702  0.00  0.00    -0.082 A 
ATOM      4  C2  PXY d   1      -1.886  -0.866   1.126  0.00  0.00     0.003 A 
ATOM      5  C3  PXY d   1      -0.805  -1.357   1.812  0.00  0.00     0.003 A 
ATOM      6  C4  PXY d   1      -0.535  -0.923   3.082  0.00  0.00    -0.082 A 
ATOM      7  C5  PXY d   1      -1.365  -0.037   3.673  0.00  0.00     0.003 A 
ATOM      8  C6  PXY d   1      -2.479   0.418   2.975  0.00  0.00     0.003 A 
ENDROOT
TORSDOF 0
ENDMDL
