MODEL 1
REMARK minimizedAffinity 13.4081907
REMARK minimizedRMSD -1
REMARK  0 active torsions:
REMARK  status: ('A' for Active; 'I' for Inactive)
ROOT
ATOM      1  C4' PXY d   1      -4.280   2.664   5.876  0.00  0.00     0.077 C 
ATOM      2  C1' PXY d   1      -0.781  -0.778   2.822  0.00  0.00     0.077 C 
ATOM      3  C1  PXY d   1      -1.700   0.115   3.632  0.00  0.00    -0.082 A 
ATOM      4  C2  PXY d   1      -2.406   1.053   3.022  0.00  0.00     0.003 A 
ATOM      5  C3  PXY d   1      -3.216   1.891   3.743  0.00  0.00     0.003 A 
ATOM      6  C4  PXY d   1      -3.347   1.733   5.097  0.00  0.00    -0.082 A 
ATOM      7  C5  PXY d   1      -2.638   0.771   5.726  0.00  0.00     0.003 A 
ATOM      8  C6  PXY d   1      -1.789  -0.042   4.981  0.00  0.00     0.003 A 
ENDROOT
TORSDOF 0
ENDMDL
