MODEL 1
REMARK minimizedAffinity 6.07422304
REMARK minimizedRMSD -1
REMARK  0 active torsions:
REMARK  status: ('A' for Active; 'I' for Inactive)
ROOT
ATOM      1  C4' PXY d   1       5.519   3.369   2.500  0.00  0.00     0.077 C 
ATOM      2  C1' PXY d   1       5.275   6.000  -2.641  0.00  0.00     0.077 C 
ATOM      3  C1  PXY d   1       5.337   5.321  -1.287  0.00  0.00    -0.082 A 
ATOM      4  C2  PXY d   1       5.961   4.161  -1.165  0.00  0.00     0.003 A 
ATOM      5  C3  PXY d   1       6.000   3.518   0.046  0.00  0.00     0.003 A 
ATOM      6  C4  PXY d   1       5.439   4.094   1.154  0.00  0.00    -0.082 A 
ATOM      7  C5  PXY d   1       4.810   5.283   1.040  0.00  0.00     0.003 A 
ATOM      8  C6  PXY d   1       4.746   5.900  -0.206  0.00  0.00     0.003 A 
ENDROOT
TORSDOF 0
ENDMDL
