MODEL 1
REMARK minimizedAffinity 15.2485657
REMARK minimizedRMSD -1
REMARK  0 active torsions:
REMARK  status: ('A' for Active; 'I' for Inactive)
ROOT
ATOM      1  C4' PXY d   1      -4.492   2.792   6.000  0.00  0.00     0.077 C 
ATOM      2  C1' PXY d   1      -1.197  -0.579   2.654  0.00  0.00     0.077 C 
ATOM      3  C1  PXY d   1      -2.059   0.297   3.542  0.00  0.00    -0.082 A 
ATOM      4  C2  PXY d   1      -2.999   1.054   2.999  0.00  0.00     0.003 A 
ATOM      5  C3  PXY d   1      -3.766   1.876   3.784  0.00  0.00     0.003 A 
ATOM      6  C4  PXY d   1      -3.605   1.884   5.143  0.00  0.00    -0.082 A 
ATOM      7  C5  PXY d   1      -2.655   1.107   5.705  0.00  0.00     0.003 A 
ATOM      8  C6  PXY d   1      -1.859   0.311   4.887  0.00  0.00     0.003 A 
ENDROOT
TORSDOF 0
ENDMDL
