MODEL 1
REMARK minimizedAffinity 9.70713329
REMARK minimizedRMSD -1
REMARK  0 active torsions:
REMARK  status: ('A' for Active; 'I' for Inactive)
ROOT
ATOM      1  C4' PXY d   1      -4.041   3.066   5.966  0.00  0.00     0.077 C 
ATOM      2  C1' PXY d   1      -1.137  -0.314   2.284  0.00  0.00     0.077 C 
ATOM      3  C1  PXY d   1      -1.895   0.565   3.259  0.00  0.00    -0.082 A 
ATOM      4  C2  PXY d   1      -2.907   1.299   2.828  0.00  0.00     0.003 A 
ATOM      5  C3  PXY d   1      -3.583   2.124   3.690  0.00  0.00     0.003 A 
ATOM      6  C4  PXY d   1      -3.253   2.157   5.018  0.00  0.00    -0.082 A 
ATOM      7  C5  PXY d   1      -2.229   1.402   5.469  0.00  0.00     0.003 A 
ATOM      8  C6  PXY d   1      -1.529   0.603   4.569  0.00  0.00     0.003 A 
ENDROOT
TORSDOF 0
ENDMDL
