MODEL 1
REMARK minimizedAffinity 20.7728062
REMARK minimizedRMSD -1
REMARK  0 active torsions:
REMARK  status: ('A' for Active; 'I' for Inactive)
ROOT
ATOM      1  C4' PXY d   1      -4.406   3.363   6.000  0.00  0.00     0.077 C 
ATOM      2  C1' PXY d   1      -0.980  -0.054   2.837  0.00  0.00     0.077 C 
ATOM      3  C1  PXY d   1      -1.878   0.833   3.676  0.00  0.00    -0.082 A 
ATOM      4  C2  PXY d   1      -2.691   1.690   3.081  0.00  0.00     0.003 A 
ATOM      5  C3  PXY d   1      -3.487   2.523   3.825  0.00  0.00     0.003 A 
ATOM      6  C4  PXY d   1      -3.488   2.440   5.192  0.00  0.00    -0.082 A 
ATOM      7  C5  PXY d   1      -2.669   1.561   5.807  0.00  0.00     0.003 A 
ATOM      8  C6  PXY d   1      -1.839   0.753   5.034  0.00  0.00     0.003 A 
ENDROOT
TORSDOF 0
ENDMDL
