MODEL 1
REMARK minimizedAffinity 4.14564991
REMARK minimizedRMSD -1
REMARK  0 active torsions:
REMARK  status: ('A' for Active; 'I' for Inactive)
ROOT
ATOM      1  C4' PXY d   1      -2.494   1.865   4.190  0.00  0.00     0.077 C 
ATOM      2  C1' PXY d   1       1.389  -2.322   3.293  0.00  0.00     0.077 C 
ATOM      3  C1  PXY d   1       0.370  -1.228   3.541  0.00  0.00    -0.082 A 
ATOM      4  C2  PXY d   1      -0.375  -0.788   2.539  0.00  0.00     0.003 A 
ATOM      5  C3  PXY d   1      -1.278   0.224   2.739  0.00  0.00     0.003 A 
ATOM      6  C4  PXY d   1      -1.459   0.754   3.988  0.00  0.00    -0.082 A 
ATOM      7  C5  PXY d   1      -0.711   0.304   5.017  0.00  0.00     0.003 A 
ATOM      8  C6  PXY d   1       0.230  -0.695   4.785  0.00  0.00     0.003 A 
ENDROOT
TORSDOF 0
ENDMDL
