MODEL 1
REMARK minimizedAffinity 10.4746389
REMARK minimizedRMSD -1
REMARK  0 active torsions:
REMARK  status: ('A' for Active; 'I' for Inactive)
ROOT
ATOM      1  C4' PXY d   1      -2.159  -1.502   1.258  0.00  0.00     0.077 C 
ATOM      2  C1' PXY d   1      -4.535   2.201   5.007  0.00  0.00     0.077 C 
ATOM      3  C1  PXY d   1      -3.924   1.224   4.022  0.00  0.00    -0.082 A 
ATOM      4  C2  PXY d   1      -2.621   0.992   4.055  0.00  0.00     0.003 A 
ATOM      5  C3  PXY d   1      -2.047   0.136   3.151  0.00  0.00     0.003 A 
ATOM      6  C4  PXY d   1      -2.821  -0.530   2.239  0.00  0.00    -0.082 A 
ATOM      7  C5  PXY d   1      -4.152  -0.307   2.206  0.00  0.00     0.003 A 
ATOM      8  C6  PXY d   1      -4.710   0.597   3.105  0.00  0.00     0.003 A 
ENDROOT
TORSDOF 0
ENDMDL
