MODEL 1
REMARK minimizedAffinity 3.6542592
REMARK minimizedRMSD -1
REMARK  0 active torsions:
REMARK  status: ('A' for Active; 'I' for Inactive)
ROOT
ATOM      1  C4' PXY d   1       3.748  -0.606  -1.008  0.00  0.00     0.077 C 
ATOM      2  C1' PXY d   1       5.693  -6.000  -0.279  0.00  0.00     0.077 C 
ATOM      3  C1  PXY d   1       5.171  -4.590  -0.472  0.00  0.00    -0.082 A 
ATOM      4  C2  PXY d   1       6.000  -3.632  -0.855  0.00  0.00     0.003 A 
ATOM      5  C3  PXY d   1       5.551  -2.345  -1.003  0.00  0.00     0.003 A 
ATOM      6  C4  PXY d   1       4.229  -2.046  -0.810  0.00  0.00    -0.082 A 
ATOM      7  C5  PXY d   1       3.375  -3.020  -0.430  0.00  0.00     0.003 A 
ATOM      8  C6  PXY d   1       3.859  -4.311  -0.244  0.00  0.00     0.003 A 
ENDROOT
TORSDOF 0
ENDMDL
