MODEL 1
REMARK minimizedAffinity 17.9798698
REMARK minimizedRMSD -1
REMARK  0 active torsions:
REMARK  status: ('A' for Active; 'I' for Inactive)
ROOT
ATOM      1  C4' PXY d   1      -4.334  -0.008   1.164  0.00  0.00     0.077 C 
ATOM      2  C1' PXY d   1       1.100  -1.340   2.618  0.00  0.00     0.077 C 
ATOM      3  C1  PXY d   1      -0.327  -0.985   2.249  0.00  0.00    -0.082 A 
ATOM      4  C2  PXY d   1      -0.962  -1.698   1.332  0.00  0.00     0.003 A 
ATOM      5  C3  PXY d   1      -2.241  -1.371   0.963  0.00  0.00     0.003 A 
ATOM      6  C4  PXY d   1      -2.896  -0.336   1.576  0.00  0.00    -0.082 A 
ATOM      7  C5  PXY d   1      -2.259   0.389   2.519  0.00  0.00     0.003 A 
ATOM      8  C6  PXY d   1      -0.946   0.067   2.850  0.00  0.00     0.003 A 
ENDROOT
TORSDOF 0
ENDMDL
