MODEL 1
REMARK minimizedAffinity 9.72571182
REMARK minimizedRMSD -1
REMARK  0 active torsions:
REMARK  status: ('A' for Active; 'I' for Inactive)
ROOT
ATOM      1  C4' PXY d   1      -5.164  -0.938  -2.604  0.00  0.00     0.077 C 
ATOM      2  C1' PXY d   1      -1.462  -2.112   1.678  0.00  0.00     0.077 C 
ATOM      3  C1  PXY d   1      -2.423  -1.800   0.548  0.00  0.00    -0.082 A 
ATOM      4  C2  PXY d   1      -3.699  -1.573   0.817  0.00  0.00     0.003 A 
ATOM      5  C3  PXY d   1      -4.587  -1.321  -0.196  0.00  0.00     0.003 A 
ATOM      6  C4  PXY d   1      -4.156  -1.248  -1.493  0.00  0.00    -0.082 A 
ATOM      7  C5  PXY d   1      -2.855  -1.468  -1.775  0.00  0.00     0.003 A 
ATOM      8  C6  PXY d   1      -1.976  -1.763  -0.737  0.00  0.00     0.003 A 
ENDROOT
TORSDOF 0
ENDMDL
