MODEL 1
REMARK minimizedAffinity 10.7775068
REMARK minimizedRMSD -1
REMARK  0 active torsions:
REMARK  status: ('A' for Active; 'I' for Inactive)
ROOT
ATOM      1  C4' PXY d   1      -5.627   1.882   5.994  0.00  0.00     0.077 C 
ATOM      2  C1' PXY d   1      -1.534  -0.199   2.483  0.00  0.00     0.077 C 
ATOM      3  C1  PXY d   1      -2.614   0.352   3.393  0.00  0.00    -0.082 A 
ATOM      4  C2  PXY d   1      -2.331   0.612   4.660  0.00  0.00     0.003 A 
ATOM      5  C3  PXY d   1      -3.304   1.080   5.505  0.00  0.00     0.003 A 
ATOM      6  C4  PXY d   1      -4.566   1.334   5.036  0.00  0.00    -0.082 A 
ATOM      7  C5  PXY d   1      -4.858   1.082   3.743  0.00  0.00     0.003 A 
ATOM      8  C6  PXY d   1      -3.867   0.568   2.911  0.00  0.00     0.003 A 
ENDROOT
TORSDOF 0
ENDMDL
