MODEL 1
REMARK minimizedAffinity 5.41704464
REMARK minimizedRMSD -1
REMARK  0 active torsions:
REMARK  status: ('A' for Active; 'I' for Inactive)
ROOT
ATOM      1  C4' PXY d   1      -1.955  -0.864   1.615  0.00  0.00     0.077 C 
ATOM      2  C1' PXY d   1      -4.515   2.366   5.669  0.00  0.00     0.077 C 
ATOM      3  C1  PXY d   1      -3.856   1.515   4.602  0.00  0.00    -0.082 A 
ATOM      4  C2  PXY d   1      -2.606   1.113   4.766  0.00  0.00     0.003 A 
ATOM      5  C3  PXY d   1      -1.983   0.369   3.796  0.00  0.00     0.003 A 
ATOM      6  C4  PXY d   1      -2.664  -0.011   2.671  0.00  0.00    -0.082 A 
ATOM      7  C5  PXY d   1      -3.943   0.386   2.501  0.00  0.00     0.003 A 
ATOM      8  C6  PXY d   1      -4.544   1.175   3.478  0.00  0.00     0.003 A 
ENDROOT
TORSDOF 0
ENDMDL
