MODEL 1
REMARK minimizedAffinity 11.1044426
REMARK minimizedRMSD -1
REMARK  0 active torsions:
REMARK  status: ('A' for Active; 'I' for Inactive)
ROOT
ATOM      1  C4' PXY d   1       2.836   1.270   0.573  0.00  0.00     0.077 C 
ATOM      2  C1' PXY d   1       0.665   4.794  -3.462  0.00  0.00     0.077 C 
ATOM      3  C1  PXY d   1       1.232   3.860  -2.412  0.00  0.00    -0.082 A 
ATOM      4  C2  PXY d   1       1.175   4.199  -1.135  0.00  0.00     0.003 A 
ATOM      5  C3  PXY d   1       1.712   3.381  -0.175  0.00  0.00     0.003 A 
ATOM      6  C4  PXY d   1       2.267   2.178  -0.521  0.00  0.00    -0.082 A 
ATOM      7  C5  PXY d   1       2.320   1.820  -1.821  0.00  0.00     0.003 A 
ATOM      8  C6  PXY d   1       1.806   2.683  -2.784  0.00  0.00     0.003 A 
ENDROOT
TORSDOF 0
ENDMDL
