MODEL 1
REMARK minimizedAffinity -0.184577584
REMARK minimizedRMSD -1
REMARK  0 active torsions:
REMARK  status: ('A' for Active; 'I' for Inactive)
ROOT
ATOM      1  C4' PXY d   1      -5.999   1.767   5.586  0.00  0.00     0.077 C 
ATOM      2  C1' PXY d   1      -1.991  -0.574   2.141  0.00  0.00     0.077 C 
ATOM      3  C1  PXY d   1      -3.049   0.043   3.034  0.00  0.00    -0.082 A 
ATOM      4  C2  PXY d   1      -2.733   0.410   4.266  0.00  0.00     0.003 A 
ATOM      5  C3  PXY d   1      -3.685   0.941   5.097  0.00  0.00     0.003 A 
ATOM      6  C4  PXY d   1      -4.961   1.148   4.646  0.00  0.00    -0.082 A 
ATOM      7  C5  PXY d   1      -5.289   0.786   3.388  0.00  0.00     0.003 A 
ATOM      8  C6  PXY d   1      -4.318   0.211   2.573  0.00  0.00     0.003 A 
ENDROOT
TORSDOF 0
ENDMDL
