MODEL 1
REMARK minimizedAffinity 16.3593788
REMARK minimizedRMSD -1
REMARK  0 active torsions:
REMARK  status: ('A' for Active; 'I' for Inactive)
ROOT
ATOM      1  C4' PXY d   1      -1.434  -3.190  -0.044  0.00  0.00     0.077 C 
ATOM      2  C1' PXY d   1      -2.097   0.451   4.396  0.00  0.00     0.077 C 
ATOM      3  C1  PXY d   1      -1.932  -0.512   3.237  0.00  0.00    -0.082 A 
ATOM      4  C2  PXY d   1      -0.817  -0.494   2.526  0.00  0.00     0.003 A 
ATOM      5  C3  PXY d   1      -0.663  -1.336   1.454  0.00  0.00     0.003 A 
ATOM      6  C4  PXY d   1      -1.640  -2.242   1.141  0.00  0.00    -0.082 A 
ATOM      7  C5  PXY d   1      -2.777  -2.274   1.868  0.00  0.00     0.003 A 
ATOM      8  C6  PXY d   1      -2.930  -1.383   2.926  0.00  0.00     0.003 A 
ENDROOT
TORSDOF 0
ENDMDL
