MODEL 1
REMARK minimizedAffinity 7.31142473
REMARK minimizedRMSD -1
REMARK  0 active torsions:
REMARK  status: ('A' for Active; 'I' for Inactive)
ROOT
ATOM      1  C4' PXY d   1      -1.250   4.435  -4.405  0.00  0.00     0.077 C 
ATOM      2  C1' PXY d   1       2.055   1.745  -0.499  0.00  0.00     0.077 C 
ATOM      3  C1  PXY d   1       1.188   2.461  -1.516  0.00  0.00    -0.082 A 
ATOM      4  C2  PXY d   1       0.459   1.756  -2.366  0.00  0.00     0.003 A 
ATOM      5  C3  PXY d   1      -0.306   2.387  -3.312  0.00  0.00     0.003 A 
ATOM      6  C4  PXY d   1      -0.367   3.755  -3.355  0.00  0.00    -0.082 A 
ATOM      7  C5  PXY d   1       0.365   4.481  -2.484  0.00  0.00     0.003 A 
ATOM      8  C6  PXY d   1       1.168   3.821  -1.558  0.00  0.00     0.003 A 
ENDROOT
TORSDOF 0
ENDMDL
