MODEL 1
REMARK minimizedAffinity 8.68059444
REMARK minimizedRMSD -1
REMARK  0 active torsions:
REMARK  status: ('A' for Active; 'I' for Inactive)
ROOT
ATOM      1  C4' PXY d   1       2.822   1.353  -1.381  0.00  0.00     0.077 C 
ATOM      2  C1' PXY d   1       5.703   3.974   2.890  0.00  0.00     0.077 C 
ATOM      3  C1  PXY d   1       4.941   3.279   1.778  0.00  0.00    -0.082 A 
ATOM      4  C2  PXY d   1       5.470   3.209   0.567  0.00  0.00     0.003 A 
ATOM      5  C3  PXY d   1       4.780   2.613  -0.457  0.00  0.00     0.003 A 
ATOM      6  C4  PXY d   1       3.560   2.036  -0.227  0.00  0.00    -0.082 A 
ATOM      7  C5  PXY d   1       3.019   2.094   1.008  0.00  0.00     0.003 A 
ATOM      8  C6  PXY d   1       3.717   2.740   2.025  0.00  0.00     0.003 A 
ENDROOT
TORSDOF 0
ENDMDL
