MODEL 1
REMARK minimizedAffinity 12.6683378
REMARK minimizedRMSD -1
REMARK  0 active torsions:
REMARK  status: ('A' for Active; 'I' for Inactive)
ROOT
ATOM      1  C4' PXY d   1       5.622   4.815   2.378  0.00  0.00     0.077 C 
ATOM      2  C1' PXY d   1       3.993   0.221  -0.730  0.00  0.00     0.077 C 
ATOM      3  C1  PXY d   1       4.432   1.424   0.082  0.00  0.00    -0.082 A 
ATOM      4  C2  PXY d   1       3.682   1.844   1.087  0.00  0.00     0.003 A 
ATOM      5  C3  PXY d   1       4.049   2.949   1.811  0.00  0.00     0.003 A 
ATOM      6  C4  PXY d   1       5.222   3.599   1.537  0.00  0.00    -0.082 A 
ATOM      7  C5  PXY d   1       5.998   3.170   0.520  0.00  0.00     0.003 A 
ATOM      8  C6  PXY d   1       5.588   2.071  -0.230  0.00  0.00     0.003 A 
ENDROOT
TORSDOF 0
ENDMDL
