MODEL 1
REMARK minimizedAffinity 11.5568008
REMARK minimizedRMSD -1
REMARK  0 active torsions:
REMARK  status: ('A' for Active; 'I' for Inactive)
ROOT
ATOM      1  C4' PXY d   1      -4.812   5.986  -5.044  0.00  0.00     0.077 C 
ATOM      2  C1' PXY d   1       0.695   4.228  -5.111  0.00  0.00     0.077 C 
ATOM      3  C1  PXY d   1      -0.748   4.692  -5.081  0.00  0.00    -0.082 A 
ATOM      4  C2  PXY d   1      -1.600   4.238  -5.986  0.00  0.00     0.003 A 
ATOM      5  C3  PXY d   1      -2.901   4.672  -5.992  0.00  0.00     0.003 A 
ATOM      6  C4  PXY d   1      -3.348   5.537  -5.030  0.00  0.00    -0.082 A 
ATOM      7  C5  PXY d   1      -2.487   5.996  -4.097  0.00  0.00     0.003 A 
ATOM      8  C6  PXY d   1      -1.161   5.576  -4.133  0.00  0.00     0.003 A 
ENDROOT
TORSDOF 0
ENDMDL
