MODEL 1
REMARK minimizedAffinity 2.85463309
REMARK minimizedRMSD -1
REMARK  0 active torsions:
REMARK  status: ('A' for Active; 'I' for Inactive)
ROOT
ATOM      1  C   UNL d   1       2.614   1.007   0.684  0.00  0.00     0.172 C 
ATOM      2  N   UNL d   1       2.410  -0.020   1.679  0.00  0.00    -0.070 N 
ATOM      3  C1  UNL d   1       1.601  -1.116   1.540  0.00  0.00    -0.004 A 
ATOM      4  C2  UNL d   1       1.681  -1.849   2.705  0.00  0.00    -0.047 A 
ATOM      5  C3  UNL d   1       2.568  -1.170   3.573  0.00  0.00    -0.047 A 
ATOM      6  C4  UNL d   1       3.005  -0.041   2.913  0.00  0.00    -0.004 A 
ENDROOT
TORSDOF 0
ENDMDL
