MODEL 1
REMARK minimizedAffinity 1.78222537
REMARK minimizedRMSD -1
REMARK  0 active torsions:
REMARK  status: ('A' for Active; 'I' for Inactive)
ROOT
ATOM      1  C   UNL d   1       1.498  -2.449   1.209  0.00  0.00     0.172 C 
ATOM      2  N   UNL d   1       1.753  -3.497   0.249  0.00  0.00    -0.070 N 
ATOM      3  C1  UNL d   1       2.293  -4.724   0.531  0.00  0.00    -0.004 A 
ATOM      4  C2  UNL d   1       2.373  -5.431  -0.649  0.00  0.00    -0.047 A 
ATOM      5  C3  UNL d   1       1.863  -4.601  -1.676  0.00  0.00    -0.047 A 
ATOM      6  C4  UNL d   1       1.487  -3.410  -1.092  0.00  0.00    -0.004 A 
ENDROOT
TORSDOF 0
ENDMDL
