MODEL 1
REMARK minimizedAffinity 5.49223185
REMARK minimizedRMSD -1
REMARK  0 active torsions:
REMARK  status: ('A' for Active; 'I' for Inactive)
ROOT
ATOM      1  C   UNL d   1      -4.274   2.621  -2.038  0.00  0.00     0.172 C 
ATOM      2  N   UNL d   1      -4.711   2.783  -3.405  0.00  0.00    -0.070 N 
ATOM      3  C1  UNL d   1      -5.999   3.009  -3.810  0.00  0.00    -0.004 A 
ATOM      4  C2  UNL d   1      -5.998   3.105  -5.185  0.00  0.00    -0.047 A 
ATOM      5  C3  UNL d   1      -4.664   2.928  -5.621  0.00  0.00    -0.047 A 
ATOM      6  C4  UNL d   1      -3.887   2.731  -4.499  0.00  0.00    -0.004 A 
ENDROOT
TORSDOF 0
ENDMDL
