MODEL 1
REMARK minimizedAffinity 1.99455619
REMARK minimizedRMSD -1
REMARK  0 active torsions:
REMARK  status: ('A' for Active; 'I' for Inactive)
ROOT
ATOM      1  C   UNL d   1       1.977  -3.530  -1.538  0.00  0.00     0.172 C 
ATOM      2  N   UNL d   1       0.871  -2.639  -1.275  0.00  0.00    -0.070 N 
ATOM      3  C1  UNL d   1       0.591  -2.048  -0.072  0.00  0.00    -0.004 A 
ATOM      4  C2  UNL d   1      -0.539  -1.276  -0.234  0.00  0.00    -0.047 A 
ATOM      5  C3  UNL d   1      -0.953  -1.410  -1.581  0.00  0.00    -0.047 A 
ATOM      6  C4  UNL d   1      -0.062  -2.259  -2.202  0.00  0.00    -0.004 A 
ENDROOT
TORSDOF 0
ENDMDL
