MODEL 1
REMARK minimizedAffinity 1.78657484
REMARK minimizedRMSD -1
REMARK  0 active torsions:
REMARK  status: ('A' for Active; 'I' for Inactive)
ROOT
ATOM      1  C   UNL d   1       6.000   5.987  -4.537  0.00  0.00     0.172 C 
ATOM      2  N   UNL d   1       5.272   5.756  -3.311  0.00  0.00    -0.070 N 
ATOM      3  C1  UNL d   1       3.997   5.266  -3.220  0.00  0.00    -0.004 A 
ATOM      4  C2  UNL d   1       3.667   5.193  -1.884  0.00  0.00    -0.047 A 
ATOM      5  C3  UNL d   1       4.782   5.657  -1.147  0.00  0.00    -0.047 A 
ATOM      6  C4  UNL d   1       5.762   5.999  -2.055  0.00  0.00    -0.004 A 
ENDROOT
TORSDOF 0
ENDMDL
