MODEL 1
REMARK minimizedAffinity 1.15370107
REMARK minimizedRMSD -1
REMARK  0 active torsions:
REMARK  status: ('A' for Active; 'I' for Inactive)
ROOT
ATOM      1  C   UNL d   1       1.086  -0.936   1.893  0.00  0.00     0.172 C 
ATOM      2  N   UNL d   1       1.820   0.088   1.188  0.00  0.00    -0.070 N 
ATOM      3  C1  UNL d   1       1.680   1.438   1.369  0.00  0.00    -0.004 A 
ATOM      4  C2  UNL d   1       2.554   2.072   0.513  0.00  0.00    -0.047 A 
ATOM      5  C3  UNL d   1       3.243   1.068  -0.209  0.00  0.00    -0.047 A 
ATOM      6  C4  UNL d   1       2.769  -0.151   0.229  0.00  0.00    -0.004 A 
ENDROOT
TORSDOF 0
ENDMDL
