MODEL 1
REMARK minimizedAffinity 6.86515045
REMARK minimizedRMSD -1
REMARK  3 active torsions:
REMARK  status: ('A' for Active; 'I' for Inactive)
REMARK    1  A    between atoms: C3'_2  and  C2'_3 
REMARK    2  A    between atoms: C2'_3  and  C1'_4 
REMARK    3  A    between atoms: C1'_4  and  C1_5 
ROOT
ATOM      1  C1  N4B d   1      -2.963   2.857   1.090  0.00  0.00    -0.075 A 
ATOM      2  C2  N4B d   1      -3.322   3.685   0.003  0.00  0.00     0.002 A 
ATOM      3  C3  N4B d   1      -4.553   4.292  -0.021  0.00  0.00     0.002 A 
ATOM      4  C4  N4B d   1      -5.447   4.071   1.017  0.00  0.00    -0.004 A 
ATOM      5  C5  N4B d   1      -5.083   3.291   2.075  0.00  0.00     0.002 A 
ATOM      6  C6  N4B d   1      -3.847   2.678   2.114  0.00  0.00     0.002 A 
ENDROOT
BRANCH   1   7
ATOM      7  C1' N4B d   1      -1.662   2.104   1.119  0.00  0.00     0.057 C 
BRANCH   7   8
ATOM      8  C2' N4B d   1      -1.758   0.902   0.184  0.00  0.00     0.009 C 
BRANCH   8   9
ATOM      9  C3' N4B d   1      -0.784  -0.198   0.571  0.00  0.00     0.004 C 
ATOM     10  C4' N4B d   1      -0.762  -1.328  -0.415  0.00  0.00     0.003 C 
ENDBRANCH   8   9
ENDBRANCH   7   8
ENDBRANCH   1   7
TORSDOF 3
ENDMDL
