MODEL 1
REMARK minimizedAffinity 11.4326658
REMARK minimizedRMSD -1
REMARK  3 active torsions:
REMARK  status: ('A' for Active; 'I' for Inactive)
REMARK    1  A    between atoms: C3'_2  and  C2'_3 
REMARK    2  A    between atoms: C2'_3  and  C1'_4 
REMARK    3  A    between atoms: C1'_4  and  C1_5 
ROOT
ATOM      1  C1  N4B d   1       2.621   1.961   0.704  0.00  0.00    -0.075 A 
ATOM      2  C2  N4B d   1       1.418   1.225   0.630  0.00  0.00     0.002 A 
ATOM      3  C3  N4B d   1       0.391   1.665  -0.169  0.00  0.00     0.002 A 
ATOM      4  C4  N4B d   1       0.537   2.844  -0.885  0.00  0.00    -0.004 A 
ATOM      5  C5  N4B d   1       1.712   3.535  -0.828  0.00  0.00     0.002 A 
ATOM      6  C6  N4B d   1       2.753   3.102  -0.033  0.00  0.00     0.002 A 
ENDROOT
BRANCH   1   7
ATOM      7  C1' N4B d   1       3.739   1.564   1.629  0.00  0.00     0.057 C 
BRANCH   7   8
ATOM      8  C2' N4B d   1       3.755   2.508   2.828  0.00  0.00     0.009 C 
BRANCH   8   9
ATOM      9  C3' N4B d   1       2.737   2.107   3.881  0.00  0.00     0.004 C 
ATOM     10  C4' N4B d   1       3.048   0.784   4.515  0.00  0.00     0.003 C 
ENDBRANCH   8   9
ENDBRANCH   7   8
ENDBRANCH   1   7
TORSDOF 3
ENDMDL
