MODEL 1
REMARK minimizedAffinity 15.4777174
REMARK minimizedRMSD -1
REMARK  3 active torsions:
REMARK  status: ('A' for Active; 'I' for Inactive)
REMARK    1  A    between atoms: C3'_2  and  C2'_3 
REMARK    2  A    between atoms: C2'_3  and  C1'_4 
REMARK    3  A    between atoms: C1'_4  and  C1_5 
ROOT
ATOM      1  C1  N4B d   1      -0.218   0.964  -0.849  0.00  0.00    -0.075 A 
ATOM      2  C2  N4B d   1       0.142  -0.401  -0.883  0.00  0.00     0.002 A 
ATOM      3  C3  N4B d   1      -0.025  -1.127  -2.037  0.00  0.00     0.002 A 
ATOM      4  C4  N4B d   1      -0.567  -0.517  -3.159  0.00  0.00    -0.004 A 
ATOM      5  C5  N4B d   1      -0.889   0.808  -3.125  0.00  0.00     0.002 A 
ATOM      6  C6  N4B d   1      -0.722   1.551  -1.974  0.00  0.00     0.002 A 
ENDROOT
BRANCH   1   7
ATOM      7  C1' N4B d   1      -0.134   1.777   0.414  0.00  0.00     0.057 C 
BRANCH   7   8
ATOM      8  C2' N4B d   1      -0.683   3.175   0.147  0.00  0.00     0.009 C 
BRANCH   8   9
ATOM      9  C3' N4B d   1       0.184   4.254   0.773  0.00  0.00     0.004 C 
ATOM     10  C4' N4B d   1      -0.183   5.633   0.311  0.00  0.00     0.003 C 
ENDBRANCH   8   9
ENDBRANCH   7   8
ENDBRANCH   1   7
TORSDOF 3
ENDMDL
