MODEL 1
REMARK minimizedAffinity 4.91087866
REMARK minimizedRMSD -1
REMARK  3 active torsions:
REMARK  status: ('A' for Active; 'I' for Inactive)
REMARK    1  A    between atoms: C3'_2  and  C2'_3 
REMARK    2  A    between atoms: C2'_3  and  C1'_4 
REMARK    3  A    between atoms: C1'_4  and  C1_5 
ROOT
ATOM      1  C1  N4B d   1       0.131   0.610  -0.279  0.00  0.00    -0.075 A 
ATOM      2  C2  N4B d   1      -1.097   0.437   0.397  0.00  0.00     0.002 A 
ATOM      3  C3  N4B d   1      -1.704   1.510   1.002  0.00  0.00     0.002 A 
ATOM      4  C4  N4B d   1      -1.096   2.755   0.962  0.00  0.00    -0.004 A 
ATOM      5  C5  N4B d   1       0.078   2.919   0.286  0.00  0.00     0.002 A 
ATOM      6  C6  N4B d   1       0.697   1.851  -0.331  0.00  0.00     0.002 A 
ENDROOT
BRANCH   1   7
ATOM      7  C1' N4B d   1       0.875  -0.549  -0.883  0.00  0.00     0.057 C 
BRANCH   7   8
ATOM      8  C2' N4B d   1       2.256  -0.646  -0.241  0.00  0.00     0.009 C 
BRANCH   8   9
ATOM      9  C3' N4B d   1       2.174  -0.745   1.272  0.00  0.00     0.004 C 
ATOM     10  C4' N4B d   1       3.046   0.258   1.968  0.00  0.00     0.003 C 
ENDBRANCH   8   9
ENDBRANCH   7   8
ENDBRANCH   1   7
TORSDOF 3
ENDMDL
