MODEL 1
REMARK minimizedAffinity 11.3123531
REMARK minimizedRMSD -1
REMARK  3 active torsions:
REMARK  status: ('A' for Active; 'I' for Inactive)
REMARK    1  A    between atoms: C3'_2  and  C2'_3 
REMARK    2  A    between atoms: C2'_3  and  C1'_4 
REMARK    3  A    between atoms: C1'_4  and  C1_5 
ROOT
ATOM      1  C1  N4B d   1       1.439  -1.218   1.246  0.00  0.00    -0.075 A 
ATOM      2  C2  N4B d   1       1.418  -2.089   0.135  0.00  0.00     0.002 A 
ATOM      3  C3  N4B d   1       0.285  -2.194  -0.633  0.00  0.00     0.002 A 
ATOM      4  C4  N4B d   1      -0.841  -1.456  -0.300  0.00  0.00    -0.004 A 
ATOM      5  C5  N4B d   1      -0.804  -0.598   0.759  0.00  0.00     0.002 A 
ATOM      6  C6  N4B d   1       0.330  -0.479   1.538  0.00  0.00     0.002 A 
ENDROOT
BRANCH   1   7
ATOM      7  C1' N4B d   1       2.627  -1.133   2.166  0.00  0.00     0.057 C 
BRANCH   7   8
ATOM      8  C2' N4B d   1       2.770  -2.451   2.921  0.00  0.00     0.009 C 
BRANCH   8   9
ATOM      9  C3' N4B d   1       4.143  -2.597   3.554  0.00  0.00     0.004 C 
ATOM     10  C4' N4B d   1       5.247  -2.107   2.665  0.00  0.00     0.003 C 
ENDBRANCH   8   9
ENDBRANCH   7   8
ENDBRANCH   1   7
TORSDOF 3
ENDMDL
