MODEL 1
REMARK minimizedAffinity 7.65108633
REMARK minimizedRMSD -1
REMARK  3 active torsions:
REMARK  status: ('A' for Active; 'I' for Inactive)
REMARK    1  A    between atoms: C3'_2  and  C2'_3 
REMARK    2  A    between atoms: C2'_3  and  C1'_4 
REMARK    3  A    between atoms: C1'_4  and  C1_5 
ROOT
ATOM      1  C1  N4B d   1       3.706  -2.308   4.625  0.00  0.00    -0.075 A 
ATOM      2  C2  N4B d   1       3.739  -3.531   5.330  0.00  0.00     0.002 A 
ATOM      3  C3  N4B d   1       4.879  -3.906   6.000  0.00  0.00     0.002 A 
ATOM      4  C4  N4B d   1       5.997  -3.087   5.961  0.00  0.00    -0.004 A 
ATOM      5  C5  N4B d   1       5.948  -1.896   5.299  0.00  0.00     0.002 A 
ATOM      6  C6  N4B d   1       4.809  -1.504   4.625  0.00  0.00     0.002 A 
ENDROOT
BRANCH   1   7
ATOM      7  C1' N4B d   1       2.512  -1.896   3.807  0.00  0.00     0.057 C 
BRANCH   7   8
ATOM      8  C2' N4B d   1       2.308  -0.390   3.942  0.00  0.00     0.009 C 
BRANCH   8   9
ATOM      9  C3' N4B d   1       2.144   0.285   2.592  0.00  0.00     0.004 C 
ATOM     10  C4' N4B d   1       3.022   1.491   2.434  0.00  0.00     0.003 C 
ENDBRANCH   8   9
ENDBRANCH   7   8
ENDBRANCH   1   7
TORSDOF 3
ENDMDL
