MODEL 1
REMARK minimizedAffinity 1.54876065
REMARK minimizedRMSD -1
REMARK  0 active torsions:
REMARK  status: ('A' for Active; 'I' for Inactive)
ROOT
ATOM      1  C1  BNZ d   1       3.778  -1.652  -2.541  0.00  0.00     0.000 A 
ATOM      2  C2  BNZ d   1       3.856  -0.469  -1.856  0.00  0.00     0.000 A 
ATOM      3  C3  BNZ d   1       3.117  -0.266  -0.724  0.00  0.00     0.000 A 
ATOM      4  C4  BNZ d   1       2.273  -1.229  -0.302  0.00  0.00     0.000 A 
ATOM      5  C5  BNZ d   1       2.176  -2.424  -0.988  0.00  0.00     0.000 A 
ATOM      6  C6  BNZ d   1       2.950  -2.639  -2.105  0.00  0.00     0.000 A 
ENDROOT
TORSDOF 0
ENDMDL
