MODEL 1
REMARK minimizedAffinity 2.87241578
REMARK minimizedRMSD -1
REMARK  0 active torsions:
REMARK  status: ('A' for Active; 'I' for Inactive)
ROOT
ATOM      1  C1  BNZ d   1       1.934  -2.741   0.150  0.00  0.00     0.000 A 
ATOM      2  C2  BNZ d   1       1.939  -3.386  -1.058  0.00  0.00     0.000 A 
ATOM      3  C3  BNZ d   1       2.641  -2.883  -2.117  0.00  0.00     0.000 A 
ATOM      4  C4  BNZ d   1       3.303  -1.716  -1.980  0.00  0.00     0.000 A 
ATOM      5  C5  BNZ d   1       3.301  -1.049  -0.771  0.00  0.00     0.000 A 
ATOM      6  C6  BNZ d   1       2.625  -1.579   0.305  0.00  0.00     0.000 A 
ENDROOT
TORSDOF 0
ENDMDL
