MODEL 1
REMARK minimizedAffinity 5.82683516
REMARK minimizedRMSD -1
REMARK  0 active torsions:
REMARK  status: ('A' for Active; 'I' for Inactive)
ROOT
ATOM      1  C1  BNZ d   1      -3.888  -0.169  -3.508  0.00  0.00     0.000 A 
ATOM      2  C2  BNZ d   1      -2.673   0.272  -3.962  0.00  0.00     0.000 A 
ATOM      3  C3  BNZ d   1      -2.555   0.854  -5.192  0.00  0.00     0.000 A 
ATOM      4  C4  BNZ d   1      -3.643   0.960  -5.983  0.00  0.00     0.000 A 
ATOM      5  C5  BNZ d   1      -4.873   0.512  -5.543  0.00  0.00     0.000 A 
ATOM      6  C6  BNZ d   1      -4.995  -0.038  -4.288  0.00  0.00     0.000 A 
ENDROOT
TORSDOF 0
ENDMDL
