MODEL 1
REMARK minimizedAffinity -1.84255123
REMARK minimizedRMSD -1
REMARK  0 active torsions:
REMARK  status: ('A' for Active; 'I' for Inactive)
ROOT
ATOM      1  C1  BNZ d   1       2.028  -2.820  -1.139  0.00  0.00     0.000 A 
ATOM      2  C2  BNZ d   1       0.717  -3.144  -1.365  0.00  0.00     0.000 A 
ATOM      3  C3  BNZ d   1      -0.293  -2.384  -0.845  0.00  0.00     0.000 A 
ATOM      4  C4  BNZ d   1       0.009  -1.325  -0.066  0.00  0.00     0.000 A 
ATOM      5  C5  BNZ d   1       1.326  -0.990   0.180  0.00  0.00     0.000 A 
ATOM      6  C6  BNZ d   1       2.340  -1.735  -0.378  0.00  0.00     0.000 A 
ENDROOT
TORSDOF 0
ENDMDL
