MODEL 1
REMARK minimizedAffinity 0.536542296
REMARK minimizedRMSD -1
REMARK  0 active torsions:
REMARK  status: ('A' for Active; 'I' for Inactive)
ROOT
ATOM      1  C1  BNZ d   1       1.971  -1.494  -0.765  0.00  0.00     0.000 A 
ATOM      2  C2  BNZ d   1       1.359  -0.269  -0.759  0.00  0.00     0.000 A 
ATOM      3  C3  BNZ d   1       0.003  -0.165  -0.623  0.00  0.00     0.000 A 
ATOM      4  C4  BNZ d   1      -0.742  -1.286  -0.534  0.00  0.00     0.000 A 
ATOM      5  C5  BNZ d   1      -0.141  -2.528  -0.548  0.00  0.00     0.000 A 
ATOM      6  C6  BNZ d   1       1.228  -2.628  -0.646  0.00  0.00     0.000 A 
ENDROOT
TORSDOF 0
ENDMDL
