MODEL 1
REMARK minimizedAffinity -2.39769864
REMARK minimizedRMSD -1
REMARK  0 active torsions:
REMARK  status: ('A' for Active; 'I' for Inactive)
ROOT
ATOM      1  C1  BNZ d   1       0.833   0.097  -0.026  0.00  0.00     0.000 A 
ATOM      2  C2  BNZ d   1       0.705  -1.264  -0.114  0.00  0.00     0.000 A 
ATOM      3  C3  BNZ d   1       1.747  -2.039  -0.541  0.00  0.00     0.000 A 
ATOM      4  C4  BNZ d   1       2.901  -1.450  -0.917  0.00  0.00     0.000 A 
ATOM      5  C5  BNZ d   1       3.042  -0.078  -0.844  0.00  0.00     0.000 A 
ATOM      6  C6  BNZ d   1       2.004   0.695  -0.377  0.00  0.00     0.000 A 
ENDROOT
TORSDOF 0
ENDMDL
