MODEL 1
REMARK minimizedAffinity -1.48466098
REMARK minimizedRMSD -1
REMARK  0 active torsions:
REMARK  status: ('A' for Active; 'I' for Inactive)
ROOT
ATOM      1  C1  BNZ d   1       3.892   2.124   0.727  0.00  0.00     0.000 A 
ATOM      2  C2  BNZ d   1       3.465   2.469   1.981  0.00  0.00     0.000 A 
ATOM      3  C3  BNZ d   1       2.161   2.290   2.350  0.00  0.00     0.000 A 
ATOM      4  C4  BNZ d   1       1.279   1.804   1.454  0.00  0.00     0.000 A 
ATOM      5  C5  BNZ d   1       1.692   1.460   0.182  0.00  0.00     0.000 A 
ATOM      6  C6  BNZ d   1       3.013   1.605  -0.174  0.00  0.00     0.000 A 
ENDROOT
TORSDOF 0
ENDMDL
