MODEL 1
REMARK minimizedAffinity 0.421181589
REMARK minimizedRMSD -1
REMARK  0 active torsions:
REMARK  status: ('A' for Active; 'I' for Inactive)
ROOT
ATOM      1  C1  BNZ d   1       1.549  -1.550  -0.397  0.00  0.00     0.000 A 
ATOM      2  C2  BNZ d   1       0.491  -2.347  -0.748  0.00  0.00     0.000 A 
ATOM      3  C3  BNZ d   1      -0.732  -1.804  -1.024  0.00  0.00     0.000 A 
ATOM      4  C4  BNZ d   1      -0.908  -0.472  -0.910  0.00  0.00     0.000 A 
ATOM      5  C5  BNZ d   1       0.146   0.344  -0.548  0.00  0.00     0.000 A 
ATOM      6  C6  BNZ d   1       1.387  -0.202  -0.309  0.00  0.00     0.000 A 
ENDROOT
TORSDOF 0
ENDMDL
