MODEL 1
REMARK minimizedAffinity 12.9026375
REMARK minimizedRMSD -1
REMARK  0 active torsions:
REMARK  status: ('A' for Active; 'I' for Inactive)
ROOT
ATOM      1  C   UNL d   1       3.976   0.375  -2.695  0.00  0.00     0.020 A 
ATOM      2  C1  UNL d   1       3.574   1.678  -2.984  0.00  0.00     0.020 A 
ATOM      3  C2  UNL d   1       2.868   2.418  -2.032  0.00  0.00     0.034 A 
ATOM      4  C3  UNL d   1       2.564   1.855  -0.787  0.00  0.00     0.017 A 
ATOM      5  C4  UNL d   1       2.969   0.547  -0.498  0.00  0.00     0.017 A 
ATOM      6  C5  UNL d   1       3.675  -0.190  -1.455  0.00  0.00     0.034 A 
ATOM      7 Cl   UNL d   1       2.630  -0.216   1.015  0.00  0.00    -0.070 Cl
ATOM      8 Cl1  UNL d   1       1.689   2.827   0.342  0.00  0.00    -0.070 Cl
ENDROOT
TORSDOF 0
ENDMDL
