MODEL 1
REMARK minimizedAffinity 9.67216873
REMARK minimizedRMSD -1
REMARK  0 active torsions:
REMARK  status: ('A' for Active; 'I' for Inactive)
ROOT
ATOM      1  C   UNL d   1       0.690   3.817   1.284  0.00  0.00     0.020 A 
ATOM      2  C1  UNL d   1       1.894   3.833   0.582  0.00  0.00     0.020 A 
ATOM      3  C2  UNL d   1       2.688   2.685   0.531  0.00  0.00     0.034 A 
ATOM      4  C3  UNL d   1       2.278   1.516   1.183  0.00  0.00     0.017 A 
ATOM      5  C4  UNL d   1       1.069   1.501   1.888  0.00  0.00     0.017 A 
ATOM      6  C5  UNL d   1       0.279   2.653   1.936  0.00  0.00     0.034 A 
ATOM      7 Cl   UNL d   1       0.498   0.097   2.718  0.00  0.00    -0.070 Cl
ATOM      8 Cl1  UNL d   1       3.309   0.133   1.078  0.00  0.00    -0.070 Cl
ENDROOT
TORSDOF 0
ENDMDL
