MODEL 1
REMARK minimizedAffinity 7.82152843
REMARK minimizedRMSD -1
REMARK  0 active torsions:
REMARK  status: ('A' for Active; 'I' for Inactive)
ROOT
ATOM      1  C   UNL d   1       1.889  -3.046  -5.999  0.00  0.00     0.020 A 
ATOM      2  C1  UNL d   1       2.119  -4.422  -5.998  0.00  0.00     0.020 A 
ATOM      3  C2  UNL d   1       1.041  -5.309  -5.998  0.00  0.00     0.034 A 
ATOM      4  C3  UNL d   1      -0.271  -4.823  -5.997  0.00  0.00     0.017 A 
ATOM      5  C4  UNL d   1      -0.501  -3.443  -5.997  0.00  0.00     0.017 A 
ATOM      6  C5  UNL d   1       0.582  -2.558  -5.998  0.00  0.00     0.034 A 
ATOM      7 Cl   UNL d   1      -2.092  -2.768  -5.997  0.00  0.00    -0.070 Cl
ATOM      8 Cl1  UNL d   1      -1.556  -5.979  -5.997  0.00  0.00    -0.070 Cl
ENDROOT
TORSDOF 0
ENDMDL
