MODEL 1
REMARK minimizedAffinity -0.452495128
REMARK minimizedRMSD -1
REMARK  0 active torsions:
REMARK  status: ('A' for Active; 'I' for Inactive)
ROOT
ATOM      1  C   UNL d   1       5.874   2.327  -0.342  0.00  0.00     0.020 A 
ATOM      2  C1  UNL d   1       4.672   2.970  -0.634  0.00  0.00     0.020 A 
ATOM      3  C2  UNL d   1       3.476   2.497  -0.089  0.00  0.00     0.034 A 
ATOM      4  C3  UNL d   1       3.479   1.377   0.750  0.00  0.00     0.017 A 
ATOM      5  C4  UNL d   1       4.686   0.732   1.043  0.00  0.00     0.017 A 
ATOM      6  C5  UNL d   1       5.881   1.210   0.495  0.00  0.00     0.034 A 
ATOM      7 Cl   UNL d   1       4.770  -0.655   2.071  0.00  0.00    -0.070 Cl
ATOM      8 Cl1  UNL d   1       1.964   0.847   1.389  0.00  0.00    -0.070 Cl
ENDROOT
TORSDOF 0
ENDMDL
