MODEL 1
REMARK minimizedAffinity 15.1412191
REMARK minimizedRMSD -1
REMARK  0 active torsions:
REMARK  status: ('A' for Active; 'I' for Inactive)
ROOT
ATOM      1  C   UNL d   1       0.921   3.020   0.985  0.00  0.00     0.020 A 
ATOM      2  C1  UNL d   1       0.092   2.982   2.106  0.00  0.00     0.020 A 
ATOM      3  C2  UNL d   1       0.258   1.979   3.063  0.00  0.00     0.034 A 
ATOM      4  C3  UNL d   1       1.255   1.010   2.901  0.00  0.00     0.017 A 
ATOM      5  C4  UNL d   1       2.087   1.049   1.776  0.00  0.00     0.017 A 
ATOM      6  C5  UNL d   1       1.916   2.056   0.821  0.00  0.00     0.034 A 
ATOM      7 Cl   UNL d   1       3.339  -0.112   1.508  0.00  0.00    -0.070 Cl
ATOM      8 Cl1  UNL d   1       1.404  -0.201   4.125  0.00  0.00    -0.070 Cl
ENDROOT
TORSDOF 0
ENDMDL
