MODEL 1
REMARK minimizedAffinity 13.1865702
REMARK minimizedRMSD -1
REMARK  0 active torsions:
REMARK  status: ('A' for Active; 'I' for Inactive)
ROOT
ATOM      1  C   UNL d   1       5.303  -2.307  -5.996  0.00  0.00     0.020 A 
ATOM      2  C1  UNL d   1       5.907  -1.050  -5.998  0.00  0.00     0.020 A 
ATOM      3  C2  UNL d   1       5.119   0.103  -5.999  0.00  0.00     0.034 A 
ATOM      4  C3  UNL d   1       3.723   0.001  -5.997  0.00  0.00     0.017 A 
ATOM      5  C4  UNL d   1       3.118  -1.261  -5.995  0.00  0.00     0.017 A 
ATOM      6  C5  UNL d   1       3.912  -2.412  -5.994  0.00  0.00     0.034 A 
ATOM      7 Cl   UNL d   1       1.402  -1.466  -5.993  0.00  0.00    -0.070 Cl
ATOM      8 Cl1  UNL d   1       2.811   1.468  -5.998  0.00  0.00    -0.070 Cl
ENDROOT
TORSDOF 0
ENDMDL
