MODEL 1
REMARK minimizedAffinity 5.97401619
REMARK minimizedRMSD -1
REMARK  0 active torsions:
REMARK  status: ('A' for Active; 'I' for Inactive)
ROOT
ATOM      1  C   UNL d   1      -2.910  -2.831   0.734  0.00  0.00     0.020 A 
ATOM      2  C1  UNL d   1      -1.719  -2.380   0.167  0.00  0.00     0.020 A 
ATOM      3  C2  UNL d   1      -1.607  -2.261  -1.220  0.00  0.00     0.034 A 
ATOM      4  C3  UNL d   1      -2.688  -2.592  -2.045  0.00  0.00     0.017 A 
ATOM      5  C4  UNL d   1      -3.884  -3.044  -1.474  0.00  0.00     0.017 A 
ATOM      6  C5  UNL d   1      -3.991  -3.162  -0.085  0.00  0.00     0.034 A 
ATOM      7 Cl   UNL d   1      -5.261  -3.472  -2.427  0.00  0.00    -0.070 Cl
ATOM      8 Cl1  UNL d   1      -2.480  -2.420  -3.751  0.00  0.00    -0.070 Cl
ENDROOT
TORSDOF 0
ENDMDL
