MODEL 1
REMARK minimizedAffinity 7.30777502
REMARK minimizedRMSD -1
REMARK  0 active torsions:
REMARK  status: ('A' for Active; 'I' for Inactive)
ROOT
ATOM      1  C   UNL d   1      -3.930  -5.827  -1.825  0.00  0.00     0.020 A 
ATOM      2  C1  UNL d   1      -4.596  -4.630  -1.564  0.00  0.00     0.020 A 
ATOM      3  C2  UNL d   1      -3.972  -3.411  -1.837  0.00  0.00     0.034 A 
ATOM      4  C3  UNL d   1      -2.680  -3.386  -2.373  0.00  0.00     0.017 A 
ATOM      5  C4  UNL d   1      -2.013  -4.588  -2.635  0.00  0.00     0.017 A 
ATOM      6  C5  UNL d   1      -2.642  -5.806  -2.360  0.00  0.00     0.034 A 
ATOM      7 Cl   UNL d   1      -0.416  -4.637  -3.296  0.00  0.00    -0.070 Cl
ATOM      8 Cl1  UNL d   1      -1.970  -1.842  -2.686  0.00  0.00    -0.070 Cl
ENDROOT
TORSDOF 0
ENDMDL
