MODEL 1
REMARK minimizedAffinity 13.9154558
REMARK minimizedRMSD -1
REMARK  0 active torsions:
REMARK  status: ('A' for Active; 'I' for Inactive)
ROOT
ATOM      1  C   UNL d   1       1.432   0.219   1.907  0.00  0.00     0.020 A 
ATOM      2  C1  UNL d   1       1.257   1.360   1.125  0.00  0.00     0.020 A 
ATOM      3  C2  UNL d   1       2.270   1.775   0.259  0.00  0.00     0.034 A 
ATOM      4  C3  UNL d   1       3.463   1.049   0.172  0.00  0.00     0.017 A 
ATOM      5  C4  UNL d   1       3.638  -0.097   0.957  0.00  0.00     0.017 A 
ATOM      6  C5  UNL d   1       2.620  -0.508   1.823  0.00  0.00     0.034 A 
ATOM      7 Cl   UNL d   1       5.082  -1.045   0.905  0.00  0.00    -0.070 Cl
ATOM      8 Cl1  UNL d   1       4.674   1.620  -0.921  0.00  0.00    -0.070 Cl
ENDROOT
TORSDOF 0
ENDMDL
