MODEL 1
REMARK minimizedAffinity 4.6886816
REMARK minimizedRMSD -1
REMARK  0 active torsions:
REMARK  status: ('A' for Active; 'I' for Inactive)
ROOT
ATOM      1  C   UNL d   1       5.064   5.583   5.601  0.00  0.00     0.020 A 
ATOM      2  C1  UNL d   1       5.942   4.566   5.229  0.00  0.00     0.020 A 
ATOM      3  C2  UNL d   1       5.819   3.961   3.976  0.00  0.00     0.034 A 
ATOM      4  C3  UNL d   1       4.816   4.373   3.091  0.00  0.00     0.017 A 
ATOM      5  C4  UNL d   1       3.936   5.394   3.465  0.00  0.00     0.017 A 
ATOM      6  C5  UNL d   1       4.063   5.996   4.721  0.00  0.00     0.034 A 
ATOM      7 Cl   UNL d   1       2.673   5.956   2.427  0.00  0.00    -0.070 Cl
ATOM      8 Cl1  UNL d   1       4.723   3.581   1.558  0.00  0.00    -0.070 Cl
ENDROOT
TORSDOF 0
ENDMDL
