MODEL 1
REMARK minimizedAffinity 5.01113892
REMARK minimizedRMSD -1
REMARK  0 active torsions:
REMARK  status: ('A' for Active; 'I' for Inactive)
ROOT
ATOM      1  C   UNL d   1       1.719   1.469   0.847  0.00  0.00     0.020 A 
ATOM      2  C1  UNL d   1       1.998   0.419   1.721  0.00  0.00     0.020 A 
ATOM      3  C2  UNL d   1       3.277  -0.142   1.754  0.00  0.00     0.034 A 
ATOM      4  C3  UNL d   1       4.281   0.348   0.911  0.00  0.00     0.017 A 
ATOM      5  C4  UNL d   1       4.001   1.402   0.035  0.00  0.00     0.017 A 
ATOM      6  C5  UNL d   1       2.719   1.960   0.006  0.00  0.00     0.034 A 
ATOM      7 Cl   UNL d   1       5.189   2.060  -1.034  0.00  0.00    -0.070 Cl
ATOM      8 Cl1  UNL d   1       5.840  -0.392   1.005  0.00  0.00    -0.070 Cl
ENDROOT
TORSDOF 0
ENDMDL
