MODEL 1
REMARK minimizedAffinity 12.9261885
REMARK minimizedRMSD -1
REMARK  0 active torsions:
REMARK  status: ('A' for Active; 'I' for Inactive)
ROOT
ATOM      1  C   UNL d   1      -5.346   5.999   5.250  0.00  0.00     0.020 A 
ATOM      2  C1  UNL d   1      -4.485   5.079   5.846  0.00  0.00     0.020 A 
ATOM      3  C2  UNL d   1      -4.073   3.948   5.138  0.00  0.00     0.034 A 
ATOM      4  C3  UNL d   1      -4.523   3.734   3.830  0.00  0.00     0.017 A 
ATOM      5  C4  UNL d   1      -5.388   4.658   3.233  0.00  0.00     0.017 A 
ATOM      6  C5  UNL d   1      -5.797   5.789   3.946  0.00  0.00     0.034 A 
ATOM      7 Cl   UNL d   1      -5.986   4.462   1.623  0.00  0.00    -0.070 Cl
ATOM      8 Cl1  UNL d   1      -3.974   2.314   3.013  0.00  0.00    -0.070 Cl
ENDROOT
TORSDOF 0
ENDMDL
