MODEL 1
REMARK minimizedAffinity 12.483139
REMARK minimizedRMSD -1
REMARK  0 active torsions:
REMARK  status: ('A' for Active; 'I' for Inactive)
ROOT
ATOM      1  C   UNL d   1      -4.268  -5.897  -1.570  0.00  0.00     0.020 A 
ATOM      2  C1  UNL d   1      -5.528  -6.000  -2.157  0.00  0.00     0.020 A 
ATOM      3  C2  UNL d   1      -5.998  -4.978  -2.984  0.00  0.00     0.034 A 
ATOM      4  C3  UNL d   1      -5.208  -3.848  -3.226  0.00  0.00     0.017 A 
ATOM      5  C4  UNL d   1      -3.943  -3.746  -2.636  0.00  0.00     0.017 A 
ATOM      6  C5  UNL d   1      -3.477  -4.773  -1.809  0.00  0.00     0.034 A 
ATOM      7 Cl   UNL d   1      -2.910  -2.383  -2.887  0.00  0.00    -0.070 Cl
ATOM      8 Cl1  UNL d   1      -5.852  -2.622  -4.259  0.00  0.00    -0.070 Cl
ENDROOT
TORSDOF 0
ENDMDL
