MODEL 1
REMARK minimizedAffinity 12.8750601
REMARK minimizedRMSD -1
REMARK  0 active torsions:
REMARK  status: ('A' for Active; 'I' for Inactive)
ROOT
ATOM      1  C   UNL d   1      -0.118  -3.606  -6.000  0.00  0.00     0.020 A 
ATOM      2  C1  UNL d   1       1.145  -3.017  -5.951  0.00  0.00     0.020 A 
ATOM      3  C2  UNL d   1       1.925  -3.132  -4.799  0.00  0.00     0.034 A 
ATOM      4  C3  UNL d   1       1.444  -3.838  -3.691  0.00  0.00     0.017 A 
ATOM      5  C4  UNL d   1       0.176  -4.429  -3.740  0.00  0.00     0.017 A 
ATOM      6  C5  UNL d   1      -0.601  -4.310  -4.897  0.00  0.00     0.034 A 
ATOM      7 Cl   UNL d   1      -0.486  -5.316  -2.413  0.00  0.00    -0.070 Cl
ATOM      8 Cl1  UNL d   1       2.463  -3.941  -2.299  0.00  0.00    -0.070 Cl
ENDROOT
TORSDOF 0
ENDMDL
