MODEL 1
REMARK minimizedAffinity 10.6900997
REMARK minimizedRMSD -1
REMARK  0 active torsions:
REMARK  status: ('A' for Active; 'I' for Inactive)
ROOT
ATOM      1  C   UNL d   1      -5.265   2.631   5.826  0.00  0.00     0.020 A 
ATOM      2  C1  UNL d   1      -5.999   1.459   6.000  0.00  0.00     0.020 A 
ATOM      3  C2  UNL d   1      -5.840   0.396   5.108  0.00  0.00     0.034 A 
ATOM      4  C3  UNL d   1      -4.945   0.504   4.037  0.00  0.00     0.017 A 
ATOM      5  C4  UNL d   1      -4.209   1.682   3.863  0.00  0.00     0.017 A 
ATOM      6  C5  UNL d   1      -4.372   2.742   4.759  0.00  0.00     0.034 A 
ATOM      7 Cl   UNL d   1      -3.086   1.889   2.565  0.00  0.00    -0.070 Cl
ATOM      8 Cl1  UNL d   1      -4.799  -0.849   2.973  0.00  0.00    -0.070 Cl
ENDROOT
TORSDOF 0
ENDMDL
