MODEL 1
REMARK minimizedAffinity 0.863818824
REMARK minimizedRMSD -1
REMARK  0 active torsions:
REMARK  status: ('A' for Active; 'I' for Inactive)
ROOT
ATOM      1  C   UNL d   1       0.690   1.220   1.906  0.00  0.00     0.020 A 
ATOM      2  C1  UNL d   1      -0.024   2.151   2.658  0.00  0.00     0.020 A 
ATOM      3  C2  UNL d   1      -1.367   1.920   2.964  0.00  0.00     0.034 A 
ATOM      4  C3  UNL d   1      -2.000   0.754   2.517  0.00  0.00     0.017 A 
ATOM      5  C4  UNL d   1      -1.282  -0.181   1.762  0.00  0.00     0.017 A 
ATOM      6  C5  UNL d   1       0.063   0.056   1.459  0.00  0.00     0.034 A 
ATOM      7 Cl   UNL d   1      -1.994  -1.642   1.175  0.00  0.00    -0.070 Cl
ATOM      8 Cl1  UNL d   1      -3.662   0.532   2.931  0.00  0.00    -0.070 Cl
ENDROOT
TORSDOF 0
ENDMDL
