MODEL 1
REMARK minimizedAffinity 8.84951782
REMARK minimizedRMSD -1
REMARK  0 active torsions:
REMARK  status: ('A' for Active; 'I' for Inactive)
ROOT
ATOM      1  C   UNL d   1       0.908  -0.277   2.301  0.00  0.00     0.020 A 
ATOM      2  C1  UNL d   1       1.231   0.966   1.757  0.00  0.00     0.020 A 
ATOM      3  C2  UNL d   1       0.244   1.943   1.614  0.00  0.00     0.034 A 
ATOM      4  C3  UNL d   1      -1.071   1.680   2.015  0.00  0.00     0.017 A 
ATOM      5  C4  UNL d   1      -1.394   0.433   2.561  0.00  0.00     0.017 A 
ATOM      6  C5  UNL d   1      -0.402  -0.543   2.702  0.00  0.00     0.034 A 
ATOM      7 Cl   UNL d   1      -2.994   0.034   3.079  0.00  0.00    -0.070 Cl
ATOM      8 Cl1  UNL d   1      -2.240   2.935   1.810  0.00  0.00    -0.070 Cl
ENDROOT
TORSDOF 0
ENDMDL
