MODEL 1
REMARK minimizedAffinity 3.07380652
REMARK minimizedRMSD -1
REMARK  0 active torsions:
REMARK  status: ('A' for Active; 'I' for Inactive)
ROOT
ATOM      1  C   UNL d   1      -1.639   1.417   2.078  0.00  0.00     0.020 A 
ATOM      2  C1  UNL d   1      -1.491   0.089   2.479  0.00  0.00     0.020 A 
ATOM      3  C2  UNL d   1      -0.218  -0.429   2.725  0.00  0.00     0.034 A 
ATOM      4  C3  UNL d   1       0.913   0.381   2.570  0.00  0.00     0.017 A 
ATOM      5  C4  UNL d   1       0.764   1.713   2.168  0.00  0.00     0.017 A 
ATOM      6  C5  UNL d   1      -0.513   2.227   1.923  0.00  0.00     0.034 A 
ATOM      7 Cl   UNL d   1       2.113   2.774   1.956  0.00  0.00    -0.070 Cl
ATOM      8 Cl1  UNL d   1       2.457  -0.325   2.892  0.00  0.00    -0.070 Cl
ENDROOT
TORSDOF 0
ENDMDL
