MODEL 1
REMARK minimizedAffinity -0.909166694
REMARK minimizedRMSD -1
REMARK  1 active torsions:
REMARK  status: ('A' for Active; 'I' for Inactive)
REMARK    1  A    between atoms: C1_2  and  C2_3 
ROOT
ATOM      1  C2  UNL d   1      -0.767   0.057   0.062  0.00  0.00    -0.076 A 
ATOM      2  C3  UNL d   1      -0.920  -1.338   0.136  0.00  0.00     0.004 A 
ATOM      3  C4  UNL d   1       0.142  -2.193  -0.158  0.00  0.00    -0.003 A 
ATOM      4  C5  UNL d   1       1.373  -1.666  -0.530  0.00  0.00     0.000 A 
ATOM      5  C6  UNL d   1       1.548  -0.284  -0.592  0.00  0.00     0.000 A 
ATOM      6  C7  UNL d   1       0.493   0.592  -0.283  0.00  0.00    -0.073 A 
ATOM      7  C8  UNL d   1       0.735   2.074  -0.372  0.00  0.00     0.078 C 
ENDROOT
BRANCH   1   8
ATOM      8  C1  UNL d   1      -1.961   0.934   0.366  0.00  0.00     0.053 C 
ATOM      9  C   UNL d   1      -3.232   0.441  -0.309  0.00  0.00     0.018 C 
ENDBRANCH   1   8
TORSDOF 1
ENDMDL
