MODEL 1
REMARK minimizedAffinity -4.78096676
REMARK minimizedRMSD -1
REMARK  1 active torsions:
REMARK  status: ('A' for Active; 'I' for Inactive)
REMARK    1  A    between atoms: C1_2  and  C2_3 
ROOT
ATOM      1  C2  UNL d   1       0.171  -0.043  -0.064  0.00  0.00    -0.076 A 
ATOM      2  C3  UNL d   1       0.396  -1.422   0.086  0.00  0.00     0.004 A 
ATOM      3  C4  UNL d   1       1.683  -1.922   0.282  0.00  0.00    -0.003 A 
ATOM      4  C5  UNL d   1       2.765  -1.050   0.332  0.00  0.00     0.000 A 
ATOM      5  C6  UNL d   1       2.558   0.323   0.202  0.00  0.00     0.000 A 
ATOM      6  C7  UNL d   1       1.265   0.844   0.021  0.00  0.00    -0.073 A 
ATOM      7  C8  UNL d   1       1.101   2.333  -0.119  0.00  0.00     0.078 C 
ENDROOT
BRANCH   1   8
ATOM      8  C1  UNL d   1      -1.243   0.438  -0.301  0.00  0.00     0.053 C 
ATOM      9  C   UNL d   1      -2.125   0.284   0.928  0.00  0.00     0.018 C 
ENDBRANCH   1   8
TORSDOF 1
ENDMDL
