MODEL 1
REMARK minimizedAffinity 2.70061636
REMARK minimizedRMSD -1
REMARK  1 active torsions:
REMARK  status: ('A' for Active; 'I' for Inactive)
REMARK    1  A    between atoms: C1_2  and  C2_3 
ROOT
ATOM      1  C2  UNL d   1       0.464   0.249  -0.263  0.00  0.00    -0.076 A 
ATOM      2  C3  UNL d   1       1.703  -0.286  -0.656  0.00  0.00     0.004 A 
ATOM      3  C4  UNL d   1       1.864  -1.657  -0.847  0.00  0.00    -0.003 A 
ATOM      4  C5  UNL d   1       0.788  -2.515  -0.650  0.00  0.00     0.000 A 
ATOM      5  C6  UNL d   1      -0.453  -2.000  -0.278  0.00  0.00     0.000 A 
ATOM      6  C7  UNL d   1      -0.637  -0.618  -0.097  0.00  0.00    -0.073 A 
ATOM      7  C8  UNL d   1      -1.995  -0.118   0.311  0.00  0.00     0.078 C 
ENDROOT
BRANCH   1   8
ATOM      8  C1  UNL d   1       0.356   1.742  -0.044  0.00  0.00     0.053 C 
ATOM      9  C   UNL d   1       1.710   2.396   0.182  0.00  0.00     0.018 C 
ENDBRANCH   1   8
TORSDOF 1
ENDMDL
