MODEL 1
REMARK minimizedAffinity -5.06411839
REMARK minimizedRMSD -1
REMARK  1 active torsions:
REMARK  status: ('A' for Active; 'I' for Inactive)
REMARK    1  A    between atoms: C1_2  and  C2_3 
ROOT
ATOM      1  C2  UNL d   1       0.930   0.265   0.039  0.00  0.00    -0.076 A 
ATOM      2  C3  UNL d   1       0.810  -1.133   0.123  0.00  0.00     0.004 A 
ATOM      3  C4  UNL d   1       1.891  -1.923   0.509  0.00  0.00    -0.003 A 
ATOM      4  C5  UNL d   1       3.110  -1.329   0.819  0.00  0.00     0.000 A 
ATOM      5  C6  UNL d   1       3.241   0.058   0.758  0.00  0.00     0.000 A 
ATOM      6  C7  UNL d   1       2.157   0.871   0.386  0.00  0.00    -0.073 A 
ATOM      7  C8  UNL d   1       2.356   2.361   0.331  0.00  0.00     0.078 C 
ENDROOT
BRANCH   1   8
ATOM      8  C1  UNL d   1      -0.269   1.069  -0.412  0.00  0.00     0.053 C 
ATOM      9  C   UNL d   1      -1.543   0.674   0.318  0.00  0.00     0.018 C 
ENDBRANCH   1   8
TORSDOF 1
ENDMDL
