MODEL 1
REMARK minimizedAffinity -5.77094555
REMARK minimizedRMSD -1
REMARK  1 active torsions:
REMARK  status: ('A' for Active; 'I' for Inactive)
REMARK    1  A    between atoms: C1_2  and  C2_3 
ROOT
ATOM      1  C2  UNL d   1       0.414   0.447   0.037  0.00  0.00    -0.076 A 
ATOM      2  C3  UNL d   1       0.176  -0.930  -0.114  0.00  0.00     0.004 A 
ATOM      3  C4  UNL d   1       1.230  -1.842  -0.137  0.00  0.00    -0.003 A 
ATOM      4  C5  UNL d   1       2.539  -1.391  -0.009  0.00  0.00     0.000 A 
ATOM      5  C6  UNL d   1       2.793  -0.031   0.159  0.00  0.00     0.000 A 
ATOM      6  C7  UNL d   1       1.741   0.900   0.201  0.00  0.00    -0.073 A 
ATOM      7  C8  UNL d   1       2.072   2.357   0.379  0.00  0.00     0.078 C 
ENDROOT
BRANCH   1   8
ATOM      8  C1  UNL d   1      -0.767   1.392   0.028  0.00  0.00     0.053 C 
ATOM      9  C   UNL d   1      -2.099   0.659   0.026  0.00  0.00     0.018 C 
ENDBRANCH   1   8
TORSDOF 1
ENDMDL
