MODEL 1
REMARK minimizedAffinity 1.27913177
REMARK minimizedRMSD -1
REMARK  0 active torsions:
REMARK  status: ('A' for Active; 'I' for Inactive)
ROOT
ATOM      1  C   UNL d   1       0.903  -1.600   4.140  0.00  0.00     0.023 A 
ATOM      2  C1  UNL d   1       1.341  -2.222   2.970  0.00  0.00     0.003 A 
ATOM      3  C2  UNL d   1       2.072  -1.499   2.025  0.00  0.00     0.048 A 
ATOM      4  C3  UNL d   1       2.363  -0.155   2.257  0.00  0.00     0.023 A 
ATOM      5  C4  UNL d   1       1.928   0.471   3.426  0.00  0.00     0.048 A 
ATOM      6  C5  UNL d   1       1.197  -0.256   4.368  0.00  0.00     0.003 A 
ATOM      7  I   UNL d   1       3.452   0.923   0.853  0.00  0.00    -0.146 I 
ENDROOT
TORSDOF 0
ENDMDL
