MODEL 1
REMARK minimizedAffinity 7.74209833
REMARK minimizedRMSD -1
REMARK  0 active torsions:
REMARK  status: ('A' for Active; 'I' for Inactive)
ROOT
ATOM      1  C   UNL d   1      -4.684   0.986  -3.371  0.00  0.00     0.023 A 
ATOM      2  C1  UNL d   1      -3.911  -0.162  -3.197  0.00  0.00     0.003 A 
ATOM      3  C2  UNL d   1      -4.180  -1.307  -3.950  0.00  0.00     0.048 A 
ATOM      4  C3  UNL d   1      -5.222  -1.297  -4.876  0.00  0.00     0.023 A 
ATOM      5  C4  UNL d   1      -5.998  -0.150  -5.054  0.00  0.00     0.048 A 
ATOM      6  C5  UNL d   1      -5.726   0.992  -4.299  0.00  0.00     0.003 A 
ATOM      7  I   UNL d   1      -5.623  -3.000  -5.998  0.00  0.00    -0.146 I 
ENDROOT
TORSDOF 0
ENDMDL
