MODEL 1
REMARK minimizedAffinity 3.70947623
REMARK minimizedRMSD -1
REMARK  0 active torsions:
REMARK  status: ('A' for Active; 'I' for Inactive)
ROOT
ATOM      1  C   UNL d   1       2.351  -5.757   1.880  0.00  0.00     0.023 A 
ATOM      2  C1  UNL d   1       1.423  -5.931   0.854  0.00  0.00     0.003 A 
ATOM      3  C2  UNL d   1       1.852  -6.000  -0.473  0.00  0.00     0.048 A 
ATOM      4  C3  UNL d   1       3.211  -5.896  -0.767  0.00  0.00     0.023 A 
ATOM      5  C4  UNL d   1       4.144  -5.723   0.257  0.00  0.00     0.048 A 
ATOM      6  C5  UNL d   1       3.710  -5.653   1.582  0.00  0.00     0.003 A 
ATOM      7  I   UNL d   1       3.852  -5.999  -2.741  0.00  0.00    -0.146 I 
ENDROOT
TORSDOF 0
ENDMDL
