MODEL 1
REMARK minimizedAffinity 0.0983860716
REMARK minimizedRMSD -1
REMARK  0 active torsions:
REMARK  status: ('A' for Active; 'I' for Inactive)
ROOT
ATOM      1  C   UNL d   1       4.225  -5.982   1.194  0.00  0.00     0.023 A 
ATOM      2  C1  UNL d   1       2.897  -5.995   0.769  0.00  0.00     0.003 A 
ATOM      3  C2  UNL d   1       2.598  -5.999  -0.595  0.00  0.00     0.048 A 
ATOM      4  C3  UNL d   1       3.633  -5.992  -1.529  0.00  0.00     0.023 A 
ATOM      5  C4  UNL d   1       4.964  -5.980  -1.109  0.00  0.00     0.048 A 
ATOM      6  C5  UNL d   1       5.258  -5.975   0.256  0.00  0.00     0.003 A 
ATOM      7  I   UNL d   1       3.191  -5.999  -3.560  0.00  0.00    -0.146 I 
ENDROOT
TORSDOF 0
ENDMDL
