MODEL 1
REMARK minimizedAffinity 3.65225744
REMARK minimizedRMSD -1
REMARK  0 active torsions:
REMARK  status: ('A' for Active; 'I' for Inactive)
ROOT
ATOM      1  C   UNL d   1       4.118  -5.999  -1.626  0.00  0.00     0.023 A 
ATOM      2  C1  UNL d   1       3.977  -5.017  -0.645  0.00  0.00     0.003 A 
ATOM      3  C2  UNL d   1       3.711  -3.696  -1.012  0.00  0.00     0.048 A 
ATOM      4  C3  UNL d   1       3.587  -3.364  -2.360  0.00  0.00     0.023 A 
ATOM      5  C4  UNL d   1       3.727  -4.344  -3.345  0.00  0.00     0.048 A 
ATOM      6  C5  UNL d   1       3.994  -5.663  -2.974  0.00  0.00     0.003 A 
ATOM      7  I   UNL d   1       3.192  -1.399  -2.908  0.00  0.00    -0.146 I 
ENDROOT
TORSDOF 0
ENDMDL
