MODEL 1
REMARK minimizedAffinity -1.90074098
REMARK minimizedRMSD -1
REMARK  0 active torsions:
REMARK  status: ('A' for Active; 'I' for Inactive)
ROOT
ATOM      1  C   UNL d   1       3.298  -5.988  -5.644  0.00  0.00     0.023 A 
ATOM      2  C1  UNL d   1       2.076  -5.990  -4.972  0.00  0.00     0.003 A 
ATOM      3  C2  UNL d   1       2.045  -5.994  -3.576  0.00  0.00     0.048 A 
ATOM      4  C3  UNL d   1       3.241  -5.994  -2.858  0.00  0.00     0.023 A 
ATOM      5  C4  UNL d   1       4.466  -5.991  -3.526  0.00  0.00     0.048 A 
ATOM      6  C5  UNL d   1       4.492  -5.988  -4.922  0.00  0.00     0.003 A 
ATOM      7  I   UNL d   1       3.198  -6.000  -0.780  0.00  0.00    -0.146 I 
ENDROOT
TORSDOF 0
ENDMDL
