MODEL 1
REMARK minimizedAffinity 0.919991493
REMARK minimizedRMSD -1
REMARK  0 active torsions:
REMARK  status: ('A' for Active; 'I' for Inactive)
ROOT
ATOM      1  C   UNL d   1       2.525  -5.998  -1.852  0.00  0.00     0.023 A 
ATOM      2  C1  UNL d   1       3.888  -5.995  -1.555  0.00  0.00     0.003 A 
ATOM      3  C2  UNL d   1       4.828  -5.997  -2.587  0.00  0.00     0.048 A 
ATOM      4  C3  UNL d   1       4.399  -5.999  -3.914  0.00  0.00     0.023 A 
ATOM      5  C4  UNL d   1       3.036  -6.000  -4.216  0.00  0.00     0.048 A 
ATOM      6  C5  UNL d   1       2.100  -6.000  -3.181  0.00  0.00     0.003 A 
ATOM      7  I   UNL d   1       5.797  -6.000  -5.452  0.00  0.00    -0.146 I 
ENDROOT
TORSDOF 0
ENDMDL
