MODEL 1
REMARK minimizedAffinity 3.53577423
REMARK minimizedRMSD -1
REMARK  0 active torsions:
REMARK  status: ('A' for Active; 'I' for Inactive)
ROOT
ATOM      1  C   UNL d   1       3.960  -5.873  -1.064  0.00  0.00     0.023 A 
ATOM      2  C1  UNL d   1       2.677  -5.956  -1.606  0.00  0.00     0.003 A 
ATOM      3  C2  UNL d   1       2.503  -5.992  -2.991  0.00  0.00     0.048 A 
ATOM      4  C3  UNL d   1       3.617  -5.946  -3.829  0.00  0.00     0.023 A 
ATOM      5  C4  UNL d   1       4.903  -5.864  -3.292  0.00  0.00     0.048 A 
ATOM      6  C5  UNL d   1       5.071  -5.827  -1.906  0.00  0.00     0.003 A 
ATOM      7  I   UNL d   1       3.361  -6.000  -5.891  0.00  0.00    -0.146 I 
ENDROOT
TORSDOF 0
ENDMDL
