MODEL 1
REMARK minimizedAffinity 1.19894648
REMARK minimizedRMSD -1
REMARK  0 active torsions:
REMARK  status: ('A' for Active; 'I' for Inactive)
ROOT
ATOM      1  C   UNL d   1       1.757  -3.748   4.240  0.00  0.00     0.023 A 
ATOM      2  C1  UNL d   1       1.071  -3.445   3.064  0.00  0.00     0.003 A 
ATOM      3  C2  UNL d   1       1.343  -2.257   2.382  0.00  0.00     0.048 A 
ATOM      4  C3  UNL d   1       2.303  -1.377   2.881  0.00  0.00     0.023 A 
ATOM      5  C4  UNL d   1       2.993  -1.677   4.057  0.00  0.00     0.048 A 
ATOM      6  C5  UNL d   1       2.717  -2.865   4.736  0.00  0.00     0.003 A 
ATOM      7  I   UNL d   1       2.709   0.391   1.867  0.00  0.00    -0.146 I 
ENDROOT
TORSDOF 0
ENDMDL
