MODEL 1
REMARK minimizedAffinity 4.87959385
REMARK minimizedRMSD -1
REMARK  0 active torsions:
REMARK  status: ('A' for Active; 'I' for Inactive)
ROOT
ATOM      1  C   UNL d   1       4.041  -3.394   4.783  0.00  0.00     0.023 A 
ATOM      2  C1  UNL d   1       2.681  -3.254   4.503  0.00  0.00     0.003 A 
ATOM      3  C2  UNL d   1       2.256  -2.336   3.541  0.00  0.00     0.048 A 
ATOM      4  C3  UNL d   1       3.196  -1.563   2.860  0.00  0.00     0.023 A 
ATOM      5  C4  UNL d   1       4.557  -1.700   3.136  0.00  0.00     0.048 A 
ATOM      6  C5  UNL d   1       4.977  -2.618   4.100  0.00  0.00     0.003 A 
ATOM      7  I   UNL d   1       2.565  -0.196   1.427  0.00  0.00    -0.146 I 
ENDROOT
TORSDOF 0
ENDMDL
