MODEL 1
REMARK minimizedAffinity 8.47833252
REMARK minimizedRMSD -1
REMARK  0 active torsions:
REMARK  status: ('A' for Active; 'I' for Inactive)
ROOT
ATOM      1  C   UNL d   1       2.274  -4.578   4.221  0.00  0.00     0.023 A 
ATOM      2  C1  UNL d   1       1.150  -4.207   3.482  0.00  0.00     0.003 A 
ATOM      3  C2  UNL d   1       1.104  -2.959   2.858  0.00  0.00     0.048 A 
ATOM      4  C3  UNL d   1       2.185  -2.086   2.977  0.00  0.00     0.023 A 
ATOM      5  C4  UNL d   1       3.312  -2.453   3.715  0.00  0.00     0.048 A 
ATOM      6  C5  UNL d   1       3.353  -3.702   4.337  0.00  0.00     0.003 A 
ATOM      7  I   UNL d   1       2.119  -0.228   2.049  0.00  0.00    -0.146 I 
ENDROOT
TORSDOF 0
ENDMDL
