MODEL 1
REMARK minimizedAffinity 1.83679414
REMARK minimizedRMSD -1
REMARK  0 active torsions:
REMARK  status: ('A' for Active; 'I' for Inactive)
ROOT
ATOM      1  C   UNL d   1       3.375  -5.283  -0.861  0.00  0.00     0.023 A 
ATOM      2  C1  UNL d   1       4.375  -4.978  -1.784  0.00  0.00     0.003 A 
ATOM      3  C2  UNL d   1       4.154  -5.183  -3.148  0.00  0.00     0.048 A 
ATOM      4  C3  UNL d   1       2.931  -5.693  -3.581  0.00  0.00     0.023 A 
ATOM      5  C4  UNL d   1       1.927  -5.999  -2.661  0.00  0.00     0.048 A 
ATOM      6  C5  UNL d   1       2.153  -5.793  -1.298  0.00  0.00     0.003 A 
ATOM      7  I   UNL d   1       2.600  -6.000  -5.610  0.00  0.00    -0.146 I 
ENDROOT
TORSDOF 0
ENDMDL
