MODEL 1
REMARK minimizedAffinity 6.70102596
REMARK minimizedRMSD -1
REMARK  0 active torsions:
REMARK  status: ('A' for Active; 'I' for Inactive)
ROOT
ATOM      1  C   UNL d   1       1.899  -2.734   2.647  0.00  0.00     0.023 A 
ATOM      2  C1  UNL d   1       3.122  -2.145   2.965  0.00  0.00     0.003 A 
ATOM      3  C2  UNL d   1       3.343  -0.795   2.683  0.00  0.00     0.048 A 
ATOM      4  C3  UNL d   1       2.335  -0.040   2.084  0.00  0.00     0.023 A 
ATOM      5  C4  UNL d   1       1.109  -0.626   1.765  0.00  0.00     0.048 A 
ATOM      6  C5  UNL d   1       0.893  -1.976   2.047  0.00  0.00     0.003 A 
ATOM      7  I   UNL d   1       2.661   1.969   1.664  0.00  0.00    -0.146 I 
ENDROOT
TORSDOF 0
ENDMDL
