MODEL 1
REMARK minimizedAffinity 8.47656345
REMARK minimizedRMSD -1
REMARK  1 active torsions:
REMARK  status: ('A' for Active; 'I' for Inactive)
REMARK    1  A    between atoms: C1_2  and  C2_3 
ROOT
ATOM      1  C2  UNL d   1      -5.279   0.177  -2.815  0.00  0.00    -0.077 A 
ATOM      2  C3  UNL d   1      -3.878   0.198  -2.769  0.00  0.00     0.002 A 
ATOM      3  C4  UNL d   1      -3.212   0.308  -1.547  0.00  0.00     0.002 A 
ATOM      4  C5  UNL d   1      -3.939   0.393  -0.361  0.00  0.00    -0.004 A 
ATOM      5  C6  UNL d   1      -5.333   0.375  -0.396  0.00  0.00     0.002 A 
ATOM      6  C7  UNL d   1      -6.000   0.266  -1.617  0.00  0.00     0.002 A 
ENDROOT
BRANCH   1   7
ATOM      7  C1  UNL d   1      -5.998   0.009  -4.128  0.00  0.00     0.055 C 
ATOM      8  C   UNL d   1      -6.000   1.304  -4.927  0.00  0.00     0.019 C 
ENDBRANCH   1   7
TORSDOF 1
ENDMDL
