MODEL 1
REMARK minimizedAffinity 4.62852764
REMARK minimizedRMSD -1
REMARK  1 active torsions:
REMARK  status: ('A' for Active; 'I' for Inactive)
REMARK    1  A    between atoms: C1_2  and  C2_3 
ROOT
ATOM      1  C2  UNL d   1       4.525   3.699  -0.636  0.00  0.00    -0.077 A 
ATOM      2  C3  UNL d   1       4.334   3.039   0.586  0.00  0.00     0.002 A 
ATOM      3  C4  UNL d   1       3.682   1.805   0.628  0.00  0.00     0.002 A 
ATOM      4  C5  UNL d   1       3.219   1.220  -0.548  0.00  0.00    -0.004 A 
ATOM      5  C6  UNL d   1       3.402   1.870  -1.768  0.00  0.00     0.002 A 
ATOM      6  C7  UNL d   1       4.052   3.104  -1.812  0.00  0.00     0.002 A 
ENDROOT
BRANCH   1   7
ATOM      7  C1  UNL d   1       5.271   5.007  -0.689  0.00  0.00     0.055 C 
ATOM      8  C   UNL d   1       5.549   5.543   0.708  0.00  0.00     0.019 C 
ENDBRANCH   1   7
TORSDOF 1
ENDMDL
