MODEL 1
REMARK minimizedAffinity 13.9632015
REMARK minimizedRMSD -1
REMARK  1 active torsions:
REMARK  status: ('A' for Active; 'I' for Inactive)
REMARK    1  A    between atoms: C1_2  and  C2_3 
ROOT
ATOM      1  C2  UNL d   1       2.706  -0.407  -2.684  0.00  0.00    -0.077 A 
ATOM      2  C3  UNL d   1       3.531   0.383  -3.497  0.00  0.00     0.002 A 
ATOM      3  C4  UNL d   1       4.030   1.600  -3.027  0.00  0.00     0.002 A 
ATOM      4  C5  UNL d   1       3.713   2.034  -1.741  0.00  0.00    -0.004 A 
ATOM      5  C6  UNL d   1       2.891   1.257  -0.926  0.00  0.00     0.002 A 
ATOM      6  C7  UNL d   1       2.391   0.041  -1.395  0.00  0.00     0.002 A 
ENDROOT
BRANCH   1   7
ATOM      7  C1  UNL d   1       2.207  -1.742  -3.171  0.00  0.00     0.055 C 
ATOM      8  C   UNL d   1       2.485  -2.841  -2.156  0.00  0.00     0.019 C 
ENDBRANCH   1   7
TORSDOF 1
ENDMDL
