MODEL 1
REMARK minimizedAffinity 9.4093914
REMARK minimizedRMSD -1
REMARK  1 active torsions:
REMARK  status: ('A' for Active; 'I' for Inactive)
REMARK    1  A    between atoms: C1_2  and  C2_3 
ROOT
ATOM      1  C2  UNL d   1      -4.639   3.551   3.446  0.00  0.00    -0.077 A 
ATOM      2  C3  UNL d   1      -3.522   2.993   4.083  0.00  0.00     0.002 A 
ATOM      3  C4  UNL d   1      -3.643   2.432   5.356  0.00  0.00     0.002 A 
ATOM      4  C5  UNL d   1      -4.878   2.420   6.000  0.00  0.00    -0.004 A 
ATOM      5  C6  UNL d   1      -5.995   2.974   5.375  0.00  0.00     0.002 A 
ATOM      6  C7  UNL d   1      -5.876   3.536   4.103  0.00  0.00     0.002 A 
ENDROOT
BRANCH   1   7
ATOM      7  C1  UNL d   1      -4.522   4.113   2.053  0.00  0.00     0.055 C 
ATOM      8  C   UNL d   1      -5.316   3.284   1.053  0.00  0.00     0.019 C 
ENDBRANCH   1   7
TORSDOF 1
ENDMDL
