MODEL 1
REMARK minimizedAffinity -1.09769833
REMARK minimizedRMSD -1
REMARK  1 active torsions:
REMARK  status: ('A' for Active; 'I' for Inactive)
REMARK    1  A    between atoms: C1_2  and  C2_3 
ROOT
ATOM      1  C2  UNL d   1      -3.792   1.687   2.876  0.00  0.00    -0.077 A 
ATOM      2  C3  UNL d   1      -2.946   0.749   3.484  0.00  0.00     0.002 A 
ATOM      3  C4  UNL d   1      -2.843  -0.546   2.973  0.00  0.00     0.002 A 
ATOM      4  C5  UNL d   1      -3.579  -0.913   1.848  0.00  0.00    -0.004 A 
ATOM      5  C6  UNL d   1      -4.424   0.012   1.237  0.00  0.00     0.002 A 
ATOM      6  C7  UNL d   1      -4.530   1.306   1.748  0.00  0.00     0.002 A 
ENDROOT
BRANCH   1   7
ATOM      7  C1  UNL d   1      -3.868   3.098   3.397  0.00  0.00     0.055 C 
ATOM      8  C   UNL d   1      -4.068   4.096   2.265  0.00  0.00     0.019 C 
ENDBRANCH   1   7
TORSDOF 1
ENDMDL
