MODEL 1
REMARK minimizedAffinity -2.78616905
REMARK minimizedRMSD -1
REMARK  1 active torsions:
REMARK  status: ('A' for Active; 'I' for Inactive)
REMARK    1  A    between atoms: C1_2  and  C2_3 
ROOT
ATOM      1  C2  UNL d   1      -4.828   4.145   3.521  0.00  0.00    -0.077 A 
ATOM      2  C3  UNL d   1      -6.000   3.981   4.272  0.00  0.00     0.002 A 
ATOM      3  C4  UNL d   1      -5.963   3.328   5.505  0.00  0.00     0.002 A 
ATOM      4  C5  UNL d   1      -4.756   2.838   6.000  0.00  0.00    -0.004 A 
ATOM      5  C6  UNL d   1      -3.585   2.995   5.260  0.00  0.00     0.002 A 
ATOM      6  C7  UNL d   1      -3.620   3.646   4.026  0.00  0.00     0.002 A 
ENDROOT
BRANCH   1   7
ATOM      7  C1  UNL d   1      -4.857   4.893   2.213  0.00  0.00     0.055 C 
ATOM      8  C   UNL d   1      -5.961   5.940   2.199  0.00  0.00     0.019 C 
ENDBRANCH   1   7
TORSDOF 1
ENDMDL
