MODEL 1
REMARK minimizedAffinity 1.71007633
REMARK minimizedRMSD -1
REMARK  1 active torsions:
REMARK  status: ('A' for Active; 'I' for Inactive)
REMARK    1  A    between atoms: C1_2  and  C2_3 
ROOT
ATOM      1  C2  UNL d   1      -5.991   4.777   3.386  0.00  0.00    -0.077 A 
ATOM      2  C3  UNL d   1      -5.994   5.579   4.536  0.00  0.00     0.002 A 
ATOM      3  C4  UNL d   1      -6.000   4.995   5.804  0.00  0.00     0.002 A 
ATOM      4  C5  UNL d   1      -5.997   3.608   5.934  0.00  0.00    -0.004 A 
ATOM      5  C6  UNL d   1      -5.996   2.802   4.796  0.00  0.00     0.002 A 
ATOM      6  C7  UNL d   1      -5.992   3.384   3.528  0.00  0.00     0.002 A 
ENDROOT
BRANCH   1   7
ATOM      7  C1  UNL d   1      -5.935   5.405   2.018  0.00  0.00     0.055 C 
ATOM      8  C   UNL d   1      -4.754   4.879   1.215  0.00  0.00     0.019 C 
ENDBRANCH   1   7
TORSDOF 1
ENDMDL
