MODEL 1
REMARK minimizedAffinity -2.37232304
REMARK minimizedRMSD -1
REMARK  1 active torsions:
REMARK  status: ('A' for Active; 'I' for Inactive)
REMARK    1  A    between atoms: C1_2  and  C2_3 
ROOT
ATOM      1  C2  UNL d   1      -4.764   3.603   5.014  0.00  0.00    -0.077 A 
ATOM      2  C3  UNL d   1      -4.926   3.381   3.640  0.00  0.00     0.002 A 
ATOM      3  C4  UNL d   1      -5.094   4.457   2.766  0.00  0.00     0.002 A 
ATOM      4  C5  UNL d   1      -5.096   5.761   3.256  0.00  0.00    -0.004 A 
ATOM      5  C6  UNL d   1      -4.938   5.992   4.621  0.00  0.00     0.002 A 
ATOM      6  C7  UNL d   1      -4.772   4.918   5.497  0.00  0.00     0.002 A 
ENDROOT
BRANCH   1   7
ATOM      7  C1  UNL d   1      -4.534   2.447   5.952  0.00  0.00     0.055 C 
ATOM      8  C   UNL d   1      -5.738   1.517   5.991  0.00  0.00     0.019 C 
ENDBRANCH   1   7
TORSDOF 1
ENDMDL
