MODEL 1
REMARK minimizedAffinity -1.31656885
REMARK minimizedRMSD -1
REMARK  1 active torsions:
REMARK  status: ('A' for Active; 'I' for Inactive)
REMARK    1  A    between atoms: C1_2  and  C2_3 
ROOT
ATOM      1  C2  UNL d   1      -4.810   3.557   3.282  0.00  0.00    -0.077 A 
ATOM      2  C3  UNL d   1      -3.620   3.177   3.917  0.00  0.00     0.002 A 
ATOM      3  C4  UNL d   1      -3.622   2.824   5.268  0.00  0.00     0.002 A 
ATOM      4  C5  UNL d   1      -4.811   2.844   5.993  0.00  0.00    -0.004 A 
ATOM      5  C6  UNL d   1      -6.000   3.222   5.371  0.00  0.00     0.002 A 
ATOM      6  C7  UNL d   1      -6.000   3.577   4.021  0.00  0.00     0.002 A 
ENDROOT
BRANCH   1   7
ATOM      7  C1  UNL d   1      -4.819   3.891   1.813  0.00  0.00     0.055 C 
ATOM      8  C   UNL d   1      -5.979   4.810   1.461  0.00  0.00     0.019 C 
ENDBRANCH   1   7
TORSDOF 1
ENDMDL
