MODEL 1
REMARK minimizedAffinity -3.84553504
REMARK minimizedRMSD -1
REMARK  1 active torsions:
REMARK  status: ('A' for Active; 'I' for Inactive)
REMARK    1  A    between atoms: C1_2  and  C2_3 
ROOT
ATOM      1  C2  UNL d   1      -5.048   3.596   3.607  0.00  0.00    -0.077 A 
ATOM      2  C3  UNL d   1      -4.870   4.870   4.166  0.00  0.00     0.002 A 
ATOM      3  C4  UNL d   1      -4.824   6.000   3.347  0.00  0.00     0.002 A 
ATOM      4  C5  UNL d   1      -4.960   5.868   1.967  0.00  0.00    -0.004 A 
ATOM      5  C6  UNL d   1      -5.136   4.606   1.402  0.00  0.00     0.002 A 
ATOM      6  C7  UNL d   1      -5.181   3.475   2.218  0.00  0.00     0.002 A 
ENDROOT
BRANCH   1   7
ATOM      7  C1  UNL d   1      -5.147   2.382   4.493  0.00  0.00     0.055 C 
ATOM      8  C   UNL d   1      -5.584   2.757   5.901  0.00  0.00     0.019 C 
ENDBRANCH   1   7
TORSDOF 1
ENDMDL
