MODEL 1
REMARK minimizedAffinity -3.33330941
REMARK minimizedRMSD -1
REMARK  1 active torsions:
REMARK  status: ('A' for Active; 'I' for Inactive)
REMARK    1  A    between atoms: C1_2  and  C2_3 
ROOT
ATOM      1  C2  UNL d   1      -5.683   3.619   4.474  0.00  0.00    -0.077 A 
ATOM      2  C3  UNL d   1      -5.319   4.971   4.541  0.00  0.00     0.002 A 
ATOM      3  C4  UNL d   1      -5.270   5.747   3.381  0.00  0.00     0.002 A 
ATOM      4  C5  UNL d   1      -5.589   5.182   2.148  0.00  0.00    -0.004 A 
ATOM      5  C6  UNL d   1      -5.951   3.838   2.071  0.00  0.00     0.002 A 
ATOM      6  C7  UNL d   1      -5.998   3.060   3.229  0.00  0.00     0.002 A 
ENDROOT
BRANCH   1   7
ATOM      7  C1  UNL d   1      -5.783   2.792   5.729  0.00  0.00     0.055 C 
ATOM      8  C   UNL d   1      -4.491   2.035   5.998  0.00  0.00     0.019 C 
ENDBRANCH   1   7
TORSDOF 1
ENDMDL
