MODEL 1
REMARK minimizedAffinity -4.21711063
REMARK minimizedRMSD -1
REMARK  1 active torsions:
REMARK  status: ('A' for Active; 'I' for Inactive)
REMARK    1  A    between atoms: C1_2  and  C2_3 
ROOT
ATOM      1  C2  UNL d   1      -4.627   4.192   3.713  0.00  0.00    -0.077 A 
ATOM      2  C3  UNL d   1      -3.345   3.725   4.034  0.00  0.00     0.002 A 
ATOM      3  C4  UNL d   1      -3.143   2.942   5.172  0.00  0.00     0.002 A 
ATOM      4  C5  UNL d   1      -4.218   2.617   5.996  0.00  0.00    -0.004 A 
ATOM      5  C6  UNL d   1      -5.497   3.079   5.686  0.00  0.00     0.002 A 
ATOM      6  C7  UNL d   1      -5.701   3.862   4.549  0.00  0.00     0.002 A 
ENDROOT
BRANCH   1   7
ATOM      7  C1  UNL d   1      -4.855   4.995   2.459  0.00  0.00     0.055 C 
ATOM      8  C   UNL d   1      -4.350   4.255   1.228  0.00  0.00     0.019 C 
ENDBRANCH   1   7
TORSDOF 1
ENDMDL
