MODEL 1
REMARK minimizedAffinity -4.10651445
REMARK minimizedRMSD -1
REMARK  1 active torsions:
REMARK  status: ('A' for Active; 'I' for Inactive)
REMARK    1  A    between atoms: C1_2  and  C2_3 
ROOT
ATOM      1  C2  UNL d   1      -5.711   4.247   1.962  0.00  0.00    -0.077 A 
ATOM      2  C3  UNL d   1      -5.999   5.258   1.034  0.00  0.00     0.002 A 
ATOM      3  C4  UNL d   1      -5.830   5.030  -0.333  0.00  0.00     0.002 A 
ATOM      4  C5  UNL d   1      -5.378   3.792  -0.784  0.00  0.00    -0.004 A 
ATOM      5  C6  UNL d   1      -5.087   2.781   0.131  0.00  0.00     0.002 A 
ATOM      6  C7  UNL d   1      -5.254   3.007   1.498  0.00  0.00     0.002 A 
ENDROOT
BRANCH   1   7
ATOM      7  C1  UNL d   1      -5.939   4.475   3.434  0.00  0.00     0.055 C 
ATOM      8  C   UNL d   1      -5.998   5.960   3.762  0.00  0.00     0.019 C 
ENDBRANCH   1   7
TORSDOF 1
ENDMDL
