MODEL 1
REMARK minimizedAffinity -0.523539662
REMARK minimizedRMSD -1
REMARK  0 active torsions:
REMARK  status: ('A' for Active; 'I' for Inactive)
ROOT
ATOM      1  C   UNL d   1       1.075   2.491   0.874  0.00  0.00     0.023 A 
ATOM      2  C1  UNL d   1      -0.021   1.929   0.219  0.00  0.00     0.003 A 
ATOM      3  C2  UNL d   1      -0.047   0.559  -0.050  0.00  0.00     0.048 A 
ATOM      4  C3  UNL d   1       1.025  -0.243   0.338  0.00  0.00     0.023 A 
ATOM      5  C4  UNL d   1       2.124   0.315   0.994  0.00  0.00     0.048 A 
ATOM      6  C5  UNL d   1       2.146   1.686   1.261  0.00  0.00     0.003 A 
ATOM      7  I   UNL d   1       0.988  -2.282  -0.062  0.00  0.00    -0.146 I 
ENDROOT
TORSDOF 0
ENDMDL
