MODEL 1
REMARK minimizedAffinity -4.22695446
REMARK minimizedRMSD -1
REMARK  0 active torsions:
REMARK  status: ('A' for Active; 'I' for Inactive)
ROOT
ATOM      1  C   UNL d   1       2.909   0.574   0.513  0.00  0.00     0.023 A 
ATOM      2  C1  UNL d   1       2.312  -0.687   0.518  0.00  0.00     0.003 A 
ATOM      3  C2  UNL d   1       0.989  -0.836   0.096  0.00  0.00     0.048 A 
ATOM      4  C3  UNL d   1       0.269   0.279  -0.331  0.00  0.00     0.023 A 
ATOM      5  C4  UNL d   1       0.863   1.543  -0.338  0.00  0.00     0.048 A 
ATOM      6  C5  UNL d   1       2.185   1.688   0.086  0.00  0.00     0.003 A 
ATOM      7  I   UNL d   1      -1.699   0.059  -0.959  0.00  0.00    -0.146 I 
ENDROOT
TORSDOF 0
ENDMDL
