MODEL 1
REMARK minimizedAffinity -3.78549862
REMARK minimizedRMSD -1
REMARK  0 active torsions:
REMARK  status: ('A' for Active; 'I' for Inactive)
ROOT
ATOM      1  C   UNL d   1       2.783  -0.268   0.605  0.00  0.00     0.023 A 
ATOM      2  C1  UNL d   1       2.209   0.964   0.289  0.00  0.00     0.003 A 
ATOM      3  C2  UNL d   1       0.895   1.023  -0.180  0.00  0.00     0.048 A 
ATOM      4  C3  UNL d   1       0.160  -0.152  -0.329  0.00  0.00     0.023 A 
ATOM      5  C4  UNL d   1       0.730  -1.387  -0.012  0.00  0.00     0.048 A 
ATOM      6  C5  UNL d   1       2.044  -1.442   0.455  0.00  0.00     0.003 A 
ATOM      7  I   UNL d   1      -1.796  -0.066  -1.026  0.00  0.00    -0.146 I 
ENDROOT
TORSDOF 0
ENDMDL
