MODEL 1
REMARK minimizedAffinity -1.68804169
REMARK minimizedRMSD -1
REMARK  0 active torsions:
REMARK  status: ('A' for Active; 'I' for Inactive)
ROOT
ATOM      1  C   UNL d   1       2.368   0.777   1.124  0.00  0.00     0.023 A 
ATOM      2  C1  UNL d   1       1.484  -0.177   1.631  0.00  0.00     0.003 A 
ATOM      3  C2  UNL d   1       0.202  -0.299   1.091  0.00  0.00     0.048 A 
ATOM      4  C3  UNL d   1      -0.189   0.534   0.044  0.00  0.00     0.023 A 
ATOM      5  C4  UNL d   1       0.691   1.489  -0.467  0.00  0.00     0.048 A 
ATOM      6  C5  UNL d   1       1.972   1.609   0.077  0.00  0.00     0.003 A 
ATOM      7  I   UNL d   1      -2.097   0.354  -0.762  0.00  0.00    -0.146 I 
ENDROOT
TORSDOF 0
ENDMDL
