MODEL 1
REMARK minimizedAffinity -4.35477161
REMARK minimizedRMSD -1
REMARK  0 active torsions:
REMARK  status: ('A' for Active; 'I' for Inactive)
ROOT
ATOM      1  C   UNL d   1       2.546  -1.718   1.888  0.00  0.00     0.023 A 
ATOM      2  C1  UNL d   1       2.704  -0.494   1.237  0.00  0.00     0.003 A 
ATOM      3  C2  UNL d   1       1.612   0.112   0.612  0.00  0.00     0.048 A 
ATOM      4  C3  UNL d   1       0.365  -0.511   0.643  0.00  0.00     0.023 A 
ATOM      5  C4  UNL d   1       0.202  -1.736   1.293  0.00  0.00     0.048 A 
ATOM      6  C5  UNL d   1       1.297  -2.338   1.916  0.00  0.00     0.003 A 
ATOM      7  I   UNL d   1      -1.262   0.388  -0.286  0.00  0.00    -0.146 I 
ENDROOT
TORSDOF 0
ENDMDL
