MODEL 1
REMARK minimizedAffinity -4.0715723
REMARK minimizedRMSD -1
REMARK  0 active torsions:
REMARK  status: ('A' for Active; 'I' for Inactive)
ROOT
ATOM      1  C   UNL d   1       3.298  -0.128   0.799  0.00  0.00     0.023 A 
ATOM      2  C1  UNL d   1       2.813  -1.331   0.288  0.00  0.00     0.003 A 
ATOM      3  C2  UNL d   1       1.454  -1.470  -0.004  0.00  0.00     0.048 A 
ATOM      4  C3  UNL d   1       0.587  -0.400   0.216  0.00  0.00     0.023 A 
ATOM      5  C4  UNL d   1       1.069   0.807   0.725  0.00  0.00     0.048 A 
ATOM      6  C5  UNL d   1       2.428   0.940   1.017  0.00  0.00     0.003 A 
ATOM      7  I   UNL d   1      -1.435  -0.604  -0.218  0.00  0.00    -0.146 I 
ENDROOT
TORSDOF 0
ENDMDL
