MODEL 1
REMARK minimizedAffinity 12.4024181
REMARK minimizedRMSD -1
REMARK  0 active torsions:
REMARK  status: ('A' for Active; 'I' for Inactive)
ROOT
ATOM      1  C4' PXY d   1      -3.315   5.544   6.000  0.00  0.00     0.077 C 
ATOM      2  C1' PXY d   1      -3.616   0.359   3.461  0.00  0.00     0.077 C 
ATOM      3  C1  PXY d   1      -3.548   1.716   4.134  0.00  0.00    -0.082 A 
ATOM      4  C2  PXY d   1      -2.963   2.726   3.512  0.00  0.00     0.003 A 
ATOM      5  C3  PXY d   1      -2.864   3.952   4.119  0.00  0.00     0.003 A 
ATOM      6  C4  PXY d   1      -3.416   4.159   5.355  0.00  0.00    -0.082 A 
ATOM      7  C5  PXY d   1      -4.024   3.136   5.992  0.00  0.00     0.003 A 
ATOM      8  C6  PXY d   1      -4.078   1.889   5.376  0.00  0.00     0.003 A 
ENDROOT
TORSDOF 0
ENDMDL
