MODEL 1
REMARK minimizedAffinity 12.1944504
REMARK minimizedRMSD -1
REMARK  0 active torsions:
REMARK  status: ('A' for Active; 'I' for Inactive)
ROOT
ATOM      1  C4' PXY d   1       2.653  -2.755   0.928  0.00  0.00     0.077 C 
ATOM      2  C1' PXY d   1      -1.891   0.057   3.131  0.00  0.00     0.077 C 
ATOM      3  C1  PXY d   1      -0.693  -0.669   2.552  0.00  0.00    -0.082 A 
ATOM      4  C2  PXY d   1      -0.853  -1.864   2.007  0.00  0.00     0.003 A 
ATOM      5  C3  PXY d   1       0.224  -2.548   1.507  0.00  0.00     0.003 A 
ATOM      6  C4  PXY d   1       1.471  -1.981   1.517  0.00  0.00    -0.082 A 
ATOM      7  C5  PXY d   1       1.640  -0.758   2.062  0.00  0.00     0.003 A 
ATOM      8  C6  PXY d   1       0.540  -0.097   2.601  0.00  0.00     0.003 A 
ENDROOT
TORSDOF 0
ENDMDL
