MODEL 1
REMARK minimizedAffinity 6.79416037
REMARK minimizedRMSD -1
REMARK  0 active torsions:
REMARK  status: ('A' for Active; 'I' for Inactive)
ROOT
ATOM      1  C4' PXY d   1      -1.017  -0.234   3.606  0.00  0.00     0.077 C 
ATOM      2  C1' PXY d   1       2.124  -4.232   0.856  0.00  0.00     0.077 C 
ATOM      3  C1  PXY d   1       1.290  -3.190   1.575  0.00  0.00    -0.082 A 
ATOM      4  C2  PXY d   1       1.754  -1.958   1.708  0.00  0.00     0.003 A 
ATOM      5  C3  PXY d   1       1.026  -1.012   2.382  0.00  0.00     0.003 A 
ATOM      6  C4  PXY d   1      -0.213  -1.315   2.880  0.00  0.00    -0.082 A 
ATOM      7  C5  PXY d   1      -0.698  -2.567   2.739  0.00  0.00     0.003 A 
ATOM      8  C6  PXY d   1       0.074  -3.524   2.087  0.00  0.00     0.003 A 
ENDROOT
TORSDOF 0
ENDMDL
