MODEL 1
REMARK minimizedAffinity 18.5042152
REMARK minimizedRMSD -1
REMARK  0 active torsions:
REMARK  status: ('A' for Active; 'I' for Inactive)
ROOT
ATOM      1  C4' PXY d   1      -1.811   1.857  -2.515  0.00  0.00     0.077 C 
ATOM      2  C1' PXY d   1      -5.999   3.793  -5.998  0.00  0.00     0.077 C 
ATOM      3  C1  PXY d   1      -4.908   3.276  -5.081  0.00  0.00    -0.082 A 
ATOM      4  C2  PXY d   1      -3.982   4.107  -4.632  0.00  0.00     0.003 A 
ATOM      5  C3  PXY d   1      -2.971   3.649  -3.827  0.00  0.00     0.003 A 
ATOM      6  C4  PXY d   1      -2.936   2.338  -3.436  0.00  0.00    -0.082 A 
ATOM      7  C5  PXY d   1      -3.884   1.485  -3.881  0.00  0.00     0.003 A 
ATOM      8  C6  PXY d   1      -4.879   1.961  -4.730  0.00  0.00     0.003 A 
ENDROOT
TORSDOF 0
ENDMDL
