MODEL 1
REMARK minimizedAffinity 9.42430019
REMARK minimizedRMSD -1
REMARK  0 active torsions:
REMARK  status: ('A' for Active; 'I' for Inactive)
ROOT
ATOM      1  C4' PXY d   1       0.829   3.520   2.372  0.00  0.00     0.077 C 
ATOM      2  C1' PXY d   1      -2.926   6.000   6.000  0.00  0.00     0.077 C 
ATOM      3  C1  PXY d   1      -1.946   5.338   5.051  0.00  0.00    -0.082 A 
ATOM      4  C2  PXY d   1      -0.817   5.954   4.742  0.00  0.00     0.003 A 
ATOM      5  C3  PXY d   1       0.066   5.384   3.861  0.00  0.00     0.003 A 
ATOM      6  C4  PXY d   1      -0.185   4.146   3.332  0.00  0.00    -0.082 A 
ATOM      7  C5  PXY d   1      -1.330   3.506   3.651  0.00  0.00     0.003 A 
ATOM      8  C6  PXY d   1      -2.232   4.120   4.515  0.00  0.00     0.003 A 
ENDROOT
TORSDOF 0
ENDMDL
