MODEL 1
REMARK minimizedAffinity 11.2135239
REMARK minimizedRMSD -1
REMARK  0 active torsions:
REMARK  status: ('A' for Active; 'I' for Inactive)
ROOT
ATOM      1  C4' PXY d   1       2.186  -5.162  -1.104  0.00  0.00     0.077 C 
ATOM      2  C1' PXY d   1       1.547   0.233   0.870  0.00  0.00     0.077 C 
ATOM      3  C1  PXY d   1       1.701  -1.183   0.351  0.00  0.00    -0.082 A 
ATOM      4  C2  PXY d   1       2.780  -1.881   0.667  0.00  0.00     0.003 A 
ATOM      5  C3  PXY d   1       2.951  -3.151   0.180  0.00  0.00     0.003 A 
ATOM      6  C4  PXY d   1       1.983  -3.732  -0.595  0.00  0.00    -0.082 A 
ATOM      7  C5  PXY d   1       0.875  -3.030  -0.913  0.00  0.00     0.003 A 
ATOM      8  C6  PXY d   1       0.740  -1.727  -0.443  0.00  0.00     0.003 A 
ENDROOT
TORSDOF 0
ENDMDL
