MODEL 1
REMARK minimizedAffinity 2.39397597
REMARK minimizedRMSD -1
REMARK  0 active torsions:
REMARK  status: ('A' for Active; 'I' for Inactive)
ROOT
ATOM      1  C4' PXY d   1       1.446  -2.558   1.072  0.00  0.00     0.077 C 
ATOM      2  C1' PXY d   1       5.996  -6.000   0.139  0.00  0.00     0.077 C 
ATOM      3  C1  PXY d   1       4.795  -5.105   0.377  0.00  0.00    -0.082 A 
ATOM      4  C2  PXY d   1       4.975  -3.812   0.593  0.00  0.00     0.003 A 
ATOM      5  C3  PXY d   1       3.902  -2.995   0.842  0.00  0.00     0.003 A 
ATOM      6  C4  PXY d   1       2.628  -3.497   0.817  0.00  0.00    -0.082 A 
ATOM      7  C5  PXY d   1       2.436  -4.813   0.588  0.00  0.00     0.003 A 
ATOM      8  C6  PXY d   1       3.541  -5.633   0.378  0.00  0.00     0.003 A 
ENDROOT
TORSDOF 0
ENDMDL
