MODEL 1
REMARK minimizedAffinity 9.52528477
REMARK minimizedRMSD -1
REMARK  0 active torsions:
REMARK  status: ('A' for Active; 'I' for Inactive)
ROOT
ATOM      1  C4' PXY d   1       2.174  -4.017   0.051  0.00  0.00     0.077 C 
ATOM      2  C1' PXY d   1       2.005   0.879   3.120  0.00  0.00     0.077 C 
ATOM      3  C1  PXY d   1       2.038  -0.409   2.321  0.00  0.00    -0.082 A 
ATOM      4  C2  PXY d   1       3.187  -0.844   1.829  0.00  0.00     0.003 A 
ATOM      5  C3  PXY d   1       3.230  -1.990   1.077  0.00  0.00     0.003 A 
ATOM      6  C4  PXY d   1       2.094  -2.726   0.871  0.00  0.00    -0.082 A 
ATOM      7  C5  PXY d   1       0.920  -2.295   1.379  0.00  0.00     0.003 A 
ATOM      8  C6  PXY d   1       0.891  -1.108   2.105  0.00  0.00     0.003 A 
ENDROOT
TORSDOF 0
ENDMDL
