MODEL 1
REMARK minimizedAffinity 12.3055677
REMARK minimizedRMSD -1
REMARK  0 active torsions:
REMARK  status: ('A' for Active; 'I' for Inactive)
ROOT
ATOM      1  C4' PXY d   1      -4.129   1.814   3.702  0.00  0.00     0.077 C 
ATOM      2  C1' PXY d   1      -1.137  -2.737   1.765  0.00  0.00     0.077 C 
ATOM      3  C1  PXY d   1      -1.926  -1.542   2.261  0.00  0.00    -0.082 A 
ATOM      4  C2  PXY d   1      -1.511  -0.881   3.330  0.00  0.00     0.003 A 
ATOM      5  C3  PXY d   1      -2.231   0.182   3.811  0.00  0.00     0.003 A 
ATOM      6  C4  PXY d   1      -3.358   0.607   3.160  0.00  0.00    -0.082 A 
ATOM      7  C5  PXY d   1      -3.782  -0.055   2.063  0.00  0.00     0.003 A 
ATOM      8  C6  PXY d   1      -3.060  -1.157   1.615  0.00  0.00     0.003 A 
ENDROOT
TORSDOF 0
ENDMDL
