MODEL 1
REMARK minimizedAffinity 14.2517376
REMARK minimizedRMSD -1
REMARK  0 active torsions:
REMARK  status: ('A' for Active; 'I' for Inactive)
ROOT
ATOM      1  C4' PXY d   1       0.658   2.235  -4.121  0.00  0.00     0.077 C 
ATOM      2  C1' PXY d   1      -3.788   0.010  -1.173  0.00  0.00     0.077 C 
ATOM      3  C1  PXY d   1      -2.630   0.603  -1.951  0.00  0.00    -0.082 A 
ATOM      4  C2  PXY d   1      -1.577  -0.148  -2.230  0.00  0.00     0.003 A 
ATOM      5  C3  PXY d   1      -0.507   0.381  -2.905  0.00  0.00     0.003 A 
ATOM      6  C4  PXY d   1      -0.538   1.677  -3.346  0.00  0.00    -0.082 A 
ATOM      7  C5  PXY d   1      -1.613   2.446  -3.074  0.00  0.00     0.003 A 
ATOM      8  C6  PXY d   1      -2.672   1.902  -2.352  0.00  0.00     0.003 A 
ENDROOT
TORSDOF 0
ENDMDL
