MODEL 1
REMARK minimizedAffinity 7.48430014
REMARK minimizedRMSD -1
REMARK  0 active torsions:
REMARK  status: ('A' for Active; 'I' for Inactive)
ROOT
ATOM      1  C4' PXY d   1       4.244  -1.302   0.728  0.00  0.00     0.077 C 
ATOM      2  C1' PXY d   1      -1.047  -1.399   3.055  0.00  0.00     0.077 C 
ATOM      3  C1  PXY d   1       0.343  -1.363   2.452  0.00  0.00    -0.082 A 
ATOM      4  C2  PXY d   1       0.557  -1.911   1.267  0.00  0.00     0.003 A 
ATOM      5  C3  PXY d   1       1.814  -1.915   0.721  0.00  0.00     0.003 A 
ATOM      6  C4  PXY d   1       2.854  -1.306   1.371  0.00  0.00    -0.082 A 
ATOM      7  C5  PXY d   1       2.642  -0.736   2.577  0.00  0.00     0.003 A 
ATOM      8  C6  PXY d   1       1.367  -0.778   3.132  0.00  0.00     0.003 A 
ENDROOT
TORSDOF 0
ENDMDL
