MODEL 1
REMARK minimizedAffinity 17.4609299
REMARK minimizedRMSD -1
REMARK  0 active torsions:
REMARK  status: ('A' for Active; 'I' for Inactive)
ROOT
ATOM      1  C4' PXY d   1      -4.550   1.399   2.771  0.00  0.00     0.077 C 
ATOM      2  C1' PXY d   1      -3.506  -1.224  -2.274  0.00  0.00     0.077 C 
ATOM      3  C1  PXY d   1      -3.781  -0.548  -0.945  0.00  0.00    -0.082 A 
ATOM      4  C2  PXY d   1      -4.226   0.698  -0.925  0.00  0.00     0.003 A 
ATOM      5  C3  PXY d   1      -4.450   1.335   0.268  0.00  0.00     0.003 A 
ATOM      6  C4  PXY d   1      -4.268   0.673   1.452  0.00  0.00    -0.082 A 
ATOM      7  C5  PXY d   1      -3.824  -0.602   1.440  0.00  0.00     0.003 A 
ATOM      8  C6  PXY d   1      -3.563  -1.217   0.219  0.00  0.00     0.003 A 
ENDROOT
TORSDOF 0
ENDMDL
