MODEL 1
REMARK minimizedAffinity 1.12951398
REMARK minimizedRMSD -1
REMARK  0 active torsions:
REMARK  status: ('A' for Active; 'I' for Inactive)
ROOT
ATOM      1  C4' PXY d   1       3.684  -4.361   0.499  0.00  0.00     0.077 C 
ATOM      2  C1' PXY d   1       0.587  -0.059   2.805  0.00  0.00     0.077 C 
ATOM      3  C1  PXY d   1       1.394  -1.184   2.188  0.00  0.00    -0.082 A 
ATOM      4  C2  PXY d   1       1.748  -2.219   2.933  0.00  0.00     0.003 A 
ATOM      5  C3  PXY d   1       2.506  -3.230   2.399  0.00  0.00     0.003 A 
ATOM      6  C4  PXY d   1       2.860  -3.206   1.077  0.00  0.00    -0.082 A 
ATOM      7  C5  PXY d   1       2.494  -2.159   0.308  0.00  0.00     0.003 A 
ATOM      8  C6  PXY d   1       1.760  -1.123   0.879  0.00  0.00     0.003 A 
ENDROOT
TORSDOF 0
ENDMDL
