MODEL 1
REMARK minimizedAffinity 6.21969748
REMARK minimizedRMSD -1
REMARK  1 active torsions:
REMARK  status: ('A' for Active; 'I' for Inactive)
REMARK    1  A    between atoms: C1_2  and  C2_3 
ROOT
ATOM      1  C2  UNL d   1       2.353  -0.857   0.161  0.00  0.00    -0.073 A 
ATOM      2  C3  UNL d   1       3.611  -0.289   0.393  0.00  0.00    -0.002 A 
ATOM      3  C4  UNL d   1       3.744   1.093   0.539  0.00  0.00     0.004 A 
ATOM      4  C5  UNL d   1       2.623   1.918   0.461  0.00  0.00    -0.004 A 
ATOM      5  C6  UNL d   1       1.356   1.368   0.241  0.00  0.00    -0.075 A 
ATOM      6  C7  UNL d   1       0.140   2.243   0.153  0.00  0.00     0.076 C 
ATOM      7  C8  UNL d   1       1.230  -0.020   0.094  0.00  0.00     0.001 A 
ENDROOT
BRANCH   1   8
ATOM      8  C1  UNL d   1       2.203  -2.349   0.010  0.00  0.00     0.053 C 
ATOM      9  C   UNL d   1       1.748  -3.010   1.301  0.00  0.00     0.018 C 
ENDBRANCH   1   8
TORSDOF 1
ENDMDL
