MODEL 1
REMARK minimizedAffinity 6.16543865
REMARK minimizedRMSD -1
REMARK  1 active torsions:
REMARK  status: ('A' for Active; 'I' for Inactive)
REMARK    1  A    between atoms: C1_2  and  C2_3 
ROOT
ATOM      1  C2  UNL d   1       2.894   0.141   1.035  0.00  0.00    -0.073 A 
ATOM      2  C3  UNL d   1       2.947  -0.957   1.902  0.00  0.00    -0.002 A 
ATOM      3  C4  UNL d   1       2.947  -2.256   1.393  0.00  0.00     0.004 A 
ATOM      4  C5  UNL d   1       2.903  -2.471   0.016  0.00  0.00    -0.004 A 
ATOM      5  C6  UNL d   1       2.862  -1.387  -0.866  0.00  0.00    -0.075 A 
ATOM      6  C7  UNL d   1       2.812  -1.602  -2.351  0.00  0.00     0.076 C 
ATOM      7  C8  UNL d   1       2.859  -0.085  -0.348  0.00  0.00     0.001 A 
ENDROOT
BRANCH   1   8
ATOM      8  C1  UNL d   1       2.900   1.546   1.579  0.00  0.00     0.053 C 
ATOM      9  C   UNL d   1       2.116   2.503   0.695  0.00  0.00     0.018 C 
ENDBRANCH   1   8
TORSDOF 1
ENDMDL
