MODEL 1
REMARK minimizedAffinity 9.73990822
REMARK minimizedRMSD -1
REMARK  1 active torsions:
REMARK  status: ('A' for Active; 'I' for Inactive)
REMARK    1  A    between atoms: C1_2  and  C2_3 
ROOT
ATOM      1  C2  UNL d   1       2.449   2.626   1.793  0.00  0.00    -0.073 A 
ATOM      2  C3  UNL d   1       1.990   2.740   0.476  0.00  0.00    -0.002 A 
ATOM      3  C4  UNL d   1       0.719   2.280   0.130  0.00  0.00     0.004 A 
ATOM      4  C5  UNL d   1      -0.108   1.710   1.097  0.00  0.00    -0.004 A 
ATOM      5  C6  UNL d   1       0.327   1.598   2.421  0.00  0.00    -0.075 A 
ATOM      6  C7  UNL d   1      -0.550   0.985   3.473  0.00  0.00     0.076 C 
ATOM      7  C8  UNL d   1       1.606   2.060   2.761  0.00  0.00     0.001 A 
ENDROOT
BRANCH   1   8
ATOM      8  C1  UNL d   1       3.818   3.127   2.173  0.00  0.00     0.053 C 
ATOM      9  C   UNL d   1       4.375   2.400   3.387  0.00  0.00     0.018 C 
ENDBRANCH   1   8
TORSDOF 1
ENDMDL
