MODEL 1
REMARK minimizedAffinity 10.9336386
REMARK minimizedRMSD -1
REMARK  0 active torsions:
REMARK  status: ('A' for Active; 'I' for Inactive)
ROOT
ATOM      1  C1  DEN d   1       0.297  -0.502   2.390  0.00  0.00     0.130 A 
ATOM      2  C2  DEN d   1       1.129  -0.596   1.193  0.00  0.00    -0.031 A 
ATOM      3  C3  DEN d   1       2.142  -1.646   1.422  0.00  0.00     0.027 A 
ATOM      4  C4  DEN d   1       2.500  -3.130   3.501  0.00  0.00     0.027 A 
ATOM      5  C5  DEN d   1       2.049  -3.408   4.773  0.00  0.00    -0.003 A 
ATOM      6  C6  DEN d   1       1.014  -2.719   5.347  0.00  0.00     0.001 A 
ATOM      7  C7  DEN d   1       0.364  -1.748   4.632  0.00  0.00     0.017 A 
ATOM      8  C8  DEN d   1       0.818  -1.457   3.352  0.00  0.00    -0.094 A 
ATOM      9  C9  DEN d   1       1.858  -2.173   2.784  0.00  0.00    -0.072 A 
ENDROOT
TORSDOF 0
ENDMDL
