MODEL 1
REMARK minimizedAffinity 11.3980865
REMARK minimizedRMSD -1
REMARK  0 active torsions:
REMARK  status: ('A' for Active; 'I' for Inactive)
ROOT
ATOM      1  C1  DEN d   1       2.213   1.434   2.286  0.00  0.00     0.130 A 
ATOM      2  C2  DEN d   1       2.651   1.461   0.893  0.00  0.00    -0.031 A 
ATOM      3  C3  DEN d   1       2.434   0.117   0.320  0.00  0.00     0.027 A 
ATOM      4  C4  DEN d   1       1.461  -1.989   1.446  0.00  0.00     0.027 A 
ATOM      5  C5  DEN d   1       0.958  -2.503   2.621  0.00  0.00    -0.003 A 
ATOM      6  C6  DEN d   1       0.871  -1.757   3.766  0.00  0.00     0.001 A 
ATOM      7  C7  DEN d   1       1.251  -0.441   3.750  0.00  0.00     0.017 A 
ATOM      8  C8  DEN d   1       1.765   0.082   2.571  0.00  0.00    -0.094 A 
ATOM      9  C9  DEN d   1       1.834  -0.685   1.420  0.00  0.00    -0.072 A 
ENDROOT
TORSDOF 0
ENDMDL
