MODEL 1
REMARK minimizedAffinity 6.59920979
REMARK minimizedRMSD -1
REMARK  0 active torsions:
REMARK  status: ('A' for Active; 'I' for Inactive)
ROOT
ATOM      1  C1  DEN d   1       1.106   1.841   3.559  0.00  0.00     0.130 A 
ATOM      2  C2  DEN d   1       1.959   2.634   2.678  0.00  0.00    -0.031 A 
ATOM      3  C3  DEN d   1       2.517   1.732   1.650  0.00  0.00     0.027 A 
ATOM      4  C4  DEN d   1       2.141  -0.800   1.337  0.00  0.00     0.027 A 
ATOM      5  C5  DEN d   1       1.507  -1.912   1.845  0.00  0.00    -0.003 A 
ATOM      6  C6  DEN d   1       0.728  -1.858   2.970  0.00  0.00     0.001 A 
ATOM      7  C7  DEN d   1       0.527  -0.658   3.599  0.00  0.00     0.017 A 
ATOM      8  C8  DEN d   1       1.169   0.466   3.097  0.00  0.00    -0.094 A 
ATOM      9  C9  DEN d   1       1.943   0.393   1.951  0.00  0.00    -0.072 A 
ENDROOT
TORSDOF 0
ENDMDL
