MODEL 1
REMARK minimizedAffinity 3.71781611
REMARK minimizedRMSD -1
REMARK  0 active torsions:
REMARK  status: ('A' for Active; 'I' for Inactive)
ROOT
ATOM      1  C1  DEN d   1      -4.136  -2.586  -3.610  0.00  0.00     0.130 A 
ATOM      2  C2  DEN d   1      -5.099  -1.563  -4.009  0.00  0.00    -0.031 A 
ATOM      3  C3  DEN d   1      -5.999  -2.152  -5.021  0.00  0.00     0.027 A 
ATOM      4  C4  DEN d   1      -5.999  -4.538  -6.000  0.00  0.00     0.027 A 
ATOM      5  C5  DEN d   1      -5.364  -5.760  -5.978  0.00  0.00    -0.003 A 
ATOM      6  C6  DEN d   1      -4.264  -5.998  -5.197  0.00  0.00     0.001 A 
ATOM      7  C7  DEN d   1      -3.792  -5.012  -4.371  0.00  0.00     0.017 A 
ATOM      8  C8  DEN d   1      -4.422  -3.775  -4.393  0.00  0.00    -0.094 A 
ATOM      9  C9  DEN d   1      -5.540  -3.558  -5.180  0.00  0.00    -0.072 A 
ENDROOT
TORSDOF 0
ENDMDL
