MODEL 1
REMARK minimizedAffinity 12.8524971
REMARK minimizedRMSD -1
REMARK  0 active torsions:
REMARK  status: ('A' for Active; 'I' for Inactive)
ROOT
ATOM      1  C1  DEN d   1      -3.832  -2.484  -4.014  0.00  0.00     0.130 A 
ATOM      2  C2  DEN d   1      -4.921  -1.566  -4.336  0.00  0.00    -0.031 A 
ATOM      3  C3  DEN d   1      -5.896  -2.290  -5.175  0.00  0.00     0.027 A 
ATOM      4  C4  DEN d   1      -5.829  -4.733  -6.000  0.00  0.00     0.027 A 
ATOM      5  C5  DEN d   1      -5.098  -5.900  -5.993  0.00  0.00    -0.003 A 
ATOM      6  C6  DEN d   1      -3.888  -6.000  -5.361  0.00  0.00     0.001 A 
ATOM      7  C7  DEN d   1      -3.393  -4.926  -4.669  0.00  0.00     0.017 A 
ATOM      8  C8  DEN d   1      -4.120  -3.743  -4.677  0.00  0.00    -0.094 A 
ATOM      9  C9  DEN d   1      -5.348  -3.666  -5.313  0.00  0.00    -0.072 A 
ENDROOT
TORSDOF 0
ENDMDL
