MODEL 1
REMARK minimizedAffinity -4.80934858
REMARK minimizedRMSD -1
REMARK  0 active torsions:
REMARK  status: ('A' for Active; 'I' for Inactive)
ROOT
ATOM      1  O1  BZF d   1       1.028   0.869  -0.823  0.00  0.00    -0.204 OA
ATOM      2  C2  BZF d   1       0.012   0.507  -1.687  0.00  0.00     0.174 A 
ATOM      3  C3  BZF d   1      -0.844  -0.346  -1.088  0.00  0.00    -0.012 A 
ATOM      4  C3A BZF d   1      -0.384  -0.455   0.262  0.00  0.00    -0.107 A 
ATOM      5  C4  BZF d   1      -0.830  -1.144   1.353  0.00  0.00     0.055 A 
ATOM      6  C5  BZF d   1      -0.111  -1.094   2.505  0.00  0.00    -0.016 A 
ATOM      7  C6  BZF d   1       1.060  -0.370   2.600  0.00  0.00     0.022 A 
ATOM      8  C7  BZF d   1       1.540   0.334   1.546  0.00  0.00     0.029 A 
ATOM      9  C7A BZF d   1       0.798   0.312   0.390  0.00  0.00     0.058 A 
ENDROOT
TORSDOF 0
ENDMDL
