MODEL 1
REMARK minimizedAffinity -6.61337423
REMARK minimizedRMSD -1
REMARK  0 active torsions:
REMARK  status: ('A' for Active; 'I' for Inactive)
ROOT
ATOM      1  O1  BZF d   1      -4.762   2.010  -4.145  0.00  0.00    -0.204 OA
ATOM      2  C2  BZF d   1      -4.104   2.688  -3.137  0.00  0.00     0.174 A 
ATOM      3  C3  BZF d   1      -3.252   1.869  -2.486  0.00  0.00    -0.012 A 
ATOM      4  C3A BZF d   1      -3.318   0.624  -3.187  0.00  0.00    -0.107 A 
ATOM      5  C4  BZF d   1      -2.689  -0.578  -3.027  0.00  0.00     0.055 A 
ATOM      6  C5  BZF d   1      -3.032  -1.615  -3.835  0.00  0.00    -0.016 A 
ATOM      7  C6  BZF d   1      -4.001  -1.488  -4.809  0.00  0.00     0.022 A 
ATOM      8  C7  BZF d   1      -4.649  -0.315  -5.008  0.00  0.00     0.029 A 
ATOM      9  C7A BZF d   1      -4.282   0.745  -4.215  0.00  0.00     0.058 A 
ENDROOT
TORSDOF 0
ENDMDL
