MODEL 1
REMARK minimizedAffinity 0.534072101
REMARK minimizedRMSD -1
REMARK  0 active torsions:
REMARK  status: ('A' for Active; 'I' for Inactive)
ROOT
ATOM      1  O1  BZF d   1       3.389  -4.812   2.533  0.00  0.00    -0.204 OA
ATOM      2  C2  BZF d   1       3.115  -3.526   2.109  0.00  0.00     0.174 A 
ATOM      3  C3  BZF d   1       3.534  -2.623   3.018  0.00  0.00    -0.012 A 
ATOM      4  C3A BZF d   1       4.189  -3.388   4.035  0.00  0.00    -0.107 A 
ATOM      5  C4  BZF d   1       4.827  -3.056   5.195  0.00  0.00     0.055 A 
ATOM      6  C5  BZF d   1       5.294  -4.047   5.999  0.00  0.00    -0.016 A 
ATOM      7  C6  BZF d   1       5.135  -5.379   5.677  0.00  0.00     0.022 A 
ATOM      8  C7  BZF d   1       4.513  -5.757   4.534  0.00  0.00     0.029 A 
ATOM      9  C7A BZF d   1       4.070  -4.758   3.703  0.00  0.00     0.058 A 
ENDROOT
TORSDOF 0
ENDMDL
