MODEL 1
REMARK minimizedAffinity 4.68123055
REMARK minimizedRMSD -1
REMARK  0 active torsions:
REMARK  status: ('A' for Active; 'I' for Inactive)
ROOT
ATOM      1  O1  BZF d   1      -5.309  -1.259  -2.986  0.00  0.00    -0.204 OA
ATOM      2  C2  BZF d   1      -4.112  -1.752  -2.504  0.00  0.00     0.174 A 
ATOM      3  C3  BZF d   1      -3.071  -1.237  -3.189  0.00  0.00    -0.012 A 
ATOM      4  C3A BZF d   1      -3.648  -0.297  -4.100  0.00  0.00    -0.107 A 
ATOM      5  C4  BZF d   1      -3.123   0.546  -5.037  0.00  0.00     0.055 A 
ATOM      6  C5  BZF d   1      -3.965   1.280  -5.811  0.00  0.00    -0.016 A 
ATOM      7  C6  BZF d   1      -5.335   1.193  -5.677  0.00  0.00     0.022 A 
ATOM      8  C7  BZF d   1      -5.903   0.375  -4.758  0.00  0.00     0.029 A 
ATOM      9  C7A BZF d   1      -5.054  -0.344  -3.952  0.00  0.00     0.058 A 
ENDROOT
TORSDOF 0
ENDMDL
