MODEL 1
REMARK minimizedAffinity 3.98994231
REMARK minimizedRMSD -1
REMARK  0 active torsions:
REMARK  status: ('A' for Active; 'I' for Inactive)
ROOT
ATOM      1  O1  BZF d   1      -3.126   1.478  -5.749  0.00  0.00    -0.204 OA
ATOM      2  C2  BZF d   1      -3.815   2.527  -5.171  0.00  0.00     0.174 A 
ATOM      3  C3  BZF d   1      -4.516   2.106  -4.099  0.00  0.00    -0.012 A 
ATOM      4  C3A BZF d   1      -4.175   0.725  -3.944  0.00  0.00    -0.107 A 
ATOM      5  C4  BZF d   1      -4.538  -0.237  -3.046  0.00  0.00     0.055 A 
ATOM      6  C5  BZF d   1      -4.084  -1.506  -3.217  0.00  0.00    -0.016 A 
ATOM      7  C6  BZF d   1      -3.270  -1.849  -4.277  0.00  0.00     0.022 A 
ATOM      8  C7  BZF d   1      -2.878  -0.928  -5.191  0.00  0.00     0.029 A 
ATOM      9  C7A BZF d   1      -3.309   0.362  -5.002  0.00  0.00     0.058 A 
ENDROOT
TORSDOF 0
ENDMDL
