MODEL 1
REMARK minimizedAffinity -0.720180154
REMARK minimizedRMSD -1
REMARK  0 active torsions:
REMARK  status: ('A' for Active; 'I' for Inactive)
ROOT
ATOM      1  O1  BZF d   1       2.040   5.914   5.986  0.00  0.00    -0.204 OA
ATOM      2  C2  BZF d   1       0.880   5.912   5.237  0.00  0.00     0.174 A 
ATOM      3  C3  BZF d   1       1.161   5.990   3.920  0.00  0.00    -0.012 A 
ATOM      4  C3A BZF d   1       2.589   5.951   3.837  0.00  0.00    -0.107 A 
ATOM      5  C4  BZF d   1       3.469   5.978   2.794  0.00  0.00     0.055 A 
ATOM      6  C5  BZF d   1       4.803   5.999   3.055  0.00  0.00    -0.016 A 
ATOM      7  C6  BZF d   1       5.289   5.999   4.346  0.00  0.00     0.022 A 
ATOM      8  C7  BZF d   1       4.455   5.968   5.413  0.00  0.00     0.029 A 
ATOM      9  C7A BZF d   1       3.107   5.914   5.152  0.00  0.00     0.058 A 
ENDROOT
TORSDOF 0
ENDMDL
