MODEL 1
REMARK minimizedAffinity -3.52755857
REMARK minimizedRMSD -1
REMARK  3 active torsions:
REMARK  status: ('A' for Active; 'I' for Inactive)
REMARK    1  A    between atoms: C3'_2  and  C2'_3 
REMARK    2  A    between atoms: C2'_3  and  C1'_4 
REMARK    3  A    between atoms: C1'_4  and  C1_5 
ROOT
ATOM      1  C1  N4B d   1       0.329  -0.165   0.309  0.00  0.00    -0.075 A 
ATOM      2  C2  N4B d   1       0.201   1.145   0.822  0.00  0.00     0.002 A 
ATOM      3  C3  N4B d   1      -0.866   1.466   1.625  0.00  0.00     0.002 A 
ATOM      4  C4  N4B d   1      -1.823   0.505   1.912  0.00  0.00    -0.004 A 
ATOM      5  C5  N4B d   1      -1.679  -0.765   1.433  0.00  0.00     0.002 A 
ATOM      6  C6  N4B d   1      -0.610  -1.103   0.629  0.00  0.00     0.002 A 
ENDROOT
BRANCH   1   7
ATOM      7  C1' N4B d   1       1.431  -0.541  -0.643  0.00  0.00     0.057 C 
BRANCH   7   8
ATOM      8  C2' N4B d   1       1.534  -2.062  -0.714  0.00  0.00     0.009 C 
BRANCH   8   9
ATOM      9  C3' N4B d   1       0.984  -2.607  -2.021  0.00  0.00     0.004 C 
ATOM     10  C4' N4B d   1       0.307  -3.935  -1.856  0.00  0.00     0.003 C 
ENDBRANCH   8   9
ENDBRANCH   7   8
ENDBRANCH   1   7
TORSDOF 3
ENDMDL
