MODEL 1
REMARK minimizedAffinity -4.21565199
REMARK minimizedRMSD -1
REMARK  3 active torsions:
REMARK  status: ('A' for Active; 'I' for Inactive)
REMARK    1  A    between atoms: C3'_2  and  C2'_3 
REMARK    2  A    between atoms: C2'_3  and  C1'_4 
REMARK    3  A    between atoms: C1'_4  and  C1_5 
ROOT
ATOM      1  C1  N4B d   1       0.792  -1.080  -1.002  0.00  0.00    -0.075 A 
ATOM      2  C2  N4B d   1       1.572  -2.108  -0.429  0.00  0.00     0.002 A 
ATOM      3  C3  N4B d   1       1.743  -3.295  -1.099  0.00  0.00     0.002 A 
ATOM      4  C4  N4B d   1       1.130  -3.482  -2.329  0.00  0.00    -0.004 A 
ATOM      5  C5  N4B d   1       0.399  -2.475  -2.887  0.00  0.00     0.002 A 
ATOM      6  C6  N4B d   1       0.223  -1.275  -2.227  0.00  0.00     0.002 A 
ENDROOT
BRANCH   1   7
ATOM      7  C1' N4B d   1       0.507   0.202  -0.269  0.00  0.00     0.057 C 
BRANCH   7   8
ATOM      8  C2' N4B d   1       0.220  -0.112   1.197  0.00  0.00     0.009 C 
BRANCH   8   9
ATOM      9  C3' N4B d   1      -1.268  -0.261   1.466  0.00  0.00     0.004 C 
ATOM     10  C4' N4B d   1      -1.805  -1.593   1.035  0.00  0.00     0.003 C 
ENDBRANCH   8   9
ENDBRANCH   7   8
ENDBRANCH   1   7
TORSDOF 3
ENDMDL
