MODEL 1
REMARK minimizedAffinity -3.99590111
REMARK minimizedRMSD -1
REMARK  3 active torsions:
REMARK  status: ('A' for Active; 'I' for Inactive)
REMARK    1  A    between atoms: C3'_2  and  C2'_3 
REMARK    2  A    between atoms: C2'_3  and  C1'_4 
REMARK    3  A    between atoms: C1'_4  and  C1_5 
ROOT
ATOM      1  C1  N4B d   1       0.454  -0.245  -0.044  0.00  0.00    -0.075 A 
ATOM      2  C2  N4B d   1       0.068  -1.097   1.014  0.00  0.00     0.002 A 
ATOM      3  C3  N4B d   1      -0.673  -0.603   2.058  0.00  0.00     0.002 A 
ATOM      4  C4  N4B d   1      -1.023   0.739   2.077  0.00  0.00    -0.004 A 
ATOM      5  C5  N4B d   1      -0.668   1.550   1.039  0.00  0.00     0.002 A 
ATOM      6  C6  N4B d   1       0.074   1.066  -0.020  0.00  0.00     0.002 A 
ENDROOT
BRANCH   1   7
ATOM      7  C1' N4B d   1       1.337  -0.720  -1.165  0.00  0.00     0.057 C 
BRANCH   7   8
ATOM      8  C2' N4B d   1       1.364  -2.246  -1.169  0.00  0.00     0.009 C 
BRANCH   8   9
ATOM      9  C3' N4B d   1       0.692  -2.822  -2.403  0.00  0.00     0.004 C 
ATOM     10  C4' N4B d   1      -0.105  -4.058  -2.107  0.00  0.00     0.003 C 
ENDBRANCH   8   9
ENDBRANCH   7   8
ENDBRANCH   1   7
TORSDOF 3
ENDMDL
