MODEL 1
REMARK minimizedAffinity -5.03243732
REMARK minimizedRMSD -1
REMARK  3 active torsions:
REMARK  status: ('A' for Active; 'I' for Inactive)
REMARK    1  A    between atoms: C3'_2  and  C2'_3 
REMARK    2  A    between atoms: C2'_3  and  C1'_4 
REMARK    3  A    between atoms: C1'_4  and  C1_5 
ROOT
ATOM      1  C1  N4B d   1       0.339  -0.149   0.027  0.00  0.00    -0.075 A 
ATOM      2  C2  N4B d   1       0.136   1.063  -0.669  0.00  0.00     0.002 A 
ATOM      3  C3  N4B d   1      -0.498   2.112  -0.049  0.00  0.00     0.002 A 
ATOM      4  C4  N4B d   1      -0.952   1.967   1.253  0.00  0.00    -0.004 A 
ATOM      5  C5  N4B d   1      -0.729   0.802   1.927  0.00  0.00     0.002 A 
ATOM      6  C6  N4B d   1      -0.090  -0.260   1.318  0.00  0.00     0.002 A 
ENDROOT
BRANCH   1   7
ATOM      7  C1' N4B d   1       0.950  -1.353  -0.637  0.00  0.00     0.057 C 
BRANCH   7   8
ATOM      8  C2' N4B d   1      -0.019  -1.894  -1.683  0.00  0.00     0.009 C 
BRANCH   8   9
ATOM      9  C3' N4B d   1       0.535  -3.117  -2.392  0.00  0.00     0.004 C 
ATOM     10  C4' N4B d   1      -0.312  -4.339  -2.190  0.00  0.00     0.003 C 
ENDBRANCH   8   9
ENDBRANCH   7   8
ENDBRANCH   1   7
TORSDOF 3
ENDMDL
