MODEL 1
REMARK minimizedAffinity -4.41188335
REMARK minimizedRMSD -1
REMARK  3 active torsions:
REMARK  status: ('A' for Active; 'I' for Inactive)
REMARK    1  A    between atoms: C3'_2  and  C2'_3 
REMARK    2  A    between atoms: C2'_3  and  C1'_4 
REMARK    3  A    between atoms: C1'_4  and  C1_5 
ROOT
ATOM      1  C1  N4B d   1       0.236  -0.953   0.297  0.00  0.00    -0.075 A 
ATOM      2  C2  N4B d   1      -0.176  -1.645   1.457  0.00  0.00     0.002 A 
ATOM      3  C3  N4B d   1      -0.893  -0.991   2.428  0.00  0.00     0.002 A 
ATOM      4  C4  N4B d   1      -1.192   0.354   2.271  0.00  0.00    -0.004 A 
ATOM      5  C5  N4B d   1      -0.813   1.009   1.136  0.00  0.00     0.002 A 
ATOM      6  C6  N4B d   1      -0.095   0.363   0.150  0.00  0.00     0.002 A 
ENDROOT
BRANCH   1   7
ATOM      7  C1' N4B d   1       1.095  -1.603  -0.753  0.00  0.00     0.057 C 
BRANCH   7   8
ATOM      8  C2' N4B d   1       0.314  -1.684  -2.061  0.00  0.00     0.009 C 
BRANCH   8   9
ATOM      9  C3' N4B d   1      -0.309  -3.054  -2.268  0.00  0.00     0.004 C 
ATOM     10  C4' N4B d   1       0.695  -4.094  -2.666  0.00  0.00     0.003 C 
ENDBRANCH   8   9
ENDBRANCH   7   8
ENDBRANCH   1   7
TORSDOF 3
ENDMDL
