MODEL 1
REMARK minimizedAffinity -3.96197367
REMARK minimizedRMSD -1
REMARK  3 active torsions:
REMARK  status: ('A' for Active; 'I' for Inactive)
REMARK    1  A    between atoms: C3'_2  and  C2'_3 
REMARK    2  A    between atoms: C2'_3  and  C1'_4 
REMARK    3  A    between atoms: C1'_4  and  C1_5 
ROOT
ATOM      1  C1  N4B d   1       0.489  -0.680  -0.063  0.00  0.00    -0.075 A 
ATOM      2  C2  N4B d   1      -0.898  -0.753  -0.320  0.00  0.00     0.002 A 
ATOM      3  C3  N4B d   1      -1.797  -0.505   0.688  0.00  0.00     0.002 A 
ATOM      4  C4  N4B d   1      -1.336  -0.203   1.960  0.00  0.00    -0.004 A 
ATOM      5  C5  N4B d   1       0.005  -0.109   2.194  0.00  0.00     0.002 A 
ATOM      6  C6  N4B d   1       0.920  -0.351   1.189  0.00  0.00     0.002 A 
ENDROOT
BRANCH   1   7
ATOM      7  C1' N4B d   1       1.510  -1.026  -1.112  0.00  0.00     0.057 C 
BRANCH   7   8
ATOM      8  C2' N4B d   1       1.666  -2.542  -1.177  0.00  0.00     0.009 C 
BRANCH   8   9
ATOM      9  C3' N4B d   1       0.828  -3.152  -2.287  0.00  0.00     0.004 C 
ATOM     10  C4' N4B d   1       0.640  -2.224  -3.450  0.00  0.00     0.003 C 
ENDBRANCH   8   9
ENDBRANCH   7   8
ENDBRANCH   1   7
TORSDOF 3
ENDMDL
