MODEL 1
REMARK minimizedAffinity -4.50302076
REMARK minimizedRMSD -1
REMARK  3 active torsions:
REMARK  status: ('A' for Active; 'I' for Inactive)
REMARK    1  A    between atoms: C3'_2  and  C2'_3 
REMARK    2  A    between atoms: C2'_3  and  C1'_4 
REMARK    3  A    between atoms: C1'_4  and  C1_5 
ROOT
ATOM      1  C1  N4B d   1      -0.109   0.315   0.394  0.00  0.00    -0.075 A 
ATOM      2  C2  N4B d   1       0.326   1.377  -0.429  0.00  0.00     0.002 A 
ATOM      3  C3  N4B d   1       0.049   2.675  -0.078  0.00  0.00     0.002 A 
ATOM      4  C4  N4B d   1      -0.674   2.934   1.077  0.00  0.00    -0.004 A 
ATOM      5  C5  N4B d   1      -1.068   1.904   1.880  0.00  0.00     0.002 A 
ATOM      6  C6  N4B d   1      -0.793   0.594   1.541  0.00  0.00     0.002 A 
ENDROOT
BRANCH   1   7
ATOM      7  C1' N4B d   1       0.095  -1.125   0.007  0.00  0.00     0.057 C 
BRANCH   7   8
ATOM      8  C2' N4B d   1       1.330  -1.234  -0.883  0.00  0.00     0.009 C 
BRANCH   8   9
ATOM      9  C3' N4B d   1       1.429  -2.593  -1.553  0.00  0.00     0.004 C 
ATOM     10  C4' N4B d   1       0.110  -3.081  -2.075  0.00  0.00     0.003 C 
ENDBRANCH   8   9
ENDBRANCH   7   8
ENDBRANCH   1   7
TORSDOF 3
ENDMDL
