MODEL 1
REMARK minimizedAffinity -4.62352943
REMARK minimizedRMSD -1
REMARK  3 active torsions:
REMARK  status: ('A' for Active; 'I' for Inactive)
REMARK    1  A    between atoms: C3'_2  and  C2'_3 
REMARK    2  A    between atoms: C2'_3  and  C1'_4 
REMARK    3  A    between atoms: C1'_4  and  C1_5 
ROOT
ATOM      1  C1  N4B d   1       0.795  -1.415  -1.244  0.00  0.00    -0.075 A 
ATOM      2  C2  N4B d   1       0.772  -2.741  -0.758  0.00  0.00     0.002 A 
ATOM      3  C3  N4B d   1       0.718  -3.794  -1.639  0.00  0.00     0.002 A 
ATOM      4  C4  N4B d   1       0.667  -3.545  -3.003  0.00  0.00    -0.004 A 
ATOM      5  C5  N4B d   1       0.715  -2.262  -3.464  0.00  0.00     0.002 A 
ATOM      6  C6  N4B d   1       0.773  -1.195  -2.590  0.00  0.00     0.002 A 
ENDROOT
BRANCH   1   7
ATOM      7  C1' N4B d   1       0.767  -0.230  -0.318  0.00  0.00     0.057 C 
BRANCH   7   8
ATOM      8  C2' N4B d   1       0.311  -0.686   1.065  0.00  0.00     0.009 C 
BRANCH   8   9
ATOM      9  C3' N4B d   1      -1.048  -0.113   1.433  0.00  0.00     0.004 C 
ATOM     10  C4' N4B d   1      -0.959   1.268   2.009  0.00  0.00     0.003 C 
ENDBRANCH   8   9
ENDBRANCH   7   8
ENDBRANCH   1   7
TORSDOF 3
ENDMDL
