MODEL 1
REMARK minimizedAffinity -4.73964787
REMARK minimizedRMSD -1
REMARK  3 active torsions:
REMARK  status: ('A' for Active; 'I' for Inactive)
REMARK    1  A    between atoms: C3'_2  and  C2'_3 
REMARK    2  A    between atoms: C2'_3  and  C1'_4 
REMARK    3  A    between atoms: C1'_4  and  C1_5 
ROOT
ATOM      1  C1  N4B d   1       0.230   0.391   0.241  0.00  0.00    -0.075 A 
ATOM      2  C2  N4B d   1       0.449   1.544  -0.545  0.00  0.00     0.002 A 
ATOM      3  C3  N4B d   1      -0.045   2.758  -0.136  0.00  0.00     0.002 A 
ATOM      4  C4  N4B d   1      -0.775   2.840   1.040  0.00  0.00    -0.004 A 
ATOM      5  C5  N4B d   1      -0.961   1.727   1.807  0.00  0.00     0.002 A 
ATOM      6  C6  N4B d   1      -0.466   0.501   1.410  0.00  0.00     0.002 A 
ENDROOT
BRANCH   1   7
ATOM      7  C1' N4B d   1       0.678  -0.973  -0.207  0.00  0.00     0.057 C 
BRANCH   7   8
ATOM      8  C2' N4B d   1      -0.431  -1.617  -1.034  0.00  0.00     0.009 C 
BRANCH   8   9
ATOM      9  C3' N4B d   1       0.045  -1.997  -2.426  0.00  0.00     0.004 C 
ATOM     10  C4' N4B d   1       0.089  -3.480  -2.640  0.00  0.00     0.003 C 
ENDBRANCH   8   9
ENDBRANCH   7   8
ENDBRANCH   1   7
TORSDOF 3
ENDMDL
