MODEL 1
REMARK minimizedAffinity -1.64526784
REMARK minimizedRMSD -1
REMARK  0 active torsions:
REMARK  status: ('A' for Active; 'I' for Inactive)
ROOT
ATOM      1  C   UNL d   1       0.355  -0.551   2.454  0.00  0.00     0.023 A 
ATOM      2  C1  UNL d   1      -0.954  -0.665   1.986  0.00  0.00     0.003 A 
ATOM      3  C2  UNL d   1      -1.302  -0.129   0.745  0.00  0.00     0.048 A 
ATOM      4  C3  UNL d   1      -0.336   0.520  -0.024  0.00  0.00     0.023 A 
ATOM      5  C4  UNL d   1       0.975   0.635   0.440  0.00  0.00     0.048 A 
ATOM      6  C5  UNL d   1       1.318   0.098   1.682  0.00  0.00     0.003 A 
ATOM      7  I   UNL d   1      -0.852   1.319  -1.872  0.00  0.00    -0.146 I 
ENDROOT
TORSDOF 0
ENDMDL
