MODEL 1
REMARK minimizedAffinity -1.37411749
REMARK minimizedRMSD -1
REMARK  0 active torsions:
REMARK  status: ('A' for Active; 'I' for Inactive)
ROOT
ATOM      1  C   UNL d   1      -0.686  -0.281  -1.679  0.00  0.00     0.023 A 
ATOM      2  C1  UNL d   1       0.697  -0.469  -1.665  0.00  0.00     0.003 A 
ATOM      3  C2  UNL d   1       1.381  -0.533  -0.449  0.00  0.00     0.048 A 
ATOM      4  C3  UNL d   1       0.677  -0.409   0.748  0.00  0.00     0.023 A 
ATOM      5  C4  UNL d   1      -0.706  -0.222   0.739  0.00  0.00     0.048 A 
ATOM      6  C5  UNL d   1      -1.386  -0.158  -0.479  0.00  0.00     0.003 A 
ATOM      7  I   UNL d   1       1.694  -0.503   2.558  0.00  0.00    -0.146 I 
ENDROOT
TORSDOF 0
ENDMDL
