MODEL 1
REMARK minimizedAffinity 0.304519087
REMARK minimizedRMSD -1
REMARK  0 active torsions:
REMARK  status: ('A' for Active; 'I' for Inactive)
ROOT
ATOM      1  C   UNL d   1      -0.188  -0.403  -2.035  0.00  0.00     0.023 A 
ATOM      2  C1  UNL d   1      -0.961  -0.023  -0.938  0.00  0.00     0.003 A 
ATOM      3  C2  UNL d   1      -0.412  -0.042   0.345  0.00  0.00     0.048 A 
ATOM      4  C3  UNL d   1       0.911  -0.443   0.525  0.00  0.00     0.023 A 
ATOM      5  C4  UNL d   1       1.689  -0.824  -0.570  0.00  0.00     0.048 A 
ATOM      6  C5  UNL d   1       1.136  -0.803  -1.851  0.00  0.00     0.003 A 
ATOM      7  I   UNL d   1       1.731  -0.473   2.435  0.00  0.00    -0.146 I 
ENDROOT
TORSDOF 0
ENDMDL
