MODEL 1
REMARK minimizedAffinity -3.03518414
REMARK minimizedRMSD -1
REMARK  0 active torsions:
REMARK  status: ('A' for Active; 'I' for Inactive)
ROOT
ATOM      1  C   UNL d   1       0.595  -0.986   2.655  0.00  0.00     0.023 A 
ATOM      2  C1  UNL d   1      -0.734  -0.844   2.255  0.00  0.00     0.003 A 
ATOM      3  C2  UNL d   1      -1.035  -0.261   1.022  0.00  0.00     0.048 A 
ATOM      4  C3  UNL d   1      -0.002   0.176   0.193  0.00  0.00     0.023 A 
ATOM      5  C4  UNL d   1       1.329   0.035   0.589  0.00  0.00     0.048 A 
ATOM      6  C5  UNL d   1       1.625  -0.548   1.823  0.00  0.00     0.003 A 
ATOM      7  I   UNL d   1      -0.447   1.043  -1.643  0.00  0.00    -0.146 I 
ENDROOT
TORSDOF 0
ENDMDL
