MODEL 1
REMARK minimizedAffinity -3.00336981
REMARK minimizedRMSD -1
REMARK  0 active torsions:
REMARK  status: ('A' for Active; 'I' for Inactive)
ROOT
ATOM      1  C   UNL d   1       0.023  -0.876  -1.850  0.00  0.00     0.023 A 
ATOM      2  C1  UNL d   1       1.223  -1.485  -1.484  0.00  0.00     0.003 A 
ATOM      3  C2  UNL d   1       1.698  -1.366  -0.176  0.00  0.00     0.048 A 
ATOM      4  C3  UNL d   1       0.967  -0.637   0.761  0.00  0.00     0.023 A 
ATOM      5  C4  UNL d   1      -0.235  -0.026   0.400  0.00  0.00     0.048 A 
ATOM      6  C5  UNL d   1      -0.705  -0.147  -0.909  0.00  0.00     0.003 A 
ATOM      7  I   UNL d   1       1.672  -0.458   2.708  0.00  0.00    -0.146 I 
ENDROOT
TORSDOF 0
ENDMDL
