MODEL 1
REMARK minimizedAffinity -2.87750959
REMARK minimizedRMSD -1
REMARK  0 active torsions:
REMARK  status: ('A' for Active; 'I' for Inactive)
ROOT
ATOM      1  C   UNL d   1       0.725  -1.299   2.692  0.00  0.00     0.023 A 
ATOM      2  C1  UNL d   1      -0.589  -1.410   2.236  0.00  0.00     0.003 A 
ATOM      3  C2  UNL d   1      -0.959  -0.829   1.021  0.00  0.00     0.048 A 
ATOM      4  C3  UNL d   1      -0.011  -0.139   0.267  0.00  0.00     0.023 A 
ATOM      5  C4  UNL d   1       1.305  -0.026   0.719  0.00  0.00     0.048 A 
ATOM      6  C5  UNL d   1       1.670  -0.608   1.934  0.00  0.00     0.003 A 
ATOM      7  I   UNL d   1      -0.560   0.727  -1.541  0.00  0.00    -0.146 I 
ENDROOT
TORSDOF 0
ENDMDL
