MODEL 1
REMARK minimizedAffinity -1.89688063
REMARK minimizedRMSD -1
REMARK  0 active torsions:
REMARK  status: ('A' for Active; 'I' for Inactive)
ROOT
ATOM      1  C   UNL d   1      -0.084   0.199   2.774  0.00  0.00     0.020 A 
ATOM      2  C1  UNL d   1       1.115   0.072   2.073  0.00  0.00     0.020 A 
ATOM      3  C2  UNL d   1       1.119   0.142   0.678  0.00  0.00     0.034 A 
ATOM      4  C3  UNL d   1      -0.077   0.339  -0.020  0.00  0.00     0.017 A 
ATOM      5  C4  UNL d   1      -1.280   0.466   0.684  0.00  0.00     0.017 A 
ATOM      6  C5  UNL d   1      -1.279   0.396   2.081  0.00  0.00     0.034 A 
ATOM      7 Cl   UNL d   1      -2.796   0.712  -0.108  0.00  0.00    -0.070 Cl
ATOM      8 Cl1  UNL d   1       0.002   0.416  -1.745  0.00  0.00    -0.070 Cl
ENDROOT
TORSDOF 0
ENDMDL
