MODEL 1
REMARK minimizedAffinity -4.0361743
REMARK minimizedRMSD -1
REMARK  0 active torsions:
REMARK  status: ('A' for Active; 'I' for Inactive)
ROOT
ATOM      1  C   UNL d   1       0.673  -0.411   2.360  0.00  0.00     0.020 A 
ATOM      2  C1  UNL d   1      -0.568  -0.627   2.960  0.00  0.00     0.020 A 
ATOM      3  C2  UNL d   1      -1.738  -0.504   2.208  0.00  0.00     0.034 A 
ATOM      4  C3  UNL d   1      -1.670  -0.165   0.852  0.00  0.00     0.017 A 
ATOM      5  C4  UNL d   1      -0.425   0.051   0.251  0.00  0.00     0.017 A 
ATOM      6  C5  UNL d   1       0.743  -0.073   1.009  0.00  0.00     0.034 A 
ATOM      7 Cl   UNL d   1      -0.262   0.473  -1.418  0.00  0.00    -0.070 Cl
ATOM      8 Cl1  UNL d   1      -3.157  -0.031  -0.018  0.00  0.00    -0.070 Cl
ENDROOT
TORSDOF 0
ENDMDL
