MODEL 1
REMARK minimizedAffinity -3.67723703
REMARK minimizedRMSD -1
REMARK  0 active torsions:
REMARK  status: ('A' for Active; 'I' for Inactive)
ROOT
ATOM      1  C   UNL d   1      -0.207  -0.285   3.116  0.00  0.00     0.020 A 
ATOM      2  C1  UNL d   1      -1.465  -0.118   3.692  0.00  0.00     0.020 A 
ATOM      3  C2  UNL d   1      -2.556   0.239   2.896  0.00  0.00     0.034 A 
ATOM      4  C3  UNL d   1      -2.390   0.429   1.519  0.00  0.00     0.017 A 
ATOM      5  C4  UNL d   1      -1.126   0.261   0.942  0.00  0.00     0.017 A 
ATOM      6  C5  UNL d   1      -0.037  -0.096   1.744  0.00  0.00     0.034 A 
ATOM      7 Cl   UNL d   1      -0.843   0.478  -0.749  0.00  0.00    -0.070 Cl
ATOM      8 Cl1  UNL d   1      -3.782   0.868   0.595  0.00  0.00    -0.070 Cl
ENDROOT
TORSDOF 0
ENDMDL
