MODEL 1
REMARK minimizedAffinity -3.10923147
REMARK minimizedRMSD -1
REMARK  0 active torsions:
REMARK  status: ('A' for Active; 'I' for Inactive)
ROOT
ATOM      1  C   UNL d   1       1.225   0.170   2.335  0.00  0.00     0.020 A 
ATOM      2  C1  UNL d   1       1.989   0.410   1.193  0.00  0.00     0.020 A 
ATOM      3  C2  UNL d   1       1.365   0.789   0.002  0.00  0.00     0.034 A 
ATOM      4  C3  UNL d   1      -0.026   0.929  -0.050  0.00  0.00     0.017 A 
ATOM      5  C4  UNL d   1      -0.792   0.688   1.097  0.00  0.00     0.017 A 
ATOM      6  C5  UNL d   1      -0.163   0.309   2.286  0.00  0.00     0.034 A 
ATOM      7 Cl   UNL d   1      -2.514   0.841   1.110  0.00  0.00    -0.070 Cl
ATOM      8 Cl1  UNL d   1      -0.730   1.401  -1.555  0.00  0.00    -0.070 Cl
ENDROOT
TORSDOF 0
ENDMDL
