MODEL 1
REMARK minimizedAffinity -2.35214734
REMARK minimizedRMSD -1
REMARK  0 active torsions:
REMARK  status: ('A' for Active; 'I' for Inactive)
ROOT
ATOM      1  C   UNL d   1       0.651   0.434  -1.726  0.00  0.00     0.020 A 
ATOM      2  C1  UNL d   1       1.652   0.664  -0.784  0.00  0.00     0.020 A 
ATOM      3  C2  UNL d   1       1.321   0.817   0.564  0.00  0.00     0.034 A 
ATOM      4  C3  UNL d   1      -0.015   0.740   0.973  0.00  0.00     0.017 A 
ATOM      5  C4  UNL d   1      -1.020   0.509   0.026  0.00  0.00     0.017 A 
ATOM      6  C5  UNL d   1      -0.682   0.356  -1.322  0.00  0.00     0.034 A 
ATOM      7 Cl   UNL d   1      -2.691   0.401   0.455  0.00  0.00    -0.070 Cl
ATOM      8 Cl1  UNL d   1      -0.353   0.939   2.656  0.00  0.00    -0.070 Cl
ENDROOT
TORSDOF 0
ENDMDL
