MODEL 1
REMARK minimizedAffinity -4.00895786
REMARK minimizedRMSD -1
REMARK  0 active torsions:
REMARK  status: ('A' for Active; 'I' for Inactive)
ROOT
ATOM      1  C   UNL d   1      -1.722   0.024   3.639  0.00  0.00     0.020 A 
ATOM      2  C1  UNL d   1      -2.906   0.589   3.165  0.00  0.00     0.020 A 
ATOM      3  C2  UNL d   1      -3.016   0.955   1.822  0.00  0.00     0.034 A 
ATOM      4  C3  UNL d   1      -1.941   0.756   0.948  0.00  0.00     0.017 A 
ATOM      5  C4  UNL d   1      -0.753   0.189   1.424  0.00  0.00     0.017 A 
ATOM      6  C5  UNL d   1      -0.649  -0.175   2.770  0.00  0.00     0.034 A 
ATOM      7 Cl   UNL d   1       0.616  -0.086   0.406  0.00  0.00    -0.070 Cl
ATOM      8 Cl1  UNL d   1      -2.147   1.232  -0.700  0.00  0.00    -0.070 Cl
ENDROOT
TORSDOF 0
ENDMDL
