MODEL 1
REMARK minimizedAffinity -0.536967635
REMARK minimizedRMSD -1
REMARK  0 active torsions:
REMARK  status: ('A' for Active; 'I' for Inactive)
ROOT
ATOM      1  C   UNL d   1       0.878   0.239   2.593  0.00  0.00     0.020 A 
ATOM      2  C1  UNL d   1       1.828   0.251   1.572  0.00  0.00     0.020 A 
ATOM      3  C2  UNL d   1       1.421   0.372   0.242  0.00  0.00     0.034 A 
ATOM      4  C3  UNL d   1       0.061   0.482  -0.072  0.00  0.00     0.017 A 
ATOM      5  C4  UNL d   1      -0.891   0.470   0.954  0.00  0.00     0.017 A 
ATOM      6  C5  UNL d   1      -0.478   0.349   2.284  0.00  0.00     0.034 A 
ATOM      7 Cl   UNL d   1      -2.587   0.601   0.645  0.00  0.00    -0.070 Cl
ATOM      8 Cl1  UNL d   1      -0.370   0.628  -1.738  0.00  0.00    -0.070 Cl
ENDROOT
TORSDOF 0
ENDMDL
