MODEL 1
REMARK minimizedAffinity -3.28507781
REMARK minimizedRMSD -1
REMARK  0 active torsions:
REMARK  status: ('A' for Active; 'I' for Inactive)
ROOT
ATOM      1  C   UNL d   1       0.531   0.572  -1.429  0.00  0.00     0.020 A 
ATOM      2  C1  UNL d   1       1.560   0.481  -0.492  0.00  0.00     0.020 A 
ATOM      3  C2  UNL d   1       1.260   0.432   0.871  0.00  0.00     0.034 A 
ATOM      4  C3  UNL d   1      -0.072   0.473   1.301  0.00  0.00     0.017 A 
ATOM      5  C4  UNL d   1      -1.103   0.564   0.359  0.00  0.00     0.017 A 
ATOM      6  C5  UNL d   1      -0.797   0.613  -1.004  0.00  0.00     0.034 A 
ATOM      7 Cl   UNL d   1      -2.770   0.619   0.813  0.00  0.00    -0.070 Cl
ATOM      8 Cl1  UNL d   1      -0.369   0.407   3.001  0.00  0.00    -0.070 Cl
ENDROOT
TORSDOF 0
ENDMDL
