MODEL 1
REMARK minimizedAffinity -1.15005004
REMARK minimizedRMSD -1
REMARK  0 active torsions:
REMARK  status: ('A' for Active; 'I' for Inactive)
ROOT
ATOM      1  C   UNL d   1       1.786   0.440   0.916  0.00  0.00     0.020 A 
ATOM      2  C1  UNL d   1       1.203   0.504  -0.349  0.00  0.00     0.020 A 
ATOM      3  C2  UNL d   1      -0.186   0.453  -0.482  0.00  0.00     0.034 A 
ATOM      4  C3  UNL d   1      -0.997   0.337   0.653  0.00  0.00     0.017 A 
ATOM      5  C4  UNL d   1      -0.412   0.272   1.922  0.00  0.00     0.017 A 
ATOM      6  C5  UNL d   1       0.980   0.324   2.049  0.00  0.00     0.034 A 
ATOM      7 Cl   UNL d   1      -1.347   0.128   3.368  0.00  0.00    -0.070 Cl
ATOM      8 Cl1  UNL d   1      -2.708   0.280   0.415  0.00  0.00    -0.070 Cl
ENDROOT
TORSDOF 0
ENDMDL
