MODEL 1
REMARK minimizedAffinity -3.3392849
REMARK minimizedRMSD -1
REMARK  0 active torsions:
REMARK  status: ('A' for Active; 'I' for Inactive)
ROOT
ATOM      1  C   UNL d   1      -1.787  -1.128   0.460  0.00  0.00     0.020 A 
ATOM      2  C1  UNL d   1      -2.139  -1.042   1.807  0.00  0.00     0.020 A 
ATOM      3  C2  UNL d   1      -1.302  -0.379   2.706  0.00  0.00     0.034 A 
ATOM      4  C3  UNL d   1      -0.108   0.200   2.261  0.00  0.00     0.017 A 
ATOM      5  C4  UNL d   1       0.245   0.112   0.909  0.00  0.00     0.017 A 
ATOM      6  C5  UNL d   1      -0.597  -0.553   0.013  0.00  0.00     0.034 A 
ATOM      7 Cl   UNL d   1       1.702   0.801   0.285  0.00  0.00    -0.070 Cl
ATOM      8 Cl1  UNL d   1       0.880   1.004   3.428  0.00  0.00    -0.070 Cl
ENDROOT
TORSDOF 0
ENDMDL
