MODEL 1
REMARK minimizedAffinity -1.41973913
REMARK minimizedRMSD -1
REMARK  0 active torsions:
REMARK  status: ('A' for Active; 'I' for Inactive)
ROOT
ATOM      1  C   UNL d   1      -1.103  -2.621   1.254  0.00  0.00     0.020 A 
ATOM      2  C1  UNL d   1      -0.389  -2.420   0.074  0.00  0.00     0.020 A 
ATOM      3  C2  UNL d   1       0.333  -1.238  -0.112  0.00  0.00     0.034 A 
ATOM      4  C3  UNL d   1       0.341  -0.254   0.883  0.00  0.00     0.017 A 
ATOM      5  C4  UNL d   1      -0.377  -0.457   2.067  0.00  0.00     0.017 A 
ATOM      6  C5  UNL d   1      -1.098  -1.642   2.249  0.00  0.00     0.034 A 
ATOM      7 Cl   UNL d   1      -0.415   0.711   3.341  0.00  0.00    -0.070 Cl
ATOM      8 Cl1  UNL d   1       1.255   1.182   0.586  0.00  0.00    -0.070 Cl
ENDROOT
TORSDOF 0
ENDMDL
