MODEL 1
REMARK minimizedAffinity 1.7807579
REMARK minimizedRMSD -1
REMARK  0 active torsions:
REMARK  status: ('A' for Active; 'I' for Inactive)
ROOT
ATOM      1  C   UNL d   1      -2.016  -0.705   1.156  0.00  0.00     0.020 A 
ATOM      2  C1  UNL d   1      -2.437   0.242   0.224  0.00  0.00     0.020 A 
ATOM      3  C2  UNL d   1      -1.572   0.655  -0.792  0.00  0.00     0.034 A 
ATOM      4  C3  UNL d   1      -0.281   0.121  -0.877  0.00  0.00     0.017 A 
ATOM      5  C4  UNL d   1       0.141  -0.830   0.059  0.00  0.00     0.017 A 
ATOM      6  C5  UNL d   1      -0.730  -1.240   1.074  0.00  0.00     0.034 A 
ATOM      7 Cl   UNL d   1       1.719  -1.535   0.019  0.00  0.00    -0.070 Cl
ATOM      8 Cl1  UNL d   1       0.736   0.676  -2.159  0.00  0.00    -0.070 Cl
ENDROOT
TORSDOF 0
ENDMDL
