MODEL 1
REMARK minimizedAffinity -2.93426728
REMARK minimizedRMSD -1
REMARK  0 active torsions:
REMARK  status: ('A' for Active; 'I' for Inactive)
ROOT
ATOM      1  C   UNL d   1      -1.357   0.601   1.917  0.00  0.00     0.020 A 
ATOM      2  C1  UNL d   1      -1.946   0.617   0.654  0.00  0.00     0.020 A 
ATOM      3  C2  UNL d   1      -1.164   0.411  -0.484  0.00  0.00     0.034 A 
ATOM      4  C3  UNL d   1       0.213   0.190  -0.361  0.00  0.00     0.017 A 
ATOM      5  C4  UNL d   1       0.803   0.174   0.907  0.00  0.00     0.017 A 
ATOM      6  C5  UNL d   1       0.015   0.380   2.044  0.00  0.00     0.034 A 
ATOM      7 Cl   UNL d   1       2.495  -0.094   1.139  0.00  0.00    -0.070 Cl
ATOM      8 Cl1  UNL d   1       1.120  -0.057  -1.811  0.00  0.00    -0.070 Cl
ENDROOT
TORSDOF 0
ENDMDL
