MODEL 1
REMARK minimizedAffinity -2.64896774
REMARK minimizedRMSD -1
REMARK  0 active torsions:
REMARK  status: ('A' for Active; 'I' for Inactive)
ROOT
ATOM      1  C   UNL d   1       1.141  -0.317   2.012  0.00  0.00     0.020 A 
ATOM      2  C1  UNL d   1      -0.005   0.290   2.525  0.00  0.00     0.020 A 
ATOM      3  C2  UNL d   1      -1.062   0.618   1.673  0.00  0.00     0.034 A 
ATOM      4  C3  UNL d   1      -0.976   0.339   0.304  0.00  0.00     0.017 A 
ATOM      5  C4  UNL d   1       0.175  -0.270  -0.209  0.00  0.00     0.017 A 
ATOM      6  C5  UNL d   1       1.230  -0.597   0.648  0.00  0.00     0.034 A 
ATOM      7 Cl   UNL d   1       0.355  -0.646  -1.887  0.00  0.00    -0.070 Cl
ATOM      8 Cl1  UNL d   1      -2.321   0.771  -0.690  0.00  0.00    -0.070 Cl
ENDROOT
TORSDOF 0
ENDMDL
