MODEL 1
REMARK minimizedAffinity -2.03171206
REMARK minimizedRMSD -1
REMARK  0 active torsions:
REMARK  status: ('A' for Active; 'I' for Inactive)
ROOT
ATOM      1  C   UNL d   1       0.724   0.154  -1.598  0.00  0.00     0.020 A 
ATOM      2  C1  UNL d   1       1.760   0.017  -0.675  0.00  0.00     0.020 A 
ATOM      3  C2  UNL d   1       1.476  -0.023   0.692  0.00  0.00     0.034 A 
ATOM      4  C3  UNL d   1       0.153   0.075   1.140  0.00  0.00     0.017 A 
ATOM      5  C4  UNL d   1      -0.886   0.212   0.212  0.00  0.00     0.017 A 
ATOM      6  C5  UNL d   1      -0.596   0.251  -1.155  0.00  0.00     0.034 A 
ATOM      7 Cl   UNL d   1      -2.542   0.338   0.688  0.00  0.00    -0.070 Cl
ATOM      8 Cl1  UNL d   1      -0.124   0.018   2.844  0.00  0.00    -0.070 Cl
ENDROOT
TORSDOF 0
ENDMDL
