MODEL 1
REMARK minimizedAffinity -0.816881299
REMARK minimizedRMSD -1
REMARK  0 active torsions:
REMARK  status: ('A' for Active; 'I' for Inactive)
ROOT
ATOM      1  C   UNL d   1      -1.974   0.430  -0.185  0.00  0.00     0.020 A 
ATOM      2  C1  UNL d   1      -0.902   0.482  -1.076  0.00  0.00     0.020 A 
ATOM      3  C2  UNL d   1       0.407   0.520  -0.592  0.00  0.00     0.034 A 
ATOM      4  C3  UNL d   1       0.649   0.506   0.786  0.00  0.00     0.017 A 
ATOM      5  C4  UNL d   1      -0.427   0.454   1.680  0.00  0.00     0.017 A 
ATOM      6  C5  UNL d   1      -1.736   0.416   1.190  0.00  0.00     0.034 A 
ATOM      7 Cl   UNL d   1      -0.208   0.433   3.394  0.00  0.00    -0.070 Cl
ATOM      8 Cl1  UNL d   1       2.293   0.555   1.314  0.00  0.00    -0.070 Cl
ENDROOT
TORSDOF 0
ENDMDL
