MODEL 1
REMARK minimizedAffinity -1.27849627
REMARK minimizedRMSD -1
REMARK  0 active torsions:
REMARK  status: ('A' for Active; 'I' for Inactive)
ROOT
ATOM      1  C   UNL d   1      -0.439   0.361   2.515  0.00  0.00     0.020 A 
ATOM      2  C1  UNL d   1       0.857   0.012   2.135  0.00  0.00     0.020 A 
ATOM      3  C2  UNL d   1       1.176  -0.118   0.781  0.00  0.00     0.034 A 
ATOM      4  C3  UNL d   1       0.199   0.100  -0.197  0.00  0.00     0.017 A 
ATOM      5  C4  UNL d   1      -1.101   0.451   0.186  0.00  0.00     0.017 A 
ATOM      6  C5  UNL d   1      -1.415   0.580   1.542  0.00  0.00     0.034 A 
ATOM      7 Cl   UNL d   1      -2.360   0.736  -0.963  0.00  0.00    -0.070 Cl
ATOM      8 Cl1  UNL d   1       0.664  -0.078  -1.851  0.00  0.00    -0.070 Cl
ENDROOT
TORSDOF 0
ENDMDL
