MODEL 1
REMARK minimizedAffinity -2.57443357
REMARK minimizedRMSD -1
REMARK  0 active torsions:
REMARK  status: ('A' for Active; 'I' for Inactive)
ROOT
ATOM      1  C   UNL d   1       1.687  -0.189  -0.165  0.00  0.00     0.020 A 
ATOM      2  C1  UNL d   1       0.803  -0.251  -1.242  0.00  0.00     0.020 A 
ATOM      3  C2  UNL d   1      -0.563  -0.046  -1.036  0.00  0.00     0.034 A 
ATOM      4  C3  UNL d   1      -1.049   0.222   0.249  0.00  0.00     0.017 A 
ATOM      5  C4  UNL d   1      -0.161   0.283   1.329  0.00  0.00     0.017 A 
ATOM      6  C5  UNL d   1       1.206   0.077   1.117  0.00  0.00     0.034 A 
ATOM      7 Cl   UNL d   1      -0.685   0.608   2.943  0.00  0.00    -0.070 Cl
ATOM      8 Cl1  UNL d   1      -2.750   0.465   0.430  0.00  0.00    -0.070 Cl
ENDROOT
TORSDOF 0
ENDMDL
