MODEL 1
REMARK minimizedAffinity -3.06292343
REMARK minimizedRMSD -1
REMARK  0 active torsions:
REMARK  status: ('A' for Active; 'I' for Inactive)
ROOT
ATOM      1  C1  BNZ d   1       0.083   0.060   0.642  0.00  0.00     0.000 A 
ATOM      2  C2  BNZ d   1      -0.680  -0.809   1.375  0.00  0.00     0.000 A 
ATOM      3  C3  BNZ d   1      -1.018  -2.036   0.875  0.00  0.00     0.000 A 
ATOM      4  C4  BNZ d   1      -0.627  -2.376  -0.370  0.00  0.00     0.000 A 
ATOM      5  C5  BNZ d   1       0.136  -1.507  -1.124  0.00  0.00     0.000 A 
ATOM      6  C6  BNZ d   1       0.507  -0.289  -0.603  0.00  0.00     0.000 A 
ENDROOT
TORSDOF 0
ENDMDL
