MODEL 1
REMARK minimizedAffinity -4.33909369
REMARK minimizedRMSD -1
REMARK  0 active torsions:
REMARK  status: ('A' for Active; 'I' for Inactive)
ROOT
ATOM      1  C1  BNZ d   1       1.438   1.007   1.829  0.00  0.00     0.000 A 
ATOM      2  C2  BNZ d   1       0.526   0.181   1.229  0.00  0.00     0.000 A 
ATOM      3  C3  BNZ d   1      -0.127   0.568   0.092  0.00  0.00     0.000 A 
ATOM      4  C4  BNZ d   1       0.102   1.794  -0.420  0.00  0.00     0.000 A 
ATOM      5  C5  BNZ d   1       1.012   2.643   0.179  0.00  0.00     0.000 A 
ATOM      6  C6  BNZ d   1       1.696   2.235   1.301  0.00  0.00     0.000 A 
ENDROOT
TORSDOF 0
ENDMDL
