MODEL 1
REMARK minimizedAffinity -2.211725
REMARK minimizedRMSD -1
REMARK  0 active torsions:
REMARK  status: ('A' for Active; 'I' for Inactive)
ROOT
ATOM      1  C1  BNZ d   1       2.359   2.210  -0.014  0.00  0.00     0.000 A 
ATOM      2  C2  BNZ d   1       1.911   0.985  -0.432  0.00  0.00     0.000 A 
ATOM      3  C3  BNZ d   1       0.605   0.621  -0.257  0.00  0.00     0.000 A 
ATOM      4  C4  BNZ d   1      -0.240   1.464   0.372  0.00  0.00     0.000 A 
ATOM      5  C5  BNZ d   1       0.200   2.698   0.807  0.00  0.00     0.000 A 
ATOM      6  C6  BNZ d   1       1.505   3.077   0.594  0.00  0.00     0.000 A 
ENDROOT
TORSDOF 0
ENDMDL
