MODEL 1
REMARK minimizedAffinity -4.36156464
REMARK minimizedRMSD -1
REMARK  0 active torsions:
REMARK  status: ('A' for Active; 'I' for Inactive)
ROOT
ATOM      1  C1  BNZ d   1       1.113  -1.250   0.296  0.00  0.00     0.000 A 
ATOM      2  C2  BNZ d   1       1.052  -2.614   0.410  0.00  0.00     0.000 A 
ATOM      3  C3  BNZ d   1      -0.103  -3.233   0.797  0.00  0.00     0.000 A 
ATOM      4  C4  BNZ d   1      -1.183  -2.488   1.108  0.00  0.00     0.000 A 
ATOM      5  C5  BNZ d   1      -1.135  -1.112   1.006  0.00  0.00     0.000 A 
ATOM      6  C6  BNZ d   1       0.017  -0.494   0.579  0.00  0.00     0.000 A 
ENDROOT
TORSDOF 0
ENDMDL
