MODEL 1
REMARK minimizedAffinity -4.58665943
REMARK minimizedRMSD -1
REMARK  0 active torsions:
REMARK  status: ('A' for Active; 'I' for Inactive)
ROOT
ATOM      1  C1  BNZ d   1      -1.271  -2.556   0.708  0.00  0.00     0.000 A 
ATOM      2  C2  BNZ d   1      -1.464  -1.210   0.872  0.00  0.00     0.000 A 
ATOM      3  C3  BNZ d   1      -0.405  -0.369   1.068  0.00  0.00     0.000 A 
ATOM      4  C4  BNZ d   1       0.842  -0.879   1.140  0.00  0.00     0.000 A 
ATOM      5  C5  BNZ d   1       1.052  -2.235   0.986  0.00  0.00     0.000 A 
ATOM      6  C6  BNZ d   1      -0.013  -3.073   0.750  0.00  0.00     0.000 A 
ENDROOT
TORSDOF 0
ENDMDL
