MODEL 1
REMARK minimizedAffinity -2.72677732
REMARK minimizedRMSD -1
REMARK  0 active torsions:
REMARK  status: ('A' for Active; 'I' for Inactive)
ROOT
ATOM      1  C1  BNZ d   1      -0.214   1.209  -1.087  0.00  0.00     0.000 A 
ATOM      2  C2  BNZ d   1      -0.581  -0.073  -0.773  0.00  0.00     0.000 A 
ATOM      3  C3  BNZ d   1      -0.396  -0.564   0.489  0.00  0.00     0.000 A 
ATOM      4  C4  BNZ d   1       0.192   0.212   1.423  0.00  0.00     0.000 A 
ATOM      5  C5  BNZ d   1       0.576   1.502   1.119  0.00  0.00     0.000 A 
ATOM      6  C6  BNZ d   1       0.352   2.007  -0.142  0.00  0.00     0.000 A 
ENDROOT
TORSDOF 0
ENDMDL
