MODEL 1
REMARK minimizedAffinity -3.08041048
REMARK minimizedRMSD -1
REMARK  0 active torsions:
REMARK  status: ('A' for Active; 'I' for Inactive)
ROOT
ATOM      1  C1  BNZ d   1      -1.039  -1.543   1.169  0.00  0.00     0.000 A 
ATOM      2  C2  BNZ d   1      -1.370  -2.847   0.912  0.00  0.00     0.000 A 
ATOM      3  C3  BNZ d   1      -0.901  -3.482  -0.204  0.00  0.00     0.000 A 
ATOM      4  C4  BNZ d   1      -0.135  -2.801  -1.081  0.00  0.00     0.000 A 
ATOM      5  C5  BNZ d   1       0.199  -1.483  -0.841  0.00  0.00     0.000 A 
ATOM      6  C6  BNZ d   1      -0.243  -0.859   0.303  0.00  0.00     0.000 A 
ENDROOT
TORSDOF 0
ENDMDL
