MODEL 1
REMARK minimizedAffinity -4.49769449
REMARK minimizedRMSD -1
REMARK  0 active torsions:
REMARK  status: ('A' for Active; 'I' for Inactive)
ROOT
ATOM      1  C1  BNZ d   1      -0.353  -2.624   0.245  0.00  0.00     0.000 A 
ATOM      2  C2  BNZ d   1       0.006  -1.308   0.362  0.00  0.00     0.000 A 
ATOM      3  C3  BNZ d   1       0.284  -0.558  -0.746  0.00  0.00     0.000 A 
ATOM      4  C4  BNZ d   1       0.242  -1.134  -1.965  0.00  0.00     0.000 A 
ATOM      5  C5  BNZ d   1      -0.109  -2.462  -2.098  0.00  0.00     0.000 A 
ATOM      6  C6  BNZ d   1      -0.426  -3.204  -0.984  0.00  0.00     0.000 A 
ENDROOT
TORSDOF 0
ENDMDL
