MODEL 1
REMARK minimizedAffinity -3.00961137
REMARK minimizedRMSD -1
REMARK  0 active torsions:
REMARK  status: ('A' for Active; 'I' for Inactive)
ROOT
ATOM      1  C1  BNZ d   1      -0.217  -0.004   0.781  0.00  0.00     0.000 A 
ATOM      2  C2  BNZ d   1       0.033  -1.345   0.658  0.00  0.00     0.000 A 
ATOM      3  C3  BNZ d   1       0.448  -1.873  -0.533  0.00  0.00     0.000 A 
ATOM      4  C4  BNZ d   1       0.574  -1.067  -1.607  0.00  0.00     0.000 A 
ATOM      5  C5  BNZ d   1       0.317   0.285  -1.501  0.00  0.00     0.000 A 
ATOM      6  C6  BNZ d   1      -0.063   0.820  -0.291  0.00  0.00     0.000 A 
ENDROOT
TORSDOF 0
ENDMDL
