MODEL 1
REMARK minimizedAffinity -1.59737754
REMARK minimizedRMSD -1
REMARK  0 active torsions:
REMARK  status: ('A' for Active; 'I' for Inactive)
ROOT
ATOM      1  C1  BNZ d   1      -0.418  -0.973  -0.583  0.00  0.00     0.000 A 
ATOM      2  C2  BNZ d   1      -0.864  -2.123   0.011  0.00  0.00     0.000 A 
ATOM      3  C3  BNZ d   1      -0.812  -2.276   1.369  0.00  0.00     0.000 A 
ATOM      4  C4  BNZ d   1      -0.279  -1.295   2.126  0.00  0.00     0.000 A 
ATOM      5  C5  BNZ d   1       0.183  -0.133   1.541  0.00  0.00     0.000 A 
ATOM      6  C6  BNZ d   1       0.094   0.032   0.178  0.00  0.00     0.000 A 
ENDROOT
TORSDOF 0
ENDMDL
