MODEL 1
REMARK minimizedAffinity -4.21972513
REMARK minimizedRMSD -1
REMARK  0 active torsions:
REMARK  status: ('A' for Active; 'I' for Inactive)
ROOT
ATOM      1  C1  BNZ d   1      -1.086  -0.282   1.238  0.00  0.00     0.000 A 
ATOM      2  C2  BNZ d   1      -1.277  -1.588   0.874  0.00  0.00     0.000 A 
ATOM      3  C3  BNZ d   1      -0.317  -2.268   0.177  0.00  0.00     0.000 A 
ATOM      4  C4  BNZ d   1       0.813  -1.630  -0.189  0.00  0.00     0.000 A 
ATOM      5  C5  BNZ d   1       1.017  -0.311   0.162  0.00  0.00     0.000 A 
ATOM      6  C6  BNZ d   1       0.065   0.359   0.897  0.00  0.00     0.000 A 
ENDROOT
TORSDOF 0
ENDMDL
