MODEL 1
REMARK minimizedAffinity 0.0137998806
REMARK minimizedRMSD -1
REMARK  0 active torsions:
REMARK  status: ('A' for Active; 'I' for Inactive)
ROOT
ATOM      1  C1  BNZ d   1      -0.790  -2.266  -0.262  0.00  0.00     0.000 A 
ATOM      2  C2  BNZ d   1      -0.461  -1.019  -0.720  0.00  0.00     0.000 A 
ATOM      3  C3  BNZ d   1      -0.128  -0.019   0.150  0.00  0.00     0.000 A 
ATOM      4  C4  BNZ d   1      -0.163  -0.256   1.477  0.00  0.00     0.000 A 
ATOM      5  C5  BNZ d   1      -0.502  -1.506   1.955  0.00  0.00     0.000 A 
ATOM      6  C6  BNZ d   1      -0.799  -2.521   1.075  0.00  0.00     0.000 A 
ENDROOT
TORSDOF 0
ENDMDL
