MODEL 1
REMARK minimizedAffinity -3.62459993
REMARK minimizedRMSD -1
REMARK  0 active torsions:
REMARK  status: ('A' for Active; 'I' for Inactive)
ROOT
ATOM      1  C1  BNZ d   1      -1.612  -1.263   0.869  0.00  0.00     0.000 A 
ATOM      2  C2  BNZ d   1      -1.409  -2.585   0.574  0.00  0.00     0.000 A 
ATOM      3  C3  BNZ d   1      -0.145  -3.098   0.494  0.00  0.00     0.000 A 
ATOM      4  C4  BNZ d   1       0.914  -2.282   0.669  0.00  0.00     0.000 A 
ATOM      5  C5  BNZ d   1       0.727  -0.945   0.958  0.00  0.00     0.000 A 
ATOM      6  C6  BNZ d   1      -0.548  -0.440   1.076  0.00  0.00     0.000 A 
ENDROOT
TORSDOF 0
ENDMDL
