MODEL 1
REMARK minimizedAffinity -2.40370321
REMARK minimizedRMSD -1
REMARK  0 active torsions:
REMARK  status: ('A' for Active; 'I' for Inactive)
ROOT
ATOM      1  C   UNL d   1      -0.721   1.721  -2.256  0.00  0.00     0.077 C 
ATOM      2  C1  UNL d   1      -0.326   0.743  -1.190  0.00  0.00    -0.074 A 
ATOM      3  C2  UNL d   1       0.667  -0.214  -1.424  0.00  0.00    -0.005 A 
ATOM      4  C3  UNL d   1       1.030  -1.111  -0.420  0.00  0.00     0.006 A 
ATOM      5  C4  UNL d   1       0.406  -1.061   0.827  0.00  0.00    -0.005 A 
ATOM      6  C5  UNL d   1      -0.588  -0.110   1.080  0.00  0.00    -0.074 A 
ATOM      7  C6  UNL d   1      -1.262  -0.036   2.418  0.00  0.00     0.077 C 
ATOM      8  C7  UNL d   1      -0.943   0.792   0.068  0.00  0.00    -0.001 A 
ENDROOT
TORSDOF 0
ENDMDL
