MODEL 1
REMARK minimizedAffinity -1.00110173
REMARK minimizedRMSD -1
REMARK  0 active torsions:
REMARK  status: ('A' for Active; 'I' for Inactive)
ROOT
ATOM      1  C   UNL d   1      -0.989  -0.322   1.777  0.00  0.00     0.077 C 
ATOM      2  C1  UNL d   1      -0.730   0.180   0.387  0.00  0.00    -0.074 A 
ATOM      3  C2  UNL d   1       0.247  -0.412  -0.420  0.00  0.00    -0.005 A 
ATOM      4  C3  UNL d   1       0.470   0.059  -1.714  0.00  0.00     0.006 A 
ATOM      5  C4  UNL d   1      -0.279   1.126  -2.212  0.00  0.00    -0.005 A 
ATOM      6  C5  UNL d   1      -1.260   1.730  -1.420  0.00  0.00    -0.074 A 
ATOM      7  C6  UNL d   1      -2.081   2.870  -1.944  0.00  0.00     0.077 C 
ATOM      8  C7  UNL d   1      -1.484   1.246  -0.124  0.00  0.00    -0.001 A 
ENDROOT
TORSDOF 0
ENDMDL
