MODEL 1
REMARK minimizedAffinity 6.74778366
REMARK minimizedRMSD -1
REMARK  0 active torsions:
REMARK  status: ('A' for Active; 'I' for Inactive)
ROOT
ATOM      1  C   UNL d   1      -2.482  -0.028  -5.998  0.00  0.00     0.077 C 
ATOM      2  C1  UNL d   1      -3.623   0.620  -5.271  0.00  0.00    -0.074 A 
ATOM      3  C2  UNL d   1      -4.949   0.339  -5.618  0.00  0.00    -0.005 A 
ATOM      4  C3  UNL d   1      -5.999   0.942  -4.927  0.00  0.00     0.006 A 
ATOM      5  C4  UNL d   1      -5.735   1.830  -3.883  0.00  0.00    -0.005 A 
ATOM      6  C5  UNL d   1      -4.416   2.122  -3.521  0.00  0.00    -0.074 A 
ATOM      7  C6  UNL d   1      -4.116   3.066  -2.395  0.00  0.00     0.077 C 
ATOM      8  C7  UNL d   1      -3.366   1.506  -4.216  0.00  0.00    -0.001 A 
ENDROOT
TORSDOF 0
ENDMDL
