MODEL 1
REMARK minimizedAffinity -2.64283872
REMARK minimizedRMSD -1
REMARK  0 active torsions:
REMARK  status: ('A' for Active; 'I' for Inactive)
ROOT
ATOM      1  C   UNL d   1      -1.380   0.775  -1.568  0.00  0.00     0.077 C 
ATOM      2  C1  UNL d   1      -0.364  -0.098  -0.894  0.00  0.00    -0.074 A 
ATOM      3  C2  UNL d   1       0.653  -0.715  -1.630  0.00  0.00    -0.005 A 
ATOM      4  C3  UNL d   1       1.597  -1.517  -0.988  0.00  0.00     0.006 A 
ATOM      5  C4  UNL d   1       1.534  -1.710   0.392  0.00  0.00    -0.005 A 
ATOM      6  C5  UNL d   1       0.525  -1.100   1.144  0.00  0.00    -0.074 A 
ATOM      7  C6  UNL d   1       0.448  -1.288   2.630  0.00  0.00     0.077 C 
ATOM      8  C7  UNL d   1      -0.416  -0.290   0.493  0.00  0.00    -0.001 A 
ENDROOT
TORSDOF 0
ENDMDL
