MODEL 1
REMARK minimizedAffinity 3.0581224
REMARK minimizedRMSD -1
REMARK  0 active torsions:
REMARK  status: ('A' for Active; 'I' for Inactive)
ROOT
ATOM      1  C   UNL d   1      -2.220   0.766  -1.745  0.00  0.00     0.077 C 
ATOM      2  C1  UNL d   1      -1.699   0.706  -0.339  0.00  0.00    -0.074 A 
ATOM      3  C2  UNL d   1      -1.522   1.872   0.413  0.00  0.00    -0.005 A 
ATOM      4  C3  UNL d   1      -1.046   1.799   1.721  0.00  0.00     0.006 A 
ATOM      5  C4  UNL d   1      -0.742   0.562   2.291  0.00  0.00    -0.005 A 
ATOM      6  C5  UNL d   1      -0.913  -0.615   1.554  0.00  0.00    -0.074 A 
ATOM      7  C6  UNL d   1      -0.601  -1.954   2.154  0.00  0.00     0.077 C 
ATOM      8  C7  UNL d   1      -1.399  -0.534   0.242  0.00  0.00    -0.001 A 
ENDROOT
TORSDOF 0
ENDMDL
