MODEL 1
REMARK minimizedAffinity -6.25223637
REMARK minimizedRMSD -1
REMARK  0 active torsions:
REMARK  status: ('A' for Active; 'I' for Inactive)
ROOT
ATOM      1  C   UNL d   1      -1.028   0.141   1.286  0.00  0.00     0.077 C 
ATOM      2  C1  UNL d   1       0.290  -0.455   1.680  0.00  0.00    -0.074 A 
ATOM      3  C2  UNL d   1       0.750  -0.375   2.999  0.00  0.00    -0.005 A 
ATOM      4  C3  UNL d   1       1.974  -0.942   3.352  0.00  0.00     0.006 A 
ATOM      5  C4  UNL d   1       2.750  -1.594   2.393  0.00  0.00    -0.005 A 
ATOM      6  C5  UNL d   1       2.306  -1.685   1.070  0.00  0.00    -0.074 A 
ATOM      7  C6  UNL d   1       3.123  -2.391   0.029  0.00  0.00     0.077 C 
ATOM      8  C7  UNL d   1       1.072  -1.119   0.724  0.00  0.00    -0.001 A 
ENDROOT
TORSDOF 0
ENDMDL
