MODEL 1
REMARK minimizedAffinity -4.56954622
REMARK minimizedRMSD -1
REMARK  0 active torsions:
REMARK  status: ('A' for Active; 'I' for Inactive)
ROOT
ATOM      1  C   UNL d   1      -2.093   0.343   1.997  0.00  0.00     0.077 C 
ATOM      2  C1  UNL d   1      -0.695  -0.027   1.602  0.00  0.00    -0.074 A 
ATOM      3  C2  UNL d   1      -0.326  -0.106   0.255  0.00  0.00    -0.005 A 
ATOM      4  C3  UNL d   1       0.981  -0.442  -0.098  0.00  0.00     0.006 A 
ATOM      5  C4  UNL d   1       1.931  -0.701   0.891  0.00  0.00    -0.005 A 
ATOM      6  C5  UNL d   1       1.581  -0.626   2.243  0.00  0.00    -0.074 A 
ATOM      7  C6  UNL d   1       2.592  -0.892   3.318  0.00  0.00     0.077 C 
ATOM      8  C7  UNL d   1       0.267  -0.281   2.589  0.00  0.00    -0.001 A 
ENDROOT
TORSDOF 0
ENDMDL
