MODEL 1
REMARK minimizedAffinity -4.82295609
REMARK minimizedRMSD -1
REMARK  0 active torsions:
REMARK  status: ('A' for Active; 'I' for Inactive)
ROOT
ATOM      1  C   UNL d   1       1.393  -1.687  -1.751  0.00  0.00     0.077 C 
ATOM      2  C1  UNL d   1       1.105  -1.450  -0.299  0.00  0.00    -0.074 A 
ATOM      3  C2  UNL d   1       2.046  -1.775   0.683  0.00  0.00    -0.005 A 
ATOM      4  C3  UNL d   1       1.768  -1.540   2.030  0.00  0.00     0.006 A 
ATOM      5  C4  UNL d   1       0.547  -0.979   2.407  0.00  0.00    -0.005 A 
ATOM      6  C5  UNL d   1      -0.406  -0.646   1.439  0.00  0.00    -0.074 A 
ATOM      7  C6  UNL d   1      -1.718  -0.033   1.827  0.00  0.00     0.077 C 
ATOM      8  C7  UNL d   1      -0.116  -0.879   0.088  0.00  0.00    -0.001 A 
ENDROOT
TORSDOF 0
ENDMDL
