MODEL 1
REMARK minimizedAffinity -4.25125122
REMARK minimizedRMSD -1
REMARK  0 active torsions:
REMARK  status: ('A' for Active; 'I' for Inactive)
ROOT
ATOM      1  C   UNL d   1       1.182  -0.749   3.021  0.00  0.00     0.077 C 
ATOM      2  C1  UNL d   1       1.223  -0.907   1.530  0.00  0.00    -0.074 A 
ATOM      3  C2  UNL d   1       2.260  -1.610   0.910  0.00  0.00    -0.005 A 
ATOM      4  C3  UNL d   1       2.280  -1.756  -0.477  0.00  0.00     0.006 A 
ATOM      5  C4  UNL d   1       1.265  -1.201  -1.257  0.00  0.00    -0.005 A 
ATOM      6  C5  UNL d   1       0.219  -0.495  -0.654  0.00  0.00    -0.074 A 
ATOM      7  C6  UNL d   1      -0.886   0.099  -1.477  0.00  0.00     0.077 C 
ATOM      8  C7  UNL d   1       0.202  -0.359   0.740  0.00  0.00    -0.001 A 
ENDROOT
TORSDOF 0
ENDMDL
