MODEL 1
REMARK minimizedAffinity 3.44641495
REMARK minimizedRMSD -1
REMARK  0 active torsions:
REMARK  status: ('A' for Active; 'I' for Inactive)
ROOT
ATOM      1  C   UNL d   1      -0.706  -1.523   2.571  0.00  0.00     0.172 C 
ATOM      2  N   UNL d   1       0.458  -1.958   1.837  0.00  0.00    -0.070 N 
ATOM      3  C1  UNL d   1       1.049  -1.282   0.802  0.00  0.00    -0.004 A 
ATOM      4  C2  UNL d   1       2.127  -2.025   0.373  0.00  0.00    -0.047 A 
ATOM      5  C3  UNL d   1       2.187  -3.188   1.177  0.00  0.00    -0.047 A 
ATOM      6  C4  UNL d   1       1.142  -3.122   2.074  0.00  0.00    -0.004 A 
ENDROOT
TORSDOF 0
ENDMDL
