MODEL 1
REMARK minimizedAffinity 0.474998981
REMARK minimizedRMSD -1
REMARK  0 active torsions:
REMARK  status: ('A' for Active; 'I' for Inactive)
ROOT
ATOM      1  C   UNL d   1       0.091   4.619  -5.599  0.00  0.00     0.172 C 
ATOM      2  N   UNL d   1      -0.724   3.745  -4.788  0.00  0.00    -0.070 N 
ATOM      3  C1  UNL d   1      -1.232   2.535  -5.181  0.00  0.00    -0.004 A 
ATOM      4  C2  UNL d   1      -1.950   2.016  -4.125  0.00  0.00    -0.047 A 
ATOM      5  C3  UNL d   1      -1.870   2.946  -3.061  0.00  0.00    -0.047 A 
ATOM      6  C4  UNL d   1      -1.106   4.007  -3.499  0.00  0.00    -0.004 A 
ENDROOT
TORSDOF 0
ENDMDL
