MODEL 1
REMARK minimizedAffinity 5.94047499
REMARK minimizedRMSD -1
REMARK  0 active torsions:
REMARK  status: ('A' for Active; 'I' for Inactive)
ROOT
ATOM      1  C   UNL d   1       5.207   4.367  -5.902  0.00  0.00     0.172 C 
ATOM      2  N   UNL d   1       3.795   4.671  -5.918  0.00  0.00    -0.070 N 
ATOM      3  C1  UNL d   1       3.249   5.927  -5.939  0.00  0.00    -0.004 A 
ATOM      4  C2  UNL d   1       1.878   5.790  -5.950  0.00  0.00    -0.047 A 
ATOM      5  C3  UNL d   1       1.590   4.405  -5.933  0.00  0.00    -0.047 A 
ATOM      6  C4  UNL d   1       2.795   3.735  -5.914  0.00  0.00    -0.004 A 
ENDROOT
TORSDOF 0
ENDMDL
