MODEL 1
REMARK minimizedAffinity 9.67429066
REMARK minimizedRMSD -1
REMARK  0 active torsions:
REMARK  status: ('A' for Active; 'I' for Inactive)
ROOT
ATOM      1  C   UNL d   1      -3.130  -0.645  -1.801  0.00  0.00     0.172 C 
ATOM      2  N   UNL d   1      -2.631   0.627  -2.269  0.00  0.00    -0.070 N 
ATOM      3  C1  UNL d   1      -1.430   1.189  -1.925  0.00  0.00    -0.004 A 
ATOM      4  C2  UNL d   1      -1.327   2.397  -2.579  0.00  0.00    -0.047 A 
ATOM      5  C3  UNL d   1      -2.507   2.569  -3.341  0.00  0.00    -0.047 A 
ATOM      6  C4  UNL d   1      -3.297   1.458  -3.131  0.00  0.00    -0.004 A 
ENDROOT
TORSDOF 0
ENDMDL
