MODEL 1
REMARK minimizedAffinity 5.18501949
REMARK minimizedRMSD -1
REMARK  0 active torsions:
REMARK  status: ('A' for Active; 'I' for Inactive)
ROOT
ATOM      1  C   UNL d   1       1.882  -5.222   0.569  0.00  0.00     0.172 C 
ATOM      2  N   UNL d   1       1.775  -3.816   0.883  0.00  0.00    -0.070 N 
ATOM      3  C1  UNL d   1       1.756  -3.280   2.143  0.00  0.00    -0.004 A 
ATOM      4  C2  UNL d   1       1.644  -1.912   2.017  0.00  0.00    -0.047 A 
ATOM      5  C3  UNL d   1       1.593  -1.616   0.634  0.00  0.00    -0.047 A 
ATOM      6  C4  UNL d   1       1.676  -2.814  -0.045  0.00  0.00    -0.004 A 
ENDROOT
TORSDOF 0
ENDMDL
