MODEL 1
REMARK minimizedAffinity -4.86480331
REMARK minimizedRMSD -1
REMARK  0 active torsions:
REMARK  status: ('A' for Active; 'I' for Inactive)
ROOT
ATOM      1  C4' PXY d   1       3.829  -1.836   0.254  0.00  0.00     0.077 C 
ATOM      2  C1' PXY d   1      -1.279   0.621   1.391  0.00  0.00     0.077 C 
ATOM      3  C1  PXY d   1       0.064  -0.022   1.105  0.00  0.00    -0.082 A 
ATOM      4  C2  PXY d   1       0.559   0.014  -0.121  0.00  0.00     0.003 A 
ATOM      5  C3  PXY d   1       1.757  -0.590  -0.404  0.00  0.00     0.003 A 
ATOM      6  C4  PXY d   1       2.481  -1.192   0.590  0.00  0.00    -0.082 A 
ATOM      7  C5  PXY d   1       1.988  -1.224   1.846  0.00  0.00     0.003 A 
ATOM      8  C6  PXY d   1       0.751  -0.641   2.104  0.00  0.00     0.003 A 
ENDROOT
TORSDOF 0
ENDMDL
