MODEL 1
REMARK minimizedAffinity -4.30160666
REMARK minimizedRMSD -1
REMARK  0 active torsions:
REMARK  status: ('A' for Active; 'I' for Inactive)
ROOT
ATOM      1  C4' PXY d   1       1.616  -0.560   3.228  0.00  0.00     0.077 C 
ATOM      2  C1' PXY d   1      -1.110   1.006  -1.623  0.00  0.00     0.077 C 
ATOM      3  C1  PXY d   1      -0.404   0.601  -0.344  0.00  0.00    -0.082 A 
ATOM      4  C2  PXY d   1       0.894   0.347  -0.365  0.00  0.00     0.003 A 
ATOM      5  C3  PXY d   1       1.542  -0.051   0.776  0.00  0.00     0.003 A 
ATOM      6  C4  PXY d   1       0.864  -0.139   1.963  0.00  0.00    -0.082 A 
ATOM      7  C5  PXY d   1      -0.459   0.128   1.995  0.00  0.00     0.003 A 
ATOM      8  C6  PXY d   1      -1.106   0.491   0.817  0.00  0.00     0.003 A 
ENDROOT
TORSDOF 0
ENDMDL
