MODEL 1
REMARK minimizedAffinity -4.17107868
REMARK minimizedRMSD -1
REMARK  0 active torsions:
REMARK  status: ('A' for Active; 'I' for Inactive)
ROOT
ATOM      1  C4' PXY d   1      -0.995   0.522  -1.869  0.00  0.00     0.077 C 
ATOM      2  C1' PXY d   1       1.424  -0.925   3.179  0.00  0.00     0.077 C 
ATOM      3  C1  PXY d   1       0.778  -0.551   1.859  0.00  0.00    -0.082 A 
ATOM      4  C2  PXY d   1       1.540  -0.297   0.807  0.00  0.00     0.003 A 
ATOM      5  C3  PXY d   1       0.974   0.073  -0.386  0.00  0.00     0.003 A 
ATOM      6  C4  PXY d   1      -0.387   0.132  -0.518  0.00  0.00    -0.082 A 
ATOM      7  C5  PXY d   1      -1.172  -0.137   0.547  0.00  0.00     0.003 A 
ATOM      8  C6  PXY d   1      -0.576  -0.471   1.760  0.00  0.00     0.003 A 
ENDROOT
TORSDOF 0
ENDMDL
