MODEL 1
REMARK minimizedAffinity -1.8333323
REMARK minimizedRMSD -1
REMARK  0 active torsions:
REMARK  status: ('A' for Active; 'I' for Inactive)
ROOT
ATOM      1  C4' PXY d   1       2.101  -0.219   2.333  0.00  0.00     0.077 C 
ATOM      2  C1' PXY d   1      -1.523  -0.302  -2.170  0.00  0.00     0.077 C 
ATOM      3  C1  PXY d   1      -0.563  -0.286  -0.996  0.00  0.00    -0.082 A 
ATOM      4  C2  PXY d   1      -1.039  -0.248   0.238  0.00  0.00     0.003 A 
ATOM      5  C3  PXY d   1      -0.185  -0.201   1.310  0.00  0.00     0.003 A 
ATOM      6  C4  PXY d   1       1.170  -0.246   1.118  0.00  0.00    -0.082 A 
ATOM      7  C5  PXY d   1       1.663  -0.295  -0.137  0.00  0.00     0.003 A 
ATOM      8  C6  PXY d   1       0.780  -0.301  -1.213  0.00  0.00     0.003 A 
ENDROOT
TORSDOF 0
ENDMDL
