MODEL 1
REMARK minimizedAffinity -4.48664713
REMARK minimizedRMSD -1
REMARK  0 active torsions:
REMARK  status: ('A' for Active; 'I' for Inactive)
ROOT
ATOM      1  C4' PXY d   1      -0.497   1.660  -2.235  0.00  0.00     0.077 C 
ATOM      2  C1' PXY d   1       0.756  -1.288   2.576  0.00  0.00     0.077 C 
ATOM      3  C1  PXY d   1       0.429  -0.526   1.307  0.00  0.00    -0.082 A 
ATOM      4  C2  PXY d   1       0.578   0.789   1.277  0.00  0.00     0.003 A 
ATOM      5  C3  PXY d   1       0.257   1.497   0.149  0.00  0.00     0.003 A 
ATOM      6  C4  PXY d   1      -0.171   0.848  -0.979  0.00  0.00    -0.082 A 
ATOM      7  C5  PXY d   1      -0.315  -0.494  -0.959  0.00  0.00     0.003 A 
ATOM      8  C6  PXY d   1      -0.023  -1.190   0.210  0.00  0.00     0.003 A 
ENDROOT
TORSDOF 0
ENDMDL
