MODEL 1
REMARK minimizedAffinity -3.28171635
REMARK minimizedRMSD -1
REMARK  0 active torsions:
REMARK  status: ('A' for Active; 'I' for Inactive)
ROOT
ATOM      1  C4' PXY d   1      -1.039   0.287  -0.961  0.00  0.00     0.077 C 
ATOM      2  C1' PXY d   1       2.491  -2.806   2.414  0.00  0.00     0.077 C 
ATOM      3  C1  PXY d   1       1.575  -1.994   1.520  0.00  0.00    -0.082 A 
ATOM      4  C2  PXY d   1       0.551  -1.345   2.050  0.00  0.00     0.003 A 
ATOM      5  C3  PXY d   1      -0.306  -0.632   1.252  0.00  0.00     0.003 A 
ATOM      6  C4  PXY d   1      -0.082  -0.538  -0.096  0.00  0.00    -0.082 A 
ATOM      7  C5  PXY d   1       0.967  -1.188  -0.642  0.00  0.00     0.003 A 
ATOM      8  C6  PXY d   1       1.801  -1.941   0.180  0.00  0.00     0.003 A 
ENDROOT
TORSDOF 0
ENDMDL
