MODEL 1
REMARK minimizedAffinity -4.40434408
REMARK minimizedRMSD -1
REMARK  0 active torsions:
REMARK  status: ('A' for Active; 'I' for Inactive)
ROOT
ATOM      1  C4' PXY d   1      -1.112   0.741  -1.670  0.00  0.00     0.077 C 
ATOM      2  C1' PXY d   1       1.391  -1.064   3.218  0.00  0.00     0.077 C 
ATOM      3  C1  PXY d   1       0.723  -0.595   1.940  0.00  0.00    -0.082 A 
ATOM      4  C2  PXY d   1       1.436  -0.484   0.832  0.00  0.00     0.003 A 
ATOM      5  C3  PXY d   1       0.855  -0.031  -0.325  0.00  0.00     0.003 A 
ATOM      6  C4  PXY d   1      -0.482   0.262  -0.360  0.00  0.00    -0.082 A 
ATOM      7  C5  PXY d   1      -1.219   0.141   0.765  0.00  0.00     0.003 A 
ATOM      8  C6  PXY d   1      -0.601  -0.281   1.938  0.00  0.00     0.003 A 
ENDROOT
TORSDOF 0
ENDMDL
