MODEL 1
REMARK minimizedAffinity -4.50142908
REMARK minimizedRMSD -1
REMARK  0 active torsions:
REMARK  status: ('A' for Active; 'I' for Inactive)
ROOT
ATOM      1  C4' PXY d   1       1.307  -0.873   3.056  0.00  0.00     0.077 C 
ATOM      2  C1' PXY d   1      -0.922   0.277  -2.152  0.00  0.00     0.077 C 
ATOM      3  C1  PXY d   1      -0.328  -0.032  -0.792  0.00  0.00    -0.082 A 
ATOM      4  C2  PXY d   1      -1.091   0.042   0.287  0.00  0.00     0.003 A 
ATOM      5  C3  PXY d   1      -0.562  -0.203   1.528  0.00  0.00     0.003 A 
ATOM      6  C4  PXY d   1       0.747  -0.579   1.662  0.00  0.00    -0.082 A 
ATOM      7  C5  PXY d   1       1.529  -0.667   0.565  0.00  0.00     0.003 A 
ATOM      8  C6  PXY d   1       0.984  -0.374  -0.682  0.00  0.00     0.003 A 
ENDROOT
TORSDOF 0
ENDMDL
