MODEL 1
REMARK minimizedAffinity -3.66554022
REMARK minimizedRMSD -1
REMARK  0 active torsions:
REMARK  status: ('A' for Active; 'I' for Inactive)
ROOT
ATOM      1  C4' PXY d   1       1.760  -0.303   3.087  0.00  0.00     0.077 C 
ATOM      2  C1' PXY d   1      -0.322  -1.053  -2.254  0.00  0.00     0.077 C 
ATOM      3  C1  PXY d   1       0.215  -0.847  -0.851  0.00  0.00    -0.082 A 
ATOM      4  C2  PXY d   1       1.456  -1.208  -0.566  0.00  0.00     0.003 A 
ATOM      5  C3  PXY d   1       1.947  -1.058   0.705  0.00  0.00     0.003 A 
ATOM      6  C4  PXY d   1       1.178  -0.483   1.682  0.00  0.00    -0.082 A 
ATOM      7  C5  PXY d   1      -0.085  -0.102   1.396  0.00  0.00     0.003 A 
ATOM      8  C6  PXY d   1      -0.578  -0.301   0.110  0.00  0.00     0.003 A 
ENDROOT
TORSDOF 0
ENDMDL
