MODEL 1
REMARK minimizedAffinity -5.01754141
REMARK minimizedRMSD -1
REMARK  0 active torsions:
REMARK  status: ('A' for Active; 'I' for Inactive)
ROOT
ATOM      1  C4' PXY d   1      -0.313   1.964  -2.002  0.00  0.00     0.077 C 
ATOM      2  C1' PXY d   1       0.139  -1.381   2.690  0.00  0.00     0.077 C 
ATOM      3  C1  PXY d   1       0.021  -0.514   1.452  0.00  0.00    -0.082 A 
ATOM      4  C2  PXY d   1       0.391   0.755   1.504  0.00  0.00     0.003 A 
ATOM      5  C3  PXY d   1       0.261   1.561   0.403  0.00  0.00     0.003 A 
ATOM      6  C4  PXY d   1      -0.203   1.050  -0.780  0.00  0.00    -0.082 A 
ATOM      7  C5  PXY d   1      -0.573  -0.247  -0.844  0.00  0.00     0.003 A 
ATOM      8  C6  PXY d   1      -0.472  -1.038   0.297  0.00  0.00     0.003 A 
ENDROOT
TORSDOF 0
ENDMDL
