MODEL 1
REMARK minimizedAffinity 10.0542316
REMARK minimizedRMSD -1
REMARK  0 active torsions:
REMARK  status: ('A' for Active; 'I' for Inactive)
ROOT
ATOM      1  C   UNL d   1       0.256  -1.651   1.874  0.00  0.00     0.124 A 
ATOM      2  C1  UNL d   1       0.510  -2.936   1.414  0.00  0.00     0.062 A 
ATOM      3  C2  UNL d   1       1.820  -3.367   1.229  0.00  0.00     0.162 A 
ATOM      4  C3  UNL d   1       2.888  -2.513   1.506  0.00  0.00    -0.034 A 
ATOM      5  C4  UNL d   1       2.625  -1.222   1.968  0.00  0.00     0.162 A 
ATOM      6  C5  UNL d   1       1.313  -0.796   2.150  0.00  0.00     0.062 A 
ATOM      7  F   UNL d   1       1.070   0.446   2.595  0.00  0.00    -0.097 F 
ATOM      8  F1  UNL d   1       3.627  -0.375   2.244  0.00  0.00    -0.096 F 
ATOM      9  I   UNL d   1       4.849  -3.154   1.232  0.00  0.00    -0.060 I 
ATOM     10  F2  UNL d   1       2.036  -4.614   0.784  0.00  0.00    -0.096 F 
ATOM     11  F3  UNL d   1      -0.510  -3.764   1.145  0.00  0.00    -0.097 F 
ATOM     12  F4  UNL d   1      -1.006  -1.239   2.049  0.00  0.00    -0.092 F 
ENDROOT
TORSDOF 0
ENDMDL
