MODEL 1
REMARK minimizedAffinity 12.630765
REMARK minimizedRMSD -1
REMARK  0 active torsions:
REMARK  status: ('A' for Active; 'I' for Inactive)
ROOT
ATOM      1  C   UNL d   1       2.715  -1.453   1.500  0.00  0.00     0.124 A 
ATOM      2  C1  UNL d   1       1.902  -2.566   1.329  0.00  0.00     0.062 A 
ATOM      3  C2  UNL d   1       2.468  -3.830   1.189  0.00  0.00     0.162 A 
ATOM      4  C3  UNL d   1       3.853  -3.989   1.220  0.00  0.00    -0.034 A 
ATOM      5  C4  UNL d   1       4.663  -2.865   1.392  0.00  0.00     0.162 A 
ATOM      6  C5  UNL d   1       4.094  -1.604   1.532  0.00  0.00     0.062 A 
ATOM      7  F   UNL d   1       4.880  -0.530   1.697  0.00  0.00    -0.097 F 
ATOM      8  F1  UNL d   1       5.999  -2.982   1.427  0.00  0.00    -0.096 F 
ATOM      9  I   UNL d   1       4.702  -5.877   1.011  0.00  0.00    -0.060 I 
ATOM     10  F2  UNL d   1       1.659  -4.887   1.025  0.00  0.00    -0.096 F 
ATOM     11  F3  UNL d   1       0.570  -2.423   1.298  0.00  0.00    -0.097 F 
ATOM     12  F4  UNL d   1       2.168  -0.238   1.634  0.00  0.00    -0.092 F 
ENDROOT
TORSDOF 0
ENDMDL
