MODEL 1
REMARK minimizedAffinity 10.4957943
REMARK minimizedRMSD -1
REMARK  0 active torsions:
REMARK  status: ('A' for Active; 'I' for Inactive)
ROOT
ATOM      1  C   UNL d   1       2.073  -2.670   1.105  0.00  0.00     0.124 A 
ATOM      2  C1  UNL d   1       1.480  -1.439   1.349  0.00  0.00     0.062 A 
ATOM      3  C2  UNL d   1       2.160  -0.262   1.051  0.00  0.00     0.162 A 
ATOM      4  C3  UNL d   1       3.443  -0.310   0.504  0.00  0.00    -0.034 A 
ATOM      5  C4  UNL d   1       4.033  -1.551   0.262  0.00  0.00     0.162 A 
ATOM      6  C5  UNL d   1       3.349  -2.725   0.561  0.00  0.00     0.062 A 
ATOM      7  F   UNL d   1       3.924  -3.913   0.324  0.00  0.00    -0.097 F 
ATOM      8  F1  UNL d   1       5.265  -1.634  -0.263  0.00  0.00    -0.096 F 
ATOM      9  I   UNL d   1       4.464   1.448   0.057  0.00  0.00    -0.060 I 
ATOM     10  F2  UNL d   1       1.562   0.913   1.298  0.00  0.00    -0.096 F 
ATOM     11  F3  UNL d   1       0.248  -1.384   1.875  0.00  0.00    -0.097 F 
ATOM     12  F4  UNL d   1       1.417  -3.801   1.393  0.00  0.00    -0.092 F 
ENDROOT
TORSDOF 0
ENDMDL
