MODEL 1
REMARK minimizedAffinity 5.02660751
REMARK minimizedRMSD -1
REMARK  0 active torsions:
REMARK  status: ('A' for Active; 'I' for Inactive)
ROOT
ATOM      1  C   UNL d   1       0.928  -2.079   1.977  0.00  0.00     0.124 A 
ATOM      2  C1  UNL d   1       1.950  -1.185   2.266  0.00  0.00     0.062 A 
ATOM      3  C2  UNL d   1       3.279  -1.571   2.121  0.00  0.00     0.162 A 
ATOM      4  C3  UNL d   1       3.595  -2.858   1.685  0.00  0.00    -0.034 A 
ATOM      5  C4  UNL d   1       2.562  -3.752   1.398  0.00  0.00     0.162 A 
ATOM      6  C5  UNL d   1       1.235  -3.361   1.544  0.00  0.00     0.062 A 
ATOM      7  F   UNL d   1       0.249  -4.226   1.265  0.00  0.00    -0.097 F 
ATOM      8  F1  UNL d   1       2.830  -4.996   0.976  0.00  0.00    -0.096 F 
ATOM      9  I   UNL d   1       5.582  -3.439   1.467  0.00  0.00    -0.060 I 
ATOM     10  F2  UNL d   1       4.246  -0.686   2.407  0.00  0.00    -0.096 F 
ATOM     11  F3  UNL d   1       1.656   0.054   2.686  0.00  0.00    -0.097 F 
ATOM     12  F4  UNL d   1      -0.350  -1.706   2.119  0.00  0.00    -0.092 F 
ENDROOT
TORSDOF 0
ENDMDL
