MODEL 1
REMARK minimizedAffinity 20.2912464
REMARK minimizedRMSD -1
REMARK  0 active torsions:
REMARK  status: ('A' for Active; 'I' for Inactive)
ROOT
ATOM      1  C   UNL d   1       1.192  -0.678   2.094  0.00  0.00     0.124 A 
ATOM      2  C1  UNL d   1       0.733  -1.936   1.727  0.00  0.00     0.062 A 
ATOM      3  C2  UNL d   1       1.629  -2.908   1.292  0.00  0.00     0.162 A 
ATOM      4  C3  UNL d   1       2.994  -2.628   1.224  0.00  0.00    -0.034 A 
ATOM      5  C4  UNL d   1       3.448  -1.361   1.594  0.00  0.00     0.162 A 
ATOM      6  C5  UNL d   1       2.548  -0.392   2.028  0.00  0.00     0.062 A 
ATOM      7  F   UNL d   1       2.993   0.822   2.382  0.00  0.00    -0.097 F 
ATOM      8  F1  UNL d   1       4.753  -1.057   1.541  0.00  0.00    -0.096 F 
ATOM      9  I   UNL d   1       4.337  -4.079   0.575  0.00  0.00    -0.060 I 
ATOM     10  F2  UNL d   1       1.158  -4.115   0.943  0.00  0.00    -0.096 F 
ATOM     11  F3  UNL d   1      -0.577  -2.215   1.789  0.00  0.00    -0.097 F 
ATOM     12  F4  UNL d   1       0.328   0.256   2.511  0.00  0.00    -0.092 F 
ENDROOT
TORSDOF 0
ENDMDL
