MODEL 1
REMARK minimizedAffinity -3.54189205
REMARK minimizedRMSD -1
REMARK  0 active torsions:
REMARK  status: ('A' for Active; 'I' for Inactive)
ROOT
ATOM      1  C   UNL d   1       0.327  -0.697   2.490  0.00  0.00     0.172 C 
ATOM      2  N   UNL d   1       0.066  -0.514   1.081  0.00  0.00    -0.070 N 
ATOM      3  C1  UNL d   1      -1.150  -0.221   0.526  0.00  0.00    -0.004 A 
ATOM      4  C2  UNL d   1      -0.980  -0.128  -0.839  0.00  0.00    -0.047 A 
ATOM      5  C3  UNL d   1       0.386  -0.375  -1.113  0.00  0.00    -0.047 A 
ATOM      6  C4  UNL d   1       1.011  -0.612   0.094  0.00  0.00    -0.004 A 
ENDROOT
TORSDOF 0
ENDMDL
