MODEL 1
REMARK minimizedAffinity -3.88973236
REMARK minimizedRMSD -1
REMARK  0 active torsions:
REMARK  status: ('A' for Active; 'I' for Inactive)
ROOT
ATOM      1  C   UNL d   1      -0.380  -0.363  -0.845  0.00  0.00     0.172 C 
ATOM      2  N   UNL d   1       0.324  -0.526   0.406  0.00  0.00    -0.070 N 
ATOM      3  C1  UNL d   1       1.526  -1.162   0.569  0.00  0.00    -0.004 A 
ATOM      4  C2  UNL d   1       1.858  -1.101   1.905  0.00  0.00    -0.047 A 
ATOM      5  C3  UNL d   1       0.819  -0.405   2.568  0.00  0.00    -0.047 A 
ATOM      6  C4  UNL d   1      -0.117  -0.060   1.616  0.00  0.00    -0.004 A 
ENDROOT
TORSDOF 0
ENDMDL
