MODEL 1
REMARK minimizedAffinity -2.8409574
REMARK minimizedRMSD -1
REMARK  0 active torsions:
REMARK  status: ('A' for Active; 'I' for Inactive)
ROOT
ATOM      1  C   UNL d   1      -0.364   0.285  -1.187  0.00  0.00     0.172 C 
ATOM      2  N   UNL d   1       0.176  -0.570  -0.156  0.00  0.00    -0.070 N 
ATOM      3  C1  UNL d   1       1.158  -1.508  -0.330  0.00  0.00    -0.004 A 
ATOM      4  C2  UNL d   1       1.390  -2.107   0.890  0.00  0.00    -0.047 A 
ATOM      5  C3  UNL d   1       0.517  -1.509   1.828  0.00  0.00    -0.047 A 
ATOM      6  C4  UNL d   1      -0.224  -0.560   1.154  0.00  0.00    -0.004 A 
ENDROOT
TORSDOF 0
ENDMDL
