MODEL 1
REMARK minimizedAffinity -4.20762062
REMARK minimizedRMSD -1
REMARK  0 active torsions:
REMARK  status: ('A' for Active; 'I' for Inactive)
ROOT
ATOM      1  C   UNL d   1       0.737  -0.049  -0.543  0.00  0.00     0.172 C 
ATOM      2  N   UNL d   1       1.250  -0.634   0.674  0.00  0.00    -0.070 N 
ATOM      3  C1  UNL d   1       2.295  -1.515   0.758  0.00  0.00    -0.004 A 
ATOM      4  C2  UNL d   1       2.472  -1.835   2.087  0.00  0.00    -0.047 A 
ATOM      5  C3  UNL d   1       1.497  -1.123   2.827  0.00  0.00    -0.047 A 
ATOM      6  C4  UNL d   1       0.754  -0.388   1.927  0.00  0.00    -0.004 A 
ENDROOT
TORSDOF 0
ENDMDL
