MODEL 1
REMARK minimizedAffinity -3.89476323
REMARK minimizedRMSD -1
REMARK  0 active torsions:
REMARK  status: ('A' for Active; 'I' for Inactive)
ROOT
ATOM      1  C   UNL d   1      -0.205  -0.706  -1.319  0.00  0.00     0.172 C 
ATOM      2  N   UNL d   1       0.696  -0.602  -0.196  0.00  0.00    -0.070 N 
ATOM      3  C1  UNL d   1       1.554  -1.580   0.233  0.00  0.00    -0.004 A 
ATOM      4  C2  UNL d   1       2.237  -1.093   1.326  0.00  0.00    -0.047 A 
ATOM      5  C3  UNL d   1       1.772   0.222   1.564  0.00  0.00    -0.047 A 
ATOM      6  C4  UNL d   1       0.819   0.501   0.607  0.00  0.00    -0.004 A 
ENDROOT
TORSDOF 0
ENDMDL
