MODEL 1
REMARK minimizedAffinity -3.64317632
REMARK minimizedRMSD -1
REMARK  0 active torsions:
REMARK  status: ('A' for Active; 'I' for Inactive)
ROOT
ATOM      1  C2' OXE d   1      -5.979  -1.262   2.017  0.00  0.00     0.078 C 
ATOM      2  C1' OXE d   1      -5.507   0.423   4.212  0.00  0.00     0.078 C 
ATOM      3  C1  OXE d   1      -5.642  -1.056   4.477  0.00  0.00    -0.078 A 
ATOM      4  C2  OXE d   1      -5.919  -1.868   3.403  0.00  0.00    -0.078 A 
ATOM      5  C3  OXE d   1      -6.000  -3.246   3.583  0.00  0.00     0.003 A 
ATOM      6  C4  OXE d   1      -5.954  -3.796   4.870  0.00  0.00    -0.002 A 
ATOM      7  C5  OXE d   1      -5.712  -2.983   5.982  0.00  0.00    -0.002 A 
ATOM      8  C6  OXE d   1      -5.512  -1.619   5.798  0.00  0.00     0.003 A 
ENDROOT
TORSDOF 0
ENDMDL
