MODEL 1
REMARK minimizedAffinity 3.47024775
REMARK minimizedRMSD -1
REMARK  0 active torsions:
REMARK  status: ('A' for Active; 'I' for Inactive)
ROOT
ATOM      1  C2' OXE d   1      -0.338  -3.206  -0.111  0.00  0.00     0.078 C 
ATOM      2  C1' OXE d   1       0.724  -1.206   1.548  0.00  0.00     0.078 C 
ATOM      3  C1  OXE d   1      -0.057  -0.771   0.333  0.00  0.00    -0.078 A 
ATOM      4  C2  OXE d   1      -0.533  -1.756  -0.498  0.00  0.00    -0.078 A 
ATOM      5  C3  OXE d   1      -1.307  -1.411  -1.603  0.00  0.00     0.003 A 
ATOM      6  C4  OXE d   1      -1.473  -0.068  -1.960  0.00  0.00    -0.002 A 
ATOM      7  C5  OXE d   1      -0.963   0.951  -1.149  0.00  0.00    -0.002 A 
ATOM      8  C6  OXE d   1      -0.290   0.618   0.021  0.00  0.00     0.003 A 
ENDROOT
TORSDOF 0
ENDMDL
