MODEL 1
REMARK minimizedAffinity -3.35671735
REMARK minimizedRMSD -1
REMARK  0 active torsions:
REMARK  status: ('A' for Active; 'I' for Inactive)
ROOT
ATOM      1  C2' OXE d   1       1.280  -1.083  -0.398  0.00  0.00     0.078 C 
ATOM      2  C1' OXE d   1       0.800  -0.419   2.287  0.00  0.00     0.078 C 
ATOM      3  C1  OXE d   1       0.606   0.659   1.250  0.00  0.00    -0.078 A 
ATOM      4  C2  OXE d   1       0.888   0.338  -0.056  0.00  0.00    -0.078 A 
ATOM      5  C3  OXE d   1       0.672   1.279  -1.059  0.00  0.00     0.003 A 
ATOM      6  C4  OXE d   1       0.319   2.594  -0.734  0.00  0.00    -0.002 A 
ATOM      7  C5  OXE d   1       0.066   2.953   0.594  0.00  0.00    -0.002 A 
ATOM      8  C6  OXE d   1       0.163   1.988   1.591  0.00  0.00     0.003 A 
ENDROOT
TORSDOF 0
ENDMDL
