MODEL 1
REMARK minimizedAffinity 5.27601624
REMARK minimizedRMSD -1
REMARK  0 active torsions:
REMARK  status: ('A' for Active; 'I' for Inactive)
ROOT
ATOM      1  C2' OXE d   1       0.140  -0.844   2.149  0.00  0.00     0.078 C 
ATOM      2  C1' OXE d   1      -0.203   0.569  -0.252  0.00  0.00     0.078 C 
ATOM      3  C1  OXE d   1       0.237   1.345   0.964  0.00  0.00    -0.078 A 
ATOM      4  C2  OXE d   1       0.357   0.654   2.145  0.00  0.00    -0.078 A 
ATOM      5  C3  OXE d   1       0.813   1.311   3.285  0.00  0.00     0.003 A 
ATOM      6  C4  OXE d   1       1.002   2.698   3.276  0.00  0.00    -0.002 A 
ATOM      7  C5  OXE d   1       0.847   3.428   2.092  0.00  0.00    -0.002 A 
ATOM      8  C6  OXE d   1       0.507   2.761   0.920  0.00  0.00     0.003 A 
ENDROOT
TORSDOF 0
ENDMDL
