MODEL 1
REMARK minimizedAffinity 3.62932301
REMARK minimizedRMSD -1
REMARK  0 active torsions:
REMARK  status: ('A' for Active; 'I' for Inactive)
ROOT
ATOM      1  C2' OXE d   1       0.086   1.823  -0.250  0.00  0.00     0.078 C 
ATOM      2  C1' OXE d   1       0.660   2.879   2.287  0.00  0.00     0.078 C 
ATOM      3  C1  OXE d   1       1.001   1.432   2.034  0.00  0.00    -0.078 A 
ATOM      4  C2  OXE d   1       0.674   0.910   0.805  0.00  0.00    -0.078 A 
ATOM      5  C3  OXE d   1       1.016  -0.404   0.500  0.00  0.00     0.003 A 
ATOM      6  C4  OXE d   1       1.551  -1.244   1.485  0.00  0.00    -0.002 A 
ATOM      7  C5  OXE d   1       1.855  -0.744   2.756  0.00  0.00    -0.002 A 
ATOM      8  C6  OXE d   1       1.626   0.600   3.032  0.00  0.00     0.003 A 
ENDROOT
TORSDOF 0
ENDMDL
