MODEL 1
REMARK minimizedAffinity 0.883986115
REMARK minimizedRMSD -1
REMARK  0 active torsions:
REMARK  status: ('A' for Active; 'I' for Inactive)
ROOT
ATOM      1  C2' OXE d   1       3.809  -1.676   3.281  0.00  0.00     0.078 C 
ATOM      2  C1' OXE d   1       1.386  -1.321   4.654  0.00  0.00     0.078 C 
ATOM      3  C1  OXE d   1       1.447  -0.885   3.211  0.00  0.00    -0.078 A 
ATOM      4  C2  OXE d   1       2.650  -1.019   2.561  0.00  0.00    -0.078 A 
ATOM      5  C3  OXE d   1       2.747  -0.683   1.213  0.00  0.00     0.003 A 
ATOM      6  C4  OXE d   1       1.674  -0.068   0.558  0.00  0.00    -0.002 A 
ATOM      7  C5  OXE d   1       0.451   0.115   1.214  0.00  0.00    -0.002 A 
ATOM      8  C6  OXE d   1       0.309  -0.327   2.524  0.00  0.00     0.003 A 
ENDROOT
TORSDOF 0
ENDMDL
