MODEL 1
REMARK minimizedAffinity -1.02189684
REMARK minimizedRMSD -1
REMARK  0 active torsions:
REMARK  status: ('A' for Active; 'I' for Inactive)
ROOT
ATOM      1  C2' OXE d   1       0.009   1.851   2.391  0.00  0.00     0.078 C 
ATOM      2  C1' OXE d   1       1.842  -0.275   2.433  0.00  0.00     0.078 C 
ATOM      3  C1  OXE d   1       1.093  -0.017   1.149  0.00  0.00    -0.078 A 
ATOM      4  C2  OXE d   1       0.164   0.996   1.152  0.00  0.00    -0.078 A 
ATOM      5  C3  OXE d   1      -0.516   1.311  -0.021  0.00  0.00     0.003 A 
ATOM      6  C4  OXE d   1      -0.374   0.508  -1.160  0.00  0.00    -0.002 A 
ATOM      7  C5  OXE d   1       0.537  -0.553  -1.171  0.00  0.00    -0.002 A 
ATOM      8  C6  OXE d   1       1.308  -0.802  -0.041  0.00  0.00     0.003 A 
ENDROOT
TORSDOF 0
ENDMDL
