MODEL 1
REMARK minimizedAffinity -3.62924075
REMARK minimizedRMSD -1
REMARK  0 active torsions:
REMARK  status: ('A' for Active; 'I' for Inactive)
ROOT
ATOM      1  C2' OXE d   1       2.318   4.127   3.005  0.00  0.00     0.078 C 
ATOM      2  C1' OXE d   1       1.364   4.950   0.496  0.00  0.00     0.078 C 
ATOM      3  C1  OXE d   1       0.964   3.580   0.986  0.00  0.00    -0.078 A 
ATOM      4  C2  OXE d   1       1.474   3.167   2.194  0.00  0.00    -0.078 A 
ATOM      5  C3  OXE d   1       1.094   1.935   2.717  0.00  0.00     0.003 A 
ATOM      6  C4  OXE d   1       0.321   1.050   1.956  0.00  0.00    -0.002 A 
ATOM      7  C5  OXE d   1      -0.176   1.435   0.706  0.00  0.00    -0.002 A 
ATOM      8  C6  OXE d   1       0.101   2.710   0.227  0.00  0.00     0.003 A 
ENDROOT
TORSDOF 0
ENDMDL
