MODEL 1
REMARK minimizedAffinity -3.11198211
REMARK minimizedRMSD -1
REMARK  0 active torsions:
REMARK  status: ('A' for Active; 'I' for Inactive)
ROOT
ATOM      1  C2' OXE d   1       1.736   4.267   0.120  0.00  0.00     0.078 C 
ATOM      2  C1' OXE d   1       2.571   3.328   2.630  0.00  0.00     0.078 C 
ATOM      3  C1  OXE d   1       1.404   2.635   1.973  0.00  0.00    -0.078 A 
ATOM      4  C2  OXE d   1       0.973   3.131   0.766  0.00  0.00    -0.078 A 
ATOM      5  C3  OXE d   1      -0.065   2.495   0.090  0.00  0.00     0.003 A 
ATOM      6  C4  OXE d   1      -0.772   1.451   0.699  0.00  0.00    -0.002 A 
ATOM      7  C5  OXE d   1      -0.374   0.956   1.945  0.00  0.00    -0.002 A 
ATOM      8  C6  OXE d   1       0.736   1.508   2.575  0.00  0.00     0.003 A 
ENDROOT
TORSDOF 0
ENDMDL
