MODEL 1
REMARK minimizedAffinity 6.81976938
REMARK minimizedRMSD -1
REMARK  0 active torsions:
REMARK  status: ('A' for Active; 'I' for Inactive)
ROOT
ATOM      1  C   UNL d   1      -3.653  -0.851   0.195  0.00  0.00     0.077 C 
ATOM      2  C1  UNL d   1      -2.996   0.218   1.016  0.00  0.00    -0.074 A 
ATOM      3  C2  UNL d   1      -3.675   1.399   1.335  0.00  0.00    -0.005 A 
ATOM      4  C3  UNL d   1      -3.054   2.380   2.107  0.00  0.00     0.006 A 
ATOM      5  C4  UNL d   1      -1.750   2.192   2.568  0.00  0.00    -0.005 A 
ATOM      6  C5  UNL d   1      -1.056   1.018   2.259  0.00  0.00    -0.074 A 
ATOM      7  C6  UNL d   1       0.342   0.796   2.754  0.00  0.00     0.077 C 
ATOM      8  C7  UNL d   1      -1.689   0.033   1.488  0.00  0.00    -0.001 A 
ENDROOT
TORSDOF 0
ENDMDL
