MODEL 1
REMARK minimizedAffinity 13.5108891
REMARK minimizedRMSD -1
REMARK  0 active torsions:
REMARK  status: ('A' for Active; 'I' for Inactive)
ROOT
ATOM      1  C   UNL d   1      -0.548   1.063   2.171  0.00  0.00     0.077 C 
ATOM      2  C1  UNL d   1      -1.361   0.115   1.341  0.00  0.00    -0.074 A 
ATOM      3  C2  UNL d   1      -1.120  -1.262   1.379  0.00  0.00    -0.005 A 
ATOM      4  C3  UNL d   1      -1.891  -2.133   0.609  0.00  0.00     0.006 A 
ATOM      5  C4  UNL d   1      -2.909  -1.636  -0.206  0.00  0.00    -0.005 A 
ATOM      6  C5  UNL d   1      -3.165  -0.262  -0.257  0.00  0.00    -0.074 A 
ATOM      7  C6  UNL d   1      -4.261   0.287  -1.121  0.00  0.00     0.077 C 
ATOM      8  C7  UNL d   1      -2.390   0.605   0.525  0.00  0.00    -0.001 A 
ENDROOT
TORSDOF 0
ENDMDL
