MODEL 1
REMARK minimizedAffinity 6.72124767
REMARK minimizedRMSD -1
REMARK  0 active torsions:
REMARK  status: ('A' for Active; 'I' for Inactive)
ROOT
ATOM      1  C   UNL d   1      -1.155   0.482  -5.689  0.00  0.00     0.077 C 
ATOM      2  C1  UNL d   1      -1.806  -0.864  -5.804  0.00  0.00    -0.074 A 
ATOM      3  C2  UNL d   1      -1.038  -2.029  -5.887  0.00  0.00    -0.005 A 
ATOM      4  C3  UNL d   1      -1.658  -3.275  -5.984  0.00  0.00     0.006 A 
ATOM      5  C4  UNL d   1      -3.051  -3.367  -5.999  0.00  0.00    -0.005 A 
ATOM      6  C5  UNL d   1      -3.835  -2.213  -5.916  0.00  0.00    -0.074 A 
ATOM      7  C6  UNL d   1      -5.333  -2.295  -5.921  0.00  0.00     0.077 C 
ATOM      8  C7  UNL d   1      -3.205  -0.965  -5.812  0.00  0.00    -0.001 A 
ENDROOT
TORSDOF 0
ENDMDL
