MODEL 1
REMARK minimizedAffinity 5.8776145
REMARK minimizedRMSD -1
REMARK  0 active torsions:
REMARK  status: ('A' for Active; 'I' for Inactive)
ROOT
ATOM      1  C   UNL d   1      -0.684   0.006  -4.862  0.00  0.00     0.077 C 
ATOM      2  C1  UNL d   1      -1.453  -1.216  -5.266  0.00  0.00    -0.074 A 
ATOM      3  C2  UNL d   1      -0.792  -2.392  -5.635  0.00  0.00    -0.005 A 
ATOM      4  C3  UNL d   1      -1.522  -3.524  -6.000  0.00  0.00     0.006 A 
ATOM      5  C4  UNL d   1      -2.917  -3.491  -5.999  0.00  0.00    -0.005 A 
ATOM      6  C5  UNL d   1      -3.595  -2.325  -5.633  0.00  0.00    -0.074 A 
ATOM      7  C6  UNL d   1      -5.094  -2.275  -5.617  0.00  0.00     0.077 C 
ATOM      8  C7  UNL d   1      -2.855  -1.194  -5.261  0.00  0.00    -0.001 A 
ENDROOT
TORSDOF 0
ENDMDL
