MODEL 1
REMARK minimizedAffinity 4.84436703
REMARK minimizedRMSD -1
REMARK  0 active torsions:
REMARK  status: ('A' for Active; 'I' for Inactive)
ROOT
ATOM      1  C   UNL d   1      -3.755  -1.866   6.000  0.00  0.00     0.077 C 
ATOM      2  C1  UNL d   1      -4.045  -0.576   5.292  0.00  0.00    -0.074 A 
ATOM      3  C2  UNL d   1      -4.716   0.465   5.941  0.00  0.00    -0.005 A 
ATOM      4  C3  UNL d   1      -4.971   1.663   5.273  0.00  0.00     0.006 A 
ATOM      5  C4  UNL d   1      -4.557   1.832   3.951  0.00  0.00    -0.005 A 
ATOM      6  C5  UNL d   1      -3.884   0.802   3.286  0.00  0.00    -0.074 A 
ATOM      7  C6  UNL d   1      -3.423   0.970   1.868  0.00  0.00     0.077 C 
ATOM      8  C7  UNL d   1      -3.626  -0.396   3.966  0.00  0.00    -0.001 A 
ENDROOT
TORSDOF 0
ENDMDL
