MODEL 1
REMARK minimizedAffinity 2.97404504
REMARK minimizedRMSD -1
REMARK  0 active torsions:
REMARK  status: ('A' for Active; 'I' for Inactive)
ROOT
ATOM      1  C   UNL d   1      -5.629  -2.091   0.008  0.00  0.00     0.077 C 
ATOM      2  C1  UNL d   1      -5.112  -0.854   0.680  0.00  0.00    -0.074 A 
ATOM      3  C2  UNL d   1      -5.989   0.075   1.249  0.00  0.00    -0.005 A 
ATOM      4  C3  UNL d   1      -5.493   1.216   1.880  0.00  0.00     0.006 A 
ATOM      5  C4  UNL d   1      -4.117   1.440   1.947  0.00  0.00    -0.005 A 
ATOM      6  C5  UNL d   1      -3.225   0.522   1.384  0.00  0.00    -0.074 A 
ATOM      7  C6  UNL d   1      -1.743   0.742   1.456  0.00  0.00     0.077 C 
ATOM      8  C7  UNL d   1      -3.731  -0.626   0.758  0.00  0.00    -0.001 A 
ENDROOT
TORSDOF 0
ENDMDL
