MODEL 1
REMARK minimizedAffinity -0.508374453
REMARK minimizedRMSD -1
REMARK  0 active torsions:
REMARK  status: ('A' for Active; 'I' for Inactive)
ROOT
ATOM      1  C   UNL d   1      -5.431  -3.039  -5.993  0.00  0.00     0.077 C 
ATOM      2  C1  UNL d   1      -3.951  -2.798  -5.988  0.00  0.00    -0.074 A 
ATOM      3  C2  UNL d   1      -3.048  -3.867  -5.995  0.00  0.00    -0.005 A 
ATOM      4  C3  UNL d   1      -1.674  -3.627  -6.000  0.00  0.00     0.006 A 
ATOM      5  C4  UNL d   1      -1.190  -2.318  -5.997  0.00  0.00    -0.005 A 
ATOM      6  C5  UNL d   1      -2.077  -1.237  -5.991  0.00  0.00    -0.074 A 
ATOM      7  C6  UNL d   1      -1.573   0.176  -5.999  0.00  0.00     0.077 C 
ATOM      8  C7  UNL d   1      -3.456  -1.486  -5.994  0.00  0.00    -0.001 A 
ENDROOT
TORSDOF 0
ENDMDL
