MODEL 1
REMARK minimizedAffinity 2.26028728
REMARK minimizedRMSD -1
REMARK  0 active torsions:
REMARK  status: ('A' for Active; 'I' for Inactive)
ROOT
ATOM      1  C   UNL d   1      -1.305   0.406  -5.998  0.00  0.00     0.077 C 
ATOM      2  C1  UNL d   1      -2.239  -0.768  -5.999  0.00  0.00    -0.074 A 
ATOM      3  C2  UNL d   1      -1.747  -2.077  -6.000  0.00  0.00    -0.005 A 
ATOM      4  C3  UNL d   1      -2.627  -3.159  -5.992  0.00  0.00     0.006 A 
ATOM      5  C4  UNL d   1      -4.006  -2.944  -5.983  0.00  0.00    -0.005 A 
ATOM      6  C5  UNL d   1      -4.516  -1.641  -5.981  0.00  0.00    -0.074 A 
ATOM      7  C6  UNL d   1      -5.995  -1.392  -5.962  0.00  0.00     0.077 C 
ATOM      8  C7  UNL d   1      -3.625  -0.559  -5.982  0.00  0.00    -0.001 A 
ENDROOT
TORSDOF 0
ENDMDL
