MODEL 1
REMARK minimizedAffinity 2.59327316
REMARK minimizedRMSD -1
REMARK  0 active torsions:
REMARK  status: ('A' for Active; 'I' for Inactive)
ROOT
ATOM      1  C   UNL d   1      -2.054   0.622  -5.999  0.00  0.00     0.077 C 
ATOM      2  C1  UNL d   1      -2.951  -0.580  -5.992  0.00  0.00    -0.074 A 
ATOM      3  C2  UNL d   1      -4.342  -0.438  -5.997  0.00  0.00    -0.005 A 
ATOM      4  C3  UNL d   1      -5.164  -1.565  -6.000  0.00  0.00     0.006 A 
ATOM      5  C4  UNL d   1      -4.604  -2.843  -5.997  0.00  0.00    -0.005 A 
ATOM      6  C5  UNL d   1      -3.215  -3.005  -5.993  0.00  0.00    -0.074 A 
ATOM      7  C6  UNL d   1      -2.596  -4.371  -6.000  0.00  0.00     0.077 C 
ATOM      8  C7  UNL d   1      -2.395  -1.867  -5.997  0.00  0.00    -0.001 A 
ENDROOT
TORSDOF 0
ENDMDL
