MODEL 1
REMARK minimizedAffinity -0.7443766
REMARK minimizedRMSD -1
REMARK  0 active torsions:
REMARK  status: ('A' for Active; 'I' for Inactive)
ROOT
ATOM      1  C   UNL d   1      -5.987   4.362   2.113  0.00  0.00     0.077 C 
ATOM      2  C1  UNL d   1      -5.594   2.937   2.367  0.00  0.00    -0.074 A 
ATOM      3  C2  UNL d   1      -4.854   2.216   1.424  0.00  0.00    -0.005 A 
ATOM      4  C3  UNL d   1      -4.488   0.894   1.678  0.00  0.00     0.006 A 
ATOM      5  C4  UNL d   1      -4.858   0.281   2.876  0.00  0.00    -0.005 A 
ATOM      6  C5  UNL d   1      -5.598   0.986   3.830  0.00  0.00    -0.074 A 
ATOM      7  C6  UNL d   1      -5.995   0.345   5.127  0.00  0.00     0.077 C 
ATOM      8  C7  UNL d   1      -5.955   2.316   3.571  0.00  0.00    -0.001 A 
ENDROOT
TORSDOF 0
ENDMDL
