MODEL 1
REMARK minimizedAffinity 9.62428188
REMARK minimizedRMSD -1
REMARK  0 active torsions:
REMARK  status: ('A' for Active; 'I' for Inactive)
ROOT
ATOM      1  C   UNL d   1      -4.058  -3.642  -6.000  0.00  0.00     0.077 C 
ATOM      2  C1  UNL d   1      -3.234  -2.402  -5.821  0.00  0.00    -0.074 A 
ATOM      3  C2  UNL d   1      -3.795  -1.134  -6.000  0.00  0.00    -0.005 A 
ATOM      4  C3  UNL d   1      -3.017   0.011  -5.820  0.00  0.00     0.006 A 
ATOM      5  C4  UNL d   1      -1.674  -0.102  -5.460  0.00  0.00    -0.005 A 
ATOM      6  C5  UNL d   1      -1.096  -1.362  -5.275  0.00  0.00    -0.074 A 
ATOM      7  C6  UNL d   1       0.344  -1.500  -4.879  0.00  0.00     0.077 C 
ATOM      8  C7  UNL d   1      -1.885  -2.507  -5.451  0.00  0.00    -0.001 A 
ENDROOT
TORSDOF 0
ENDMDL
