MODEL 1
REMARK minimizedAffinity 7.4838295
REMARK minimizedRMSD -1
REMARK  0 active torsions:
REMARK  status: ('A' for Active; 'I' for Inactive)
ROOT
ATOM      1  C   UNL d   1      -5.982  -3.001  -5.973  0.00  0.00     0.077 C 
ATOM      2  C1  UNL d   1      -4.502  -2.756  -5.976  0.00  0.00    -0.074 A 
ATOM      3  C2  UNL d   1      -3.597  -3.822  -5.987  0.00  0.00    -0.005 A 
ATOM      4  C3  UNL d   1      -2.224  -3.579  -5.999  0.00  0.00     0.006 A 
ATOM      5  C4  UNL d   1      -1.742  -2.270  -5.999  0.00  0.00    -0.005 A 
ATOM      6  C5  UNL d   1      -2.632  -1.191  -5.988  0.00  0.00    -0.074 A 
ATOM      7  C6  UNL d   1      -2.131   0.223  -5.998  0.00  0.00     0.077 C 
ATOM      8  C7  UNL d   1      -4.010  -1.443  -5.984  0.00  0.00    -0.001 A 
ENDROOT
TORSDOF 0
ENDMDL
