MODEL 1
REMARK minimizedAffinity 9.26715755
REMARK minimizedRMSD -1
REMARK  0 active torsions:
REMARK  status: ('A' for Active; 'I' for Inactive)
ROOT
ATOM      1  C   UNL d   1      -1.127   0.008   2.132  0.00  0.00     0.077 C 
ATOM      2  C1  UNL d   1      -2.436   0.220   2.832  0.00  0.00    -0.074 A 
ATOM      3  C2  UNL d   1      -3.414   1.059   2.289  0.00  0.00    -0.005 A 
ATOM      4  C3  UNL d   1      -4.631   1.239   2.947  0.00  0.00     0.006 A 
ATOM      5  C4  UNL d   1      -4.881   0.582   4.152  0.00  0.00    -0.005 A 
ATOM      6  C5  UNL d   1      -3.916  -0.262   4.710  0.00  0.00    -0.074 A 
ATOM      7  C6  UNL d   1      -4.173  -0.983   6.000  0.00  0.00     0.077 C 
ATOM      8  C7  UNL d   1      -2.698  -0.443   4.039  0.00  0.00    -0.001 A 
ENDROOT
TORSDOF 0
ENDMDL
