MODEL 1
REMARK minimizedAffinity 6.04444981
REMARK minimizedRMSD -1
REMARK  0 active torsions:
REMARK  status: ('A' for Active; 'I' for Inactive)
ROOT
ATOM      1  C   UNL d   1       4.361   3.391  -4.997  0.00  0.00     0.077 C 
ATOM      2  C1  UNL d   1       3.669   2.360  -4.156  0.00  0.00    -0.074 A 
ATOM      3  C2  UNL d   1       3.334   2.625  -2.824  0.00  0.00    -0.005 A 
ATOM      4  C3  UNL d   1       2.682   1.659  -2.057  0.00  0.00     0.006 A 
ATOM      5  C4  UNL d   1       2.359   0.421  -2.613  0.00  0.00    -0.005 A 
ATOM      6  C5  UNL d   1       2.685   0.138  -3.944  0.00  0.00    -0.074 A 
ATOM      7  C6  UNL d   1       2.337  -1.184  -4.560  0.00  0.00     0.077 C 
ATOM      8  C7  UNL d   1       3.334   1.116  -4.710  0.00  0.00    -0.001 A 
ENDROOT
TORSDOF 0
ENDMDL
