MODEL 1
REMARK minimizedAffinity -1.50086069
REMARK minimizedRMSD -1
REMARK  0 active torsions:
REMARK  status: ('A' for Active; 'I' for Inactive)
ROOT
ATOM      1  C   UNL d   1      -1.653  -1.817  -6.000  0.00  0.00     0.077 C 
ATOM      2  C1  UNL d   1      -3.113  -2.158  -5.992  0.00  0.00    -0.074 A 
ATOM      3  C2  UNL d   1      -4.086  -1.153  -5.996  0.00  0.00    -0.005 A 
ATOM      4  C3  UNL d   1      -5.441  -1.485  -5.998  0.00  0.00     0.006 A 
ATOM      5  C4  UNL d   1      -5.836  -2.823  -5.996  0.00  0.00    -0.005 A 
ATOM      6  C5  UNL d   1      -4.877  -3.842  -5.992  0.00  0.00    -0.074 A 
ATOM      7  C6  UNL d   1      -5.285  -5.285  -6.000  0.00  0.00     0.077 C 
ATOM      8  C7  UNL d   1      -3.518  -3.500  -5.997  0.00  0.00    -0.001 A 
ENDROOT
TORSDOF 0
ENDMDL
