MODEL 1
REMARK minimizedAffinity 10.5095701
REMARK minimizedRMSD -1
REMARK  0 active torsions:
REMARK  status: ('A' for Active; 'I' for Inactive)
ROOT
ATOM      1  C   UNL d   1       1.128  -5.040   2.029  0.00  0.00     0.077 C 
ATOM      2  C1  UNL d   1       2.588  -4.884   2.335  0.00  0.00    -0.074 A 
ATOM      3  C2  UNL d   1       3.388  -5.998   2.607  0.00  0.00    -0.005 A 
ATOM      4  C3  UNL d   1       4.747  -5.838   2.881  0.00  0.00     0.006 A 
ATOM      5  C4  UNL d   1       5.317  -4.565   2.886  0.00  0.00    -0.005 A 
ATOM      6  C5  UNL d   1       4.533  -3.439   2.616  0.00  0.00    -0.074 A 
ATOM      7  C6  UNL d   1       5.132  -2.064   2.607  0.00  0.00     0.077 C 
ATOM      8  C7  UNL d   1       3.170  -3.609   2.334  0.00  0.00    -0.001 A 
ENDROOT
TORSDOF 0
ENDMDL
