MODEL 1
REMARK minimizedAffinity 3.0828073
REMARK minimizedRMSD -1
REMARK  0 active torsions:
REMARK  status: ('A' for Active; 'I' for Inactive)
ROOT
ATOM      1  C   UNL d   1      -1.803  -4.080  -5.979  0.00  0.00     0.077 C 
ATOM      2  C1  UNL d   1      -3.268  -3.756  -5.986  0.00  0.00    -0.074 A 
ATOM      3  C2  UNL d   1      -4.228  -4.773  -5.977  0.00  0.00    -0.005 A 
ATOM      4  C3  UNL d   1      -5.587  -4.456  -5.974  0.00  0.00     0.006 A 
ATOM      5  C4  UNL d   1      -5.998  -3.123  -5.979  0.00  0.00    -0.005 A 
ATOM      6  C5  UNL d   1      -5.052  -2.093  -5.987  0.00  0.00    -0.074 A 
ATOM      7  C6  UNL d   1      -5.477  -0.655  -5.984  0.00  0.00     0.077 C 
ATOM      8  C7  UNL d   1      -3.689  -2.419  -5.984  0.00  0.00    -0.001 A 
ENDROOT
TORSDOF 0
ENDMDL
