MODEL 1
REMARK minimizedAffinity 1.31161118
REMARK minimizedRMSD -1
REMARK  0 active torsions:
REMARK  status: ('A' for Active; 'I' for Inactive)
ROOT
ATOM      1  C   UNL d   1      -1.692  -0.443  -5.727  0.00  0.00     0.077 C 
ATOM      2  C1  UNL d   1      -2.406  -1.758  -5.829  0.00  0.00    -0.074 A 
ATOM      3  C2  UNL d   1      -1.693  -2.959  -5.909  0.00  0.00    -0.005 A 
ATOM      4  C3  UNL d   1      -2.371  -4.175  -5.994  0.00  0.00     0.006 A 
ATOM      5  C4  UNL d   1      -3.766  -4.203  -6.000  0.00  0.00    -0.005 A 
ATOM      6  C5  UNL d   1      -4.496  -3.012  -5.920  0.00  0.00    -0.074 A 
ATOM      7  C6  UNL d   1      -5.996  -3.025  -5.915  0.00  0.00     0.077 C 
ATOM      8  C7  UNL d   1      -3.807  -1.795  -5.828  0.00  0.00    -0.001 A 
ENDROOT
TORSDOF 0
ENDMDL
