MODEL 1
REMARK minimizedAffinity -0.763663054
REMARK minimizedRMSD -1
REMARK  0 active torsions:
REMARK  status: ('A' for Active; 'I' for Inactive)
ROOT
ATOM      1  C2' OXE d   1      -1.368  -1.019  -0.326  0.00  0.00     0.078 C 
ATOM      2  C1' OXE d   1      -1.180  -0.942   2.474  0.00  0.00     0.078 C 
ATOM      3  C1  OXE d   1      -2.330  -0.211   1.826  0.00  0.00    -0.078 A 
ATOM      4  C2  OXE d   1      -2.387  -0.215   0.453  0.00  0.00    -0.078 A 
ATOM      5  C3  OXE d   1      -3.457   0.396  -0.194  0.00  0.00     0.003 A 
ATOM      6  C4  OXE d   1      -4.390   1.146   0.533  0.00  0.00    -0.002 A 
ATOM      7  C5  OXE d   1      -4.327   1.196   1.929  0.00  0.00    -0.002 A 
ATOM      8  C6  OXE d   1      -3.330   0.489   2.592  0.00  0.00     0.003 A 
ENDROOT
TORSDOF 0
ENDMDL
