MODEL 1
REMARK minimizedAffinity -4.61297274
REMARK minimizedRMSD -1
REMARK  0 active torsions:
REMARK  status: ('A' for Active; 'I' for Inactive)
ROOT
ATOM      1  C2' OXE d   1      -0.808  -2.803  -0.647  0.00  0.00     0.078 C 
ATOM      2  C1' OXE d   1       0.541  -1.501   1.442  0.00  0.00     0.078 C 
ATOM      3  C1  OXE d   1      -0.879  -1.083   1.153  0.00  0.00    -0.078 A 
ATOM      4  C2  OXE d   1      -1.515  -1.692   0.099  0.00  0.00    -0.078 A 
ATOM      5  C3  OXE d   1      -2.844  -1.382  -0.176  0.00  0.00     0.003 A 
ATOM      6  C4  OXE d   1      -3.488  -0.346   0.512  0.00  0.00    -0.002 A 
ATOM      7  C5  OXE d   1      -2.843   0.315   1.563  0.00  0.00    -0.002 A 
ATOM      8  C6  OXE d   1      -1.557  -0.070   1.923  0.00  0.00     0.003 A 
ENDROOT
TORSDOF 0
ENDMDL
