MODEL 1
REMARK minimizedAffinity -3.52394223
REMARK minimizedRMSD -1
REMARK  0 active torsions:
REMARK  status: ('A' for Active; 'I' for Inactive)
ROOT
ATOM      1  C2' OXE d   1      -0.702  -2.237  -0.958  0.00  0.00     0.078 C 
ATOM      2  C1' OXE d   1       0.288  -1.580   1.585  0.00  0.00     0.078 C 
ATOM      3  C1  OXE d   1      -1.059  -1.028   1.191  0.00  0.00    -0.078 A 
ATOM      4  C2  OXE d   1      -1.515  -1.316  -0.073  0.00  0.00    -0.078 A 
ATOM      5  C3  OXE d   1      -2.775  -0.878  -0.468  0.00  0.00     0.003 A 
ATOM      6  C4  OXE d   1      -3.516  -0.018   0.352  0.00  0.00    -0.002 A 
ATOM      7  C5  OXE d   1      -3.052   0.321   1.627  0.00  0.00    -0.002 A 
ATOM      8  C6  OXE d   1      -1.848  -0.209   2.078  0.00  0.00     0.003 A 
ENDROOT
TORSDOF 0
ENDMDL
