MODEL 1
REMARK minimizedAffinity -5.79164696
REMARK minimizedRMSD -1
REMARK  0 active torsions:
REMARK  status: ('A' for Active; 'I' for Inactive)
ROOT
ATOM      1  C2' OXE d   1      -3.542   0.196   0.546  0.00  0.00     0.078 C 
ATOM      2  C1' OXE d   1      -1.719   0.478   2.662  0.00  0.00     0.078 C 
ATOM      3  C1  OXE d   1      -1.218  -0.137   1.379  0.00  0.00    -0.078 A 
ATOM      4  C2  OXE d   1      -2.129  -0.314   0.365  0.00  0.00    -0.078 A 
ATOM      5  C3  OXE d   1      -1.707  -0.826  -0.859  0.00  0.00     0.003 A 
ATOM      6  C4  OXE d   1      -0.400  -1.305  -1.014  0.00  0.00    -0.002 A 
ATOM      7  C5  OXE d   1       0.533  -1.171   0.019  0.00  0.00    -0.002 A 
ATOM      8  C6  OXE d   1       0.152  -0.552   1.205  0.00  0.00     0.003 A 
ENDROOT
TORSDOF 0
ENDMDL
