MODEL 1
REMARK minimizedAffinity -5.6279006
REMARK minimizedRMSD -1
REMARK  0 active torsions:
REMARK  status: ('A' for Active; 'I' for Inactive)
ROOT
ATOM      1  C2' OXE d   1       1.534  -1.665   0.773  0.00  0.00     0.078 C 
ATOM      2  C1' OXE d   1       0.919  -1.125   3.458  0.00  0.00     0.078 C 
ATOM      3  C1  OXE d   1      -0.145  -0.854   2.425  0.00  0.00    -0.078 A 
ATOM      4  C2  OXE d   1       0.180  -1.076   1.109  0.00  0.00    -0.078 A 
ATOM      5  C3  OXE d   1      -0.783  -0.894   0.120  0.00  0.00     0.003 A 
ATOM      6  C4  OXE d   1      -2.029  -0.340   0.438  0.00  0.00    -0.002 A 
ATOM      7  C5  OXE d   1      -2.366  -0.068   1.768  0.00  0.00    -0.002 A 
ATOM      8  C6  OXE d   1      -1.454  -0.359   2.776  0.00  0.00     0.003 A 
ENDROOT
TORSDOF 0
ENDMDL
