MODEL 1
REMARK minimizedAffinity -1.78476071
REMARK minimizedRMSD -1
REMARK  0 active torsions:
REMARK  status: ('A' for Active; 'I' for Inactive)
ROOT
ATOM      1  C2' OXE d   1       0.105  -1.347   2.575  0.00  0.00     0.078 C 
ATOM      2  C1' OXE d   1      -0.032  -2.169  -0.106  0.00  0.00     0.078 C 
ATOM      3  C1  OXE d   1      -1.079  -1.203   0.388  0.00  0.00    -0.078 A 
ATOM      4  C2  OXE d   1      -1.032  -0.842   1.713  0.00  0.00    -0.078 A 
ATOM      5  C3  OXE d   1      -1.942   0.089   2.207  0.00  0.00     0.003 A 
ATOM      6  C4  OXE d   1      -2.996   0.543   1.406  0.00  0.00    -0.002 A 
ATOM      7  C5  OXE d   1      -3.086   0.158   0.064  0.00  0.00    -0.002 A 
ATOM      8  C6  OXE d   1      -2.113  -0.680  -0.471  0.00  0.00     0.003 A 
ENDROOT
TORSDOF 0
ENDMDL
