MODEL 1
REMARK minimizedAffinity -3.0217886
REMARK minimizedRMSD -1
REMARK  0 active torsions:
REMARK  status: ('A' for Active; 'I' for Inactive)
ROOT
ATOM      1  C2' OXE d   1       0.271  -2.166  -0.243  0.00  0.00     0.078 C 
ATOM      2  C1' OXE d   1       1.115  -0.946   2.140  0.00  0.00     0.078 C 
ATOM      3  C1  OXE d   1      -0.310  -0.719   1.700  0.00  0.00    -0.078 A 
ATOM      4  C2  OXE d   1      -0.701  -1.282   0.509  0.00  0.00    -0.078 A 
ATOM      5  C3  OXE d   1      -2.020  -1.150   0.084  0.00  0.00     0.003 A 
ATOM      6  C4  OXE d   1      -2.909  -0.322   0.780  0.00  0.00    -0.002 A 
ATOM      7  C5  OXE d   1      -2.519   0.293   1.975  0.00  0.00    -0.002 A 
ATOM      8  C6  OXE d   1      -1.239   0.070   2.470  0.00  0.00     0.003 A 
ENDROOT
TORSDOF 0
ENDMDL
