MODEL 1
REMARK minimizedAffinity 16.098299
REMARK minimizedRMSD -1
REMARK  0 active torsions:
REMARK  status: ('A' for Active; 'I' for Inactive)
ROOT
ATOM      1  C   UNL d   1      -2.507  -2.511  -1.644  0.00  0.00     0.124 A 
ATOM      2  C1  UNL d   1      -2.091  -2.589  -0.322  0.00  0.00     0.062 A 
ATOM      3  C2  UNL d   1      -2.625  -3.557   0.524  0.00  0.00     0.162 A 
ATOM      4  C3  UNL d   1      -3.580  -4.456   0.050  0.00  0.00    -0.034 A 
ATOM      5  C4  UNL d   1      -3.994  -4.371  -1.281  0.00  0.00     0.162 A 
ATOM      6  C5  UNL d   1      -3.457  -3.402  -2.122  0.00  0.00     0.062 A 
ATOM      7  F   UNL d   1      -3.860  -3.328  -3.399  0.00  0.00    -0.097 F 
ATOM      8  F1  UNL d   1      -4.910  -5.220  -1.770  0.00  0.00    -0.096 F 
ATOM      9  I   UNL d   1      -4.381  -5.905   1.311  0.00  0.00    -0.060 I 
ATOM     10  F2  UNL d   1      -2.206  -3.609   1.797  0.00  0.00    -0.096 F 
ATOM     11  F3  UNL d   1      -1.174  -1.729   0.143  0.00  0.00    -0.097 F 
ATOM     12  F4  UNL d   1      -1.992  -1.578  -2.455  0.00  0.00    -0.092 F 
ENDROOT
TORSDOF 0
ENDMDL
