MODEL 1
REMARK minimizedAffinity 18.6775494
REMARK minimizedRMSD -1
REMARK  0 active torsions:
REMARK  status: ('A' for Active; 'I' for Inactive)
ROOT
ATOM      1  C   UNL d   1       4.940   0.709   0.375  0.00  0.00     0.124 A 
ATOM      2  C1  UNL d   1       4.938  -0.190   1.432  0.00  0.00     0.062 A 
ATOM      3  C2  UNL d   1       3.839  -0.270   2.281  0.00  0.00     0.162 A 
ATOM      4  C3  UNL d   1       2.730   0.551   2.077  0.00  0.00    -0.034 A 
ATOM      5  C4  UNL d   1       2.739   1.454   1.012  0.00  0.00     0.162 A 
ATOM      6  C5  UNL d   1       3.841   1.530   0.166  0.00  0.00     0.062 A 
ATOM      7  F   UNL d   1       3.841   2.399  -0.855  0.00  0.00    -0.097 F 
ATOM      8  F1  UNL d   1       1.690   2.258   0.786  0.00  0.00    -0.096 F 
ATOM      9  I   UNL d   1       1.084   0.435   3.344  0.00  0.00    -0.060 I 
ATOM     10  F2  UNL d   1       3.865  -1.148   3.295  0.00  0.00    -0.096 F 
ATOM     11  F3  UNL d   1       6.000  -0.984   1.637  0.00  0.00    -0.097 F 
ATOM     12  F4  UNL d   1       6.000   0.784  -0.440  0.00  0.00    -0.092 F 
ENDROOT
TORSDOF 0
ENDMDL
