MODEL 1
REMARK minimizedAffinity 11.3084555
REMARK minimizedRMSD -1
REMARK  0 active torsions:
REMARK  status: ('A' for Active; 'I' for Inactive)
ROOT
ATOM      1  C   UNL d   1      -3.164   0.474   3.050  0.00  0.00     0.124 A 
ATOM      2  C1  UNL d   1      -2.119  -0.399   3.319  0.00  0.00     0.062 A 
ATOM      3  C2  UNL d   1      -0.817  -0.064   2.961  0.00  0.00     0.162 A 
ATOM      4  C3  UNL d   1      -0.551   1.151   2.331  0.00  0.00    -0.034 A 
ATOM      5  C4  UNL d   1      -1.607   2.024   2.062  0.00  0.00     0.162 A 
ATOM      6  C5  UNL d   1      -2.907   1.684   2.421  0.00  0.00     0.062 A 
ATOM      7  F   UNL d   1      -3.915   2.529   2.160  0.00  0.00    -0.097 F 
ATOM      8  F1  UNL d   1      -1.387   3.200   1.457  0.00  0.00    -0.096 F 
ATOM      9  I   UNL d   1       1.395   1.657   1.794  0.00  0.00    -0.060 I 
ATOM     10  F2  UNL d   1       0.173  -0.927   3.234  0.00  0.00    -0.096 F 
ATOM     11  F3  UNL d   1      -2.365  -1.570   3.925  0.00  0.00    -0.097 F 
ATOM     12  F4  UNL d   1      -4.417   0.148   3.394  0.00  0.00    -0.092 F 
ENDROOT
TORSDOF 0
ENDMDL
