MODEL 1
REMARK minimizedAffinity 20.3360271
REMARK minimizedRMSD -1
REMARK  0 active torsions:
REMARK  status: ('A' for Active; 'I' for Inactive)
ROOT
ATOM      1  C   UNL d   1       0.763   1.989   1.707  0.00  0.00     0.124 A 
ATOM      2  C1  UNL d   1       1.357   0.736   1.650  0.00  0.00     0.062 A 
ATOM      3  C2  UNL d   1       2.622   0.585   1.091  0.00  0.00     0.162 A 
ATOM      4  C3  UNL d   1       3.304   1.692   0.585  0.00  0.00    -0.034 A 
ATOM      5  C4  UNL d   1       2.700   2.949   0.645  0.00  0.00     0.162 A 
ATOM      6  C5  UNL d   1       1.435   3.094   1.205  0.00  0.00     0.062 A 
ATOM      7  F   UNL d   1       0.864   4.306   1.259  0.00  0.00    -0.097 F 
ATOM      8  F1  UNL d   1       3.328   4.034   0.168  0.00  0.00    -0.096 F 
ATOM      9  I   UNL d   1       5.197   1.471  -0.252  0.00  0.00    -0.060 I 
ATOM     10  F2  UNL d   1       3.171  -0.638   1.049  0.00  0.00    -0.096 F 
ATOM     11  F3  UNL d   1       0.709  -0.334   2.135  0.00  0.00    -0.097 F 
ATOM     12  F4  UNL d   1      -0.455   2.131   2.245  0.00  0.00    -0.092 F 
ENDROOT
TORSDOF 0
ENDMDL
