MODEL 1
REMARK minimizedAffinity 20.5103226
REMARK minimizedRMSD -1
REMARK  0 active torsions:
REMARK  status: ('A' for Active; 'I' for Inactive)
ROOT
ATOM      1  C   UNL d   1      -1.996   1.902   2.654  0.00  0.00     0.124 A 
ATOM      2  C1  UNL d   1      -0.775   1.244   2.683  0.00  0.00     0.062 A 
ATOM      3  C2  UNL d   1      -0.730  -0.146   2.758  0.00  0.00     0.162 A 
ATOM      4  C3  UNL d   1      -1.911  -0.886   2.804  0.00  0.00    -0.034 A 
ATOM      5  C4  UNL d   1      -3.135  -0.217   2.775  0.00  0.00     0.162 A 
ATOM      6  C5  UNL d   1      -3.175   1.171   2.700  0.00  0.00     0.062 A 
ATOM      7  F   UNL d   1      -4.356   1.805   2.673  0.00  0.00    -0.097 F 
ATOM      8  F1  UNL d   1      -4.290  -0.899   2.818  0.00  0.00    -0.096 F 
ATOM      9  I   UNL d   1      -1.848  -2.964   2.916  0.00  0.00    -0.060 I 
ATOM     10  F2  UNL d   1       0.465  -0.755   2.784  0.00  0.00    -0.096 F 
ATOM     11  F3  UNL d   1       0.366   1.947   2.640  0.00  0.00    -0.097 F 
ATOM     12  F4  UNL d   1      -2.037   3.239   2.583  0.00  0.00    -0.092 F 
ENDROOT
TORSDOF 0
ENDMDL
