MODEL 1
REMARK minimizedAffinity 15.0096684
REMARK minimizedRMSD -1
REMARK  0 active torsions:
REMARK  status: ('A' for Active; 'I' for Inactive)
ROOT
ATOM      1  C   UNL d   1       4.262  -0.187   1.883  0.00  0.00     0.124 A 
ATOM      2  C1  UNL d   1       3.823   0.708   0.917  0.00  0.00     0.062 A 
ATOM      3  C2  UNL d   1       2.615   1.379   1.081  0.00  0.00     0.162 A 
ATOM      4  C3  UNL d   1       1.836   1.158   2.217  0.00  0.00    -0.034 A 
ATOM      5  C4  UNL d   1       2.283   0.256   3.184  0.00  0.00     0.162 A 
ATOM      6  C5  UNL d   1       3.491  -0.412   3.016  0.00  0.00     0.062 A 
ATOM      7  F   UNL d   1       3.913  -1.276   3.950  0.00  0.00    -0.097 F 
ATOM      8  F1  UNL d   1       1.559   0.020   4.288  0.00  0.00    -0.096 F 
ATOM      9  I   UNL d   1       0.028   2.159   2.466  0.00  0.00    -0.060 I 
ATOM     10  F2  UNL d   1       2.216   2.238   0.131  0.00  0.00    -0.096 F 
ATOM     11  F3  UNL d   1       4.565   0.927  -0.178  0.00  0.00    -0.097 F 
ATOM     12  F4  UNL d   1       5.424  -0.831   1.723  0.00  0.00    -0.092 F 
ENDROOT
TORSDOF 0
ENDMDL
