MODEL 1
REMARK minimizedAffinity 10.0764456
REMARK minimizedRMSD -1
REMARK  0 active torsions:
REMARK  status: ('A' for Active; 'I' for Inactive)
ROOT
ATOM      1  C   UNL d   1      -3.354  -3.645  -4.109  0.00  0.00     0.124 A 
ATOM      2  C1  UNL d   1      -2.496  -2.667  -3.626  0.00  0.00     0.062 A 
ATOM      3  C2  UNL d   1      -2.324  -2.502  -2.254  0.00  0.00     0.162 A 
ATOM      4  C3  UNL d   1      -3.012  -3.318  -1.356  0.00  0.00    -0.034 A 
ATOM      5  C4  UNL d   1      -3.873  -4.299  -1.849  0.00  0.00     0.162 A 
ATOM      6  C5  UNL d   1      -4.041  -4.460  -3.221  0.00  0.00     0.062 A 
ATOM      7  F   UNL d   1      -4.871  -5.406  -3.686  0.00  0.00    -0.097 F 
ATOM      8  F1  UNL d   1      -4.550  -5.101  -1.014  0.00  0.00    -0.096 F 
ATOM      9  I   UNL d   1      -2.758  -3.074   0.695  0.00  0.00    -0.060 I 
ATOM     10  F2  UNL d   1      -1.489  -1.549  -1.815  0.00  0.00    -0.096 F 
ATOM     11  F3  UNL d   1      -1.831  -1.878  -4.482  0.00  0.00    -0.097 F 
ATOM     12  F4  UNL d   1      -3.517  -3.801  -5.429  0.00  0.00    -0.092 F 
ENDROOT
TORSDOF 0
ENDMDL
