MODEL 1
REMARK minimizedAffinity 6.99882889
REMARK minimizedRMSD -1
REMARK  0 active torsions:
REMARK  status: ('A' for Active; 'I' for Inactive)
ROOT
ATOM      1  C   UNL d   1       2.564   2.481   0.743  0.00  0.00     0.124 A 
ATOM      2  C1  UNL d   1       3.816   2.891   1.179  0.00  0.00     0.062 A 
ATOM      3  C2  UNL d   1       4.799   1.949   1.470  0.00  0.00     0.162 A 
ATOM      4  C3  UNL d   1       4.533   0.587   1.325  0.00  0.00    -0.034 A 
ATOM      5  C4  UNL d   1       3.271   0.182   0.887  0.00  0.00     0.162 A 
ATOM      6  C5  UNL d   1       2.292   1.128   0.597  0.00  0.00     0.062 A 
ATOM      7  F   UNL d   1       1.083   0.730   0.176  0.00  0.00    -0.097 F 
ATOM      8  F1  UNL d   1       2.982  -1.119   0.736  0.00  0.00    -0.096 F 
ATOM      9  I   UNL d   1       6.000  -0.824   1.759  0.00  0.00    -0.060 I 
ATOM     10  F2  UNL d   1       6.000   2.373   1.890  0.00  0.00    -0.096 F 
ATOM     11  F3  UNL d   1       4.080   4.197   1.321  0.00  0.00    -0.097 F 
ATOM     12  F4  UNL d   1       1.620   3.389   0.464  0.00  0.00    -0.092 F 
ENDROOT
TORSDOF 0
ENDMDL
