MODEL 1
REMARK minimizedAffinity 15.0302811
REMARK minimizedRMSD -1
REMARK  0 active torsions:
REMARK  status: ('A' for Active; 'I' for Inactive)
ROOT
ATOM      1  C   UNL d   1       4.839   0.600   1.574  0.00  0.00     0.124 A 
ATOM      2  C1  UNL d   1       3.636   0.051   1.994  0.00  0.00     0.062 A 
ATOM      3  C2  UNL d   1       2.429   0.600   1.568  0.00  0.00     0.162 A 
ATOM      4  C3  UNL d   1       2.420   1.704   0.716  0.00  0.00    -0.034 A 
ATOM      5  C4  UNL d   1       3.635   2.251   0.298  0.00  0.00     0.162 A 
ATOM      6  C5  UNL d   1       4.838   1.699   0.727  0.00  0.00     0.062 A 
ATOM      7  F   UNL d   1       6.000   2.231   0.320  0.00  0.00    -0.097 F 
ATOM      8  F1  UNL d   1       3.663   3.313  -0.521  0.00  0.00    -0.096 F 
ATOM      9  I   UNL d   1       0.619   2.527   0.077  0.00  0.00    -0.060 I 
ATOM     10  F2  UNL d   1       1.282   0.048   1.990  0.00  0.00    -0.096 F 
ATOM     11  F3  UNL d   1       3.634  -1.011   2.813  0.00  0.00    -0.097 F 
ATOM     12  F4  UNL d   1       5.998   0.071   1.986  0.00  0.00    -0.092 F 
ENDROOT
TORSDOF 0
ENDMDL
