MODEL 1
REMARK minimizedAffinity 12.7090416
REMARK minimizedRMSD -1
REMARK  0 active torsions:
REMARK  status: ('A' for Active; 'I' for Inactive)
ROOT
ATOM      1  C   UNL d   1      -5.258   2.386   2.451  0.00  0.00     0.124 A 
ATOM      2  C1  UNL d   1      -4.917   2.081   3.761  0.00  0.00     0.062 A 
ATOM      3  C2  UNL d   1      -4.936   3.072   4.738  0.00  0.00     0.162 A 
ATOM      4  C3  UNL d   1      -5.298   4.378   4.409  0.00  0.00    -0.034 A 
ATOM      5  C4  UNL d   1      -5.639   4.677   3.088  0.00  0.00     0.162 A 
ATOM      6  C5  UNL d   1      -5.619   3.683   2.116  0.00  0.00     0.062 A 
ATOM      7  F   UNL d   1      -5.948   3.979   0.850  0.00  0.00    -0.097 F 
ATOM      8  F1  UNL d   1      -5.992   5.922   2.737  0.00  0.00    -0.096 F 
ATOM      9  I   UNL d   1      -5.328   5.863   5.867  0.00  0.00    -0.060 I 
ATOM     10  F2  UNL d   1      -4.602   2.749   5.996  0.00  0.00    -0.096 F 
ATOM     11  F3  UNL d   1      -4.567   0.828   4.087  0.00  0.00    -0.097 F 
ATOM     12  F4  UNL d   1      -5.238   1.430   1.513  0.00  0.00    -0.092 F 
ENDROOT
TORSDOF 0
ENDMDL
