MODEL 1
REMARK minimizedAffinity 22.0341988
REMARK minimizedRMSD -1
REMARK  0 active torsions:
REMARK  status: ('A' for Active; 'I' for Inactive)
ROOT
ATOM      1  C   UNL d   1       3.586   0.006   1.900  0.00  0.00     0.124 A 
ATOM      2  C1  UNL d   1       4.685  -0.236   1.088  0.00  0.00     0.062 A 
ATOM      3  C2  UNL d   1       4.926   0.568  -0.022  0.00  0.00     0.162 A 
ATOM      4  C3  UNL d   1       4.065   1.622  -0.328  0.00  0.00    -0.034 A 
ATOM      5  C4  UNL d   1       2.961   1.859   0.493  0.00  0.00     0.162 A 
ATOM      6  C5  UNL d   1       2.725   1.053   1.602  0.00  0.00     0.062 A 
ATOM      7  F   UNL d   1       1.663   1.289   2.386  0.00  0.00    -0.097 F 
ATOM      8  F1  UNL d   1       2.114   2.865   0.229  0.00  0.00    -0.096 F 
ATOM      9  I   UNL d   1       4.421   2.826  -1.988  0.00  0.00    -0.060 I 
ATOM     10  F2  UNL d   1       5.996   0.310  -0.789  0.00  0.00    -0.096 F 
ATOM     11  F3  UNL d   1       5.518  -1.247   1.374  0.00  0.00    -0.097 F 
ATOM     12  F4  UNL d   1       3.357  -0.769   2.968  0.00  0.00    -0.092 F 
ENDROOT
TORSDOF 0
ENDMDL
