MODEL 1
REMARK minimizedAffinity 19.1507149
REMARK minimizedRMSD -1
REMARK  0 active torsions:
REMARK  status: ('A' for Active; 'I' for Inactive)
ROOT
ATOM      1  C   UNL d   1      -1.115  -3.630  -2.691  0.00  0.00     0.124 A 
ATOM      2  C1  UNL d   1       0.103  -3.751  -2.036  0.00  0.00     0.062 A 
ATOM      3  C2  UNL d   1       0.270  -3.212  -0.764  0.00  0.00     0.162 A 
ATOM      4  C3  UNL d   1      -0.784  -2.546  -0.137  0.00  0.00    -0.034 A 
ATOM      5  C4  UNL d   1      -2.005  -2.427  -0.803  0.00  0.00     0.162 A 
ATOM      6  C5  UNL d   1      -2.168  -2.968  -2.074  0.00  0.00     0.062 A 
ATOM      7  F   UNL d   1      -3.345  -2.850  -2.705  0.00  0.00    -0.097 F 
ATOM      8  F1  UNL d   1      -3.039  -1.794  -0.230  0.00  0.00    -0.096 F 
ATOM      9  I   UNL d   1      -0.537  -1.738   1.765  0.00  0.00    -0.060 I 
ATOM     10  F2  UNL d   1       1.458  -3.344  -0.154  0.00  0.00    -0.096 F 
ATOM     11  F3  UNL d   1       1.121  -4.389  -2.630  0.00  0.00    -0.097 F 
ATOM     12  F4  UNL d   1      -1.273  -4.149  -3.915  0.00  0.00    -0.092 F 
ENDROOT
TORSDOF 0
ENDMDL
