MODEL 1
REMARK minimizedAffinity 25.6631241
REMARK minimizedRMSD -1
REMARK  0 active torsions:
REMARK  status: ('A' for Active; 'I' for Inactive)
ROOT
ATOM      1  C   UNL d   1       1.435   0.937   2.202  0.00  0.00     0.124 A 
ATOM      2  C1  UNL d   1       2.358   0.520   3.151  0.00  0.00     0.062 A 
ATOM      3  C2  UNL d   1       3.662   0.213   2.772  0.00  0.00     0.162 A 
ATOM      4  C3  UNL d   1       4.051   0.323   1.437  0.00  0.00    -0.034 A 
ATOM      5  C4  UNL d   1       3.117   0.742   0.488  0.00  0.00     0.162 A 
ATOM      6  C5  UNL d   1       1.815   1.048   0.872  0.00  0.00     0.062 A 
ATOM      7  F   UNL d   1       0.925   1.451  -0.046  0.00  0.00    -0.097 F 
ATOM      8  F1  UNL d   1       3.458   0.859  -0.804  0.00  0.00    -0.096 F 
ATOM      9  I   UNL d   1       5.999  -0.135   0.867  0.00  0.00    -0.060 I 
ATOM     10  F2  UNL d   1       4.532  -0.187   3.711  0.00  0.00    -0.096 F 
ATOM     11  F3  UNL d   1       1.993   0.411   4.437  0.00  0.00    -0.097 F 
ATOM     12  F4  UNL d   1       0.181   1.231   2.569  0.00  0.00    -0.092 F 
ENDROOT
TORSDOF 0
ENDMDL
