MODEL 1
REMARK minimizedAffinity 18.331337
REMARK minimizedRMSD -1
REMARK  0 active torsions:
REMARK  status: ('A' for Active; 'I' for Inactive)
ROOT
ATOM      1  C   UNL d   1      -1.861  -2.600  -1.827  0.00  0.00     0.124 A 
ATOM      2  C1  UNL d   1      -1.264  -2.600  -0.574  0.00  0.00     0.062 A 
ATOM      3  C2  UNL d   1      -1.606  -3.569   0.364  0.00  0.00     0.162 A 
ATOM      4  C3  UNL d   1      -2.550  -4.548   0.052  0.00  0.00    -0.034 A 
ATOM      5  C4  UNL d   1      -3.146  -4.541  -1.210  0.00  0.00     0.162 A 
ATOM      6  C5  UNL d   1      -2.801  -3.570  -2.144  0.00  0.00     0.062 A 
ATOM      7  F   UNL d   1      -3.378  -3.572  -3.354  0.00  0.00    -0.097 F 
ATOM      8  F1  UNL d   1      -4.057  -5.468  -1.543  0.00  0.00    -0.096 F 
ATOM      9  I   UNL d   1      -3.064  -5.999   1.452  0.00  0.00    -0.060 I 
ATOM     10  F2  UNL d   1      -1.014  -3.545   1.567  0.00  0.00    -0.096 F 
ATOM     11  F3  UNL d   1      -0.356  -1.663  -0.266  0.00  0.00    -0.097 F 
ATOM     12  F4  UNL d   1      -1.530  -1.665  -2.728  0.00  0.00    -0.092 F 
ENDROOT
TORSDOF 0
ENDMDL
