MODEL 1
REMARK minimizedAffinity 23.4682198
REMARK minimizedRMSD -1
REMARK  0 active torsions:
REMARK  status: ('A' for Active; 'I' for Inactive)
ROOT
ATOM      1  C   UNL d   1       4.905   0.681   0.128  0.00  0.00     0.124 A 
ATOM      2  C1  UNL d   1       3.945   1.675   0.253  0.00  0.00     0.062 A 
ATOM      3  C2  UNL d   1       2.900   1.529   1.160  0.00  0.00     0.162 A 
ATOM      4  C3  UNL d   1       2.809   0.383   1.951  0.00  0.00    -0.034 A 
ATOM      5  C4  UNL d   1       3.778  -0.613   1.819  0.00  0.00     0.162 A 
ATOM      6  C5  UNL d   1       4.821  -0.462   0.911  0.00  0.00     0.062 A 
ATOM      7  F   UNL d   1       5.748  -1.424   0.792  0.00  0.00    -0.097 F 
ATOM      8  F1  UNL d   1       3.721  -1.727   2.564  0.00  0.00    -0.096 F 
ATOM      9  I   UNL d   1       1.247   0.161   3.308  0.00  0.00    -0.060 I 
ATOM     10  F2  UNL d   1       1.986   2.506   1.259  0.00  0.00    -0.096 F 
ATOM     11  F3  UNL d   1       4.024   2.780  -0.503  0.00  0.00    -0.097 F 
ATOM     12  F4  UNL d   1       5.910   0.823  -0.746  0.00  0.00    -0.092 F 
ENDROOT
TORSDOF 0
ENDMDL
