MODEL 1
REMARK minimizedAffinity 25.0629292
REMARK minimizedRMSD -1
REMARK  0 active torsions:
REMARK  status: ('A' for Active; 'I' for Inactive)
ROOT
ATOM      1  C   UNL d   1       2.876   0.997   1.358  0.00  0.00     0.124 A 
ATOM      2  C1  UNL d   1       3.368   0.174   2.362  0.00  0.00     0.062 A 
ATOM      3  C2  UNL d   1       2.686   0.061   3.570  0.00  0.00     0.162 A 
ATOM      4  C3  UNL d   1       1.504   0.772   3.781  0.00  0.00    -0.034 A 
ATOM      5  C4  UNL d   1       1.017   1.597   2.767  0.00  0.00     0.162 A 
ATOM      6  C5  UNL d   1       1.701   1.707   1.561  0.00  0.00     0.062 A 
ATOM      7  F   UNL d   1       1.225   2.502   0.591  0.00  0.00    -0.097 F 
ATOM      8  F1  UNL d   1      -0.117   2.294   2.936  0.00  0.00    -0.096 F 
ATOM      9  I   UNL d   1       0.482   0.605   5.586  0.00  0.00    -0.060 I 
ATOM     10  F2  UNL d   1       3.184  -0.741   4.523  0.00  0.00    -0.096 F 
ATOM     11  F3  UNL d   1       4.503  -0.512   2.169  0.00  0.00    -0.097 F 
ATOM     12  F4  UNL d   1       3.534   1.104   0.196  0.00  0.00    -0.092 F 
ENDROOT
TORSDOF 0
ENDMDL
