MODEL 1
REMARK minimizedAffinity 14.3310385
REMARK minimizedRMSD -1
REMARK  0 active torsions:
REMARK  status: ('A' for Active; 'I' for Inactive)
ROOT
ATOM      1  C   UNL d   1      -1.240  -2.551  -2.494  0.00  0.00     0.124 A 
ATOM      2  C1  UNL d   1      -1.924  -2.926  -1.346  0.00  0.00     0.062 A 
ATOM      3  C2  UNL d   1      -3.056  -3.731  -1.437  0.00  0.00     0.162 A 
ATOM      4  C3  UNL d   1      -3.511  -4.167  -2.681  0.00  0.00    -0.034 A 
ATOM      5  C4  UNL d   1      -2.819  -3.785  -3.831  0.00  0.00     0.162 A 
ATOM      6  C5  UNL d   1      -1.688  -2.981  -3.735  0.00  0.00     0.062 A 
ATOM      7  F   UNL d   1      -1.028  -2.620  -4.845  0.00  0.00    -0.097 F 
ATOM      8  F1  UNL d   1      -3.229  -4.187  -5.043  0.00  0.00    -0.096 F 
ATOM      9  I   UNL d   1      -5.203  -5.371  -2.821  0.00  0.00    -0.060 I 
ATOM     10  F2  UNL d   1      -3.697  -4.078  -0.311  0.00  0.00    -0.096 F 
ATOM     11  F3  UNL d   1      -1.494  -2.511  -0.145  0.00  0.00    -0.097 F 
ATOM     12  F4  UNL d   1      -0.152  -1.776  -2.404  0.00  0.00    -0.092 F 
ENDROOT
TORSDOF 0
ENDMDL
