MODEL 1
REMARK minimizedAffinity 14.3624773
REMARK minimizedRMSD -1
REMARK  0 active torsions:
REMARK  status: ('A' for Active; 'I' for Inactive)
ROOT
ATOM      1  C   UNL d   1       1.442   0.773   2.619  0.00  0.00     0.124 A 
ATOM      2  C1  UNL d   1       2.039   0.998   1.387  0.00  0.00     0.062 A 
ATOM      3  C2  UNL d   1       3.340   0.564   1.150  0.00  0.00     0.162 A 
ATOM      4  C3  UNL d   1       4.053  -0.101   2.148  0.00  0.00    -0.034 A 
ATOM      5  C4  UNL d   1       3.446  -0.323   3.385  0.00  0.00     0.162 A 
ATOM      6  C5  UNL d   1       2.145   0.112   3.617  0.00  0.00     0.062 A 
ATOM      7  F   UNL d   1       1.569  -0.106   4.808  0.00  0.00    -0.097 F 
ATOM      8  F1  UNL d   1       4.102  -0.959   4.367  0.00  0.00    -0.096 F 
ATOM      9  I   UNL d   1       5.999  -0.751   1.798  0.00  0.00    -0.060 I 
ATOM     10  F2  UNL d   1       3.893   0.796  -0.050  0.00  0.00    -0.096 F 
ATOM     11  F3  UNL d   1       1.362   1.636   0.422  0.00  0.00    -0.097 F 
ATOM     12  F4  UNL d   1       0.190   1.192   2.845  0.00  0.00    -0.092 F 
ENDROOT
TORSDOF 0
ENDMDL
