MODEL 1
REMARK minimizedAffinity 22.1233864
REMARK minimizedRMSD -1
REMARK  0 active torsions:
REMARK  status: ('A' for Active; 'I' for Inactive)
ROOT
ATOM      1  C   UNL d   1      -2.151  -2.978  -2.075  0.00  0.00     0.124 A 
ATOM      2  C1  UNL d   1      -3.192  -2.771  -1.180  0.00  0.00     0.062 A 
ATOM      3  C2  UNL d   1      -2.930  -2.644   0.181  0.00  0.00     0.162 A 
ATOM      4  C3  UNL d   1      -1.621  -2.723   0.656  0.00  0.00    -0.034 A 
ATOM      5  C4  UNL d   1      -0.579  -2.933  -0.250  0.00  0.00     0.162 A 
ATOM      6  C5  UNL d   1      -0.846  -3.059  -1.610  0.00  0.00     0.062 A 
ATOM      7  F   UNL d   1       0.160  -3.259  -2.473  0.00  0.00    -0.097 F 
ATOM      8  F1  UNL d   1       0.691  -3.014   0.172  0.00  0.00    -0.096 F 
ATOM      9  I   UNL d   1      -1.224  -2.534   2.690  0.00  0.00    -0.060 I 
ATOM     10  F2  UNL d   1      -3.955  -2.445   1.023  0.00  0.00    -0.096 F 
ATOM     11  F3  UNL d   1      -4.453  -2.694  -1.628  0.00  0.00    -0.097 F 
ATOM     12  F4  UNL d   1      -2.406  -3.101  -3.384  0.00  0.00    -0.092 F 
ENDROOT
TORSDOF 0
ENDMDL
