MODEL 1
REMARK minimizedAffinity -3.70042133
REMARK minimizedRMSD -1
REMARK  1 active torsions:
REMARK  status: ('A' for Active; 'I' for Inactive)
REMARK    1  A    between atoms: C1_2  and  C2_3 
ROOT
ATOM      1  C2  UNL d   1      -0.115  -0.353  -1.499  0.00  0.00    -0.081 A 
ATOM      2  C3  UNL d   1      -1.382   0.045  -1.055  0.00  0.00     0.006 A 
ATOM      3  C4  UNL d   1      -1.583   0.408   0.279  0.00  0.00     0.002 A 
ATOM      4  C5  UNL d   1      -0.520   0.387   1.188  0.00  0.00    -0.080 A 
ATOM      5  C6  UNL d   1      -0.715   0.804   2.616  0.00  0.00     0.076 C 
ATOM      6  C7  UNL d   1       0.742  -0.027   0.748  0.00  0.00     0.002 A 
ATOM      7  C8  UNL d   1       0.944  -0.391  -0.585  0.00  0.00     0.006 A 
ENDROOT
BRANCH   1   8
ATOM      8  C1  UNL d   1       0.119  -0.683  -2.951  0.00  0.00     0.054 C 
ATOM      9  C   UNL d   1       1.127   0.269  -3.579  0.00  0.00     0.018 C 
ENDBRANCH   1   8
TORSDOF 1
ENDMDL
