MODEL 1
REMARK minimizedAffinity -2.25918937
REMARK minimizedRMSD -1
REMARK  1 active torsions:
REMARK  status: ('A' for Active; 'I' for Inactive)
REMARK    1  A    between atoms: C1_2  and  C2_3 
ROOT
ATOM      1  C2  UNL d   1      -0.126  -0.261  -1.753  0.00  0.00    -0.081 A 
ATOM      2  C3  UNL d   1       0.484  -0.835  -0.631  0.00  0.00     0.006 A 
ATOM      3  C4  UNL d   1      -0.075  -0.675   0.639  0.00  0.00     0.002 A 
ATOM      4  C5  UNL d   1      -1.258   0.055   0.807  0.00  0.00    -0.080 A 
ATOM      5  C6  UNL d   1      -1.885   0.209   2.160  0.00  0.00     0.076 C 
ATOM      6  C7  UNL d   1      -1.858   0.643  -0.312  0.00  0.00     0.002 A 
ATOM      7  C8  UNL d   1      -1.298   0.483  -1.582  0.00  0.00     0.006 A 
ENDROOT
BRANCH   1   8
ATOM      8  C1  UNL d   1       0.439  -0.486  -3.132  0.00  0.00     0.054 C 
ATOM      9  C   UNL d   1       0.789   0.832  -3.809  0.00  0.00     0.018 C 
ENDBRANCH   1   8
TORSDOF 1
ENDMDL
