MODEL 1
REMARK minimizedAffinity -2.79292059
REMARK minimizedRMSD -1
REMARK  1 active torsions:
REMARK  status: ('A' for Active; 'I' for Inactive)
REMARK    1  A    between atoms: C1_2  and  C2_3 
ROOT
ATOM      1  C2  UNL d   1       0.061  -0.277  -1.646  0.00  0.00    -0.081 A 
ATOM      2  C3  UNL d   1       0.794  -0.814  -0.580  0.00  0.00     0.006 A 
ATOM      3  C4  UNL d   1       0.330  -0.691   0.731  0.00  0.00     0.002 A 
ATOM      4  C5  UNL d   1      -0.877  -0.037   0.999  0.00  0.00    -0.080 A 
ATOM      5  C6  UNL d   1      -1.402   0.075   2.400  0.00  0.00     0.076 C 
ATOM      6  C7  UNL d   1      -1.601   0.515  -0.064  0.00  0.00     0.002 A 
ATOM      7  C8  UNL d   1      -1.137   0.393  -1.375  0.00  0.00     0.006 A 
ENDROOT
BRANCH   1   8
ATOM      8  C1  UNL d   1       0.526  -0.464  -3.067  0.00  0.00     0.054 C 
ATOM      9  C   UNL d   1       1.195   0.794  -3.601  0.00  0.00     0.018 C 
ENDBRANCH   1   8
TORSDOF 1
ENDMDL
