MODEL 1
REMARK minimizedAffinity 21.2235756
REMARK minimizedRMSD -1
REMARK  0 active torsions:
REMARK  status: ('A' for Active; 'I' for Inactive)
ROOT
ATOM      1  N1  IND d   1      -1.765  -1.467   1.123  0.00  0.00    -0.196 N 
ATOM      2  C2  IND d   1      -2.634  -0.414   1.187  0.00  0.00     0.054 A 
ATOM      3  C3  IND d   1      -2.084   0.608   1.880  0.00  0.00    -0.031 A 
ATOM      4  C4  IND d   1       0.267   0.808   2.909  0.00  0.00     0.051 A 
ATOM      5  C5  IND d   1       1.407   0.090   3.139  0.00  0.00    -0.031 A 
ATOM      6  C6  IND d   1       1.552  -1.209   2.698  0.00  0.00     0.015 A 
ATOM      7  C7  IND d   1       0.562  -1.838   1.996  0.00  0.00    -0.016 A 
ATOM      8  C8  IND d   1      -0.599  -1.114   1.767  0.00  0.00    -0.047 A 
ATOM      9  C9  IND d   1      -0.769   0.190   2.250  0.00  0.00    -0.096 A 
ATOM     10  HN1 IND d   1      -1.920  -2.224   0.744  0.00  0.00     0.298 HD
ENDROOT
TORSDOF 0
ENDMDL
