MODEL 1
REMARK minimizedAffinity 13.7979298
REMARK minimizedRMSD -1
REMARK  0 active torsions:
REMARK  status: ('A' for Active; 'I' for Inactive)
ROOT
ATOM      1  N1  IND d   1       5.802  -2.510   4.864  0.00  0.00    -0.196 N 
ATOM      2  C2  IND d   1       6.000  -3.852   5.037  0.00  0.00     0.054 A 
ATOM      3  C3  IND d   1       4.835  -4.522   4.890  0.00  0.00    -0.031 A 
ATOM      4  C4  IND d   1       2.502  -3.630   4.266  0.00  0.00     0.051 A 
ATOM      5  C5  IND d   1       1.817  -2.469   4.044  0.00  0.00    -0.031 A 
ATOM      6  C6  IND d   1       2.438  -1.237   4.083  0.00  0.00     0.015 A 
ATOM      7  C7  IND d   1       3.776  -1.122   4.334  0.00  0.00    -0.016 A 
ATOM      8  C8  IND d   1       4.473  -2.298   4.567  0.00  0.00    -0.047 A 
ATOM      9  C9  IND d   1       3.840  -3.548   4.571  0.00  0.00    -0.096 A 
ATOM     10  HN1 IND d   1       6.405  -1.902   4.930  0.00  0.00     0.298 HD
ENDROOT
TORSDOF 0
ENDMDL
