MODEL 1
REMARK minimizedAffinity 6.35643435
REMARK minimizedRMSD -1
REMARK  0 active torsions:
REMARK  status: ('A' for Active; 'I' for Inactive)
ROOT
ATOM      1  N1  IND d   1      -0.685  -1.243  -3.763  0.00  0.00    -0.196 N 
ATOM      2  C2  IND d   1       0.003  -0.751  -4.837  0.00  0.00     0.054 A 
ATOM      3  C3  IND d   1      -0.002  -1.646  -5.850  0.00  0.00    -0.031 A 
ATOM      4  C4  IND d   1      -1.165  -3.938  -6.000  0.00  0.00     0.051 A 
ATOM      5  C5  IND d   1      -1.882  -4.833  -5.256  0.00  0.00    -0.031 A 
ATOM      6  C6  IND d   1      -2.246  -4.571  -3.951  0.00  0.00     0.015 A 
ATOM      7  C7  IND d   1      -1.915  -3.393  -3.343  0.00  0.00    -0.016 A 
ATOM      8  C8  IND d   1      -1.181  -2.485  -4.092  0.00  0.00    -0.047 A 
ATOM      9  C9  IND d   1      -0.772  -2.764  -5.403  0.00  0.00    -0.096 A 
ATOM     10  HN1 IND d   1      -0.789  -0.844  -3.009  0.00  0.00     0.298 HD
ENDROOT
TORSDOF 0
ENDMDL
