MODEL 1
REMARK minimizedAffinity 8.67935467
REMARK minimizedRMSD -1
REMARK  0 active torsions:
REMARK  status: ('A' for Active; 'I' for Inactive)
ROOT
ATOM      1  N1  IND d   1      -1.739  -6.000  -4.407  0.00  0.00    -0.196 N 
ATOM      2  C2  IND d   1      -2.149  -6.000  -3.102  0.00  0.00     0.054 A 
ATOM      3  C3  IND d   1      -2.076  -4.752  -2.587  0.00  0.00    -0.031 A 
ATOM      4  C4  IND d   1      -1.411  -2.545  -3.732  0.00  0.00     0.051 A 
ATOM      5  C5  IND d   1      -0.924  -2.046  -4.908  0.00  0.00    -0.031 A 
ATOM      6  C6  IND d   1      -0.682  -2.855  -5.999  0.00  0.00     0.015 A 
ATOM      7  C7  IND d   1      -0.929  -4.198  -5.959  0.00  0.00    -0.016 A 
ATOM      8  C8  IND d   1      -1.417  -4.709  -4.765  0.00  0.00    -0.047 A 
ATOM      9  C9  IND d   1      -1.624  -3.900  -3.640  0.00  0.00    -0.096 A 
ATOM     10  HN1 IND d   1      -1.691  -6.690  -4.917  0.00  0.00     0.298 HD
ENDROOT
TORSDOF 0
ENDMDL
