MODEL 1
REMARK minimizedAffinity 18.4286919
REMARK minimizedRMSD -1
REMARK  0 active torsions:
REMARK  status: ('A' for Active; 'I' for Inactive)
ROOT
ATOM      1  N1  IND d   1      -0.535  -0.737  -4.501  0.00  0.00    -0.196 N 
ATOM      2  C2  IND d   1       0.732  -0.373  -4.141  0.00  0.00     0.054 A 
ATOM      3  C3  IND d   1       1.602  -1.373  -4.408  0.00  0.00    -0.031 A 
ATOM      4  C4  IND d   1       1.181  -3.652  -5.529  0.00  0.00     0.051 A 
ATOM      5  C5  IND d   1       0.177  -4.452  -6.000  0.00  0.00    -0.031 A 
ATOM      6  C6  IND d   1      -1.141  -4.044  -5.998  0.00  0.00     0.015 A 
ATOM      7  C7  IND d   1      -1.505  -2.812  -5.533  0.00  0.00    -0.016 A 
ATOM      8  C8  IND d   1      -0.490  -2.001  -5.048  0.00  0.00    -0.047 A 
ATOM      9  C9  IND d   1       0.844  -2.425  -5.007  0.00  0.00    -0.096 A 
ATOM     10  HN1 IND d   1      -1.242  -0.257  -4.403  0.00  0.00     0.298 HD
ENDROOT
TORSDOF 0
ENDMDL
