MODEL 1
REMARK minimizedAffinity 8.26220226
REMARK minimizedRMSD -1
REMARK  0 active torsions:
REMARK  status: ('A' for Active; 'I' for Inactive)
ROOT
ATOM      1  N1  IND d   1       1.567   0.061  -4.453  0.00  0.00    -0.196 N 
ATOM      2  C2  IND d   1       2.737  -0.154  -3.779  0.00  0.00     0.054 A 
ATOM      3  C3  IND d   1       2.520  -0.937  -2.699  0.00  0.00    -0.031 A 
ATOM      4  C4  IND d   1       0.345  -2.063  -1.905  0.00  0.00     0.051 A 
ATOM      5  C5  IND d   1      -0.993  -2.132  -2.176  0.00  0.00    -0.031 A 
ATOM      6  C6  IND d   1      -1.557  -1.463  -3.243  0.00  0.00     0.015 A 
ATOM      7  C7  IND d   1      -0.798  -0.705  -4.089  0.00  0.00    -0.016 A 
ATOM      8  C8  IND d   1       0.560  -0.626  -3.813  0.00  0.00    -0.047 A 
ATOM      9  C9  IND d   1       1.130  -1.269  -2.707  0.00  0.00    -0.096 A 
ATOM     10  HN1 IND d   1       1.477   0.544  -5.159  0.00  0.00     0.298 HD
ENDROOT
TORSDOF 0
ENDMDL
