MODEL 1
REMARK minimizedAffinity 13.5472927
REMARK minimizedRMSD -1
REMARK  0 active torsions:
REMARK  status: ('A' for Active; 'I' for Inactive)
ROOT
ATOM      1  N1  IND d   1      -2.218   0.252   1.618  0.00  0.00    -0.196 N 
ATOM      2  C2  IND d   1      -2.407   1.568   1.935  0.00  0.00     0.054 A 
ATOM      3  C3  IND d   1      -1.306   2.068   2.540  0.00  0.00    -0.031 A 
ATOM      4  C4  IND d   1       0.955   0.935   3.019  0.00  0.00     0.051 A 
ATOM      5  C5  IND d   1       1.592  -0.272   2.945  0.00  0.00    -0.031 A 
ATOM      6  C6  IND d   1       0.980  -1.388   2.412  0.00  0.00     0.015 A 
ATOM      7  C7  IND d   1      -0.293  -1.335   1.920  0.00  0.00    -0.016 A 
ATOM      8  C8  IND d   1      -0.946  -0.113   2.000  0.00  0.00    -0.047 A 
ATOM      9  C9  IND d   1      -0.345   1.012   2.579  0.00  0.00    -0.096 A 
ATOM     10  HN1 IND d   1      -2.797  -0.262   1.243  0.00  0.00     0.298 HD
ENDROOT
TORSDOF 0
ENDMDL
