MODEL 1
REMARK minimizedAffinity 12.9521513
REMARK minimizedRMSD -1
REMARK  0 active torsions:
REMARK  status: ('A' for Active; 'I' for Inactive)
ROOT
ATOM      1  N1  IND d   1      -0.290  -1.558  -4.921  0.00  0.00    -0.196 N 
ATOM      2  C2  IND d   1      -0.325  -1.081  -3.641  0.00  0.00     0.054 A 
ATOM      3  C3  IND d   1      -0.956  -1.958  -2.829  0.00  0.00    -0.031 A 
ATOM      4  C4  IND d   1      -1.920  -4.284  -3.368  0.00  0.00     0.051 A 
ATOM      5  C5  IND d   1      -2.156  -5.137  -4.409  0.00  0.00    -0.031 A 
ATOM      6  C6  IND d   1      -1.773  -4.836  -5.700  0.00  0.00     0.015 A 
ATOM      7  C7  IND d   1      -1.125  -3.670  -5.997  0.00  0.00    -0.016 A 
ATOM      8  C8  IND d   1      -0.890  -2.798  -4.943  0.00  0.00    -0.047 A 
ATOM      9  C9  IND d   1      -1.314  -3.079  -3.638  0.00  0.00    -0.096 A 
ATOM     10  HN1 IND d   1       0.049  -1.152  -5.599  0.00  0.00     0.298 HD
ENDROOT
TORSDOF 0
ENDMDL
