MODEL 1
REMARK minimizedAffinity 13.4108353
REMARK minimizedRMSD -1
REMARK  0 active torsions:
REMARK  status: ('A' for Active; 'I' for Inactive)
ROOT
ATOM      1  N1  IND d   1      -1.098  -3.771  -5.999  0.00  0.00    -0.196 N 
ATOM      2  C2  IND d   1      -1.966  -4.775  -5.672  0.00  0.00     0.054 A 
ATOM      3  C3  IND d   1      -2.275  -4.721  -4.357  0.00  0.00    -0.031 A 
ATOM      4  C4  IND d   1      -1.552  -3.008  -2.577  0.00  0.00     0.051 A 
ATOM      5  C5  IND d   1      -0.734  -1.928  -2.389  0.00  0.00    -0.031 A 
ATOM      6  C6  IND d   1       0.017  -1.396  -3.417  0.00  0.00     0.015 A 
ATOM      7  C7  IND d   1      -0.031  -1.918  -4.679  0.00  0.00    -0.016 A 
ATOM      8  C8  IND d   1      -0.854  -3.018  -4.871  0.00  0.00    -0.047 A 
ATOM      9  C9  IND d   1      -1.586  -3.589  -3.822  0.00  0.00    -0.096 A 
ATOM     10  HN1 IND d   1      -0.761  -3.632  -6.778  0.00  0.00     0.298 HD
ENDROOT
TORSDOF 0
ENDMDL
