MODEL 1
REMARK minimizedAffinity 22.9559784
REMARK minimizedRMSD -1
REMARK  0 active torsions:
REMARK  status: ('A' for Active; 'I' for Inactive)
ROOT
ATOM      1  N1  IND d   1      -1.625  -2.917  -2.779  0.00  0.00    -0.196 N 
ATOM      2  C2  IND d   1      -1.049  -2.973  -1.540  0.00  0.00     0.054 A 
ATOM      3  C3  IND d   1      -0.029  -2.090  -1.456  0.00  0.00    -0.031 A 
ATOM      4  C4  IND d   1       0.804  -0.382  -3.193  0.00  0.00     0.051 A 
ATOM      5  C5  IND d   1       0.616   0.018  -4.486  0.00  0.00    -0.031 A 
ATOM      6  C6  IND d   1      -0.350  -0.549  -5.292  0.00  0.00     0.015 A 
ATOM      7  C7  IND d   1      -1.175  -1.535  -4.828  0.00  0.00    -0.016 A 
ATOM      8  C8  IND d   1      -0.982  -1.949  -3.518  0.00  0.00    -0.047 A 
ATOM      9  C9  IND d   1       0.024  -1.406  -2.709  0.00  0.00    -0.096 A 
ATOM     10  HN1 IND d   1      -2.278  -3.406  -3.051  0.00  0.00     0.298 HD
ENDROOT
TORSDOF 0
ENDMDL
