MODEL 1
REMARK minimizedAffinity 9.06218815
REMARK minimizedRMSD -1
REMARK  0 active torsions:
REMARK  status: ('A' for Active; 'I' for Inactive)
ROOT
ATOM      1  C2' OXE d   1      -2.553   2.094   1.480  0.00  0.00     0.078 C 
ATOM      2  C1' OXE d   1      -4.811   1.377  -0.026  0.00  0.00     0.078 C 
ATOM      3  C1  OXE d   1      -4.857   2.679   0.733  0.00  0.00    -0.078 A 
ATOM      4  C2  OXE d   1      -3.766   3.000   1.505  0.00  0.00    -0.078 A 
ATOM      5  C3  OXE d   1      -3.734   4.215   2.183  0.00  0.00     0.003 A 
ATOM      6  C4  OXE d   1      -4.863   5.042   2.209  0.00  0.00    -0.002 A 
ATOM      7  C5  OXE d   1      -6.000   4.715   1.462  0.00  0.00    -0.002 A 
ATOM      8  C6  OXE d   1      -5.997   3.561   0.687  0.00  0.00     0.003 A 
ENDROOT
TORSDOF 0
ENDMDL
