MODEL 1
REMARK minimizedAffinity 7.3113203
REMARK minimizedRMSD -1
REMARK  0 active torsions:
REMARK  status: ('A' for Active; 'I' for Inactive)
ROOT
ATOM      1  C2' OXE d   1      -1.899   3.358   0.035  0.00  0.00     0.078 C 
ATOM      2  C1' OXE d   1       0.587   2.488   1.008  0.00  0.00     0.078 C 
ATOM      3  C1  OXE d   1       0.561   3.735   0.159  0.00  0.00    -0.078 A 
ATOM      4  C2  OXE d   1      -0.653   4.127  -0.351  0.00  0.00    -0.078 A 
ATOM      5  C3  OXE d   1      -0.742   5.300  -1.095  0.00  0.00     0.003 A 
ATOM      6  C4  OXE d   1       0.416   5.999  -1.457  0.00  0.00    -0.002 A 
ATOM      7  C5  OXE d   1       1.667   5.595  -0.981  0.00  0.00    -0.002 A 
ATOM      8  C6  OXE d   1       1.752   4.491  -0.138  0.00  0.00     0.003 A 
ENDROOT
TORSDOF 0
ENDMDL
