MODEL 1
REMARK minimizedAffinity 5.66157722
REMARK minimizedRMSD -1
REMARK  0 active torsions:
REMARK  status: ('A' for Active; 'I' for Inactive)
ROOT
ATOM      1  C2' OXE d   1      -2.283   2.599  -0.136  0.00  0.00     0.078 C 
ATOM      2  C1' OXE d   1       0.234   1.507   0.459  0.00  0.00     0.078 C 
ATOM      3  C1  OXE d   1       0.192   2.882  -0.159  0.00  0.00    -0.078 A 
ATOM      4  C2  OXE d   1      -1.041   3.390  -0.490  0.00  0.00    -0.078 A 
ATOM      5  C3  OXE d   1      -1.140   4.676  -1.012  0.00  0.00     0.003 A 
ATOM      6  C4  OXE d   1       0.014   5.396  -1.345  0.00  0.00    -0.002 A 
ATOM      7  C5  OXE d   1       1.281   4.881  -1.053  0.00  0.00    -0.002 A 
ATOM      8  C6  OXE d   1       1.386   3.647  -0.422  0.00  0.00     0.003 A 
ENDROOT
TORSDOF 0
ENDMDL
