MODEL 1
REMARK minimizedAffinity 4.54744387
REMARK minimizedRMSD -1
REMARK  0 active torsions:
REMARK  status: ('A' for Active; 'I' for Inactive)
ROOT
ATOM      1  C2' OXE d   1      -0.098   3.455  -2.131  0.00  0.00     0.078 C 
ATOM      2  C1' OXE d   1       0.592   0.933  -3.154  0.00  0.00     0.078 C 
ATOM      3  C1  OXE d   1      -0.413   1.754  -3.924  0.00  0.00    -0.078 A 
ATOM      4  C2  OXE d   1      -0.779   2.967  -3.391  0.00  0.00    -0.078 A 
ATOM      5  C3  OXE d   1      -1.660   3.788  -4.089  0.00  0.00     0.003 A 
ATOM      6  C4  OXE d   1      -2.293   3.325  -5.248  0.00  0.00    -0.002 A 
ATOM      7  C5  OXE d   1      -1.964   2.076  -5.787  0.00  0.00    -0.002 A 
ATOM      8  C6  OXE d   1      -0.997   1.298  -5.161  0.00  0.00     0.003 A 
ENDROOT
TORSDOF 0
ENDMDL
