MODEL 1
REMARK minimizedAffinity 12.6805744
REMARK minimizedRMSD -1
REMARK  0 active torsions:
REMARK  status: ('A' for Active; 'I' for Inactive)
ROOT
ATOM      1  C2' OXE d   1       2.113   6.000  -1.556  0.00  0.00     0.078 C 
ATOM      2  C1' OXE d   1       2.758   4.310   0.591  0.00  0.00     0.078 C 
ATOM      3  C1  OXE d   1       1.324   4.338   0.124  0.00  0.00    -0.078 A 
ATOM      4  C2  OXE d   1       1.008   5.203  -0.896  0.00  0.00    -0.078 A 
ATOM      5  C3  OXE d   1      -0.289   5.228  -1.402  0.00  0.00     0.003 A 
ATOM      6  C4  OXE d   1      -1.306   4.495  -0.779  0.00  0.00    -0.002 A 
ATOM      7  C5  OXE d   1      -1.014   3.638   0.287  0.00  0.00    -0.002 A 
ATOM      8  C6  OXE d   1       0.302   3.516   0.722  0.00  0.00     0.003 A 
ENDROOT
TORSDOF 0
ENDMDL
