MODEL 1
REMARK minimizedAffinity 11.9568977
REMARK minimizedRMSD -1
REMARK  0 active torsions:
REMARK  status: ('A' for Active; 'I' for Inactive)
ROOT
ATOM      1  C2' OXE d   1      -2.000   2.996   0.804  0.00  0.00     0.078 C 
ATOM      2  C1' OXE d   1      -4.170   1.758  -0.474  0.00  0.00     0.078 C 
ATOM      3  C1  OXE d   1      -4.460   2.937   0.420  0.00  0.00    -0.078 A 
ATOM      4  C2  OXE d   1      -3.397   3.507   1.078  0.00  0.00    -0.078 A 
ATOM      5  C3  OXE d   1      -3.602   4.632   1.873  0.00  0.00     0.003 A 
ATOM      6  C4  OXE d   1      -4.899   5.092   2.130  0.00  0.00    -0.002 A 
ATOM      7  C5  OXE d   1      -6.000   4.500   1.501  0.00  0.00    -0.002 A 
ATOM      8  C6  OXE d   1      -5.794   3.451   0.612  0.00  0.00     0.003 A 
ENDROOT
TORSDOF 0
ENDMDL
