MODEL 1
REMARK minimizedAffinity 8.78115273
REMARK minimizedRMSD -1
REMARK  0 active torsions:
REMARK  status: ('A' for Active; 'I' for Inactive)
ROOT
ATOM      1  C2' OXE d   1       1.655   5.812  -1.699  0.00  0.00     0.078 C 
ATOM      2  C1' OXE d   1      -1.119   5.822  -2.125  0.00  0.00     0.078 C 
ATOM      3  C1  OXE d   1      -0.535   4.689  -1.319  0.00  0.00    -0.078 A 
ATOM      4  C2  OXE d   1       0.829   4.667  -1.155  0.00  0.00    -0.078 A 
ATOM      5  C3  OXE d   1       1.414   3.674  -0.374  0.00  0.00     0.003 A 
ATOM      6  C4  OXE d   1       0.643   2.613   0.117  0.00  0.00    -0.002 A 
ATOM      7  C5  OXE d   1      -0.743   2.595  -0.072  0.00  0.00    -0.002 A 
ATOM      8  C6  OXE d   1      -1.352   3.645  -0.750  0.00  0.00     0.003 A 
ENDROOT
TORSDOF 0
ENDMDL
