MODEL 1
REMARK minimizedAffinity 10.8155909
REMARK minimizedRMSD -1
REMARK  0 active torsions:
REMARK  status: ('A' for Active; 'I' for Inactive)
ROOT
ATOM      1  C2' OXE d   1      -1.022   0.971  -3.453  0.00  0.00     0.078 C 
ATOM      2  C1' OXE d   1       1.098  -0.100  -1.956  0.00  0.00     0.078 C 
ATOM      3  C1  OXE d   1       0.363   1.087  -1.385  0.00  0.00    -0.078 A 
ATOM      4  C2  OXE d   1      -0.643   1.633  -2.146  0.00  0.00    -0.078 A 
ATOM      5  C3  OXE d   1      -1.389   2.695  -1.642  0.00  0.00     0.003 A 
ATOM      6  C4  OXE d   1      -1.025   3.308  -0.437  0.00  0.00    -0.002 A 
ATOM      7  C5  OXE d   1       0.021   2.792   0.334  0.00  0.00    -0.002 A 
ATOM      8  C6  OXE d   1       0.696   1.658  -0.104  0.00  0.00     0.003 A 
ENDROOT
TORSDOF 0
ENDMDL
