MODEL 1
REMARK minimizedAffinity 3.13020563
REMARK minimizedRMSD -1
REMARK  0 active torsions:
REMARK  status: ('A' for Active; 'I' for Inactive)
ROOT
ATOM      1  C   UNL d   1      -5.972   3.250  -1.460  0.00  0.00     0.023 A 
ATOM      2  C1  UNL d   1      -5.996   1.861  -1.327  0.00  0.00     0.003 A 
ATOM      3  C2  UNL d   1      -5.999   1.050  -2.464  0.00  0.00     0.048 A 
ATOM      4  C3  UNL d   1      -5.977   1.634  -3.730  0.00  0.00     0.023 A 
ATOM      5  C4  UNL d   1      -5.952   3.022  -3.868  0.00  0.00     0.048 A 
ATOM      6  C5  UNL d   1      -5.950   3.830  -2.728  0.00  0.00     0.003 A 
ATOM      7  I   UNL d   1      -5.981   0.428  -5.423  0.00  0.00    -0.146 I 
ENDROOT
TORSDOF 0
ENDMDL
