MODEL 1
REMARK minimizedAffinity -2.5612061
REMARK minimizedRMSD -1
REMARK  0 active torsions:
REMARK  status: ('A' for Active; 'I' for Inactive)
ROOT
ATOM      1  C   UNL d   1      -5.959   2.862  -5.261  0.00  0.00     0.023 A 
ATOM      2  C1  UNL d   1      -5.911   4.066  -4.557  0.00  0.00     0.003 A 
ATOM      3  C2  UNL d   1      -5.903   4.059  -3.161  0.00  0.00     0.048 A 
ATOM      4  C3  UNL d   1      -5.944   2.846  -2.475  0.00  0.00     0.023 A 
ATOM      5  C4  UNL d   1      -5.992   1.639  -3.175  0.00  0.00     0.048 A 
ATOM      6  C5  UNL d   1      -6.000   1.651  -4.571  0.00  0.00     0.003 A 
ATOM      7  I   UNL d   1      -5.933   2.833  -0.397  0.00  0.00    -0.146 I 
ENDROOT
TORSDOF 0
ENDMDL
