MODEL 1
REMARK minimizedAffinity 0.0589273311
REMARK minimizedRMSD -1
REMARK  0 active torsions:
REMARK  status: ('A' for Active; 'I' for Inactive)
ROOT
ATOM      1  C   UNL d   1      -5.988   4.386  -3.026  0.00  0.00     0.023 A 
ATOM      2  C1  UNL d   1      -5.986   4.335  -4.420  0.00  0.00     0.003 A 
ATOM      3  C2  UNL d   1      -5.989   3.101  -5.075  0.00  0.00     0.048 A 
ATOM      4  C3  UNL d   1      -5.995   1.923  -4.329  0.00  0.00     0.023 A 
ATOM      5  C4  UNL d   1      -5.998   1.969  -2.934  0.00  0.00     0.048 A 
ATOM      6  C5  UNL d   1      -5.995   3.205  -2.284  0.00  0.00     0.003 A 
ATOM      7  I   UNL d   1      -5.999   0.086  -5.301  0.00  0.00    -0.146 I 
ENDROOT
TORSDOF 0
ENDMDL
