MODEL 1
REMARK minimizedAffinity 4.56880522
REMARK minimizedRMSD -1
REMARK  0 active torsions:
REMARK  status: ('A' for Active; 'I' for Inactive)
ROOT
ATOM      1  C   UNL d   1      -5.703   3.958  -3.084  0.00  0.00     0.023 A 
ATOM      2  C1  UNL d   1      -5.916   3.819  -4.456  0.00  0.00     0.003 A 
ATOM      3  C2  UNL d   1      -5.998   2.547  -5.026  0.00  0.00     0.048 A 
ATOM      4  C3  UNL d   1      -5.867   1.418  -4.219  0.00  0.00     0.023 A 
ATOM      5  C4  UNL d   1      -5.654   1.552  -2.846  0.00  0.00     0.048 A 
ATOM      6  C5  UNL d   1      -5.572   2.825  -2.280  0.00  0.00     0.003 A 
ATOM      7  I   UNL d   1      -5.988  -0.476  -5.065  0.00  0.00    -0.146 I 
ENDROOT
TORSDOF 0
ENDMDL
