MODEL 1
REMARK minimizedAffinity 0.342479706
REMARK minimizedRMSD -1
REMARK  0 active torsions:
REMARK  status: ('A' for Active; 'I' for Inactive)
ROOT
ATOM      1  C   UNL d   1      -5.883   3.485  -1.528  0.00  0.00     0.023 A 
ATOM      2  C1  UNL d   1      -5.966   2.095  -1.443  0.00  0.00     0.003 A 
ATOM      3  C2  UNL d   1      -6.000   1.324  -2.606  0.00  0.00     0.048 A 
ATOM      4  C3  UNL d   1      -5.949   1.949  -3.852  0.00  0.00     0.023 A 
ATOM      5  C4  UNL d   1      -5.866   3.339  -3.942  0.00  0.00     0.048 A 
ATOM      6  C5  UNL d   1      -5.833   4.106  -2.776  0.00  0.00     0.003 A 
ATOM      7  I   UNL d   1      -5.999   0.803  -5.585  0.00  0.00    -0.146 I 
ENDROOT
TORSDOF 0
ENDMDL
