MODEL 1
REMARK minimizedAffinity 6.11171818
REMARK minimizedRMSD -1
REMARK  0 active torsions:
REMARK  status: ('A' for Active; 'I' for Inactive)
ROOT
ATOM      1  C   UNL d   1      -1.157   5.999  -2.358  0.00  0.00     0.023 A 
ATOM      2  C1  UNL d   1      -0.003   5.936  -1.577  0.00  0.00     0.003 A 
ATOM      3  C2  UNL d   1       0.359   4.737  -0.959  0.00  0.00     0.048 A 
ATOM      4  C3  UNL d   1      -0.437   3.605  -1.126  0.00  0.00     0.023 A 
ATOM      5  C4  UNL d   1      -1.593   3.663  -1.907  0.00  0.00     0.048 A 
ATOM      6  C5  UNL d   1      -1.951   4.864  -2.523  0.00  0.00     0.003 A 
ATOM      7  I   UNL d   1       0.099   1.820  -0.207  0.00  0.00    -0.146 I 
ENDROOT
TORSDOF 0
ENDMDL
