MODEL 1
REMARK minimizedAffinity -2.95570707
REMARK minimizedRMSD -1
REMARK  0 active torsions:
REMARK  status: ('A' for Active; 'I' for Inactive)
ROOT
ATOM      1  C   UNL d   1      -5.963   3.152  -1.298  0.00  0.00     0.023 A 
ATOM      2  C1  UNL d   1      -5.929   2.165  -2.283  0.00  0.00     0.003 A 
ATOM      3  C2  UNL d   1      -5.930   2.524  -3.632  0.00  0.00     0.048 A 
ATOM      4  C3  UNL d   1      -5.964   3.872  -3.990  0.00  0.00     0.023 A 
ATOM      5  C4  UNL d   1      -5.997   4.863  -3.007  0.00  0.00     0.048 A 
ATOM      6  C5  UNL d   1      -5.997   4.499  -1.659  0.00  0.00     0.003 A 
ATOM      7  I   UNL d   1      -5.964   4.408  -5.998  0.00  0.00    -0.146 I 
ENDROOT
TORSDOF 0
ENDMDL
