MODEL 1
REMARK minimizedAffinity -2.85104251
REMARK minimizedRMSD -1
REMARK  1 active torsions:
REMARK  status: ('A' for Active; 'I' for Inactive)
REMARK    1  A    between atoms: N_2  and  C1_3 
ROOT
ATOM      1  C1  UNL d   1       0.584   1.812  -0.108  0.00  0.00     0.143 A 
ATOM      2  C2  UNL d   1      -0.057   1.239  -1.212  0.00  0.00    -0.057 A 
ATOM      3  C3  UNL d   1      -0.506  -0.087  -1.183  0.00  0.00     0.033 A 
ATOM      4  C4  UNL d   1      -0.296  -0.874  -0.056  0.00  0.00    -0.042 A 
ATOM      5  C5  UNL d   1       0.360  -0.334   1.043  0.00  0.00     0.033 A 
ATOM      6  C6  UNL d   1       0.801   0.993   1.011  0.00  0.00    -0.057 A 
ENDROOT
BRANCH   1   7
ATOM      7  N   UNL d   1       1.141   3.093  -0.110  0.00  0.00    -0.732 N 
ATOM      8  C   UNL d   1       2.259   3.412   0.752  0.00  0.00     0.284 C 
ATOM      9  H3  UNL d   1       1.214   3.483  -1.047  0.00  0.00     0.395 HD
ENDBRANCH   1   7
TORSDOF 1
ENDMDL
