MODEL 1
REMARK minimizedAffinity -3.89529467
REMARK minimizedRMSD -1
REMARK  1 active torsions:
REMARK  status: ('A' for Active; 'I' for Inactive)
REMARK    1  A    between atoms: N_2  and  C1_3 
ROOT
ATOM      1  C1  UNL d   1       1.182   2.554  -0.158  0.00  0.00     0.143 A 
ATOM      2  C2  UNL d   1       1.270   1.171   0.029  0.00  0.00    -0.057 A 
ATOM      3  C3  UNL d   1       0.147   0.414   0.385  0.00  0.00     0.033 A 
ATOM      4  C4  UNL d   1      -1.081   1.034   0.589  0.00  0.00    -0.042 A 
ATOM      5  C5  UNL d   1      -1.186   2.411   0.433  0.00  0.00     0.033 A 
ATOM      6  C6  UNL d   1      -0.062   3.161   0.072  0.00  0.00    -0.057 A 
ENDROOT
BRANCH   1   7
ATOM      7  N   UNL d   1       2.283   3.375  -0.415  0.00  0.00    -0.732 N 
ATOM      8  C   UNL d   1       3.200   3.733   0.646  0.00  0.00     0.284 C 
ATOM      9  H3  UNL d   1       2.736   3.152  -1.298  0.00  0.00     0.395 HD
ENDBRANCH   1   7
TORSDOF 1
ENDMDL
