MODEL 1
REMARK minimizedAffinity -1.60262525
REMARK minimizedRMSD -1
REMARK  1 active torsions:
REMARK  status: ('A' for Active; 'I' for Inactive)
REMARK    1  A    between atoms: N_2  and  C1_3 
ROOT
ATOM      1  C1  UNL d   1      -0.099   4.279   1.612  0.00  0.00     0.143 A 
ATOM      2  C2  UNL d   1       0.163   3.307   0.641  0.00  0.00    -0.057 A 
ATOM      3  C3  UNL d   1       1.475   2.996   0.261  0.00  0.00     0.033 A 
ATOM      4  C4  UNL d   1       2.549   3.674   0.827  0.00  0.00    -0.042 A 
ATOM      5  C5  UNL d   1       2.310   4.662   1.776  0.00  0.00     0.033 A 
ATOM      6  C6  UNL d   1       0.999   4.964   2.156  0.00  0.00    -0.057 A 
ENDROOT
BRANCH   1   7
ATOM      7  N   UNL d   1      -1.384   4.703   1.961  0.00  0.00    -0.732 N 
ATOM      8  C   UNL d   1      -2.160   5.524   1.057  0.00  0.00     0.284 C 
ATOM      9  H3  UNL d   1      -1.921   3.974   2.425  0.00  0.00     0.395 HD
ENDBRANCH   1   7
TORSDOF 1
ENDMDL
