MODEL 1
REMARK minimizedAffinity -4.12260818
REMARK minimizedRMSD -1
REMARK  1 active torsions:
REMARK  status: ('A' for Active; 'I' for Inactive)
REMARK    1  A    between atoms: N_2  and  C1_3 
ROOT
ATOM      1  C1  UNL d   1      -1.328   2.504  -0.226  0.00  0.00     0.143 A 
ATOM      2  C2  UNL d   1      -1.574   1.215   0.258  0.00  0.00    -0.057 A 
ATOM      3  C3  UNL d   1      -0.949   0.096  -0.307  0.00  0.00     0.033 A 
ATOM      4  C4  UNL d   1      -0.086   0.245  -1.387  0.00  0.00    -0.042 A 
ATOM      5  C5  UNL d   1       0.154   1.515  -1.900  0.00  0.00     0.033 A 
ATOM      6  C6  UNL d   1      -0.468   2.629  -1.328  0.00  0.00    -0.057 A 
ENDROOT
BRANCH   1   7
ATOM      7  N   UNL d   1      -1.993   3.645   0.229  0.00  0.00    -0.732 N 
ATOM      8  C   UNL d   1      -1.496   4.383   1.370  0.00  0.00     0.284 C 
ATOM      9  H3  UNL d   1      -2.323   4.232  -0.534  0.00  0.00     0.395 HD
ENDBRANCH   1   7
TORSDOF 1
ENDMDL
