MODEL 1
REMARK minimizedAffinity -3.99833679
REMARK minimizedRMSD -1
REMARK  1 active torsions:
REMARK  status: ('A' for Active; 'I' for Inactive)
REMARK    1  A    between atoms: N_2  and  C1_3 
ROOT
ATOM      1  C1  UNL d   1      -0.143   2.989   0.326  0.00  0.00     0.143 A 
ATOM      2  C2  UNL d   1      -1.095   3.788   0.967  0.00  0.00    -0.057 A 
ATOM      3  C3  UNL d   1      -0.717   4.905   1.721  0.00  0.00     0.033 A 
ATOM      4  C4  UNL d   1       0.628   5.228   1.871  0.00  0.00    -0.042 A 
ATOM      5  C5  UNL d   1       1.593   4.433   1.264  0.00  0.00     0.033 A 
ATOM      6  C6  UNL d   1       1.209   3.322   0.507  0.00  0.00    -0.057 A 
ENDROOT
BRANCH   1   7
ATOM      7  N   UNL d   1      -0.449   1.809  -0.356  0.00  0.00    -0.732 N 
ATOM      8  C   UNL d   1      -1.200   0.756   0.294  0.00  0.00     0.284 C 
ATOM      9  H3  UNL d   1      -0.720   1.977  -1.322  0.00  0.00     0.395 HD
ENDBRANCH   1   7
TORSDOF 1
ENDMDL
