MODEL 1
REMARK minimizedAffinity -2.63841558
REMARK minimizedRMSD -1
REMARK  1 active torsions:
REMARK  status: ('A' for Active; 'I' for Inactive)
REMARK    1  A    between atoms: N_2  and  C1_3 
ROOT
ATOM      1  C1  UNL d   1      -1.192   1.213  -0.236  0.00  0.00     0.143 A 
ATOM      2  C2  UNL d   1      -0.903  -0.042   0.312  0.00  0.00    -0.057 A 
ATOM      3  C3  UNL d   1      -0.052  -0.941  -0.343  0.00  0.00     0.033 A 
ATOM      4  C4  UNL d   1       0.504  -0.611  -1.574  0.00  0.00    -0.042 A 
ATOM      5  C5  UNL d   1       0.211   0.621  -2.149  0.00  0.00     0.033 A 
ATOM      6  C6  UNL d   1      -0.634   1.517  -1.487  0.00  0.00    -0.057 A 
ENDROOT
BRANCH   1   7
ATOM      7  N   UNL d   1      -2.108   2.111   0.318  0.00  0.00    -0.732 N 
ATOM      8  C   UNL d   1      -1.687   3.433   0.728  0.00  0.00     0.284 C 
ATOM      9  H3  UNL d   1      -3.008   2.088  -0.155  0.00  0.00     0.395 HD
ENDBRANCH   1   7
TORSDOF 1
ENDMDL
