MODEL 1
REMARK minimizedAffinity -4.44062996
REMARK minimizedRMSD -1
REMARK  1 active torsions:
REMARK  status: ('A' for Active; 'I' for Inactive)
REMARK    1  A    between atoms: N_2  and  C1_3 
ROOT
ATOM      1  C1  UNL d   1      -0.885  -0.805  -0.136  0.00  0.00     0.143 A 
ATOM      2  C2  UNL d   1      -0.200  -0.783  -1.356  0.00  0.00    -0.057 A 
ATOM      3  C3  UNL d   1       0.204   0.424  -1.940  0.00  0.00     0.033 A 
ATOM      4  C4  UNL d   1      -0.097   1.635  -1.327  0.00  0.00    -0.042 A 
ATOM      5  C5  UNL d   1      -0.799   1.639  -0.127  0.00  0.00     0.033 A 
ATOM      6  C6  UNL d   1      -1.194   0.431   0.455  0.00  0.00    -0.057 A 
ENDROOT
BRANCH   1   7
ATOM      7  N   UNL d   1      -1.400  -1.966   0.446  0.00  0.00    -0.732 N 
ATOM      8  C   UNL d   1      -0.728  -3.236   0.275  0.00  0.00     0.284 C 
ATOM      9  H3  UNL d   1      -1.753  -1.805   1.386  0.00  0.00     0.395 HD
ENDBRANCH   1   7
TORSDOF 1
ENDMDL
