MODEL 1
REMARK minimizedAffinity -4.33415365
REMARK minimizedRMSD -1
REMARK  1 active torsions:
REMARK  status: ('A' for Active; 'I' for Inactive)
REMARK    1  A    between atoms: N_2  and  C1_3 
ROOT
ATOM      1  C1  UNL d   1       0.159   3.138   0.004  0.00  0.00     0.143 A 
ATOM      2  C2  UNL d   1       1.341   3.629   0.570  0.00  0.00    -0.057 A 
ATOM      3  C3  UNL d   1       1.313   4.567   1.609  0.00  0.00     0.033 A 
ATOM      4  C4  UNL d   1       0.098   5.053   2.083  0.00  0.00    -0.042 A 
ATOM      5  C5  UNL d   1      -1.088   4.597   1.518  0.00  0.00     0.033 A 
ATOM      6  C6  UNL d   1      -1.053   3.656   0.485  0.00  0.00    -0.057 A 
ENDROOT
BRANCH   1   7
ATOM      7  N   UNL d   1       0.123   2.279  -1.098  0.00  0.00    -0.732 N 
ATOM      8  C   UNL d   1      -0.298   0.903  -0.946  0.00  0.00     0.284 C 
ATOM      9  H3  UNL d   1      -0.237   2.735  -1.933  0.00  0.00     0.395 HD
ENDBRANCH   1   7
TORSDOF 1
ENDMDL
