MODEL 1
REMARK minimizedAffinity -2.3312583
REMARK minimizedRMSD -1
REMARK  1 active torsions:
REMARK  status: ('A' for Active; 'I' for Inactive)
REMARK    1  A    between atoms: N_2  and  C1_3 
ROOT
ATOM      1  C1  UNL d   1      -0.211   1.060  -0.911  0.00  0.00     0.143 A 
ATOM      2  C2  UNL d   1       0.390  -0.201  -0.852  0.00  0.00    -0.057 A 
ATOM      3  C3  UNL d   1      -0.067  -1.183   0.035  0.00  0.00     0.033 A 
ATOM      4  C4  UNL d   1      -1.120  -0.909   0.902  0.00  0.00    -0.042 A 
ATOM      5  C5  UNL d   1      -1.717   0.346   0.878  0.00  0.00     0.033 A 
ATOM      6  C6  UNL d   1      -1.260   1.320  -0.015  0.00  0.00    -0.057 A 
ENDROOT
BRANCH   1   7
ATOM      7  N   UNL d   1       0.261   2.111  -1.702  0.00  0.00    -0.732 N 
ATOM      8  C   UNL d   1       0.980   3.217  -1.106  0.00  0.00     0.284 C 
ATOM      9  H3  UNL d   1       0.653   1.788  -2.584  0.00  0.00     0.395 HD
ENDBRANCH   1   7
TORSDOF 1
ENDMDL
