MODEL 1
REMARK minimizedAffinity -3.92204714
REMARK minimizedRMSD -1
REMARK  1 active torsions:
REMARK  status: ('A' for Active; 'I' for Inactive)
REMARK    1  A    between atoms: N_2  and  C1_3 
ROOT
ATOM      1  C1  UNL d   1      -0.934   1.201  -0.275  0.00  0.00     0.143 A 
ATOM      2  C2  UNL d   1      -1.090   0.188   0.677  0.00  0.00    -0.057 A 
ATOM      3  C3  UNL d   1      -0.586  -1.100   0.457  0.00  0.00     0.033 A 
ATOM      4  C4  UNL d   1       0.059  -1.406  -0.736  0.00  0.00    -0.042 A 
ATOM      5  C5  UNL d   1       0.204  -0.421  -1.708  0.00  0.00     0.033 A 
ATOM      6  C6  UNL d   1      -0.296   0.864  -1.479  0.00  0.00    -0.057 A 
ENDROOT
BRANCH   1   7
ATOM      7  N   UNL d   1      -1.499   2.473  -0.157  0.00  0.00    -0.732 N 
ATOM      8  C   UNL d   1      -1.080   3.370   0.899  0.00  0.00     0.284 C 
ATOM      9  H3  UNL d   1      -1.630   2.925  -1.059  0.00  0.00     0.395 HD
ENDBRANCH   1   7
TORSDOF 1
ENDMDL
