MODEL 1
REMARK minimizedAffinity -3.46241808
REMARK minimizedRMSD -1
REMARK  1 active torsions:
REMARK  status: ('A' for Active; 'I' for Inactive)
REMARK    1  A    between atoms: N_2  and  C1_3 
ROOT
ATOM      1  C1  UNL d   1      -0.535  -0.793   0.055  0.00  0.00     0.143 A 
ATOM      2  C2  UNL d   1      -1.021   0.324   0.743  0.00  0.00    -0.057 A 
ATOM      3  C3  UNL d   1      -1.033   1.592   0.151  0.00  0.00     0.033 A 
ATOM      4  C4  UNL d   1      -0.530   1.772  -1.133  0.00  0.00    -0.042 A 
ATOM      5  C5  UNL d   1      -0.019   0.680  -1.826  0.00  0.00     0.033 A 
ATOM      6  C6  UNL d   1      -0.016  -0.585  -1.232  0.00  0.00    -0.057 A 
ENDROOT
BRANCH   1   7
ATOM      7  N   UNL d   1      -0.405  -2.062   0.625  0.00  0.00    -0.732 N 
ATOM      8  C   UNL d   1      -1.506  -3.001   0.592  0.00  0.00     0.284 C 
ATOM      9  H3  UNL d   1       0.503  -2.480   0.440  0.00  0.00     0.395 HD
ENDBRANCH   1   7
TORSDOF 1
ENDMDL
