MODEL 1
REMARK minimizedAffinity -4.29034567
REMARK minimizedRMSD -1
REMARK  1 active torsions:
REMARK  status: ('A' for Active; 'I' for Inactive)
REMARK    1  A    between atoms: N_2  and  C1_3 
ROOT
ATOM      1  C1  UNL d   1      -0.329   2.112  -0.069  0.00  0.00     0.143 A 
ATOM      2  C2  UNL d   1       0.493   1.555  -1.055  0.00  0.00    -0.057 A 
ATOM      3  C3  UNL d   1       0.381   0.208  -1.418  0.00  0.00     0.033 A 
ATOM      4  C4  UNL d   1      -0.539  -0.617  -0.780  0.00  0.00    -0.042 A 
ATOM      5  C5  UNL d   1      -1.350  -0.091   0.220  0.00  0.00     0.033 A 
ATOM      6  C6  UNL d   1      -1.238   1.257   0.574  0.00  0.00    -0.057 A 
ENDROOT
BRANCH   1   7
ATOM      7  N   UNL d   1      -0.199   3.419   0.405  0.00  0.00    -0.732 N 
ATOM      8  C   UNL d   1      -1.237   4.014   1.220  0.00  0.00     0.284 C 
ATOM      9  H3  UNL d   1       0.746   3.626   0.719  0.00  0.00     0.395 HD
ENDBRANCH   1   7
TORSDOF 1
ENDMDL
