MODEL 1
REMARK minimizedAffinity -4.54897738
REMARK minimizedRMSD -1
REMARK  1 active torsions:
REMARK  status: ('A' for Active; 'I' for Inactive)
REMARK    1  A    between atoms: N_2  and  C1_3 
ROOT
ATOM      1  C1  UNL d   1       1.570   3.824   0.828  0.00  0.00     0.143 A 
ATOM      2  C2  UNL d   1       0.607   3.093   0.124  0.00  0.00    -0.057 A 
ATOM      3  C3  UNL d   1      -0.757   3.385   0.244  0.00  0.00     0.033 A 
ATOM      4  C4  UNL d   1      -1.185   4.398   1.096  0.00  0.00    -0.042 A 
ATOM      5  C5  UNL d   1      -0.247   5.121   1.825  0.00  0.00     0.033 A 
ATOM      6  C6  UNL d   1       1.114   4.829   1.695  0.00  0.00    -0.057 A 
ENDROOT
BRANCH   1   7
ATOM      7  N   UNL d   1       2.933   3.518   0.826  0.00  0.00    -0.732 N 
ATOM      8  C   UNL d   1       3.523   2.776   1.920  0.00  0.00     0.284 C 
ATOM      9  H3  UNL d   1       3.268   3.239  -0.093  0.00  0.00     0.395 HD
ENDBRANCH   1   7
TORSDOF 1
ENDMDL
