MODEL 1
REMARK minimizedAffinity -2.97269702
REMARK minimizedRMSD -1
REMARK  1 active torsions:
REMARK  status: ('A' for Active; 'I' for Inactive)
REMARK    1  A    between atoms: N_2  and  C1_3 
ROOT
ATOM      1  C1  UNL d   1      -0.044   0.514   0.628  0.00  0.00     0.143 A 
ATOM      2  C2  UNL d   1       0.562   1.702   1.050  0.00  0.00    -0.057 A 
ATOM      3  C3  UNL d   1       0.736   2.780   0.174  0.00  0.00     0.033 A 
ATOM      4  C4  UNL d   1       0.332   2.678  -1.153  0.00  0.00    -0.042 A 
ATOM      5  C5  UNL d   1      -0.251   1.497  -1.601  0.00  0.00     0.033 A 
ATOM      6  C6  UNL d   1      -0.428   0.427  -0.720  0.00  0.00    -0.057 A 
ENDROOT
BRANCH   1   7
ATOM      7  N   UNL d   1      -0.157  -0.628   1.425  0.00  0.00    -0.732 N 
ATOM      8  C   UNL d   1      -1.346  -1.450   1.371  0.00  0.00     0.284 C 
ATOM      9  H3  UNL d   1       0.712  -1.156   1.471  0.00  0.00     0.395 HD
ENDBRANCH   1   7
TORSDOF 1
ENDMDL
