MODEL 1
REMARK minimizedAffinity 19.5798149
REMARK minimizedRMSD -1
REMARK  0 active torsions:
REMARK  status: ('A' for Active; 'I' for Inactive)
ROOT
ATOM      1  O1  BZF d   1       0.297   4.759  -3.081  0.00  0.00    -0.204 OA
ATOM      2  C2  BZF d   1      -0.775   5.407  -2.500  0.00  0.00     0.174 A 
ATOM      3  C3  BZF d   1      -1.941   4.863  -2.906  0.00  0.00    -0.012 A 
ATOM      4  C3A BZF d   1      -1.571   3.750  -3.724  0.00  0.00    -0.107 A 
ATOM      5  C4  BZF d   1      -2.287   2.806  -4.404  0.00  0.00     0.055 A 
ATOM      6  C5  BZF d   1      -1.624   1.899  -5.169  0.00  0.00    -0.016 A 
ATOM      7  C6  BZF d   1      -0.249   1.909  -5.280  0.00  0.00     0.022 A 
ATOM      8  C7  BZF d   1       0.504   2.822  -4.620  0.00  0.00     0.029 A 
ATOM      9  C7A BZF d   1      -0.161   3.720  -3.821  0.00  0.00     0.058 A 
ENDROOT
TORSDOF 0
ENDMDL
