MODEL 1
REMARK minimizedAffinity 4.49000931
REMARK minimizedRMSD -1
REMARK  0 active torsions:
REMARK  status: ('A' for Active; 'I' for Inactive)
ROOT
ATOM      1  O1  BZF d   1       1.763  -0.620   4.114  0.00  0.00    -0.204 OA
ATOM      2  C2  BZF d   1       2.875  -0.206   3.407  0.00  0.00     0.174 A 
ATOM      3  C3  BZF d   1       2.615  -0.168   2.084  0.00  0.00    -0.012 A 
ATOM      4  C3A BZF d   1       1.227  -0.494   1.965  0.00  0.00    -0.107 A 
ATOM      5  C4  BZF d   1       0.376  -0.603   0.902  0.00  0.00     0.055 A 
ATOM      6  C5  BZF d   1      -0.902  -1.010   1.118  0.00  0.00    -0.016 A 
ATOM      7  C6  BZF d   1      -1.361  -1.322   2.381  0.00  0.00     0.022 A 
ATOM      8  C7  BZF d   1      -0.556  -1.225   3.467  0.00  0.00     0.029 A 
ATOM      9  C7A BZF d   1       0.727  -0.781   3.256  0.00  0.00     0.058 A 
ENDROOT
TORSDOF 0
ENDMDL
