MODEL 1
REMARK minimizedAffinity 13.4825001
REMARK minimizedRMSD -1
REMARK  0 active torsions:
REMARK  status: ('A' for Active; 'I' for Inactive)
ROOT
ATOM      1  O1  BZF d   1      -1.473  -0.355   1.953  0.00  0.00    -0.204 OA
ATOM      2  C2  BZF d   1      -0.172  -0.267   1.497  0.00  0.00     0.174 A 
ATOM      3  C3  BZF d   1       0.042  -1.141   0.492  0.00  0.00    -0.012 A 
ATOM      4  C3A BZF d   1      -1.228  -1.752   0.248  0.00  0.00    -0.107 A 
ATOM      5  C4  BZF d   1      -1.662  -2.693  -0.642  0.00  0.00     0.055 A 
ATOM      6  C5  BZF d   1      -2.948  -3.126  -0.571  0.00  0.00    -0.016 A 
ATOM      7  C6  BZF d   1      -3.825  -2.644   0.378  0.00  0.00     0.022 A 
ATOM      8  C7  BZF d   1      -3.443  -1.706   1.279  0.00  0.00     0.029 A 
ATOM      9  C7A BZF d   1      -2.153  -1.243   1.189  0.00  0.00     0.058 A 
ENDROOT
TORSDOF 0
ENDMDL
