MODEL 1
REMARK minimizedAffinity 5.72746754
REMARK minimizedRMSD -1
REMARK  0 active torsions:
REMARK  status: ('A' for Active; 'I' for Inactive)
ROOT
ATOM      1  O1  BZF d   1      -0.779  -1.015   4.113  0.00  0.00    -0.204 OA
ATOM      2  C2  BZF d   1      -1.627  -2.044   4.478  0.00  0.00     0.174 A 
ATOM      3  C3  BZF d   1      -1.941  -2.807   3.411  0.00  0.00    -0.012 A 
ATOM      4  C3A BZF d   1      -1.173  -2.274   2.328  0.00  0.00    -0.107 A 
ATOM      5  C4  BZF d   1      -1.043  -2.615   1.012  0.00  0.00     0.055 A 
ATOM      6  C5  BZF d   1      -0.268  -1.846   0.204  0.00  0.00    -0.016 A 
ATOM      7  C6  BZF d   1       0.386  -0.726   0.676  0.00  0.00     0.022 A 
ATOM      8  C7  BZF d   1       0.292  -0.351   1.975  0.00  0.00     0.029 A 
ATOM      9  C7A BZF d   1      -0.465  -1.145   2.801  0.00  0.00     0.058 A 
ENDROOT
TORSDOF 0
ENDMDL
