MODEL 1
REMARK minimizedAffinity 11.1374846
REMARK minimizedRMSD -1
REMARK  0 active torsions:
REMARK  status: ('A' for Active; 'I' for Inactive)
ROOT
ATOM      1  O1  BZF d   1       0.244   5.037  -2.839  0.00  0.00    -0.204 OA
ATOM      2  C2  BZF d   1      -0.828   5.699  -2.272  0.00  0.00     0.174 A 
ATOM      3  C3  BZF d   1      -1.990   5.099  -2.603  0.00  0.00    -0.012 A 
ATOM      4  C3A BZF d   1      -1.614   3.939  -3.352  0.00  0.00    -0.107 A 
ATOM      5  C4  BZF d   1      -2.324   2.932  -3.941  0.00  0.00     0.055 A 
ATOM      6  C5  BZF d   1      -1.659   1.988  -4.659  0.00  0.00    -0.016 A 
ATOM      7  C6  BZF d   1      -0.289   2.025  -4.813  0.00  0.00     0.022 A 
ATOM      8  C7  BZF d   1       0.458   3.002  -4.243  0.00  0.00     0.029 A 
ATOM      9  C7A BZF d   1      -0.207   3.938  -3.489  0.00  0.00     0.058 A 
ENDROOT
TORSDOF 0
ENDMDL
