MODEL 1
REMARK minimizedAffinity 10.2906122
REMARK minimizedRMSD -1
REMARK  0 active torsions:
REMARK  status: ('A' for Active; 'I' for Inactive)
ROOT
ATOM      1  O1  BZF d   1      -0.272  -0.388   3.662  0.00  0.00    -0.204 OA
ATOM      2  C2  BZF d   1      -1.286  -1.261   4.010  0.00  0.00     0.174 A 
ATOM      3  C3  BZF d   1      -1.611  -2.055   2.969  0.00  0.00    -0.012 A 
ATOM      4  C3A BZF d   1      -0.685  -1.716   1.933  0.00  0.00    -0.107 A 
ATOM      5  C4  BZF d   1      -0.491  -2.172   0.661  0.00  0.00     0.055 A 
ATOM      6  C5  BZF d   1       0.453  -1.580  -0.117  0.00  0.00    -0.016 A 
ATOM      7  C6  BZF d   1       1.216  -0.527   0.343  0.00  0.00     0.022 A 
ATOM      8  C7  BZF d   1       1.063  -0.042   1.599  0.00  0.00     0.029 A 
ATOM      9  C7A BZF d   1       0.133  -0.660   2.399  0.00  0.00     0.058 A 
ENDROOT
TORSDOF 0
ENDMDL
