MODEL 1
REMARK minimizedAffinity 17.015686
REMARK minimizedRMSD -1
REMARK  0 active torsions:
REMARK  status: ('A' for Active; 'I' for Inactive)
ROOT
ATOM      1  O1  BZF d   1       0.219  -0.376   3.214  0.00  0.00    -0.204 OA
ATOM      2  C2  BZF d   1      -0.370  -0.513   1.972  0.00  0.00     0.174 A 
ATOM      3  C3  BZF d   1      -1.288  -1.502   1.984  0.00  0.00    -0.012 A 
ATOM      4  C3A BZF d   1      -1.337  -1.952   3.342  0.00  0.00    -0.107 A 
ATOM      5  C4  BZF d   1      -2.070  -2.906   3.988  0.00  0.00     0.055 A 
ATOM      6  C5  BZF d   1      -1.826  -3.148   5.303  0.00  0.00    -0.016 A 
ATOM      7  C6  BZF d   1      -0.855  -2.460   6.000  0.00  0.00     0.022 A 
ATOM      8  C7  BZF d   1      -0.106  -1.501   5.403  0.00  0.00     0.029 A 
ATOM      9  C7A BZF d   1      -0.372  -1.231   4.082  0.00  0.00     0.058 A 
ENDROOT
TORSDOF 0
ENDMDL
