MODEL 1
REMARK minimizedAffinity 19.5847416
REMARK minimizedRMSD -1
REMARK  0 active torsions:
REMARK  status: ('A' for Active; 'I' for Inactive)
ROOT
ATOM      1  O1  BZF d   1       2.385  -6.000   3.852  0.00  0.00    -0.204 OA
ATOM      2  C2  BZF d   1       1.597  -5.611   4.919  0.00  0.00     0.174 A 
ATOM      3  C3  BZF d   1       2.350  -5.060   5.893  0.00  0.00    -0.012 A 
ATOM      4  C3A BZF d   1       3.679  -5.023   5.366  0.00  0.00    -0.107 A 
ATOM      5  C4  BZF d   1       4.871  -4.571   5.856  0.00  0.00     0.055 A 
ATOM      6  C5  BZF d   1       5.999  -4.749   5.119  0.00  0.00    -0.016 A 
ATOM      7  C6  BZF d   1       5.972  -5.377   3.891  0.00  0.00     0.022 A 
ATOM      8  C7  BZF d   1       4.812  -5.837   3.360  0.00  0.00     0.029 A 
ATOM      9  C7A BZF d   1       3.666  -5.629   4.089  0.00  0.00     0.058 A 
ENDROOT
TORSDOF 0
ENDMDL
