MODEL 1
REMARK minimizedAffinity 6.63506985
REMARK minimizedRMSD -1
REMARK  0 active torsions:
REMARK  status: ('A' for Active; 'I' for Inactive)
ROOT
ATOM      1  O1  BZF d   1       0.013  -0.654   3.229  0.00  0.00    -0.204 OA
ATOM      2  C2  BZF d   1      -0.761  -0.987   2.135  0.00  0.00     0.174 A 
ATOM      3  C3  BZF d   1      -0.008  -1.051   1.018  0.00  0.00    -0.012 A 
ATOM      4  C3A BZF d   1       1.335  -0.829   1.456  0.00  0.00    -0.107 A 
ATOM      5  C4  BZF d   1       2.539  -0.789   0.812  0.00  0.00     0.055 A 
ATOM      6  C5  BZF d   1       3.656  -0.476   1.519  0.00  0.00    -0.016 A 
ATOM      7  C6  BZF d   1       3.606  -0.193   2.868  0.00  0.00     0.022 A 
ATOM      8  C7  BZF d   1       2.436  -0.225   3.552  0.00  0.00     0.029 A 
ATOM      9  C7A BZF d   1       1.310  -0.574   2.847  0.00  0.00     0.058 A 
ENDROOT
TORSDOF 0
ENDMDL
