MODEL 1
REMARK minimizedAffinity 12.5141087
REMARK minimizedRMSD -1
REMARK  0 active torsions:
REMARK  status: ('A' for Active; 'I' for Inactive)
ROOT
ATOM      1  O1  BZF d   1       2.320  -0.058   3.587  0.00  0.00    -0.204 OA
ATOM      2  C2  BZF d   1       3.348   0.091   2.677  0.00  0.00     0.174 A 
ATOM      3  C3  BZF d   1       2.930  -0.208   1.430  0.00  0.00    -0.012 A 
ATOM      4  C3A BZF d   1       1.531  -0.478   1.556  0.00  0.00    -0.107 A 
ATOM      5  C4  BZF d   1       0.556  -0.817   0.662  0.00  0.00     0.055 A 
ATOM      6  C5  BZF d   1      -0.696  -1.082   1.120  0.00  0.00    -0.016 A 
ATOM      7  C6  BZF d   1      -1.006  -1.022   2.463  0.00  0.00     0.022 A 
ATOM      8  C7  BZF d   1      -0.074  -0.685   3.386  0.00  0.00     0.029 A 
ATOM      9  C7A BZF d   1       1.184  -0.384   2.924  0.00  0.00     0.058 A 
ENDROOT
TORSDOF 0
ENDMDL
