MODEL 1
REMARK minimizedAffinity 12.6567726
REMARK minimizedRMSD -1
REMARK  0 active torsions:
REMARK  status: ('A' for Active; 'I' for Inactive)
ROOT
ATOM      1  O1  BZF d   1      -0.233  -0.394   3.902  0.00  0.00    -0.204 OA
ATOM      2  C2  BZF d   1      -1.322  -1.211   4.139  0.00  0.00     0.174 A 
ATOM      3  C3  BZF d   1      -1.644  -1.911   3.032  0.00  0.00    -0.012 A 
ATOM      4  C3A BZF d   1      -0.640  -1.576   2.069  0.00  0.00    -0.107 A 
ATOM      5  C4  BZF d   1      -0.407  -1.964   0.781  0.00  0.00     0.055 A 
ATOM      6  C5  BZF d   1       0.617  -1.394   0.094  0.00  0.00    -0.016 A 
ATOM      7  C6  BZF d   1       1.425  -0.431   0.661  0.00  0.00     0.022 A 
ATOM      8  C7  BZF d   1       1.237  -0.017   1.938  0.00  0.00     0.029 A 
ATOM      9  C7A BZF d   1       0.223  -0.615   2.646  0.00  0.00     0.058 A 
ENDROOT
TORSDOF 0
ENDMDL
