MODEL 1
REMARK minimizedAffinity 2.29584336
REMARK minimizedRMSD -1
REMARK  0 active torsions:
REMARK  status: ('A' for Active; 'I' for Inactive)
ROOT
ATOM      1  O1  BZF d   1       2.261   0.078   3.456  0.00  0.00    -0.204 OA
ATOM      2  C2  BZF d   1       3.215   0.118   2.457  0.00  0.00     0.174 A 
ATOM      3  C3  BZF d   1       2.704  -0.327   1.291  0.00  0.00    -0.012 A 
ATOM      4  C3A BZF d   1       1.321  -0.579   1.557  0.00  0.00    -0.107 A 
ATOM      5  C4  BZF d   1       0.283  -1.022   0.789  0.00  0.00     0.055 A 
ATOM      6  C5  BZF d   1      -0.927  -1.231   1.371  0.00  0.00    -0.016 A 
ATOM      7  C6  BZF d   1      -1.133  -1.012   2.717  0.00  0.00     0.022 A 
ATOM      8  C7  BZF d   1      -0.134  -0.568   3.519  0.00  0.00     0.029 A 
ATOM      9  C7A BZF d   1       1.081  -0.324   2.927  0.00  0.00     0.058 A 
ENDROOT
TORSDOF 0
ENDMDL
