MODEL 1
REMARK minimizedAffinity 8.94323444
REMARK minimizedRMSD -1
REMARK  0 active torsions:
REMARK  status: ('A' for Active; 'I' for Inactive)
ROOT
ATOM      1  O1  BZF d   1       4.655  -1.227  -2.251  0.00  0.00    -0.204 OA
ATOM      2  C2  BZF d   1       5.647  -0.534  -2.917  0.00  0.00     0.174 A 
ATOM      3  C3  BZF d   1       5.452   0.796  -2.814  0.00  0.00    -0.012 A 
ATOM      4  C3A BZF d   1       4.317   0.946  -1.957  0.00  0.00    -0.107 A 
ATOM      5  C4  BZF d   1       3.647   2.030  -1.466  0.00  0.00     0.055 A 
ATOM      6  C5  BZF d   1       2.533   1.833  -0.713  0.00  0.00    -0.016 A 
ATOM      7  C6  BZF d   1       2.058   0.567  -0.437  0.00  0.00     0.022 A 
ATOM      8  C7  BZF d   1       2.691  -0.539  -0.898  0.00  0.00     0.029 A 
ATOM      9  C7A BZF d   1       3.836  -0.344  -1.631  0.00  0.00     0.058 A 
ENDROOT
TORSDOF 0
ENDMDL
