MODEL 1
REMARK minimizedAffinity 7.43517065
REMARK minimizedRMSD -1
REMARK  0 active torsions:
REMARK  status: ('A' for Active; 'I' for Inactive)
ROOT
ATOM      1  O1  BZF d   1       1.858  -0.047   3.462  0.00  0.00    -0.204 OA
ATOM      2  C2  BZF d   1       3.002   0.083   2.697  0.00  0.00     0.174 A 
ATOM      3  C3  BZF d   1       2.783  -0.337   1.434  0.00  0.00    -0.012 A 
ATOM      4  C3A BZF d   1       1.393  -0.670   1.384  0.00  0.00    -0.107 A 
ATOM      5  C4  BZF d   1       0.573  -1.132   0.394  0.00  0.00     0.055 A 
ATOM      6  C5  BZF d   1      -0.720  -1.425   0.690  0.00  0.00    -0.016 A 
ATOM      7  C6  BZF d   1      -1.225  -1.274   1.965  0.00  0.00     0.022 A 
ATOM      8  C7  BZF d   1      -0.452  -0.815   2.978  0.00  0.00     0.029 A 
ATOM      9  C7A BZF d   1       0.846  -0.486   2.675  0.00  0.00     0.058 A 
ENDROOT
TORSDOF 0
ENDMDL
