MODEL 1
REMARK minimizedAffinity 9.86249733
REMARK minimizedRMSD -1
REMARK  0 active torsions:
REMARK  status: ('A' for Active; 'I' for Inactive)
ROOT
ATOM      1  O1  BZF d   1       2.088  -0.056   3.281  0.00  0.00    -0.204 OA
ATOM      2  C2  BZF d   1       3.039   0.037   2.283  0.00  0.00     0.174 A 
ATOM      3  C3  BZF d   1       2.568  -0.465   1.124  0.00  0.00    -0.012 A 
ATOM      4  C3A BZF d   1       1.207  -0.816   1.391  0.00  0.00    -0.107 A 
ATOM      5  C4  BZF d   1       0.207  -1.349   0.629  0.00  0.00     0.055 A 
ATOM      6  C5  BZF d   1      -0.986  -1.638   1.212  0.00  0.00    -0.016 A 
ATOM      7  C6  BZF d   1      -1.212  -1.411   2.553  0.00  0.00     0.022 A 
ATOM      8  C7  BZF d   1      -0.253  -0.878   3.349  0.00  0.00     0.029 A 
ATOM      9  C7A BZF d   1       0.943  -0.555   2.756  0.00  0.00     0.058 A 
ENDROOT
TORSDOF 0
ENDMDL
