MODEL 1
REMARK minimizedAffinity 20.1132088
REMARK minimizedRMSD -1
REMARK  0 active torsions:
REMARK  status: ('A' for Active; 'I' for Inactive)
ROOT
ATOM      1  O1  BZF d   1      -3.711  -4.474  -1.662  0.00  0.00    -0.204 OA
ATOM      2  C2  BZF d   1      -2.746  -5.234  -2.294  0.00  0.00     0.174 A 
ATOM      3  C3  BZF d   1      -1.509  -4.829  -1.940  0.00  0.00    -0.012 A 
ATOM      4  C3A BZF d   1      -1.714  -3.808  -0.959  0.00  0.00    -0.107 A 
ATOM      5  C4  BZF d   1      -0.867  -3.033  -0.220  0.00  0.00     0.055 A 
ATOM      6  C5  BZF d   1      -1.388  -2.079   0.596  0.00  0.00    -0.016 A 
ATOM      7  C6  BZF d   1      -2.748  -1.870   0.693  0.00  0.00     0.022 A 
ATOM      8  C7  BZF d   1      -3.628  -2.618  -0.016  0.00  0.00     0.029 A 
ATOM      9  C7A BZF d   1      -3.106  -3.604  -0.817  0.00  0.00     0.058 A 
ENDROOT
TORSDOF 0
ENDMDL
