MODEL 1
REMARK minimizedAffinity 4.12994003
REMARK minimizedRMSD -1
REMARK  0 active torsions:
REMARK  status: ('A' for Active; 'I' for Inactive)
ROOT
ATOM      1  O1  BZF d   1       4.908   1.581  -2.668  0.00  0.00    -0.204 OA
ATOM      2  C2  BZF d   1       5.698   0.515  -3.053  0.00  0.00     0.174 A 
ATOM      3  C3  BZF d   1       5.284  -0.625  -2.463  0.00  0.00    -0.012 A 
ATOM      4  C3A BZF d   1       4.109  -0.264  -1.730  0.00  0.00    -0.107 A 
ATOM      5  C4  BZF d   1       3.237  -0.968  -0.950  0.00  0.00     0.055 A 
ATOM      6  C5  BZF d   1       2.233  -0.304  -0.318  0.00  0.00    -0.016 A 
ATOM      7  C6  BZF d   1       2.076   1.061  -0.440  0.00  0.00     0.022 A 
ATOM      8  C7  BZF d   1       2.914   1.801  -1.207  0.00  0.00     0.029 A 
ATOM      9  C7A BZF d   1       3.909   1.128  -1.873  0.00  0.00     0.058 A 
ENDROOT
TORSDOF 0
ENDMDL
