MODEL 1
REMARK minimizedAffinity 11.8821983
REMARK minimizedRMSD -1
REMARK  0 active torsions:
REMARK  status: ('A' for Active; 'I' for Inactive)
ROOT
ATOM      1  O1  BZF d   1      -3.211   5.183  -2.907  0.00  0.00    -0.204 OA
ATOM      2  C2  BZF d   1      -2.356   6.000  -2.194  0.00  0.00     0.174 A 
ATOM      3  C3  BZF d   1      -1.105   5.496  -2.188  0.00  0.00    -0.012 A 
ATOM      4  C3A BZF d   1      -1.164   4.335  -3.024  0.00  0.00    -0.107 A 
ATOM      5  C4  BZF d   1      -0.235   3.417  -3.422  0.00  0.00     0.055 A 
ATOM      6  C5  BZF d   1      -0.632   2.362  -4.181  0.00  0.00    -0.016 A 
ATOM      7  C6  BZF d   1      -1.948   2.192  -4.555  0.00  0.00     0.022 A 
ATOM      8  C7  BZF d   1      -2.905   3.079  -4.189  0.00  0.00     0.029 A 
ATOM      9  C7A BZF d   1      -2.502   4.164  -3.449  0.00  0.00     0.058 A 
ENDROOT
TORSDOF 0
ENDMDL
