MODEL 1
REMARK minimizedAffinity 0.815968215
REMARK minimizedRMSD -1
REMARK  0 active torsions:
REMARK  status: ('A' for Active; 'I' for Inactive)
ROOT
ATOM      1  C1  DEN d   1      -5.999   5.790  -2.310  0.00  0.00     0.130 A 
ATOM      2  C2  DEN d   1      -5.154   5.065  -1.365  0.00  0.00    -0.031 A 
ATOM      3  C3  DEN d   1      -4.091   4.385  -2.132  0.00  0.00     0.027 A 
ATOM      4  C4  DEN d   1      -3.671   4.388  -4.677  0.00  0.00     0.027 A 
ATOM      5  C5  DEN d   1      -4.130   4.851  -5.890  0.00  0.00    -0.003 A 
ATOM      6  C6  DEN d   1      -5.255   5.626  -5.997  0.00  0.00     0.001 A 
ATOM      7  C7  DEN d   1      -5.933   5.998  -4.867  0.00  0.00     0.017 A 
ATOM      8  C8  DEN d   1      -5.480   5.528  -3.641  0.00  0.00    -0.094 A 
ATOM      9  C9  DEN d   1      -4.334   4.757  -3.552  0.00  0.00    -0.072 A 
ENDROOT
TORSDOF 0
ENDMDL
