MODEL 1
REMARK minimizedAffinity 13.9804859
REMARK minimizedRMSD -1
REMARK  0 active torsions:
REMARK  status: ('A' for Active; 'I' for Inactive)
ROOT
ATOM      1  C1  DEN d   1      -5.040  -3.397  -2.894  0.00  0.00     0.130 A 
ATOM      2  C2  DEN d   1      -5.997  -3.301  -1.796  0.00  0.00    -0.031 A 
ATOM      3  C3  DEN d   1      -5.484  -4.107  -0.670  0.00  0.00     0.027 A 
ATOM      4  C4  DEN d   1      -3.309  -5.486  -0.522  0.00  0.00     0.027 A 
ATOM      5  C5  DEN d   1      -2.182  -5.881  -1.207  0.00  0.00    -0.003 A 
ATOM      6  C6  DEN d   1      -1.947  -5.507  -2.504  0.00  0.00     0.001 A 
ATOM      7  C7  DEN d   1      -2.830  -4.677  -3.142  0.00  0.00     0.017 A 
ATOM      8  C8  DEN d   1      -3.973  -4.280  -2.459  0.00  0.00    -0.094 A 
ATOM      9  C9  DEN d   1      -4.186  -4.659  -1.145  0.00  0.00    -0.072 A 
ENDROOT
TORSDOF 0
ENDMDL
