MODEL 1
REMARK minimizedAffinity 10.2081242
REMARK minimizedRMSD -1
REMARK  0 active torsions:
REMARK  status: ('A' for Active; 'I' for Inactive)
ROOT
ATOM      1  C1  DEN d   1       5.935   5.999   0.221  0.00  0.00     0.130 A 
ATOM      2  C2  DEN d   1       5.938   4.937  -0.781  0.00  0.00    -0.031 A 
ATOM      3  C3  DEN d   1       5.502   3.689  -0.125  0.00  0.00     0.027 A 
ATOM      4  C4  DEN d   1       4.822   3.299   2.333  0.00  0.00     0.027 A 
ATOM      5  C5  DEN d   1       4.672   3.898   3.564  0.00  0.00    -0.003 A 
ATOM      6  C6  DEN d   1       4.963   5.219   3.774  0.00  0.00     0.001 A 
ATOM      7  C7  DEN d   1       5.376   5.998   2.726  0.00  0.00     0.017 A 
ATOM      8  C8  DEN d   1       5.536   5.400   1.482  0.00  0.00    -0.094 A 
ATOM      9  C9  DEN d   1       5.225   4.065   1.288  0.00  0.00    -0.072 A 
ENDROOT
TORSDOF 0
ENDMDL
