MODEL 1
REMARK minimizedAffinity 19.543993
REMARK minimizedRMSD -1
REMARK  0 active torsions:
REMARK  status: ('A' for Active; 'I' for Inactive)
ROOT
ATOM      1  C1  DEN d   1      -1.460   3.214  -4.749  0.00  0.00     0.130 A 
ATOM      2  C2  DEN d   1      -1.927   4.438  -5.394  0.00  0.00    -0.031 A 
ATOM      3  C3  DEN d   1      -0.759   5.110  -5.997  0.00  0.00     0.027 A 
ATOM      4  C4  DEN d   1       1.714   4.376  -6.000  0.00  0.00     0.027 A 
ATOM      5  C5  DEN d   1       2.599   3.412  -5.570  0.00  0.00    -0.003 A 
ATOM      6  C6  DEN d   1       2.201   2.341  -4.814  0.00  0.00     0.001 A 
ATOM      7  C7  DEN d   1       0.877   2.184  -4.502  0.00  0.00     0.017 A 
ATOM      8  C8  DEN d   1      -0.021   3.156  -4.926  0.00  0.00    -0.094 A 
ATOM      9  C9  DEN d   1       0.399   4.224  -5.700  0.00  0.00    -0.072 A 
ENDROOT
TORSDOF 0
ENDMDL
