MODEL 1
REMARK minimizedAffinity -3.59179449
REMARK minimizedRMSD -1
REMARK  0 active torsions:
REMARK  status: ('A' for Active; 'I' for Inactive)
ROOT
ATOM      1  C1  DEN d   1      -4.599   2.402  -4.972  0.00  0.00     0.130 A 
ATOM      2  C2  DEN d   1      -3.653   2.825  -6.000  0.00  0.00    -0.031 A 
ATOM      3  C3  DEN d   1      -3.421   4.275  -5.838  0.00  0.00     0.027 A 
ATOM      4  C4  DEN d   1      -4.426   5.894  -4.100  0.00  0.00     0.027 A 
ATOM      5  C5  DEN d   1      -5.287   6.000  -3.031  0.00  0.00    -0.003 A 
ATOM      6  C6  DEN d   1      -6.000   4.930  -2.559  0.00  0.00     0.001 A 
ATOM      7  C7  DEN d   1      -5.829   3.696  -3.129  0.00  0.00     0.017 A 
ATOM      8  C8  DEN d   1      -4.968   3.583  -4.213  0.00  0.00    -0.094 A 
ATOM      9  C9  DEN d   1      -4.248   4.674  -4.667  0.00  0.00    -0.072 A 
ENDROOT
TORSDOF 0
ENDMDL
