MODEL 1
REMARK minimizedAffinity -3.88613296
REMARK minimizedRMSD -1
REMARK  0 active torsions:
REMARK  status: ('A' for Active; 'I' for Inactive)
ROOT
ATOM      1  C1  DEN d   1      -4.817   6.000  -4.612  0.00  0.00     0.130 A 
ATOM      2  C2  DEN d   1      -3.739   5.638  -5.529  0.00  0.00    -0.031 A 
ATOM      3  C3  DEN d   1      -3.330   4.251  -5.228  0.00  0.00     0.027 A 
ATOM      4  C4  DEN d   1      -4.259   2.636  -3.444  0.00  0.00     0.027 A 
ATOM      5  C5  DEN d   1      -5.171   2.498  -2.421  0.00  0.00    -0.003 A 
ATOM      6  C6  DEN d   1      -5.999   3.520  -2.038  0.00  0.00     0.001 A 
ATOM      7  C7  DEN d   1      -5.962   4.712  -2.711  0.00  0.00     0.017 A 
ATOM      8  C8  DEN d   1      -5.040   4.862  -3.739  0.00  0.00    -0.094 A 
ATOM      9  C9  DEN d   1      -4.221   3.813  -4.120  0.00  0.00    -0.072 A 
ENDROOT
TORSDOF 0
ENDMDL
