MODEL 1
REMARK minimizedAffinity -1.33463871
REMARK minimizedRMSD -1
REMARK  0 active torsions:
REMARK  status: ('A' for Active; 'I' for Inactive)
ROOT
ATOM      1  C1  DEN d   1       3.184   1.879  -2.263  0.00  0.00     0.130 A 
ATOM      2  C2  DEN d   1       1.904   2.482  -2.624  0.00  0.00    -0.031 A 
ATOM      3  C3  DEN d   1       1.885   2.670  -4.089  0.00  0.00     0.027 A 
ATOM      4  C4  DEN d   1       3.701   2.084  -5.824  0.00  0.00     0.027 A 
ATOM      5  C5  DEN d   1       4.965   1.565  -5.994  0.00  0.00    -0.003 A 
ATOM      6  C6  DEN d   1       5.732   1.149  -4.937  0.00  0.00     0.001 A 
ATOM      7  C7  DEN d   1       5.223   1.203  -3.667  0.00  0.00     0.017 A 
ATOM      8  C8  DEN d   1       3.952   1.732  -3.487  0.00  0.00    -0.094 A 
ATOM      9  C9  DEN d   1       3.188   2.136  -4.569  0.00  0.00    -0.072 A 
ENDROOT
TORSDOF 0
ENDMDL
