MODEL 1
REMARK minimizedAffinity 12.1690493
REMARK minimizedRMSD -1
REMARK  0 active torsions:
REMARK  status: ('A' for Active; 'I' for Inactive)
ROOT
ATOM      1  C1  DEN d   1       5.957   4.592  -5.690  0.00  0.00     0.130 A 
ATOM      2  C2  DEN d   1       5.531   5.982  -5.827  0.00  0.00    -0.031 A 
ATOM      3  C3  DEN d   1       4.061   5.996  -5.975  0.00  0.00     0.027 A 
ATOM      4  C4  DEN d   1       2.414   4.012  -5.999  0.00  0.00     0.027 A 
ATOM      5  C5  DEN d   1       2.307   2.640  -5.927  0.00  0.00    -0.003 A 
ATOM      6  C6  DEN d   1       3.403   1.828  -5.806  0.00  0.00     0.001 A 
ATOM      7  C7  DEN d   1       4.652   2.383  -5.708  0.00  0.00     0.017 A 
ATOM      8  C8  DEN d   1       4.768   3.765  -5.787  0.00  0.00    -0.094 A 
ATOM      9  C9  DEN d   1       3.647   4.569  -5.897  0.00  0.00    -0.072 A 
ENDROOT
TORSDOF 0
ENDMDL
