MODEL 1
REMARK minimizedAffinity 10.1799297
REMARK minimizedRMSD -1
REMARK  0 active torsions:
REMARK  status: ('A' for Active; 'I' for Inactive)
ROOT
ATOM      1  C1  DEN d   1       5.360   5.986   2.237  0.00  0.00     0.130 A 
ATOM      2  C2  DEN d   1       5.927   4.909   3.043  0.00  0.00    -0.031 A 
ATOM      3  C3  DEN d   1       5.800   3.651   2.280  0.00  0.00     0.027 A 
ATOM      4  C4  DEN d   1       4.789   3.270  -0.062  0.00  0.00     0.027 A 
ATOM      5  C5  DEN d   1       4.171   3.881  -1.131  0.00  0.00    -0.003 A 
ATOM      6  C6  DEN d   1       3.878   5.219  -1.139  0.00  0.00     0.001 A 
ATOM      7  C7  DEN d   1       4.244   6.000  -0.074  0.00  0.00     0.017 A 
ATOM      8  C8  DEN d   1       4.860   5.390   1.011  0.00  0.00    -0.094 A 
ATOM      9  C9  DEN d   1       5.159   4.038   0.994  0.00  0.00    -0.072 A 
ENDROOT
TORSDOF 0
ENDMDL
