MODEL 1
REMARK minimizedAffinity 1.12286818
REMARK minimizedRMSD -1
REMARK  0 active torsions:
REMARK  status: ('A' for Active; 'I' for Inactive)
ROOT
ATOM      1  C1  DEN d   1      -2.068   5.410  -3.700  0.00  0.00     0.130 A 
ATOM      2  C2  DEN d   1      -1.293   5.714  -4.900  0.00  0.00    -0.031 A 
ATOM      3  C3  DEN d   1      -2.240   5.996  -5.997  0.00  0.00     0.027 A 
ATOM      4  C4  DEN d   1      -4.819   5.995  -5.953  0.00  0.00     0.027 A 
ATOM      5  C5  DEN d   1      -5.928   5.784  -5.164  0.00  0.00    -0.003 A 
ATOM      6  C6  DEN d   1      -5.830   5.405  -3.852  0.00  0.00     0.001 A 
ATOM      7  C7  DEN d   1      -4.594   5.267  -3.276  0.00  0.00     0.017 A 
ATOM      8  C8  DEN d   1      -3.471   5.470  -4.067  0.00  0.00    -0.094 A 
ATOM      9  C9  DEN d   1      -3.592   5.866  -5.389  0.00  0.00    -0.072 A 
ENDROOT
TORSDOF 0
ENDMDL
