MODEL 1
REMARK minimizedAffinity 17.7102146
REMARK minimizedRMSD -1
REMARK  0 active torsions:
REMARK  status: ('A' for Active; 'I' for Inactive)
ROOT
ATOM      1  C1  DEN d   1      -2.571  -1.184   2.803  0.00  0.00     0.130 A 
ATOM      2  C2  DEN d   1      -2.695   0.168   2.265  0.00  0.00    -0.031 A 
ATOM      3  C3  DEN d   1      -2.688   0.076   0.792  0.00  0.00     0.027 A 
ATOM      4  C4  DEN d   1      -2.502  -2.019  -0.702  0.00  0.00     0.027 A 
ATOM      5  C5  DEN d   1      -2.366  -3.390  -0.701  0.00  0.00    -0.003 A 
ATOM      6  C6  DEN d   1      -2.255  -4.112   0.457  0.00  0.00     0.001 A 
ATOM      7  C7  DEN d   1      -2.324  -3.471   1.666  0.00  0.00     0.017 A 
ATOM      8  C8  DEN d   1      -2.454  -2.088   1.673  0.00  0.00    -0.094 A 
ATOM      9  C9  DEN d   1      -2.577  -1.377   0.492  0.00  0.00    -0.072 A 
ENDROOT
TORSDOF 0
ENDMDL
