MODEL 1
REMARK minimizedAffinity 4.78953552
REMARK minimizedRMSD -1
REMARK  0 active torsions:
REMARK  status: ('A' for Active; 'I' for Inactive)
ROOT
ATOM      1  C1  DEN d   1      -5.239   1.455  -0.032  0.00  0.00     0.130 A 
ATOM      2  C2  DEN d   1      -5.634   1.975   1.274  0.00  0.00    -0.031 A 
ATOM      3  C3  DEN d   1      -6.000   3.396   1.108  0.00  0.00     0.027 A 
ATOM      4  C4  DEN d   1      -5.998   4.833  -1.034  0.00  0.00     0.027 A 
ATOM      5  C5  DEN d   1      -5.729   4.834  -2.384  0.00  0.00    -0.003 A 
ATOM      6  C6  DEN d   1      -5.250   3.728  -3.034  0.00  0.00     0.001 A 
ATOM      7  C7  DEN d   1      -5.067   2.560  -2.342  0.00  0.00     0.017 A 
ATOM      8  C8  DEN d   1      -5.329   2.553  -0.978  0.00  0.00    -0.094 A 
ATOM      9  C9  DEN d   1      -5.825   3.679  -0.342  0.00  0.00    -0.072 A 
ENDROOT
TORSDOF 0
ENDMDL
