MODEL 1
REMARK minimizedAffinity 19.8658867
REMARK minimizedRMSD -1
REMARK  0 active torsions:
REMARK  status: ('A' for Active; 'I' for Inactive)
ROOT
ATOM      1  C1  DEN d   1      -0.880  -5.588  -2.941  0.00  0.00     0.130 A 
ATOM      2  C2  DEN d   1      -1.393  -5.995  -4.246  0.00  0.00    -0.031 A 
ATOM      3  C3  DEN d   1      -2.858  -5.803  -4.241  0.00  0.00     0.027 A 
ATOM      4  C4  DEN d   1      -4.371  -4.915  -2.350  0.00  0.00     0.027 A 
ATOM      5  C5  DEN d   1      -4.392  -4.454  -1.052  0.00  0.00    -0.003 A 
ATOM      6  C6  DEN d   1      -3.259  -4.371  -0.288  0.00  0.00     0.001 A 
ATOM      7  C7  DEN d   1      -2.048  -4.713  -0.830  0.00  0.00     0.017 A 
ATOM      8  C8  DEN d   1      -2.019  -5.186  -2.136  0.00  0.00    -0.094 A 
ATOM      9  C9  DEN d   1      -3.175  -5.251  -2.896  0.00  0.00    -0.072 A 
ENDROOT
TORSDOF 0
ENDMDL
