MODEL 1
REMARK minimizedAffinity 8.80568123
REMARK minimizedRMSD -1
REMARK  0 active torsions:
REMARK  status: ('A' for Active; 'I' for Inactive)
ROOT
ATOM      1  C1  DEN d   1       0.006  -2.081   0.533  0.00  0.00     0.130 A 
ATOM      2  C2  DEN d   1      -0.742  -2.469   1.725  0.00  0.00    -0.031 A 
ATOM      3  C3  DEN d   1      -1.216  -1.238   2.388  0.00  0.00     0.027 A 
ATOM      4  C4  DEN d   1      -0.870   1.220   1.686  0.00  0.00     0.027 A 
ATOM      5  C5  DEN d   1      -0.291   2.049   0.751  0.00  0.00    -0.003 A 
ATOM      6  C6  DEN d   1       0.451   1.565  -0.295  0.00  0.00     0.001 A 
ATOM      7  C7  DEN d   1       0.595   0.213  -0.456  0.00  0.00     0.017 A 
ATOM      8  C8  DEN d   1       0.020  -0.630   0.487  0.00  0.00    -0.094 A 
ATOM      9  C9  DEN d   1      -0.736  -0.122   1.530  0.00  0.00    -0.072 A 
ENDROOT
TORSDOF 0
ENDMDL
