MODEL 1
REMARK minimizedAffinity 4.98284245
REMARK minimizedRMSD -1
REMARK  0 active torsions:
REMARK  status: ('A' for Active; 'I' for Inactive)
ROOT
ATOM      1  C1  DEN d   1      -4.141   2.666  -5.919  0.00  0.00     0.130 A 
ATOM      2  C2  DEN d   1      -5.399   3.406  -5.905  0.00  0.00    -0.031 A 
ATOM      3  C3  DEN d   1      -5.081   4.848  -5.902  0.00  0.00     0.027 A 
ATOM      4  C4  DEN d   1      -2.773   6.000  -5.923  0.00  0.00     0.027 A 
ATOM      5  C5  DEN d   1      -1.412   5.787  -5.924  0.00  0.00    -0.003 A 
ATOM      6  C6  DEN d   1      -0.870   4.530  -5.891  0.00  0.00     0.001 A 
ATOM      7  C7  DEN d   1      -1.693   3.435  -5.899  0.00  0.00     0.017 A 
ATOM      8  C8  DEN d   1      -3.066   3.642  -5.890  0.00  0.00    -0.094 A 
ATOM      9  C9  DEN d   1      -3.595   4.920  -5.936  0.00  0.00    -0.072 A 
ENDROOT
TORSDOF 0
ENDMDL
