MODEL 1
REMARK minimizedAffinity -5.54796267
REMARK minimizedRMSD -1
REMARK  3 active torsions:
REMARK  status: ('A' for Active; 'I' for Inactive)
REMARK    1  A    between atoms: C3'_2  and  C2'_3 
REMARK    2  A    between atoms: C2'_3  and  C1'_4 
REMARK    3  A    between atoms: C1'_4  and  C1_5 
ROOT
ATOM      1  C1  N4B d   1       0.600  -3.308  -1.103  0.00  0.00    -0.075 A 
ATOM      2  C2  N4B d   1       1.463  -3.809  -0.104  0.00  0.00     0.002 A 
ATOM      3  C3  N4B d   1       1.288  -5.082   0.380  0.00  0.00     0.002 A 
ATOM      4  C4  N4B d   1       0.249  -5.863  -0.105  0.00  0.00    -0.004 A 
ATOM      5  C5  N4B d   1      -0.564  -5.381  -1.088  0.00  0.00     0.002 A 
ATOM      6  C6  N4B d   1      -0.398  -4.105  -1.586  0.00  0.00     0.002 A 
ENDROOT
BRANCH   1   7
ATOM      7  C1' N4B d   1       0.698  -1.892  -1.602  0.00  0.00     0.057 C 
BRANCH   7   8
ATOM      8  C2' N4B d   1       0.784  -0.946  -0.408  0.00  0.00     0.009 C 
BRANCH   8   9
ATOM      9  C3' N4B d   1      -0.035   0.315  -0.623  0.00  0.00     0.004 C 
ATOM     10  C4' N4B d   1      -0.484   0.943   0.664  0.00  0.00     0.003 C 
ENDBRANCH   8   9
ENDBRANCH   7   8
ENDBRANCH   1   7
TORSDOF 3
ENDMDL
