MODEL 1
REMARK minimizedAffinity -4.14267015
REMARK minimizedRMSD -1
REMARK  3 active torsions:
REMARK  status: ('A' for Active; 'I' for Inactive)
REMARK    1  A    between atoms: C3'_2  and  C2'_3 
REMARK    2  A    between atoms: C2'_3  and  C1'_4 
REMARK    3  A    between atoms: C1'_4  and  C1_5 
ROOT
ATOM      1  C1  N4B d   1       0.081  -0.975  -0.912  0.00  0.00    -0.075 A 
ATOM      2  C2  N4B d   1      -0.818  -0.467   0.051  0.00  0.00     0.002 A 
ATOM      3  C3  N4B d   1      -1.390   0.769  -0.127  0.00  0.00     0.002 A 
ATOM      4  C4  N4B d   1      -1.064   1.520  -1.247  0.00  0.00    -0.004 A 
ATOM      5  C5  N4B d   1      -0.214   1.012  -2.185  0.00  0.00     0.002 A 
ATOM      6  C6  N4B d   1       0.365  -0.231  -2.021  0.00  0.00     0.002 A 
ENDROOT
BRANCH   1   7
ATOM      7  C1' N4B d   1       0.797  -2.283  -0.718  0.00  0.00     0.057 C 
BRANCH   7   8
ATOM      8  C2' N4B d   1      -0.050  -3.409  -1.304  0.00  0.00     0.009 C 
BRANCH   8   9
ATOM      9  C3' N4B d   1      -0.310  -4.510  -0.290  0.00  0.00     0.004 C 
ATOM     10  C4' N4B d   1       0.936  -4.958   0.414  0.00  0.00     0.003 C 
ENDBRANCH   8   9
ENDBRANCH   7   8
ENDBRANCH   1   7
TORSDOF 3
ENDMDL
