MODEL 1
REMARK minimizedAffinity -2.20435023
REMARK minimizedRMSD -1
REMARK  3 active torsions:
REMARK  status: ('A' for Active; 'I' for Inactive)
REMARK    1  A    between atoms: C3'_2  and  C2'_3 
REMARK    2  A    between atoms: C2'_3  and  C1'_4 
REMARK    3  A    between atoms: C1'_4  and  C1_5 
ROOT
ATOM      1  C1  N4B d   1       0.179   0.440   0.173  0.00  0.00    -0.075 A 
ATOM      2  C2  N4B d   1       1.127   0.762   1.169  0.00  0.00     0.002 A 
ATOM      3  C3  N4B d   1       0.799   1.641   2.171  0.00  0.00     0.002 A 
ATOM      4  C4  N4B d   1      -0.460   2.223   2.188  0.00  0.00    -0.004 A 
ATOM      5  C5  N4B d   1      -1.379   1.888   1.237  0.00  0.00     0.002 A 
ATOM      6  C6  N4B d   1      -1.064   1.003   0.226  0.00  0.00     0.002 A 
ENDROOT
BRANCH   1   7
ATOM      7  C1' N4B d   1       0.520  -0.449  -0.991  0.00  0.00     0.057 C 
BRANCH   7   8
ATOM      8  C2' N4B d   1      -0.383  -1.678  -0.964  0.00  0.00     0.009 C 
BRANCH   8   9
ATOM      9  C3' N4B d   1       0.316  -2.910  -1.512  0.00  0.00     0.004 C 
ATOM     10  C4' N4B d   1       0.070  -4.135  -0.683  0.00  0.00     0.003 C 
ENDBRANCH   8   9
ENDBRANCH   7   8
ENDBRANCH   1   7
TORSDOF 3
ENDMDL
