MODEL 1
REMARK minimizedAffinity -3.80058551
REMARK minimizedRMSD -1
REMARK  3 active torsions:
REMARK  status: ('A' for Active; 'I' for Inactive)
REMARK    1  A    between atoms: C3'_2  and  C2'_3 
REMARK    2  A    between atoms: C2'_3  and  C1'_4 
REMARK    3  A    between atoms: C1'_4  and  C1_5 
ROOT
ATOM      1  C1  N4B d   1       0.459  -2.216  -1.309  0.00  0.00    -0.075 A 
ATOM      2  C2  N4B d   1       1.025  -2.988  -0.271  0.00  0.00     0.002 A 
ATOM      3  C3  N4B d   1       0.450  -4.182   0.088  0.00  0.00     0.002 A 
ATOM      4  C4  N4B d   1      -0.697  -4.614  -0.560  0.00  0.00    -0.004 A 
ATOM      5  C5  N4B d   1      -1.223  -3.875  -1.579  0.00  0.00     0.002 A 
ATOM      6  C6  N4B d   1      -0.653  -2.675  -1.954  0.00  0.00     0.002 A 
ENDROOT
BRANCH   1   7
ATOM      7  C1' N4B d   1       1.002  -0.863  -1.680  0.00  0.00     0.057 C 
BRANCH   7   8
ATOM      8  C2' N4B d   1       1.125  -0.011  -0.420  0.00  0.00     0.009 C 
BRANCH   8   9
ATOM      9  C3' N4B d   1      -0.188   0.665  -0.062  0.00  0.00     0.004 C 
ATOM     10  C4' N4B d   1      -0.228   1.137   1.361  0.00  0.00     0.003 C 
ENDBRANCH   8   9
ENDBRANCH   7   8
ENDBRANCH   1   7
TORSDOF 3
ENDMDL
