MODEL 1
REMARK minimizedAffinity -5.6110568
REMARK minimizedRMSD -1
REMARK  3 active torsions:
REMARK  status: ('A' for Active; 'I' for Inactive)
REMARK    1  A    between atoms: C3'_2  and  C2'_3 
REMARK    2  A    between atoms: C2'_3  and  C1'_4 
REMARK    3  A    between atoms: C1'_4  and  C1_5 
ROOT
ATOM      1  C1  N4B d   1      -0.032   0.872  -0.287  0.00  0.00    -0.075 A 
ATOM      2  C2  N4B d   1       0.214   0.621   1.080  0.00  0.00     0.002 A 
ATOM      3  C3  N4B d   1      -0.207   1.518   2.030  0.00  0.00     0.002 A 
ATOM      4  C4  N4B d   1      -0.858   2.678   1.637  0.00  0.00    -0.004 A 
ATOM      5  C5  N4B d   1      -1.114   2.901   0.316  0.00  0.00     0.002 A 
ATOM      6  C6  N4B d   1      -0.700   2.006  -0.649  0.00  0.00     0.002 A 
ENDROOT
BRANCH   1   7
ATOM      7  C1' N4B d   1       0.485  -0.038  -1.368  0.00  0.00     0.057 C 
BRANCH   7   8
ATOM      8  C2' N4B d   1       0.473  -1.476  -0.859  0.00  0.00     0.009 C 
BRANCH   8   9
ATOM      9  C3' N4B d   1       0.329  -2.478  -1.992  0.00  0.00     0.004 C 
ATOM     10  C4' N4B d   1       0.196  -3.890  -1.506  0.00  0.00     0.003 C 
ENDBRANCH   8   9
ENDBRANCH   7   8
ENDBRANCH   1   7
TORSDOF 3
ENDMDL
