MODEL 1
REMARK minimizedAffinity -3.50110316
REMARK minimizedRMSD -1
REMARK  3 active torsions:
REMARK  status: ('A' for Active; 'I' for Inactive)
REMARK    1  A    between atoms: C3'_2  and  C2'_3 
REMARK    2  A    between atoms: C2'_3  and  C1'_4 
REMARK    3  A    between atoms: C1'_4  and  C1_5 
ROOT
ATOM      1  C1  N4B d   1       0.854  -1.102  -0.549  0.00  0.00    -0.075 A 
ATOM      2  C2  N4B d   1       0.402  -0.270  -1.597  0.00  0.00     0.002 A 
ATOM      3  C3  N4B d   1      -0.208   0.926  -1.310  0.00  0.00     0.002 A 
ATOM      4  C4  N4B d   1      -0.395   1.301   0.012  0.00  0.00    -0.004 A 
ATOM      5  C5  N4B d   1       0.067   0.504   1.018  0.00  0.00     0.002 A 
ATOM      6  C6  N4B d   1       0.686  -0.699   0.745  0.00  0.00     0.002 A 
ENDROOT
BRANCH   1   7
ATOM      7  C1' N4B d   1       1.449  -2.458  -0.811  0.00  0.00     0.057 C 
BRANCH   7   8
ATOM      8  C2' N4B d   1       0.326  -3.457  -1.070  0.00  0.00     0.009 C 
BRANCH   8   9
ATOM      9  C3' N4B d   1       0.212  -4.485   0.042  0.00  0.00     0.004 C 
ATOM     10  C4' N4B d   1       1.489  -5.238   0.270  0.00  0.00     0.003 C 
ENDBRANCH   8   9
ENDBRANCH   7   8
ENDBRANCH   1   7
TORSDOF 3
ENDMDL
