MODEL 1
REMARK minimizedAffinity -5.83798504
REMARK minimizedRMSD -1
REMARK  3 active torsions:
REMARK  status: ('A' for Active; 'I' for Inactive)
REMARK    1  A    between atoms: C3'_2  and  C2'_3 
REMARK    2  A    between atoms: C2'_3  and  C1'_4 
REMARK    3  A    between atoms: C1'_4  and  C1_5 
ROOT
ATOM      1  C1  N4B d   1       0.040   1.025  -0.207  0.00  0.00    -0.075 A 
ATOM      2  C2  N4B d   1      -0.437   2.084  -1.010  0.00  0.00     0.002 A 
ATOM      3  C3  N4B d   1      -1.072   3.154  -0.428  0.00  0.00     0.002 A 
ATOM      4  C4  N4B d   1      -1.258   3.177   0.947  0.00  0.00    -0.004 A 
ATOM      5  C5  N4B d   1      -0.772   2.161   1.717  0.00  0.00     0.002 A 
ATOM      6  C6  N4B d   1      -0.128   1.082   1.146  0.00  0.00     0.002 A 
ENDROOT
BRANCH   1   7
ATOM      7  C1' N4B d   1       0.664  -0.206  -0.806  0.00  0.00     0.057 C 
BRANCH   7   8
ATOM      8  C2' N4B d   1      -0.328  -1.362  -0.722  0.00  0.00     0.009 C 
BRANCH   8   9
ATOM      9  C3' N4B d   1       0.320  -2.693  -1.061  0.00  0.00     0.004 C 
ATOM     10  C4' N4B d   1      -0.682  -3.784  -1.300  0.00  0.00     0.003 C 
ENDBRANCH   8   9
ENDBRANCH   7   8
ENDBRANCH   1   7
TORSDOF 3
ENDMDL
