MODEL 1
REMARK minimizedAffinity -4.1177001
REMARK minimizedRMSD -1
REMARK  3 active torsions:
REMARK  status: ('A' for Active; 'I' for Inactive)
REMARK    1  A    between atoms: C3'_2  and  C2'_3 
REMARK    2  A    between atoms: C2'_3  and  C1'_4 
REMARK    3  A    between atoms: C1'_4  and  C1_5 
ROOT
ATOM      1  C1  N4B d   1       0.590  -0.771  -0.891  0.00  0.00    -0.075 A 
ATOM      2  C2  N4B d   1       0.667   0.088  -2.010  0.00  0.00     0.002 A 
ATOM      3  C3  N4B d   1       0.185   1.371  -1.925  0.00  0.00     0.002 A 
ATOM      4  C4  N4B d   1      -0.393   1.810  -0.744  0.00  0.00    -0.004 A 
ATOM      5  C5  N4B d   1      -0.440   0.983   0.340  0.00  0.00     0.002 A 
ATOM      6  C6  N4B d   1       0.044  -0.308   0.271  0.00  0.00     0.002 A 
ENDROOT
BRANCH   1   7
ATOM      7  C1' N4B d   1       1.026  -2.209  -0.961  0.00  0.00     0.057 C 
BRANCH   7   8
ATOM      8  C2' N4B d   1      -0.078  -3.035  -1.614  0.00  0.00     0.009 C 
BRANCH   8   9
ATOM      9  C3' N4B d   1      -0.340  -4.328  -0.860  0.00  0.00     0.004 C 
ATOM     10  C4' N4B d   1       0.773  -4.690   0.077  0.00  0.00     0.003 C 
ENDBRANCH   8   9
ENDBRANCH   7   8
ENDBRANCH   1   7
TORSDOF 3
ENDMDL
