MODEL 1
REMARK minimizedAffinity -5.5428586
REMARK minimizedRMSD -1
REMARK  3 active torsions:
REMARK  status: ('A' for Active; 'I' for Inactive)
REMARK    1  A    between atoms: C3'_2  and  C2'_3 
REMARK    2  A    between atoms: C2'_3  and  C1'_4 
REMARK    3  A    between atoms: C1'_4  and  C1_5 
ROOT
ATOM      1  C1  N4B d   1       0.457   0.399  -0.252  0.00  0.00    -0.075 A 
ATOM      2  C2  N4B d   1       0.270   0.619   1.130  0.00  0.00     0.002 A 
ATOM      3  C3  N4B d   1      -0.081   1.867   1.585  0.00  0.00     0.002 A 
ATOM      4  C4  N4B d   1      -0.230   2.909   0.683  0.00  0.00    -0.004 A 
ATOM      5  C5  N4B d   1      -0.073   2.682  -0.653  0.00  0.00     0.002 A 
ATOM      6  C6  N4B d   1       0.275   1.432  -1.125  0.00  0.00     0.002 A 
ENDROOT
BRANCH   1   7
ATOM      7  C1' N4B d   1       0.924  -0.927  -0.789  0.00  0.00     0.057 C 
BRANCH   7   8
ATOM      8  C2' N4B d   1      -0.275  -1.861  -0.927  0.00  0.00     0.009 C 
BRANCH   8   9
ATOM      9  C3' N4B d   1       0.150  -3.289  -1.226  0.00  0.00     0.004 C 
ATOM     10  C4' N4B d   1      -1.013  -4.193  -1.507  0.00  0.00     0.003 C 
ENDBRANCH   8   9
ENDBRANCH   7   8
ENDBRANCH   1   7
TORSDOF 3
ENDMDL
