MODEL 1
REMARK minimizedAffinity -2.88346434
REMARK minimizedRMSD -1
REMARK  3 active torsions:
REMARK  status: ('A' for Active; 'I' for Inactive)
REMARK    1  A    between atoms: C3'_2  and  C2'_3 
REMARK    2  A    between atoms: C2'_3  and  C1'_4 
REMARK    3  A    between atoms: C1'_4  and  C1_5 
ROOT
ATOM      1  C1  N4B d   1       0.429  -0.787  -0.511  0.00  0.00    -0.075 A 
ATOM      2  C2  N4B d   1      -0.065  -0.432   0.764  0.00  0.00     0.002 A 
ATOM      3  C3  N4B d   1      -0.316   0.885   1.060  0.00  0.00     0.002 A 
ATOM      4  C4  N4B d   1      -0.064   1.863   0.109  0.00  0.00    -0.004 A 
ATOM      5  C5  N4B d   1       0.388   1.509  -1.128  0.00  0.00     0.002 A 
ATOM      6  C6  N4B d   1       0.641   0.189  -1.442  0.00  0.00     0.002 A 
ENDROOT
BRANCH   1   7
ATOM      7  C1' N4B d   1       0.800  -2.204  -0.853  0.00  0.00     0.057 C 
BRANCH   7   8
ATOM      8  C2' N4B d   1      -0.369  -2.867  -1.576  0.00  0.00     0.009 C 
BRANCH   8   9
ATOM      9  C3' N4B d   1      -0.666  -4.251  -1.026  0.00  0.00     0.004 C 
ATOM     10  C4' N4B d   1      -0.034  -4.492   0.313  0.00  0.00     0.003 C 
ENDBRANCH   8   9
ENDBRANCH   7   8
ENDBRANCH   1   7
TORSDOF 3
ENDMDL
