MODEL 1
REMARK minimizedAffinity -1.23730206
REMARK minimizedRMSD -1
REMARK  0 active torsions:
REMARK  status: ('A' for Active; 'I' for Inactive)
ROOT
ATOM      1  C1  BNZ d   1       1.033   0.954  -1.195  0.00  0.00     0.000 A 
ATOM      2  C2  BNZ d   1       0.621   0.908   0.110  0.00  0.00     0.000 A 
ATOM      3  C3  BNZ d   1      -0.162  -0.118   0.561  0.00  0.00     0.000 A 
ATOM      4  C4  BNZ d   1      -0.564  -1.073  -0.301  0.00  0.00     0.000 A 
ATOM      5  C5  BNZ d   1      -0.165  -1.036  -1.622  0.00  0.00     0.000 A 
ATOM      6  C6  BNZ d   1       0.655  -0.023  -2.063  0.00  0.00     0.000 A 
ENDROOT
TORSDOF 0
ENDMDL
