MODEL 1
REMARK minimizedAffinity -3.17076993
REMARK minimizedRMSD -1
REMARK  0 active torsions:
REMARK  status: ('A' for Active; 'I' for Inactive)
ROOT
ATOM      1  C1  BNZ d   1      -1.747   2.596  -5.991  0.00  0.00     0.000 A 
ATOM      2  C2  BNZ d   1      -1.930   3.953  -5.952  0.00  0.00     0.000 A 
ATOM      3  C3  BNZ d   1      -3.186   4.489  -5.913  0.00  0.00     0.000 A 
ATOM      4  C4  BNZ d   1      -4.258   3.671  -5.951  0.00  0.00     0.000 A 
ATOM      5  C5  BNZ d   1      -4.090   2.301  -5.999  0.00  0.00     0.000 A 
ATOM      6  C6  BNZ d   1      -2.823   1.764  -6.000  0.00  0.00     0.000 A 
ENDROOT
TORSDOF 0
ENDMDL
