MODEL 1
REMARK minimizedAffinity -2.18758249
REMARK minimizedRMSD -1
REMARK  0 active torsions:
REMARK  status: ('A' for Active; 'I' for Inactive)
ROOT
ATOM      1  C1  BNZ d   1      -2.836   1.615  -6.000  0.00  0.00     0.000 A 
ATOM      2  C2  BNZ d   1      -3.889   0.739  -5.998  0.00  0.00     0.000 A 
ATOM      3  C3  BNZ d   1      -5.178   1.193  -6.000  0.00  0.00     0.000 A 
ATOM      4  C4  BNZ d   1      -5.413   2.521  -5.962  0.00  0.00     0.000 A 
ATOM      5  C5  BNZ d   1      -4.363   3.417  -5.954  0.00  0.00     0.000 A 
ATOM      6  C6  BNZ d   1      -3.066   2.956  -5.992  0.00  0.00     0.000 A 
ENDROOT
TORSDOF 0
ENDMDL
