MODEL 1
REMARK minimizedAffinity -1.44227743
REMARK minimizedRMSD -1
REMARK  0 active torsions:
REMARK  status: ('A' for Active; 'I' for Inactive)
ROOT
ATOM      1  C1  BNZ d   1      -3.296   4.296  -5.996  0.00  0.00     0.000 A 
ATOM      2  C2  BNZ d   1      -2.993   2.961  -5.992  0.00  0.00     0.000 A 
ATOM      3  C3  BNZ d   1      -3.983   2.019  -6.000  0.00  0.00     0.000 A 
ATOM      4  C4  BNZ d   1      -5.272   2.412  -5.971  0.00  0.00     0.000 A 
ATOM      5  C5  BNZ d   1      -5.594   3.754  -5.965  0.00  0.00     0.000 A 
ATOM      6  C6  BNZ d   1      -4.595   4.700  -5.997  0.00  0.00     0.000 A 
ENDROOT
TORSDOF 0
ENDMDL
