MODEL 1
REMARK minimizedAffinity -2.69562221
REMARK minimizedRMSD -1
REMARK  0 active torsions:
REMARK  status: ('A' for Active; 'I' for Inactive)
ROOT
ATOM      1  C1  BNZ d   1      -3.653   2.898  -5.999  0.00  0.00     0.000 A 
ATOM      2  C2  BNZ d   1      -4.955   2.473  -5.998  0.00  0.00     0.000 A 
ATOM      3  C3  BNZ d   1      -5.983   3.368  -5.893  0.00  0.00     0.000 A 
ATOM      4  C4  BNZ d   1      -5.707   4.680  -5.749  0.00  0.00     0.000 A 
ATOM      5  C5  BNZ d   1      -4.400   5.123  -5.738  0.00  0.00     0.000 A 
ATOM      6  C6  BNZ d   1      -3.368   4.223  -5.883  0.00  0.00     0.000 A 
ENDROOT
TORSDOF 0
ENDMDL
