MODEL 1
REMARK minimizedAffinity -0.776311338
REMARK minimizedRMSD -1
REMARK  0 active torsions:
REMARK  status: ('A' for Active; 'I' for Inactive)
ROOT
ATOM      1  C1  BNZ d   1      -5.992   3.125  -5.961  0.00  0.00     0.000 A 
ATOM      2  C2  BNZ d   1      -5.610   1.811  -5.999  0.00  0.00     0.000 A 
ATOM      3  C3  BNZ d   1      -4.287   1.466  -5.998  0.00  0.00     0.000 A 
ATOM      4  C4  BNZ d   1      -3.349   2.436  -6.000  0.00  0.00     0.000 A 
ATOM      5  C5  BNZ d   1      -3.719   3.766  -5.971  0.00  0.00     0.000 A 
ATOM      6  C6  BNZ d   1      -5.051   4.108  -5.933  0.00  0.00     0.000 A 
ENDROOT
TORSDOF 0
ENDMDL
