MODEL 1
REMARK minimizedAffinity -2.68337059
REMARK minimizedRMSD -1
REMARK  0 active torsions:
REMARK  status: ('A' for Active; 'I' for Inactive)
ROOT
ATOM      1  C1  BNZ d   1      -3.236   4.094  -5.998  0.00  0.00     0.000 A 
ATOM      2  C2  BNZ d   1      -3.840   2.865  -5.989  0.00  0.00     0.000 A 
ATOM      3  C3  BNZ d   1      -5.203   2.755  -5.993  0.00  0.00     0.000 A 
ATOM      4  C4  BNZ d   1      -5.958   3.872  -5.965  0.00  0.00     0.000 A 
ATOM      5  C5  BNZ d   1      -5.364   5.118  -5.964  0.00  0.00     0.000 A 
ATOM      6  C6  BNZ d   1      -3.992   5.225  -5.999  0.00  0.00     0.000 A 
ENDROOT
TORSDOF 0
ENDMDL
