MODEL 1
REMARK minimizedAffinity -2.43988109
REMARK minimizedRMSD -1
REMARK  0 active torsions:
REMARK  status: ('A' for Active; 'I' for Inactive)
ROOT
ATOM      1  C1  BNZ d   1      -3.334   2.938  -5.999  0.00  0.00     0.000 A 
ATOM      2  C2  BNZ d   1      -4.304   3.903  -5.991  0.00  0.00     0.000 A 
ATOM      3  C3  BNZ d   1      -5.628   3.565  -5.963  0.00  0.00     0.000 A 
ATOM      4  C4  BNZ d   1      -5.980   2.263  -5.983  0.00  0.00     0.000 A 
ATOM      5  C5  BNZ d   1      -5.013   1.278  -6.000  0.00  0.00     0.000 A 
ATOM      6  C6  BNZ d   1      -3.681   1.622  -5.989  0.00  0.00     0.000 A 
ENDROOT
TORSDOF 0
ENDMDL
