MODEL 1
REMARK minimizedAffinity 1.87789547
REMARK minimizedRMSD -1
REMARK  0 active torsions:
REMARK  status: ('A' for Active; 'I' for Inactive)
ROOT
ATOM      1  C1  BNZ d   1      -4.296   1.630  -5.999  0.00  0.00     0.000 A 
ATOM      2  C2  BNZ d   1      -3.002   2.079  -6.000  0.00  0.00     0.000 A 
ATOM      3  C3  BNZ d   1      -2.726   3.418  -5.976  0.00  0.00     0.000 A 
ATOM      4  C4  BNZ d   1      -3.742   4.305  -5.991  0.00  0.00     0.000 A 
ATOM      5  C5  BNZ d   1      -5.052   3.867  -6.000  0.00  0.00     0.000 A 
ATOM      6  C6  BNZ d   1      -5.326   2.519  -5.985  0.00  0.00     0.000 A 
ENDROOT
TORSDOF 0
ENDMDL
