MODEL 1
REMARK minimizedAffinity -1.09829605
REMARK minimizedRMSD -1
REMARK  0 active torsions:
REMARK  status: ('A' for Active; 'I' for Inactive)
ROOT
ATOM      1  C1  BNZ d   1      -2.993   4.087  -5.961  0.00  0.00     0.000 A 
ATOM      2  C2  BNZ d   1      -4.190   3.424  -5.999  0.00  0.00     0.000 A 
ATOM      3  C3  BNZ d   1      -4.234   2.058  -5.998  0.00  0.00     0.000 A 
ATOM      4  C4  BNZ d   1      -3.081   1.358  -5.999  0.00  0.00     0.000 A 
ATOM      5  C5  BNZ d   1      -1.866   2.012  -5.970  0.00  0.00     0.000 A 
ATOM      6  C6  BNZ d   1      -1.826   3.387  -5.932  0.00  0.00     0.000 A 
ENDROOT
TORSDOF 0
ENDMDL
