MODEL 1
REMARK minimizedAffinity -0.848846436
REMARK minimizedRMSD -1
REMARK  0 active torsions:
REMARK  status: ('A' for Active; 'I' for Inactive)
ROOT
ATOM      1  C1  BNZ d   1      -3.203   0.928  -5.992  0.00  0.00     0.000 A 
ATOM      2  C2  BNZ d   1      -3.021   2.285  -5.976  0.00  0.00     0.000 A 
ATOM      3  C3  BNZ d   1      -4.091   3.135  -5.946  0.00  0.00     0.000 A 
ATOM      4  C4  BNZ d   1      -5.341   2.629  -5.973  0.00  0.00     0.000 A 
ATOM      5  C5  BNZ d   1      -5.541   1.263  -5.999  0.00  0.00     0.000 A 
ATOM      6  C6  BNZ d   1      -4.462   0.410  -5.990  0.00  0.00     0.000 A 
ENDROOT
TORSDOF 0
ENDMDL
