MODEL 1
REMARK minimizedAffinity -2.61234808
REMARK minimizedRMSD -1
REMARK  0 active torsions:
REMARK  status: ('A' for Active; 'I' for Inactive)
ROOT
ATOM      1  C1  BNZ d   1      -4.446   1.024  -5.951  0.00  0.00     0.000 A 
ATOM      2  C2  BNZ d   1      -5.068   2.244  -5.932  0.00  0.00     0.000 A 
ATOM      3  C3  BNZ d   1      -4.341   3.401  -5.972  0.00  0.00     0.000 A 
ATOM      4  C4  BNZ d   1      -2.994   3.337  -5.990  0.00  0.00     0.000 A 
ATOM      5  C5  BNZ d   1      -2.352   2.115  -6.000  0.00  0.00     0.000 A 
ATOM      6  C6  BNZ d   1      -3.088   0.952  -5.999  0.00  0.00     0.000 A 
ENDROOT
TORSDOF 0
ENDMDL
