MODEL 1
REMARK minimizedAffinity -1.69180918
REMARK minimizedRMSD -1
REMARK  0 active torsions:
REMARK  status: ('A' for Active; 'I' for Inactive)
ROOT
ATOM      1  C1  BNZ d   1      -2.732   5.493  -5.252  0.00  0.00     0.000 A 
ATOM      2  C2  BNZ d   1      -1.519   4.858  -5.248  0.00  0.00     0.000 A 
ATOM      3  C3  BNZ d   1      -1.411   3.553  -5.642  0.00  0.00     0.000 A 
ATOM      4  C4  BNZ d   1      -2.520   2.875  -5.999  0.00  0.00     0.000 A 
ATOM      5  C5  BNZ d   1      -3.752   3.499  -6.000  0.00  0.00     0.000 A 
ATOM      6  C6  BNZ d   1      -3.851   4.823  -5.640  0.00  0.00     0.000 A 
ENDROOT
TORSDOF 0
ENDMDL
