MODEL 1
REMARK minimizedAffinity 1.33116949
REMARK minimizedRMSD -1
REMARK  0 active torsions:
REMARK  status: ('A' for Active; 'I' for Inactive)
ROOT
ATOM      1  C1  BNZ d   1      -4.852   3.118  -5.965  0.00  0.00     0.000 A 
ATOM      2  C2  BNZ d   1      -3.612   3.699  -5.960  0.00  0.00     0.000 A 
ATOM      3  C3  BNZ d   1      -2.481   2.933  -5.996  0.00  0.00     0.000 A 
ATOM      4  C4  BNZ d   1      -2.590   1.589  -5.997  0.00  0.00     0.000 A 
ATOM      5  C5  BNZ d   1      -3.833   0.988  -5.993  0.00  0.00     0.000 A 
ATOM      6  C6  BNZ d   1      -4.970   1.763  -5.996  0.00  0.00     0.000 A 
ENDROOT
TORSDOF 0
ENDMDL
