MODEL 1
REMARK minimizedAffinity -1.14911938
REMARK minimizedRMSD -1
REMARK  0 active torsions:
REMARK  status: ('A' for Active; 'I' for Inactive)
ROOT
ATOM      1  C1  BNZ d   1      -1.780   3.294  -5.972  0.00  0.00     0.000 A 
ATOM      2  C2  BNZ d   1      -2.655   2.241  -6.000  0.00  0.00     0.000 A 
ATOM      3  C3  BNZ d   1      -4.005   2.453  -5.990  0.00  0.00     0.000 A 
ATOM      4  C4  BNZ d   1      -4.478   3.714  -5.912  0.00  0.00     0.000 A 
ATOM      5  C5  BNZ d   1      -3.608   4.786  -5.873  0.00  0.00     0.000 A 
ATOM      6  C6  BNZ d   1      -2.250   4.570  -5.922  0.00  0.00     0.000 A 
ENDROOT
TORSDOF 0
ENDMDL
