MODEL 1
REMARK minimizedAffinity -2.05069661
REMARK minimizedRMSD -1
REMARK  0 active torsions:
REMARK  status: ('A' for Active; 'I' for Inactive)
ROOT
ATOM      1  C1  BNZ d   1      -3.797   5.153  -5.875  0.00  0.00     0.000 A 
ATOM      2  C2  BNZ d   1      -4.973   4.462  -6.000  0.00  0.00     0.000 A 
ATOM      3  C3  BNZ d   1      -4.985   3.095  -5.998  0.00  0.00     0.000 A 
ATOM      4  C4  BNZ d   1      -3.820   2.422  -5.913  0.00  0.00     0.000 A 
ATOM      5  C5  BNZ d   1      -2.625   3.104  -5.796  0.00  0.00     0.000 A 
ATOM      6  C6  BNZ d   1      -2.620   4.479  -5.759  0.00  0.00     0.000 A 
ENDROOT
TORSDOF 0
ENDMDL
