MODEL 1
REMARK minimizedAffinity -0.583722293
REMARK minimizedRMSD -1
REMARK  0 active torsions:
REMARK  status: ('A' for Active; 'I' for Inactive)
ROOT
ATOM      1  C1  BNZ d   1       2.129   0.658  -0.934  0.00  0.00     0.000 A 
ATOM      2  C2  BNZ d   1       2.037   0.235  -2.233  0.00  0.00     0.000 A 
ATOM      3  C3  BNZ d   1       0.962  -0.494  -2.657  0.00  0.00     0.000 A 
ATOM      4  C4  BNZ d   1       0.000  -0.833  -1.774  0.00  0.00     0.000 A 
ATOM      5  C5  BNZ d   1       0.083  -0.421  -0.459  0.00  0.00     0.000 A 
ATOM      6  C6  BNZ d   1       1.148   0.346  -0.045  0.00  0.00     0.000 A 
ENDROOT
TORSDOF 0
ENDMDL
