MODEL 1
REMARK minimizedAffinity 2.26398897
REMARK minimizedRMSD -1
REMARK  0 active torsions:
REMARK  status: ('A' for Active; 'I' for Inactive)
ROOT
ATOM      1  C1  BNZ d   1       2.120   0.003  -0.947  0.00  0.00     0.000 A 
ATOM      2  C2  BNZ d   1       2.035  -0.361  -2.265  0.00  0.00     0.000 A 
ATOM      3  C3  BNZ d   1       0.840  -0.734  -2.812  0.00  0.00     0.000 A 
ATOM      4  C4  BNZ d   1      -0.260  -0.782  -2.034  0.00  0.00     0.000 A 
ATOM      5  C5  BNZ d   1      -0.189  -0.428  -0.701  0.00  0.00     0.000 A 
ATOM      6  C6  BNZ d   1       1.008  -0.015  -0.163  0.00  0.00     0.000 A 
ENDROOT
TORSDOF 0
ENDMDL
