MODEL 1
REMARK minimizedAffinity 1.37636125
REMARK minimizedRMSD -1
REMARK  0 active torsions:
REMARK  status: ('A' for Active; 'I' for Inactive)
ROOT
ATOM      1  C1  BNZ d   1       0.777  -0.707   2.354  0.00  0.00     0.000 A 
ATOM      2  C2  BNZ d   1       1.151  -1.938   2.822  0.00  0.00     0.000 A 
ATOM      3  C3  BNZ d   1       1.619  -2.089   4.098  0.00  0.00     0.000 A 
ATOM      4  C4  BNZ d   1       1.751  -1.005   4.888  0.00  0.00     0.000 A 
ATOM      5  C5  BNZ d   1       1.387   0.245   4.427  0.00  0.00     0.000 A 
ATOM      6  C6  BNZ d   1       0.879   0.387   3.156  0.00  0.00     0.000 A 
ENDROOT
TORSDOF 0
ENDMDL
