MODEL 1
REMARK minimizedAffinity 1.05793953
REMARK minimizedRMSD -1
REMARK  0 active torsions:
REMARK  status: ('A' for Active; 'I' for Inactive)
ROOT
ATOM      1  C1  BNZ d   1      -1.941  -4.139  -5.341  0.00  0.00     0.000 A 
ATOM      2  C2  BNZ d   1      -2.206  -5.084  -4.386  0.00  0.00     0.000 A 
ATOM      3  C3  BNZ d   1      -1.257  -6.000  -4.026  0.00  0.00     0.000 A 
ATOM      4  C4  BNZ d   1      -0.061  -5.995  -4.650  0.00  0.00     0.000 A 
ATOM      5  C5  BNZ d   1       0.217  -5.055  -5.622  0.00  0.00     0.000 A 
ATOM      6  C6  BNZ d   1      -0.726  -4.110  -5.953  0.00  0.00     0.000 A 
ENDROOT
TORSDOF 0
ENDMDL
