MODEL 1
REMARK minimizedAffinity 10.1637516
REMARK minimizedRMSD -1
REMARK  0 active torsions:
REMARK  status: ('A' for Active; 'I' for Inactive)
ROOT
ATOM      1  C1  BNZ d   1      -0.525  -5.999  -5.219  0.00  0.00     0.000 A 
ATOM      2  C2  BNZ d   1      -1.895  -6.000  -5.233  0.00  0.00     0.000 A 
ATOM      3  C3  BNZ d   1      -2.591  -4.897  -5.643  0.00  0.00     0.000 A 
ATOM      4  C4  BNZ d   1      -1.918  -3.784  -6.000  0.00  0.00     0.000 A 
ATOM      5  C5  BNZ d   1      -0.538  -3.764  -5.981  0.00  0.00     0.000 A 
ATOM      6  C6  BNZ d   1       0.160  -4.889  -5.605  0.00  0.00     0.000 A 
ENDROOT
TORSDOF 0
ENDMDL
