MODEL 1
REMARK minimizedAffinity 5.67412615
REMARK minimizedRMSD -1
REMARK  0 active torsions:
REMARK  status: ('A' for Active; 'I' for Inactive)
ROOT
ATOM      1  C1  BNZ d   1      -4.477   0.687  -0.826  0.00  0.00     0.000 A 
ATOM      2  C2  BNZ d   1      -3.775  -0.467  -0.598  0.00  0.00     0.000 A 
ATOM      3  C3  BNZ d   1      -3.045  -0.628   0.547  0.00  0.00     0.000 A 
ATOM      4  C4  BNZ d   1      -2.985   0.379   1.442  0.00  0.00     0.000 A 
ATOM      5  C5  BNZ d   1      -3.680   1.553   1.222  0.00  0.00     0.000 A 
ATOM      6  C6  BNZ d   1      -4.444   1.696   0.087  0.00  0.00     0.000 A 
ENDROOT
TORSDOF 0
ENDMDL
