MODEL 1
REMARK minimizedAffinity 2.62400031
REMARK minimizedRMSD -1
REMARK  0 active torsions:
REMARK  status: ('A' for Active; 'I' for Inactive)
ROOT
ATOM      1  C1  BNZ d   1      -1.301  -2.820  -4.670  0.00  0.00     0.000 A 
ATOM      2  C2  BNZ d   1      -1.625  -3.544  -5.786  0.00  0.00     0.000 A 
ATOM      3  C3  BNZ d   1      -1.967  -4.864  -5.689  0.00  0.00     0.000 A 
ATOM      4  C4  BNZ d   1      -1.945  -5.467  -4.483  0.00  0.00     0.000 A 
ATOM      5  C5  BNZ d   1      -1.611  -4.753  -3.350  0.00  0.00     0.000 A 
ATOM      6  C6  BNZ d   1      -1.305  -3.415  -3.447  0.00  0.00     0.000 A 
ENDROOT
TORSDOF 0
ENDMDL
