MODEL 1
REMARK minimizedAffinity 5.45351124
REMARK minimizedRMSD -1
REMARK  0 active torsions:
REMARK  status: ('A' for Active; 'I' for Inactive)
ROOT
ATOM      1  C1  BNZ d   1       3.023  -0.762   4.074  0.00  0.00     0.000 A 
ATOM      2  C2  BNZ d   1       4.234  -0.846   4.707  0.00  0.00     0.000 A 
ATOM      3  C3  BNZ d   1       4.631  -2.007   5.309  0.00  0.00     0.000 A 
ATOM      4  C4  BNZ d   1       3.800  -3.069   5.313  0.00  0.00     0.000 A 
ATOM      5  C5  BNZ d   1       2.571  -2.997   4.688  0.00  0.00     0.000 A 
ATOM      6  C6  BNZ d   1       2.192  -1.839   4.049  0.00  0.00     0.000 A 
ENDROOT
TORSDOF 0
ENDMDL
