MODEL 1
REMARK minimizedAffinity 10.3812027
REMARK minimizedRMSD -1
REMARK  0 active torsions:
REMARK  status: ('A' for Active; 'I' for Inactive)
ROOT
ATOM      1  C1  BNZ d   1       5.457   1.813  -3.674  0.00  0.00     0.000 A 
ATOM      2  C2  BNZ d   1       5.950   3.091  -3.678  0.00  0.00     0.000 A 
ATOM      3  C3  BNZ d   1       5.984   3.824  -4.831  0.00  0.00     0.000 A 
ATOM      4  C4  BNZ d   1       5.563   3.266  -5.985  0.00  0.00     0.000 A 
ATOM      5  C5  BNZ d   1       5.071   1.976  -5.999  0.00  0.00     0.000 A 
ATOM      6  C6  BNZ d   1       5.003   1.255  -4.829  0.00  0.00     0.000 A 
ENDROOT
TORSDOF 0
ENDMDL
