MODEL 1
REMARK minimizedAffinity -1.24387372
REMARK minimizedRMSD -1
REMARK  1 active torsions:
REMARK  status: ('A' for Active; 'I' for Inactive)
REMARK    1  A    between atoms: C1_2  and  C2_3 
ROOT
ATOM      1  C2  UNL d   1      -0.534   0.295  -0.918  0.00  0.00    -0.081 A 
ATOM      2  C3  UNL d   1      -1.476   0.452   0.107  0.00  0.00     0.006 A 
ATOM      3  C4  UNL d   1      -1.233  -0.071   1.379  0.00  0.00     0.002 A 
ATOM      4  C5  UNL d   1      -0.042  -0.754   1.650  0.00  0.00    -0.080 A 
ATOM      5  C6  UNL d   1       0.244  -1.294   3.019  0.00  0.00     0.076 C 
ATOM      6  C7  UNL d   1       0.891  -0.926   0.622  0.00  0.00     0.002 A 
ATOM      7  C8  UNL d   1       0.648  -0.403  -0.650  0.00  0.00     0.006 A 
ENDROOT
BRANCH   1   8
ATOM      8  C1  UNL d   1      -0.764   0.915  -2.272  0.00  0.00     0.054 C 
ATOM      9  C   UNL d   1      -1.736   2.083  -2.188  0.00  0.00     0.018 C 
ENDBRANCH   1   8
TORSDOF 1
ENDMDL
