MODEL 1
REMARK minimizedAffinity -4.51448441
REMARK minimizedRMSD -1
REMARK  1 active torsions:
REMARK  status: ('A' for Active; 'I' for Inactive)
REMARK    1  A    between atoms: C1_2  and  C2_3 
ROOT
ATOM      1  C2  UNL d   1       0.386  -1.201   1.541  0.00  0.00    -0.081 A 
ATOM      2  C3  UNL d   1      -0.530  -0.148   1.659  0.00  0.00     0.006 A 
ATOM      3  C4  UNL d   1      -0.759   0.715   0.584  0.00  0.00     0.002 A 
ATOM      4  C5  UNL d   1      -0.084   0.535  -0.627  0.00  0.00    -0.080 A 
ATOM      5  C6  UNL d   1      -0.343   1.436  -1.798  0.00  0.00     0.076 C 
ATOM      6  C7  UNL d   1       0.844  -0.506  -0.740  0.00  0.00     0.002 A 
ATOM      7  C8  UNL d   1       1.074  -1.369   0.334  0.00  0.00     0.006 A 
ENDROOT
BRANCH   1   8
ATOM      8  C1  UNL d   1       0.587  -2.172   2.676  0.00  0.00     0.054 C 
ATOM      9  C   UNL d   1       1.503  -1.592   3.744  0.00  0.00     0.018 C 
ENDBRANCH   1   8
TORSDOF 1
ENDMDL
