MODEL 1
REMARK minimizedAffinity -0.57632792
REMARK minimizedRMSD -1
REMARK  1 active torsions:
REMARK  status: ('A' for Active; 'I' for Inactive)
REMARK    1  A    between atoms: C1_2  and  C2_3 
ROOT
ATOM      1  C2  UNL d   1      -0.315   1.664  -1.301  0.00  0.00    -0.081 A 
ATOM      2  C3  UNL d   1      -1.031   0.461  -1.357  0.00  0.00     0.006 A 
ATOM      3  C4  UNL d   1      -1.064  -0.395  -0.255  0.00  0.00     0.002 A 
ATOM      4  C5  UNL d   1      -0.390  -0.060   0.925  0.00  0.00    -0.080 A 
ATOM      5  C6  UNL d   1      -0.443  -0.957   2.126  0.00  0.00     0.076 C 
ATOM      6  C7  UNL d   1       0.339   1.132   0.975  0.00  0.00     0.002 A 
ATOM      7  C8  UNL d   1       0.373   1.989  -0.127  0.00  0.00     0.006 A 
ENDROOT
BRANCH   1   8
ATOM      8  C1  UNL d   1      -0.330   2.620  -2.466  0.00  0.00     0.054 C 
ATOM      9  C   UNL d   1      -0.349   4.067  -1.994  0.00  0.00     0.018 C 
ENDBRANCH   1   8
TORSDOF 1
ENDMDL
