MODEL 1
REMARK minimizedAffinity -2.89804626
REMARK minimizedRMSD -1
REMARK  1 active torsions:
REMARK  status: ('A' for Active; 'I' for Inactive)
REMARK    1  A    between atoms: C1_2  and  C2_3 
ROOT
ATOM      1  C2  UNL d   1      -0.603   0.207  -0.403  0.00  0.00    -0.081 A 
ATOM      2  C3  UNL d   1      -0.880   0.032   0.958  0.00  0.00     0.006 A 
ATOM      3  C4  UNL d   1      -0.131  -0.866   1.723  0.00  0.00     0.002 A 
ATOM      4  C5  UNL d   1       0.912  -1.595   1.143  0.00  0.00    -0.080 A 
ATOM      5  C6  UNL d   1       1.744  -2.539   1.959  0.00  0.00     0.076 C 
ATOM      6  C7  UNL d   1       1.177  -1.433  -0.221  0.00  0.00     0.002 A 
ATOM      7  C8  UNL d   1       0.428  -0.537  -0.987  0.00  0.00     0.006 A 
ENDROOT
BRANCH   1   8
ATOM      8  C1  UNL d   1      -1.367   1.221  -1.216  0.00  0.00     0.054 C 
ATOM      9  C   UNL d   1      -0.461   2.351  -1.684  0.00  0.00     0.018 C 
ENDBRANCH   1   8
TORSDOF 1
ENDMDL
