MODEL 1
REMARK minimizedAffinity -4.85829115
REMARK minimizedRMSD -1
REMARK  1 active torsions:
REMARK  status: ('A' for Active; 'I' for Inactive)
REMARK    1  A    between atoms: C1_2  and  C2_3 
ROOT
ATOM      1  C2  UNL d   1      -0.956   0.834   0.144  0.00  0.00    -0.081 A 
ATOM      2  C3  UNL d   1      -0.103   0.041  -0.634  0.00  0.00     0.006 A 
ATOM      3  C4  UNL d   1       0.297   0.467  -1.902  0.00  0.00     0.002 A 
ATOM      4  C5  UNL d   1      -0.142   1.694  -2.411  0.00  0.00    -0.080 A 
ATOM      5  C6  UNL d   1       0.304   2.176  -3.759  0.00  0.00     0.076 C 
ATOM      6  C7  UNL d   1      -1.009   2.477  -1.641  0.00  0.00     0.002 A 
ATOM      7  C8  UNL d   1      -1.410   2.052  -0.373  0.00  0.00     0.006 A 
ENDROOT
BRANCH   1   8
ATOM      8  C1  UNL d   1      -1.338   0.408   1.539  0.00  0.00     0.054 C 
ATOM      9  C   UNL d   1      -0.479  -0.755   2.017  0.00  0.00     0.018 C 
ENDBRANCH   1   8
TORSDOF 1
ENDMDL
