MODEL 1
REMARK minimizedAffinity -3.80196428
REMARK minimizedRMSD -1
REMARK  1 active torsions:
REMARK  status: ('A' for Active; 'I' for Inactive)
REMARK    1  A    between atoms: C1_2  and  C2_3 
ROOT
ATOM      1  C2  UNL d   1      -0.412   0.422  -1.195  0.00  0.00    -0.081 A 
ATOM      2  C3  UNL d   1      -1.033   0.813  -0.003  0.00  0.00     0.006 A 
ATOM      3  C4  UNL d   1      -0.677   0.219   1.210  0.00  0.00     0.002 A 
ATOM      4  C5  UNL d   1       0.311  -0.771   1.252  0.00  0.00    -0.080 A 
ATOM      5  C6  UNL d   1       0.724  -1.396   2.551  0.00  0.00     0.076 C 
ATOM      6  C7  UNL d   1       0.919  -1.175   0.058  0.00  0.00     0.002 A 
ATOM      7  C8  UNL d   1       0.563  -0.581  -1.154  0.00  0.00     0.006 A 
ENDROOT
BRANCH   1   8
ATOM      8  C1  UNL d   1      -0.748   1.107  -2.495  0.00  0.00     0.054 C 
ATOM      9  C   UNL d   1       0.130   2.329  -2.719  0.00  0.00     0.018 C 
ENDBRANCH   1   8
TORSDOF 1
ENDMDL
