MODEL 1
REMARK minimizedAffinity -1.66799521
REMARK minimizedRMSD -1
REMARK  1 active torsions:
REMARK  status: ('A' for Active; 'I' for Inactive)
REMARK    1  A    between atoms: C1_2  and  C2_3 
ROOT
ATOM      1  C2  UNL d   1      -0.178  -0.710   1.171  0.00  0.00    -0.081 A 
ATOM      2  C3  UNL d   1      -0.722  -1.963   0.861  0.00  0.00     0.006 A 
ATOM      3  C4  UNL d   1       0.082  -2.971   0.325  0.00  0.00     0.002 A 
ATOM      4  C5  UNL d   1       1.444  -2.746   0.096  0.00  0.00    -0.080 A 
ATOM      5  C6  UNL d   1       2.325  -3.830  -0.451  0.00  0.00     0.076 C 
ATOM      6  C7  UNL d   1       1.984  -1.489   0.389  0.00  0.00     0.002 A 
ATOM      7  C8  UNL d   1       1.180  -0.481   0.925  0.00  0.00     0.006 A 
ENDROOT
BRANCH   1   8
ATOM      8  C1  UNL d   1      -1.029   0.358   1.809  0.00  0.00     0.054 C 
ATOM      9  C   UNL d   1      -2.320   0.576   1.033  0.00  0.00     0.018 C 
ENDBRANCH   1   8
TORSDOF 1
ENDMDL
