MODEL 1
REMARK minimizedAffinity -1.34032345
REMARK minimizedRMSD -1
REMARK  1 active torsions:
REMARK  status: ('A' for Active; 'I' for Inactive)
REMARK    1  A    between atoms: C1_2  and  C2_3 
ROOT
ATOM      1  C2  UNL d   1       1.414  -2.912  -0.157  0.00  0.00    -0.081 A 
ATOM      2  C3  UNL d   1       2.063  -1.691   0.058  0.00  0.00     0.006 A 
ATOM      3  C4  UNL d   1       1.377  -0.613   0.623  0.00  0.00     0.002 A 
ATOM      4  C5  UNL d   1       0.033  -0.741   0.990  0.00  0.00    -0.080 A 
ATOM      5  C6  UNL d   1      -0.706   0.398   1.626  0.00  0.00     0.076 C 
ATOM      6  C7  UNL d   1      -0.621  -1.956   0.760  0.00  0.00     0.002 A 
ATOM      7  C8  UNL d   1       0.064  -3.034   0.194  0.00  0.00     0.006 A 
ENDROOT
BRANCH   1   8
ATOM      8  C1  UNL d   1       2.168  -4.096  -0.706  0.00  0.00     0.054 C 
ATOM      9  C   UNL d   1       3.530  -4.241  -0.042  0.00  0.00     0.018 C 
ENDBRANCH   1   8
TORSDOF 1
ENDMDL
