MODEL 1
REMARK minimizedAffinity 1.40436709
REMARK minimizedRMSD -1
REMARK  1 active torsions:
REMARK  status: ('A' for Active; 'I' for Inactive)
REMARK    1  A    between atoms: C1_2  and  C2_3 
ROOT
ATOM      1  C2  UNL d   1       0.320  -2.044  -0.570  0.00  0.00    -0.081 A 
ATOM      2  C3  UNL d   1      -0.604  -1.505   0.334  0.00  0.00     0.006 A 
ATOM      3  C4  UNL d   1      -0.179  -0.661   1.363  0.00  0.00     0.002 A 
ATOM      4  C5  UNL d   1       1.175  -0.337   1.501  0.00  0.00    -0.080 A 
ATOM      5  C6  UNL d   1       1.641   0.592   2.582  0.00  0.00     0.076 C 
ATOM      6  C7  UNL d   1       2.100  -0.890   0.609  0.00  0.00     0.002 A 
ATOM      7  C8  UNL d   1       1.676  -1.734  -0.420  0.00  0.00     0.006 A 
ENDROOT
BRANCH   1   8
ATOM      8  C1  UNL d   1      -0.144  -2.902  -1.719  0.00  0.00     0.054 C 
ATOM      9  C   UNL d   1       0.440  -2.421  -3.040  0.00  0.00     0.018 C 
ENDBRANCH   1   8
TORSDOF 1
ENDMDL
