MODEL 1
REMARK minimizedAffinity -2.1644814
REMARK minimizedRMSD -1
REMARK  1 active torsions:
REMARK  status: ('A' for Active; 'I' for Inactive)
REMARK    1  A    between atoms: C1_2  and  C2_3 
ROOT
ATOM      1  C2  UNL d   1      -1.159  -0.254   1.466  0.00  0.00    -0.081 A 
ATOM      2  C3  UNL d   1       0.104   0.034   0.932  0.00  0.00     0.006 A 
ATOM      3  C4  UNL d   1       0.930  -0.995   0.474  0.00  0.00     0.002 A 
ATOM      4  C5  UNL d   1       0.506  -2.327   0.535  0.00  0.00    -0.080 A 
ATOM      5  C6  UNL d   1       1.371  -3.438   0.019  0.00  0.00     0.076 C 
ATOM      6  C7  UNL d   1      -0.748  -2.615   1.084  0.00  0.00     0.002 A 
ATOM      7  C8  UNL d   1      -1.575  -1.587   1.542  0.00  0.00     0.006 A 
ENDROOT
BRANCH   1   8
ATOM      8  C1  UNL d   1      -2.078   0.859   1.900  0.00  0.00     0.054 C 
ATOM      9  C   UNL d   1      -3.160   1.121   0.862  0.00  0.00     0.018 C 
ENDBRANCH   1   8
TORSDOF 1
ENDMDL
