MODEL 1
REMARK minimizedAffinity -2.52400184
REMARK minimizedRMSD -1
REMARK  1 active torsions:
REMARK  status: ('A' for Active; 'I' for Inactive)
REMARK    1  A    between atoms: C1_2  and  C2_3 
ROOT
ATOM      1  C2  UNL d   1       0.025  -1.361   1.096  0.00  0.00    -0.081 A 
ATOM      2  C3  UNL d   1       0.853  -1.830   2.124  0.00  0.00     0.006 A 
ATOM      3  C4  UNL d   1       0.720  -1.332   3.422  0.00  0.00     0.002 A 
ATOM      4  C5  UNL d   1      -0.246  -0.364   3.716  0.00  0.00    -0.080 A 
ATOM      5  C6  UNL d   1      -0.418   0.157   5.112  0.00  0.00     0.076 C 
ATOM      6  C7  UNL d   1      -1.061   0.117   2.686  0.00  0.00     0.002 A 
ATOM      7  C8  UNL d   1      -0.929  -0.380   1.388  0.00  0.00     0.006 A 
ENDROOT
BRANCH   1   8
ATOM      8  C1  UNL d   1       0.121  -1.943  -0.291  0.00  0.00     0.054 C 
ATOM      9  C   UNL d   1       0.314  -3.452  -0.246  0.00  0.00     0.018 C 
ENDBRANCH   1   8
TORSDOF 1
ENDMDL
