MODEL 1
REMARK minimizedAffinity 4.88327837
REMARK minimizedRMSD -1
REMARK  1 active torsions:
REMARK  status: ('A' for Active; 'I' for Inactive)
REMARK    1  A    between atoms: C1_2  and  C2_3 
ROOT
ATOM      1  C2  UNL d   1       2.984  -0.712   1.938  0.00  0.00    -0.081 A 
ATOM      2  C3  UNL d   1       1.966  -0.553   2.886  0.00  0.00     0.006 A 
ATOM      3  C4  UNL d   1       0.629  -0.490   2.485  0.00  0.00     0.002 A 
ATOM      4  C5  UNL d   1       0.288  -0.592   1.132  0.00  0.00    -0.080 A 
ATOM      5  C6  UNL d   1      -1.145  -0.557   0.692  0.00  0.00     0.076 C 
ATOM      6  C7  UNL d   1       1.307  -0.733   0.183  0.00  0.00     0.002 A 
ATOM      7  C8  UNL d   1       2.643  -0.796   0.583  0.00  0.00     0.006 A 
ENDROOT
BRANCH   1   8
ATOM      8  C1  UNL d   1       4.422  -0.845   2.372  0.00  0.00     0.054 C 
ATOM      9  C   UNL d   1       5.297  -1.358   1.238  0.00  0.00     0.018 C 
ENDBRANCH   1   8
TORSDOF 1
ENDMDL
