MODEL 1
REMARK minimizedAffinity 3.99694753
REMARK minimizedRMSD -1
REMARK  1 active torsions:
REMARK  status: ('A' for Active; 'I' for Inactive)
REMARK    1  A    between atoms: C1_2  and  C2_3 
ROOT
ATOM      1  C2  UNL d   1      -0.744  -0.252   1.629  0.00  0.00    -0.081 A 
ATOM      2  C3  UNL d   1       0.638  -0.317   1.847  0.00  0.00     0.006 A 
ATOM      3  C4  UNL d   1       1.410  -1.295   1.214  0.00  0.00     0.002 A 
ATOM      4  C5  UNL d   1       0.815  -2.217   0.348  0.00  0.00    -0.080 A 
ATOM      5  C6  UNL d   1       1.636  -3.252  -0.362  0.00  0.00     0.076 C 
ATOM      6  C7  UNL d   1      -0.568  -2.164   0.143  0.00  0.00     0.002 A 
ATOM      7  C8  UNL d   1      -1.341  -1.187   0.776  0.00  0.00     0.006 A 
ENDROOT
BRANCH   1   8
ATOM      8  C1  UNL d   1      -1.569   0.840   2.260  0.00  0.00     0.054 C 
ATOM      9  C   UNL d   1      -2.699   1.280   1.341  0.00  0.00     0.018 C 
ENDBRANCH   1   8
TORSDOF 1
ENDMDL
