MODEL 1
REMARK minimizedAffinity 4.5939827
REMARK minimizedRMSD -1
REMARK  1 active torsions:
REMARK  status: ('A' for Active; 'I' for Inactive)
REMARK    1  A    between atoms: C1_2  and  C2_3 
ROOT
ATOM      1  C2  UNL d   1       0.616  -0.984   1.168  0.00  0.00    -0.081 A 
ATOM      2  C3  UNL d   1       1.629  -0.934   0.202  0.00  0.00     0.006 A 
ATOM      3  C4  UNL d   1       1.464  -1.572  -1.030  0.00  0.00     0.002 A 
ATOM      4  C5  UNL d   1       0.282  -2.263  -1.319  0.00  0.00    -0.080 A 
ATOM      5  C6  UNL d   1       0.080  -2.926  -2.649  0.00  0.00     0.076 C 
ATOM      6  C7  UNL d   1      -0.722  -2.328  -0.347  0.00  0.00     0.002 A 
ATOM      7  C8  UNL d   1      -0.557  -1.691   0.885  0.00  0.00     0.006 A 
ENDROOT
BRANCH   1   8
ATOM      8  C1  UNL d   1       0.765  -0.243   2.473  0.00  0.00     0.054 C 
ATOM      9  C   UNL d   1       1.859  -0.855   3.335  0.00  0.00     0.018 C 
ENDBRANCH   1   8
TORSDOF 1
ENDMDL
