MODEL 1
REMARK minimizedAffinity 10.9609871
REMARK minimizedRMSD -1
REMARK  1 active torsions:
REMARK  status: ('A' for Active; 'I' for Inactive)
REMARK    1  A    between atoms: C1_2  and  C2_3 
ROOT
ATOM      1  C2  UNL d   1       0.943  -0.533   2.400  0.00  0.00    -0.081 A 
ATOM      2  C3  UNL d   1      -0.376  -0.812   2.025  0.00  0.00     0.006 A 
ATOM      3  C4  UNL d   1      -0.662  -1.293   0.745  0.00  0.00     0.002 A 
ATOM      4  C5  UNL d   1       0.367  -1.509  -0.178  0.00  0.00    -0.080 A 
ATOM      5  C6  UNL d   1       0.077  -2.053  -1.545  0.00  0.00     0.076 C 
ATOM      6  C7  UNL d   1       1.684  -1.213   0.191  0.00  0.00     0.002 A 
ATOM      7  C8  UNL d   1       1.970  -0.732   1.470  0.00  0.00     0.006 A 
ENDROOT
BRANCH   1   8
ATOM      8  C1  UNL d   1       1.262  -0.076   3.801  0.00  0.00     0.054 C 
ATOM      9  C   UNL d   1       0.031  -0.133   4.695  0.00  0.00     0.018 C 
ENDBRANCH   1   8
TORSDOF 1
ENDMDL
