MODEL 1
REMARK minimizedAffinity 2.17501235
REMARK minimizedRMSD -1
REMARK  1 active torsions:
REMARK  status: ('A' for Active; 'I' for Inactive)
REMARK    1  A    between atoms: C1_2  and  C2_3 
ROOT
ATOM      1  C2  UNL d   1       2.395   4.235  -4.502  0.00  0.00    -0.081 A 
ATOM      2  C3  UNL d   1       1.609   3.808  -3.425  0.00  0.00     0.006 A 
ATOM      3  C4  UNL d   1       0.359   4.384  -3.188  0.00  0.00     0.002 A 
ATOM      4  C5  UNL d   1      -0.130   5.390  -4.028  0.00  0.00    -0.080 A 
ATOM      5  C6  UNL d   1      -1.484   5.995  -3.802  0.00  0.00     0.076 C 
ATOM      6  C7  UNL d   1       0.662   5.829  -5.094  0.00  0.00     0.002 A 
ATOM      7  C8  UNL d   1       1.912   5.254  -5.331  0.00  0.00     0.006 A 
ENDROOT
BRANCH   1   8
ATOM      8  C1  UNL d   1       3.715   3.572  -4.799  0.00  0.00     0.054 C 
ATOM      9  C   UNL d   1       4.080   2.560  -3.722  0.00  0.00     0.018 C 
ENDBRANCH   1   8
TORSDOF 1
ENDMDL
