MODEL 1
REMARK minimizedAffinity -1.52979612
REMARK minimizedRMSD -1
REMARK  0 active torsions:
REMARK  status: ('A' for Active; 'I' for Inactive)
ROOT
ATOM      1  C1  DEN d   1      -1.455   0.559  -1.637  0.00  0.00     0.130 A 
ATOM      2  C2  DEN d   1      -2.682  -0.171  -1.328  0.00  0.00    -0.031 A 
ATOM      3  C3  DEN d   1      -2.411  -1.051  -0.173  0.00  0.00     0.027 A 
ATOM      4  C4  DEN d   1      -0.225  -1.350   1.162  0.00  0.00     0.027 A 
ATOM      5  C5  DEN d   1       1.090  -0.954   1.265  0.00  0.00    -0.003 A 
ATOM      6  C6  DEN d   1       1.654  -0.058   0.395  0.00  0.00     0.001 A 
ATOM      7  C7  DEN d   1       0.887   0.505  -0.590  0.00  0.00     0.017 A 
ATOM      8  C8  DEN d   1      -0.437   0.105  -0.706  0.00  0.00    -0.094 A 
ATOM      9  C9  DEN d   1      -0.992  -0.792   0.191  0.00  0.00    -0.072 A 
ENDROOT
TORSDOF 0
ENDMDL
