MODEL 1
REMARK minimizedAffinity -0.905974567
REMARK minimizedRMSD -1
REMARK  0 active torsions:
REMARK  status: ('A' for Active; 'I' for Inactive)
ROOT
ATOM      1  C1  DEN d   1      -2.170  -1.143   0.297  0.00  0.00     0.130 A 
ATOM      2  C2  DEN d   1      -2.988  -1.185  -0.912  0.00  0.00    -0.031 A 
ATOM      3  C3  DEN d   1      -2.160  -0.713  -2.040  0.00  0.00     0.027 A 
ATOM      4  C4  DEN d   1       0.297   0.071  -2.032  0.00  0.00     0.027 A 
ATOM      5  C5  DEN d   1       1.402   0.294  -1.240  0.00  0.00    -0.003 A 
ATOM      6  C6  DEN d   1       1.383   0.088   0.114  0.00  0.00     0.001 A 
ATOM      7  C7  DEN d   1       0.250  -0.398   0.711  0.00  0.00     0.017 A 
ATOM      8  C8  DEN d   1      -0.870  -0.618  -0.080  0.00  0.00    -0.094 A 
ATOM      9  C9  DEN d   1      -0.827  -0.415  -1.449  0.00  0.00    -0.072 A 
ENDROOT
TORSDOF 0
ENDMDL
