MODEL 1
REMARK minimizedAffinity -4.82200384
REMARK minimizedRMSD -1
REMARK  0 active torsions:
REMARK  status: ('A' for Active; 'I' for Inactive)
ROOT
ATOM      1  C1  DEN d   1       1.258   3.382   0.981  0.00  0.00     0.130 A 
ATOM      2  C2  DEN d   1       2.702   3.400   1.198  0.00  0.00    -0.031 A 
ATOM      3  C3  DEN d   1       3.230   2.060   0.870  0.00  0.00     0.027 A 
ATOM      4  C4  DEN d   1       1.960  -0.028   0.046  0.00  0.00     0.027 A 
ATOM      5  C5  DEN d   1       0.720  -0.532  -0.277  0.00  0.00    -0.003 A 
ATOM      6  C6  DEN d   1      -0.423   0.216  -0.172  0.00  0.00     0.001 A 
ATOM      7  C7  DEN d   1      -0.343   1.525   0.224  0.00  0.00     0.017 A 
ATOM      8  C8  DEN d   1       0.903   2.039   0.559  0.00  0.00    -0.094 A 
ATOM      9  C9  DEN d   1       2.048   1.270   0.434  0.00  0.00    -0.072 A 
ENDROOT
TORSDOF 0
ENDMDL
