MODEL 1
REMARK minimizedAffinity -1.6288923
REMARK minimizedRMSD -1
REMARK  0 active torsions:
REMARK  status: ('A' for Active; 'I' for Inactive)
ROOT
ATOM      1  C1  DEN d   1      -0.019  -1.077   1.483  0.00  0.00     0.130 A 
ATOM      2  C2  DEN d   1       0.826   0.025   1.935  0.00  0.00    -0.031 A 
ATOM      3  C3  DEN d   1       0.743   1.105   0.932  0.00  0.00     0.027 A 
ATOM      4  C4  DEN d   1      -0.610   1.181  -1.263  0.00  0.00     0.027 A 
ATOM      5  C5  DEN d   1      -1.468   0.476  -2.077  0.00  0.00    -0.003 A 
ATOM      6  C6  DEN d   1      -1.874  -0.798  -1.782  0.00  0.00     0.001 A 
ATOM      7  C7  DEN d   1      -1.456  -1.391  -0.619  0.00  0.00     0.017 A 
ATOM      8  C8  DEN d   1      -0.585  -0.689   0.203  0.00  0.00    -0.094 A 
ATOM      9  C9  DEN d   1      -0.196   0.603  -0.107  0.00  0.00    -0.072 A 
ENDROOT
TORSDOF 0
ENDMDL
