MODEL 1
REMARK minimizedAffinity -2.44729257
REMARK minimizedRMSD -1
REMARK  0 active torsions:
REMARK  status: ('A' for Active; 'I' for Inactive)
ROOT
ATOM      1  C1  DEN d   1       0.168  -1.686   1.082  0.00  0.00     0.130 A 
ATOM      2  C2  DEN d   1       1.472  -1.027   1.112  0.00  0.00    -0.031 A 
ATOM      3  C3  DEN d   1       1.479   0.019   0.070  0.00  0.00     0.027 A 
ATOM      4  C4  DEN d   1      -0.394   0.683  -1.575  0.00  0.00     0.027 A 
ATOM      5  C5  DEN d   1      -1.677   0.402  -1.988  0.00  0.00    -0.003 A 
ATOM      6  C6  DEN d   1      -2.417  -0.609  -1.434  0.00  0.00     0.001 A 
ATOM      7  C7  DEN d   1      -1.895  -1.347  -0.404  0.00  0.00     0.017 A 
ATOM      8  C8  DEN d   1      -0.599  -1.074   0.013  0.00  0.00    -0.094 A 
ATOM      9  C9  DEN d   1       0.128  -0.040  -0.552  0.00  0.00    -0.072 A 
ENDROOT
TORSDOF 0
ENDMDL
