MODEL 1
REMARK minimizedAffinity -0.8208583
REMARK minimizedRMSD -1
REMARK  0 active torsions:
REMARK  status: ('A' for Active; 'I' for Inactive)
ROOT
ATOM      1  C1  DEN d   1      -1.946  -1.688  -0.001  0.00  0.00     0.130 A 
ATOM      2  C2  DEN d   1      -2.719  -1.447  -1.216  0.00  0.00    -0.031 A 
ATOM      3  C3  DEN d   1      -1.914  -0.584  -2.105  0.00  0.00     0.027 A 
ATOM      4  C4  DEN d   1       0.441   0.394  -1.720  0.00  0.00     0.027 A 
ATOM      5  C5  DEN d   1       1.491   0.475  -0.833  0.00  0.00    -0.003 A 
ATOM      6  C6  DEN d   1       1.456  -0.125   0.398  0.00  0.00     0.001 A 
ATOM      7  C7  DEN d   1       0.365  -0.872   0.758  0.00  0.00     0.017 A 
ATOM      8  C8  DEN d   1      -0.700  -0.953  -0.129  0.00  0.00    -0.094 A 
ATOM      9  C9  DEN d   1      -0.640  -0.349  -1.373  0.00  0.00    -0.072 A 
ENDROOT
TORSDOF 0
ENDMDL
