MODEL 1
REMARK minimizedAffinity 1.58325553
REMARK minimizedRMSD -1
REMARK  0 active torsions:
REMARK  status: ('A' for Active; 'I' for Inactive)
ROOT
ATOM      1  C1  DEN d   1      -0.290   0.180  -0.604  0.00  0.00     0.130 A 
ATOM      2  C2  DEN d   1       0.728  -0.060   0.414  0.00  0.00    -0.031 A 
ATOM      3  C3  DEN d   1       0.458  -1.375   1.028  0.00  0.00     0.027 A 
ATOM      4  C4  DEN d   1      -1.425  -3.057   0.500  0.00  0.00     0.027 A 
ATOM      5  C5  DEN d   1      -2.537  -3.289  -0.279  0.00  0.00    -0.003 A 
ATOM      6  C6  DEN d   1      -2.994  -2.374  -1.189  0.00  0.00     0.001 A 
ATOM      7  C7  DEN d   1      -2.310  -1.202  -1.376  0.00  0.00     0.017 A 
ATOM      8  C8  DEN d   1      -1.192  -0.958  -0.589  0.00  0.00    -0.094 A 
ATOM      9  C9  DEN d   1      -0.738  -1.901   0.318  0.00  0.00    -0.072 A 
ENDROOT
TORSDOF 0
ENDMDL
