MODEL 1
REMARK minimizedAffinity 3.80982375
REMARK minimizedRMSD -1
REMARK  0 active torsions:
REMARK  status: ('A' for Active; 'I' for Inactive)
ROOT
ATOM      1  C1  DEN d   1       0.567  -0.559  -1.276  0.00  0.00     0.130 A 
ATOM      2  C2  DEN d   1       0.091  -0.106  -2.580  0.00  0.00    -0.031 A 
ATOM      3  C3  DEN d   1      -1.226   0.535  -2.388  0.00  0.00     0.027 A 
ATOM      4  C4  DEN d   1      -2.564   0.870  -0.208  0.00  0.00     0.027 A 
ATOM      5  C5  DEN d   1      -2.572   0.643   1.150  0.00  0.00    -0.003 A 
ATOM      6  C6  DEN d   1      -1.559  -0.026   1.785  0.00  0.00     0.001 A 
ATOM      7  C7  DEN d   1      -0.473  -0.451   1.067  0.00  0.00     0.017 A 
ATOM      8  C8  DEN d   1      -0.460  -0.232  -0.304  0.00  0.00    -0.094 A 
ATOM      9  C9  DEN d   1      -1.488   0.457  -0.925  0.00  0.00    -0.072 A 
ENDROOT
TORSDOF 0
ENDMDL
