MODEL 1
REMARK minimizedAffinity -2.10066223
REMARK minimizedRMSD -1
REMARK  0 active torsions:
REMARK  status: ('A' for Active; 'I' for Inactive)
ROOT
ATOM      1  C1  DEN d   1      -1.836  -2.012   0.061  0.00  0.00     0.130 A 
ATOM      2  C2  DEN d   1      -2.924  -1.814  -0.893  0.00  0.00    -0.031 A 
ATOM      3  C3  DEN d   1      -2.615  -0.614  -1.695  0.00  0.00     0.027 A 
ATOM      4  C4  DEN d   1      -0.568   0.948  -1.556  0.00  0.00     0.027 A 
ATOM      5  C5  DEN d   1       0.615   1.193  -0.894  0.00  0.00    -0.003 A 
ATOM      6  C6  DEN d   1       1.043   0.412   0.147  0.00  0.00     0.001 A 
ATOM      7  C7  DEN d   1       0.305  -0.677   0.527  0.00  0.00     0.017 A 
ATOM      8  C8  DEN d   1      -0.892  -0.926  -0.131  0.00  0.00    -0.094 A 
ATOM      9  C9  DEN d   1      -1.302  -0.132  -1.189  0.00  0.00    -0.072 A 
ENDROOT
TORSDOF 0
ENDMDL
