MODEL 1
REMARK minimizedAffinity 1.70362008
REMARK minimizedRMSD -1
REMARK  0 active torsions:
REMARK  status: ('A' for Active; 'I' for Inactive)
ROOT
ATOM      1  C1  DEN d   1      -2.158  -0.818  -0.926  0.00  0.00     0.130 A 
ATOM      2  C2  DEN d   1      -2.061   0.026  -2.114  0.00  0.00    -0.031 A 
ATOM      3  C3  DEN d   1      -0.727   0.660  -2.115  0.00  0.00     0.027 A 
ATOM      4  C4  DEN d   1       1.188   0.414  -0.405  0.00  0.00     0.027 A 
ATOM      5  C5  DEN d   1       1.569  -0.184   0.776  0.00  0.00    -0.003 A 
ATOM      6  C6  DEN d   1       0.729  -1.002   1.484  0.00  0.00     0.001 A 
ATOM      7  C7  DEN d   1      -0.520  -1.280   0.994  0.00  0.00     0.017 A 
ATOM      8  C8  DEN d   1      -0.913  -0.675  -0.192  0.00  0.00    -0.094 A 
ATOM      9  C9  DEN d   1      -0.045   0.139  -0.900  0.00  0.00    -0.072 A 
ENDROOT
TORSDOF 0
ENDMDL
