MODEL 1
REMARK minimizedAffinity -3.34068346
REMARK minimizedRMSD -1
REMARK  0 active torsions:
REMARK  status: ('A' for Active; 'I' for Inactive)
ROOT
ATOM      1  C1  DEN d   1       1.447   3.398  -0.150  0.00  0.00     0.130 A 
ATOM      2  C2  DEN d   1       2.328   3.361   1.014  0.00  0.00    -0.031 A 
ATOM      3  C3  DEN d   1       2.222   2.020   1.624  0.00  0.00     0.027 A 
ATOM      4  C4  DEN d   1       0.791   0.007   0.879  0.00  0.00     0.027 A 
ATOM      5  C5  DEN d   1      -0.127  -0.436  -0.048  0.00  0.00    -0.003 A 
ATOM      6  C6  DEN d   1      -0.606   0.372  -1.045  0.00  0.00     0.001 A 
ATOM      7  C7  DEN d   1      -0.135   1.653  -1.166  0.00  0.00     0.017 A 
ATOM      8  C8  DEN d   1       0.785   2.109  -0.231  0.00  0.00    -0.094 A 
ATOM      9  C9  DEN d   1       1.266   1.273   0.762  0.00  0.00    -0.072 A 
ENDROOT
TORSDOF 0
ENDMDL
