MODEL 1
REMARK minimizedAffinity 0.19394356
REMARK minimizedRMSD -1
REMARK  0 active torsions:
REMARK  status: ('A' for Active; 'I' for Inactive)
ROOT
ATOM      1  C1  DEN d   1       2.410   1.659   2.328  0.00  0.00     0.130 A 
ATOM      2  C2  DEN d   1       3.400   2.166   1.382  0.00  0.00    -0.031 A 
ATOM      3  C3  DEN d   1       3.068   1.634   0.045  0.00  0.00     0.027 A 
ATOM      4  C4  DEN d   1       1.125   0.088  -0.650  0.00  0.00     0.027 A 
ATOM      5  C5  DEN d   1       0.031  -0.614  -0.194  0.00  0.00    -0.003 A 
ATOM      6  C6  DEN d   1      -0.324  -0.635   1.129  0.00  0.00     0.001 A 
ATOM      7  C7  DEN d   1       0.396   0.096   2.036  0.00  0.00     0.017 A 
ATOM      8  C8  DEN d   1       1.505   0.800   1.585  0.00  0.00    -0.094 A 
ATOM      9  C9  DEN d   1       1.840   0.819   0.242  0.00  0.00    -0.072 A 
ENDROOT
TORSDOF 0
ENDMDL
