MODEL 1
REMARK minimizedAffinity -3.24838352
REMARK minimizedRMSD -1
REMARK  0 active torsions:
REMARK  status: ('A' for Active; 'I' for Inactive)
ROOT
ATOM      1  C   UNL d   1       2.809   0.103   0.860  0.00  0.00     0.124 A 
ATOM      2  C1  UNL d   1       2.122   1.308   0.814  0.00  0.00     0.062 A 
ATOM      3  C2  UNL d   1       0.794   1.342   0.396  0.00  0.00     0.162 A 
ATOM      4  C3  UNL d   1       0.144   0.166   0.022  0.00  0.00    -0.034 A 
ATOM      5  C4  UNL d   1       0.842  -1.043   0.070  0.00  0.00     0.162 A 
ATOM      6  C5  UNL d   1       2.168  -1.071   0.488  0.00  0.00     0.062 A 
ATOM      7  F   UNL d   1       2.830  -2.237   0.532  0.00  0.00    -0.097 F 
ATOM      8  F1  UNL d   1       0.247  -2.192  -0.282  0.00  0.00    -0.096 F 
ATOM      9  I   UNL d   1      -1.841   0.212  -0.602  0.00  0.00    -0.060 I 
ATOM     10  F2  UNL d   1       0.155   2.520   0.362  0.00  0.00    -0.096 F 
ATOM     11  F3  UNL d   1       2.739   2.443   1.171  0.00  0.00    -0.097 F 
ATOM     12  F4  UNL d   1       4.086   0.073   1.261  0.00  0.00    -0.092 F 
ENDROOT
TORSDOF 0
ENDMDL
