MODEL 1
REMARK minimizedAffinity -4.9349699
REMARK minimizedRMSD -1
REMARK  0 active torsions:
REMARK  status: ('A' for Active; 'I' for Inactive)
ROOT
ATOM      1  C   UNL d   1       2.261  -0.665   1.057  0.00  0.00     0.124 A 
ATOM      2  C1  UNL d   1       1.746   0.556   0.644  0.00  0.00     0.062 A 
ATOM      3  C2  UNL d   1       0.395   0.675   0.330  0.00  0.00     0.162 A 
ATOM      4  C3  UNL d   1      -0.451  -0.430   0.430  0.00  0.00    -0.034 A 
ATOM      5  C4  UNL d   1       0.075  -1.654   0.845  0.00  0.00     0.162 A 
ATOM      6  C5  UNL d   1       1.426  -1.769   1.157  0.00  0.00     0.062 A 
ATOM      7  F   UNL d   1       1.922  -2.949   1.556  0.00  0.00    -0.097 F 
ATOM      8  F1  UNL d   1      -0.710  -2.737   0.952  0.00  0.00    -0.096 F 
ATOM      9  I   UNL d   1      -2.471  -0.255  -0.038  0.00  0.00    -0.060 I 
ATOM     10  F2  UNL d   1      -0.076   1.867  -0.066  0.00  0.00    -0.096 F 
ATOM     11  F3  UNL d   1       2.551   1.623   0.545  0.00  0.00    -0.097 F 
ATOM     12  F4  UNL d   1       3.562  -0.777   1.357  0.00  0.00    -0.092 F 
ENDROOT
TORSDOF 0
ENDMDL
