MODEL 1
REMARK minimizedAffinity -4.71310472
REMARK minimizedRMSD -1
REMARK  0 active torsions:
REMARK  status: ('A' for Active; 'I' for Inactive)
ROOT
ATOM      1  C   UNL d   1       1.986   0.050   0.846  0.00  0.00     0.124 A 
ATOM      2  C1  UNL d   1       1.615   1.374   0.655  0.00  0.00     0.062 A 
ATOM      3  C2  UNL d   1       0.484   1.683  -0.094  0.00  0.00     0.162 A 
ATOM      4  C3  UNL d   1      -0.287   0.666  -0.657  0.00  0.00    -0.034 A 
ATOM      5  C4  UNL d   1       0.092  -0.663  -0.461  0.00  0.00     0.162 A 
ATOM      6  C5  UNL d   1       1.224  -0.967   0.288  0.00  0.00     0.062 A 
ATOM      7  F   UNL d   1       1.580  -2.247   0.471  0.00  0.00    -0.097 F 
ATOM      8  F1  UNL d   1      -0.626  -1.666  -0.989  0.00  0.00    -0.096 F 
ATOM      9  I   UNL d   1      -1.980   1.124  -1.777  0.00  0.00    -0.060 I 
ATOM     10  F2  UNL d   1       0.149   2.971  -0.262  0.00  0.00    -0.096 F 
ATOM     11  F3  UNL d   1       2.350   2.358   1.192  0.00  0.00    -0.097 F 
ATOM     12  F4  UNL d   1       3.076  -0.245   1.566  0.00  0.00    -0.092 F 
ENDROOT
TORSDOF 0
ENDMDL
