MODEL 1
REMARK minimizedAffinity 8.63248444
REMARK minimizedRMSD -1
REMARK  0 active torsions:
REMARK  status: ('A' for Active; 'I' for Inactive)
ROOT
ATOM      1  C   UNL d   1       3.326   1.487  -0.297  0.00  0.00     0.124 A 
ATOM      2  C1  UNL d   1       3.940   0.249  -0.171  0.00  0.00     0.062 A 
ATOM      3  C2  UNL d   1       3.295  -0.787   0.499  0.00  0.00     0.162 A 
ATOM      4  C3  UNL d   1       2.028  -0.590   1.047  0.00  0.00    -0.034 A 
ATOM      5  C4  UNL d   1       1.417   0.659   0.917  0.00  0.00     0.162 A 
ATOM      6  C5  UNL d   1       2.065   1.691   0.247  0.00  0.00     0.062 A 
ATOM      7  F   UNL d   1       1.471   2.886   0.126  0.00  0.00    -0.097 F 
ATOM      8  F1  UNL d   1       0.199   0.883   1.432  0.00  0.00    -0.096 F 
ATOM      9  I   UNL d   1       1.061  -2.137   2.049  0.00  0.00    -0.060 I 
ATOM     10  F2  UNL d   1       3.912  -1.974   0.606  0.00  0.00    -0.096 F 
ATOM     11  F3  UNL d   1       5.158   0.049  -0.695  0.00  0.00    -0.097 F 
ATOM     12  F4  UNL d   1       3.949   2.482  -0.941  0.00  0.00    -0.092 F 
ENDROOT
TORSDOF 0
ENDMDL
