MODEL 1
REMARK minimizedAffinity -3.02984762
REMARK minimizedRMSD -1
REMARK  0 active torsions:
REMARK  status: ('A' for Active; 'I' for Inactive)
ROOT
ATOM      1  C   UNL d   1       2.087  -0.698   1.175  0.00  0.00     0.124 A 
ATOM      2  C1  UNL d   1       2.104   0.472   0.429  0.00  0.00     0.062 A 
ATOM      3  C2  UNL d   1       1.005   0.822  -0.350  0.00  0.00     0.162 A 
ATOM      4  C3  UNL d   1      -0.122  -0.000  -0.387  0.00  0.00    -0.034 A 
ATOM      5  C4  UNL d   1      -0.131  -1.176   0.365  0.00  0.00     0.162 A 
ATOM      6  C5  UNL d   1       0.970  -1.521   1.143  0.00  0.00     0.062 A 
ATOM      7  F   UNL d   1       0.952  -2.652   1.863  0.00  0.00    -0.097 F 
ATOM      8  F1  UNL d   1      -1.198  -1.989   0.353  0.00  0.00    -0.096 F 
ATOM      9  I   UNL d   1      -1.767   0.519  -1.551  0.00  0.00    -0.060 I 
ATOM     10  F2  UNL d   1       1.049   1.959  -1.061  0.00  0.00    -0.096 F 
ATOM     11  F3  UNL d   1       3.182   1.269   0.458  0.00  0.00    -0.097 F 
ATOM     12  F4  UNL d   1       3.146  -1.032   1.923  0.00  0.00    -0.092 F 
ENDROOT
TORSDOF 0
ENDMDL
