MODEL 1
REMARK minimizedAffinity -1.57175112
REMARK minimizedRMSD -1
REMARK  0 active torsions:
REMARK  status: ('A' for Active; 'I' for Inactive)
ROOT
ATOM      1  C   UNL d   1       2.002   1.276   0.875  0.00  0.00     0.124 A 
ATOM      2  C1  UNL d   1       0.933   1.867   0.217  0.00  0.00     0.062 A 
ATOM      3  C2  UNL d   1      -0.233   1.143  -0.016  0.00  0.00     0.162 A 
ATOM      4  C3  UNL d   1      -0.336  -0.181   0.412  0.00  0.00    -0.034 A 
ATOM      5  C4  UNL d   1       0.744  -0.769   1.074  0.00  0.00     0.162 A 
ATOM      6  C5  UNL d   1       1.906  -0.041   1.303  0.00  0.00     0.062 A 
ATOM      7  F   UNL d   1       2.938  -0.613   1.940  0.00  0.00    -0.097 F 
ATOM      8  F1  UNL d   1       0.678  -2.039   1.499  0.00  0.00    -0.096 F 
ATOM      9  I   UNL d   1      -2.078  -1.267   0.067  0.00  0.00    -0.060 I 
ATOM     10  F2  UNL d   1      -1.250   1.739  -0.655  0.00  0.00    -0.096 F 
ATOM     11  F3  UNL d   1       1.023   3.139  -0.199  0.00  0.00    -0.097 F 
ATOM     12  F4  UNL d   1       3.123   1.975   1.097  0.00  0.00    -0.092 F 
ENDROOT
TORSDOF 0
ENDMDL
