MODEL 1
REMARK minimizedAffinity -5.18586349
REMARK minimizedRMSD -1
REMARK  0 active torsions:
REMARK  status: ('A' for Active; 'I' for Inactive)
ROOT
ATOM      1  C   UNL d   1       2.682  -0.844   1.434  0.00  0.00     0.124 A 
ATOM      2  C1  UNL d   1       2.531   0.250   0.593  0.00  0.00     0.062 A 
ATOM      3  C2  UNL d   1       1.329   0.458  -0.077  0.00  0.00     0.162 A 
ATOM      4  C3  UNL d   1       0.267  -0.430   0.093  0.00  0.00    -0.034 A 
ATOM      5  C4  UNL d   1       0.426  -1.529   0.940  0.00  0.00     0.162 A 
ATOM      6  C5  UNL d   1       1.630  -1.732   1.607  0.00  0.00     0.062 A 
ATOM      7  F   UNL d   1       1.774  -2.789   2.419  0.00  0.00    -0.097 F 
ATOM      8  F1  UNL d   1      -0.575  -2.402   1.126  0.00  0.00    -0.096 F 
ATOM      9  I   UNL d   1      -1.533  -0.124  -0.906  0.00  0.00    -0.060 I 
ATOM     10  F2  UNL d   1       1.211   1.523  -0.883  0.00  0.00    -0.096 F 
ATOM     11  F3  UNL d   1       3.547   1.109   0.423  0.00  0.00    -0.097 F 
ATOM     12  F4  UNL d   1       3.841  -1.041   2.076  0.00  0.00    -0.092 F 
ENDROOT
TORSDOF 0
ENDMDL
