MODEL 1
REMARK minimizedAffinity 9.65281391
REMARK minimizedRMSD -1
REMARK  0 active torsions:
REMARK  status: ('A' for Active; 'I' for Inactive)
ROOT
ATOM      1  C   UNL d   1       1.042   1.910  -0.014  0.00  0.00     0.124 A 
ATOM      2  C1  UNL d   1       2.002   2.223   0.938  0.00  0.00     0.062 A 
ATOM      3  C2  UNL d   1       2.158   1.422   2.065  0.00  0.00     0.162 A 
ATOM      4  C3  UNL d   1       1.352   0.298   2.246  0.00  0.00    -0.034 A 
ATOM      5  C4  UNL d   1       0.388  -0.010   1.285  0.00  0.00     0.162 A 
ATOM      6  C5  UNL d   1       0.236   0.794   0.160  0.00  0.00     0.062 A 
ATOM      7  F   UNL d   1      -0.693   0.490  -0.759  0.00  0.00    -0.097 F 
ATOM      8  F1  UNL d   1      -0.404  -1.084   1.427  0.00  0.00    -0.096 F 
ATOM      9  I   UNL d   1       1.582  -0.904   3.930  0.00  0.00    -0.060 I 
ATOM     10  F2  UNL d   1       3.094   1.748   2.969  0.00  0.00    -0.096 F 
ATOM     11  F3  UNL d   1       2.782   3.302   0.773  0.00  0.00    -0.097 F 
ATOM     12  F4  UNL d   1       0.893   2.684  -1.097  0.00  0.00    -0.092 F 
ENDROOT
TORSDOF 0
ENDMDL
