MODEL 1
REMARK minimizedAffinity 1.88211071
REMARK minimizedRMSD -1
REMARK  1 active torsions:
REMARK  status: ('A' for Active; 'I' for Inactive)
REMARK    1  A    between atoms: C1_2  and  C2_3 
ROOT
ATOM      1  C2  UNL d   1       2.495  -1.733   2.539  0.00  0.00    -0.077 A 
ATOM      2  C3  UNL d   1       2.091  -0.397   2.407  0.00  0.00     0.002 A 
ATOM      3  C4  UNL d   1       1.492   0.269   3.478  0.00  0.00     0.002 A 
ATOM      4  C5  UNL d   1       1.296  -0.390   4.689  0.00  0.00    -0.004 A 
ATOM      5  C6  UNL d   1       1.693  -1.720   4.830  0.00  0.00     0.002 A 
ATOM      6  C7  UNL d   1       2.290  -2.388   3.760  0.00  0.00     0.002 A 
ENDROOT
BRANCH   1   7
ATOM      7  C1  UNL d   1       3.185  -2.438   1.401  0.00  0.00     0.055 C 
ATOM      8  C   UNL d   1       4.692  -2.478   1.607  0.00  0.00     0.019 C 
ENDBRANCH   1   7
TORSDOF 1
ENDMDL
