MODEL 1
REMARK minimizedAffinity -4.39558363
REMARK minimizedRMSD -1
REMARK  1 active torsions:
REMARK  status: ('A' for Active; 'I' for Inactive)
REMARK    1  A    between atoms: C1_2  and  C2_3 
ROOT
ATOM      1  C2  UNL d   1      -5.156  -4.617  -4.088  0.00  0.00    -0.077 A 
ATOM      2  C3  UNL d   1      -4.704  -5.809  -3.506  0.00  0.00     0.002 A 
ATOM      3  C4  UNL d   1      -4.302  -5.834  -2.169  0.00  0.00     0.002 A 
ATOM      4  C5  UNL d   1      -4.351  -4.671  -1.403  0.00  0.00    -0.004 A 
ATOM      5  C6  UNL d   1      -4.797  -3.480  -1.974  0.00  0.00     0.002 A 
ATOM      6  C7  UNL d   1      -5.199  -3.453  -3.310  0.00  0.00     0.002 A 
ENDROOT
BRANCH   1   7
ATOM      7  C1  UNL d   1      -5.637  -4.599  -5.516  0.00  0.00     0.055 C 
ATOM      8  C   UNL d   1      -5.988  -5.999  -5.999  0.00  0.00     0.019 C 
ENDBRANCH   1   7
TORSDOF 1
ENDMDL
