MODEL 1
REMARK minimizedAffinity 0.583113849
REMARK minimizedRMSD -1
REMARK  1 active torsions:
REMARK  status: ('A' for Active; 'I' for Inactive)
REMARK    1  A    between atoms: C1_2  and  C2_3 
ROOT
ATOM      1  C2  UNL d   1      -5.872  -5.177  -4.086  0.00  0.00    -0.077 A 
ATOM      2  C3  UNL d   1      -5.871  -3.775  -4.062  0.00  0.00     0.002 A 
ATOM      3  C4  UNL d   1      -5.935  -3.089  -2.848  0.00  0.00     0.002 A 
ATOM      4  C5  UNL d   1      -5.996  -3.796  -1.649  0.00  0.00    -0.004 A 
ATOM      5  C6  UNL d   1      -6.000  -5.190  -1.662  0.00  0.00     0.002 A 
ATOM      6  C7  UNL d   1      -5.937  -5.878  -2.874  0.00  0.00     0.002 A 
ENDROOT
BRANCH   1   7
ATOM      7  C1  UNL d   1      -5.753  -5.919  -5.391  0.00  0.00     0.055 C 
ATOM      8  C   UNL d   1      -4.357  -5.780  -5.982  0.00  0.00     0.019 C 
ENDBRANCH   1   7
TORSDOF 1
ENDMDL
