MODEL 1
REMARK minimizedAffinity 1.09129918
REMARK minimizedRMSD -1
REMARK  1 active torsions:
REMARK  status: ('A' for Active; 'I' for Inactive)
REMARK    1  A    between atoms: C1_2  and  C2_3 
ROOT
ATOM      1  C2  UNL d   1       1.456   1.446   0.840  0.00  0.00    -0.073 A 
ATOM      2  C3  UNL d   1       2.607   0.874   1.393  0.00  0.00    -0.002 A 
ATOM      3  C4  UNL d   1       2.916  -0.465   1.146  0.00  0.00     0.004 A 
ATOM      4  C5  UNL d   1       2.083  -1.241   0.341  0.00  0.00    -0.004 A 
ATOM      5  C6  UNL d   1       0.935  -0.683  -0.230  0.00  0.00    -0.075 A 
ATOM      6  C7  UNL d   1       0.027  -1.505  -1.097  0.00  0.00     0.076 C 
ATOM      7  C8  UNL d   1       0.630   0.661   0.024  0.00  0.00     0.001 A 
ENDROOT
BRANCH   1   8
ATOM      8  C1  UNL d   1       1.122   2.893   1.098  0.00  0.00     0.053 C 
ATOM      9  C   UNL d   1       0.418   3.086   2.432  0.00  0.00     0.018 C 
ENDBRANCH   1   8
TORSDOF 1
ENDMDL
