MODEL 1
REMARK minimizedAffinity -2.33003449
REMARK minimizedRMSD -1
REMARK  1 active torsions:
REMARK  status: ('A' for Active; 'I' for Inactive)
REMARK    1  A    between atoms: C1_2  and  C2_3 
ROOT
ATOM      1  C2  UNL d   1       2.960  -1.312  -1.304  0.00  0.00    -0.073 A 
ATOM      2  C3  UNL d   1       1.806  -1.814  -0.692  0.00  0.00    -0.002 A 
ATOM      3  C4  UNL d   1       1.164  -1.083   0.309  0.00  0.00     0.004 A 
ATOM      4  C5  UNL d   1       1.664   0.159   0.701  0.00  0.00    -0.004 A 
ATOM      5  C6  UNL d   1       2.809   0.683   0.093  0.00  0.00    -0.075 A 
ATOM      6  C7  UNL d   1       3.361   2.016   0.505  0.00  0.00     0.076 C 
ATOM      7  C8  UNL d   1       3.450  -0.059  -0.909  0.00  0.00     0.001 A 
ENDROOT
BRANCH   1   8
ATOM      8  C1  UNL d   1       3.653  -2.095  -2.389  0.00  0.00     0.053 C 
ATOM      9  C   UNL d   1       2.686  -2.978  -3.161  0.00  0.00     0.018 C 
ENDBRANCH   1   8
TORSDOF 1
ENDMDL
