MODEL 1
REMARK minimizedAffinity 6.68744659
REMARK minimizedRMSD -1
REMARK  1 active torsions:
REMARK  status: ('A' for Active; 'I' for Inactive)
REMARK    1  A    between atoms: C1_2  and  C2_3 
ROOT
ATOM      1  C2  UNL d   1       0.321   0.534   0.184  0.00  0.00    -0.073 A 
ATOM      2  C3  UNL d   1      -0.905   0.297  -0.447  0.00  0.00    -0.002 A 
ATOM      3  C4  UNL d   1      -1.145  -0.919  -1.087  0.00  0.00     0.004 A 
ATOM      4  C5  UNL d   1      -0.165  -1.912  -1.098  0.00  0.00    -0.004 A 
ATOM      5  C6  UNL d   1       1.062  -1.698  -0.463  0.00  0.00    -0.075 A 
ATOM      6  C7  UNL d   1       2.127  -2.755  -0.467  0.00  0.00     0.076 C 
ATOM      7  C8  UNL d   1       1.296  -0.473   0.176  0.00  0.00     0.001 A 
ENDROOT
BRANCH   1   8
ATOM      8  C1  UNL d   1       0.582   1.844   0.883  0.00  0.00     0.053 C 
ATOM      9  C   UNL d   1       0.963   1.646   2.341  0.00  0.00     0.018 C 
ENDBRANCH   1   8
TORSDOF 1
ENDMDL
