MODEL 1
REMARK minimizedAffinity 5.76959229
REMARK minimizedRMSD -1
REMARK  1 active torsions:
REMARK  status: ('A' for Active; 'I' for Inactive)
REMARK    1  A    between atoms: C1_2  and  C2_3 
ROOT
ATOM      1  C2  UNL d   1       0.636  -0.467   0.954  0.00  0.00    -0.073 A 
ATOM      2  C3  UNL d   1       0.992   0.794   0.462  0.00  0.00    -0.002 A 
ATOM      3  C4  UNL d   1       1.432   1.792   1.333  0.00  0.00     0.004 A 
ATOM      4  C5  UNL d   1       1.527   1.538   2.701  0.00  0.00    -0.004 A 
ATOM      5  C6  UNL d   1       1.187   0.281   3.210  0.00  0.00    -0.075 A 
ATOM      6  C7  UNL d   1       1.282  -0.008   4.680  0.00  0.00     0.076 C 
ATOM      7  C8  UNL d   1       0.743  -0.716   2.330  0.00  0.00     0.001 A 
ENDROOT
BRANCH   1   8
ATOM      8  C1  UNL d   1       0.166  -1.550   0.018  0.00  0.00     0.053 C 
ATOM      9  C   UNL d   1      -0.982  -1.083  -0.863  0.00  0.00     0.018 C 
ENDBRANCH   1   8
TORSDOF 1
ENDMDL
