MODEL 1
REMARK minimizedAffinity -2.20019317
REMARK minimizedRMSD -1
REMARK  1 active torsions:
REMARK  status: ('A' for Active; 'I' for Inactive)
REMARK    1  A    between atoms: C1_2  and  C2_3 
ROOT
ATOM      1  C2  UNL d   1       2.563  -0.154   0.042  0.00  0.00    -0.073 A 
ATOM      2  C3  UNL d   1       1.937  -1.394   0.220  0.00  0.00    -0.002 A 
ATOM      3  C4  UNL d   1       2.355  -2.506  -0.512  0.00  0.00     0.004 A 
ATOM      4  C5  UNL d   1       3.404  -2.393  -1.424  0.00  0.00    -0.004 A 
ATOM      5  C6  UNL d   1       4.050  -1.166  -1.608  0.00  0.00    -0.075 A 
ATOM      6  C7  UNL d   1       5.179  -1.027  -2.586  0.00  0.00     0.076 C 
ATOM      7  C8  UNL d   1       3.623  -0.053  -0.871  0.00  0.00     0.001 A 
ENDROOT
BRANCH   1   8
ATOM      8  C1  UNL d   1       2.120   1.048   0.835  0.00  0.00     0.053 C 
ATOM      9  C   UNL d   1       3.245   2.054   1.021  0.00  0.00     0.018 C 
ENDBRANCH   1   8
TORSDOF 1
ENDMDL
