MODEL 1
REMARK minimizedAffinity 4.96232033
REMARK minimizedRMSD -1
REMARK  1 active torsions:
REMARK  status: ('A' for Active; 'I' for Inactive)
REMARK    1  A    between atoms: C1_2  and  C2_3 
ROOT
ATOM      1  C2  UNL d   1       0.388   0.313  -0.492  0.00  0.00    -0.073 A 
ATOM      2  C3  UNL d   1      -0.863   0.038  -1.056  0.00  0.00    -0.002 A 
ATOM      3  C4  UNL d   1      -1.150  -1.237  -1.547  0.00  0.00     0.004 A 
ATOM      4  C5  UNL d   1      -0.193  -2.249  -1.473  0.00  0.00    -0.004 A 
ATOM      5  C6  UNL d   1       1.058  -1.997  -0.902  0.00  0.00    -0.075 A 
ATOM      6  C7  UNL d   1       2.099  -3.074  -0.817  0.00  0.00     0.076 C 
ATOM      7  C8  UNL d   1       1.340  -0.714  -0.414  0.00  0.00     0.001 A 
ENDROOT
BRANCH   1   8
ATOM      8  C1  UNL d   1       0.699   1.686   0.046  0.00  0.00     0.053 C 
ATOM      9  C   UNL d   1       2.192   1.975   0.040  0.00  0.00     0.018 C 
ENDBRANCH   1   8
TORSDOF 1
ENDMDL
