MODEL 1
REMARK minimizedAffinity 8.49248028
REMARK minimizedRMSD -1
REMARK  1 active torsions:
REMARK  status: ('A' for Active; 'I' for Inactive)
REMARK    1  A    between atoms: N_2  and  C1_3 
ROOT
ATOM      1  C1  UNL d   1      -2.525   3.968  -3.375  0.00  0.00     0.143 A 
ATOM      2  C2  UNL d   1      -2.755   5.248  -2.859  0.00  0.00    -0.057 A 
ATOM      3  C3  UNL d   1      -3.605   5.448  -1.764  0.00  0.00     0.033 A 
ATOM      4  C4  UNL d   1      -4.265   4.370  -1.183  0.00  0.00    -0.042 A 
ATOM      5  C5  UNL d   1      -4.071   3.092  -1.695  0.00  0.00     0.033 A 
ATOM      6  C6  UNL d   1      -3.216   2.899  -2.784  0.00  0.00    -0.057 A 
ENDROOT
BRANCH   1   7
ATOM      7  N   UNL d   1      -1.768   3.717  -4.522  0.00  0.00    -0.732 N 
ATOM      8  C   UNL d   1      -2.223   4.170  -5.819  0.00  0.00     0.284 C 
ATOM      9  H3  UNL d   1      -0.771   3.841  -4.364  0.00  0.00     0.395 HD
ENDBRANCH   1   7
TORSDOF 1
ENDMDL
