MODEL 1
REMARK minimizedAffinity 13.7554798
REMARK minimizedRMSD -1
REMARK  1 active torsions:
REMARK  status: ('A' for Active; 'I' for Inactive)
REMARK    1  A    between atoms: N_2  and  C1_3 
ROOT
ATOM      1  C1  UNL d   1       1.126   3.484   0.137  0.00  0.00     0.143 A 
ATOM      2  C2  UNL d   1       0.814   4.653   0.840  0.00  0.00    -0.057 A 
ATOM      3  C3  UNL d   1       0.778   5.898   0.200  0.00  0.00     0.033 A 
ATOM      4  C4  UNL d   1       1.083   5.999  -1.153  0.00  0.00    -0.042 A 
ATOM      5  C5  UNL d   1       1.420   4.855  -1.866  0.00  0.00     0.033 A 
ATOM      6  C6  UNL d   1       1.448   3.614  -1.223  0.00  0.00    -0.057 A 
ENDROOT
BRANCH   1   7
ATOM      7  N   UNL d   1       1.275   2.232   0.738  0.00  0.00    -0.732 N 
ATOM      8  C   UNL d   1       2.542   1.535   0.686  0.00  0.00     0.284 C 
ATOM      9  H3  UNL d   1       0.805   2.175   1.639  0.00  0.00     0.395 HD
ENDBRANCH   1   7
TORSDOF 1
ENDMDL
