MODEL 1
REMARK minimizedAffinity 9.31048298
REMARK minimizedRMSD -1
REMARK  1 active torsions:
REMARK  status: ('A' for Active; 'I' for Inactive)
REMARK    1  A    between atoms: N_2  and  C1_3 
ROOT
ATOM      1  C1  UNL d   1      -2.266   3.747  -3.927  0.00  0.00     0.143 A 
ATOM      2  C2  UNL d   1      -3.350   4.035  -3.090  0.00  0.00    -0.057 A 
ATOM      3  C3  UNL d   1      -3.304   3.752  -1.720  0.00  0.00     0.033 A 
ATOM      4  C4  UNL d   1      -2.180   3.147  -1.166  0.00  0.00    -0.042 A 
ATOM      5  C5  UNL d   1      -1.102   2.829  -1.983  0.00  0.00     0.033 A 
ATOM      6  C6  UNL d   1      -1.151   3.121  -3.350  0.00  0.00    -0.057 A 
ENDROOT
BRANCH   1   7
ATOM      7  N   UNL d   1      -2.289   3.914  -5.314  0.00  0.00    -0.732 N 
ATOM      8  C   UNL d   1      -2.180   5.233  -5.899  0.00  0.00     0.284 C 
ATOM      9  H3  UNL d   1      -1.755   3.198  -5.800  0.00  0.00     0.395 HD
ENDBRANCH   1   7
TORSDOF 1
ENDMDL
