MODEL 1
REMARK minimizedAffinity 13.9122705
REMARK minimizedRMSD -1
REMARK  1 active torsions:
REMARK  status: ('A' for Active; 'I' for Inactive)
REMARK    1  A    between atoms: N_2  and  C1_3 
ROOT
ATOM      1  C1  UNL d   1      -2.598   3.391  -2.430  0.00  0.00     0.143 A 
ATOM      2  C2  UNL d   1      -3.719   2.852  -1.790  0.00  0.00    -0.057 A 
ATOM      3  C3  UNL d   1      -4.710   3.676  -1.243  0.00  0.00     0.033 A 
ATOM      4  C4  UNL d   1      -4.583   5.060  -1.303  0.00  0.00    -0.042 A 
ATOM      5  C5  UNL d   1      -3.465   5.618  -1.913  0.00  0.00     0.033 A 
ATOM      6  C6  UNL d   1      -2.482   4.790  -2.463  0.00  0.00    -0.057 A 
ENDROOT
BRANCH   1   7
ATOM      7  N   UNL d   1      -1.531   2.626  -2.906  0.00  0.00    -0.732 N 
ATOM      8  C   UNL d   1      -0.385   2.355  -2.064  0.00  0.00     0.284 C 
ATOM      9  H3  UNL d   1      -1.840   1.828  -3.457  0.00  0.00     0.395 HD
ENDBRANCH   1   7
TORSDOF 1
ENDMDL
