MODEL 1
REMARK minimizedAffinity 4.39418173
REMARK minimizedRMSD -1
REMARK  1 active torsions:
REMARK  status: ('A' for Active; 'I' for Inactive)
REMARK    1  A    between atoms: N_2  and  C1_3 
ROOT
ATOM      1  C1  UNL d   1      -2.732   3.939  -3.468  0.00  0.00     0.143 A 
ATOM      2  C2  UNL d   1      -2.868   3.202  -4.650  0.00  0.00    -0.057 A 
ATOM      3  C3  UNL d   1      -2.599   3.776  -5.898  0.00  0.00     0.033 A 
ATOM      4  C4  UNL d   1      -2.217   5.111  -5.989  0.00  0.00    -0.042 A 
ATOM      5  C5  UNL d   1      -2.099   5.869  -4.830  0.00  0.00     0.033 A 
ATOM      6  C6  UNL d   1      -2.363   5.288  -3.586  0.00  0.00    -0.057 A 
ENDROOT
BRANCH   1   7
ATOM      7  N   UNL d   1      -3.079   3.454  -2.205  0.00  0.00    -0.732 N 
ATOM      8  C   UNL d   1      -4.265   3.937  -1.530  0.00  0.00     0.284 C 
ATOM      9  H3  UNL d   1      -2.932   2.451  -2.120  0.00  0.00     0.395 HD
ENDBRANCH   1   7
TORSDOF 1
ENDMDL
