MODEL 1
REMARK minimizedAffinity 16.4388676
REMARK minimizedRMSD -1
REMARK  1 active torsions:
REMARK  status: ('A' for Active; 'I' for Inactive)
REMARK    1  A    between atoms: N_2  and  C1_3 
ROOT
ATOM      1  C1  UNL d   1      -1.404   3.834  -2.920  0.00  0.00     0.143 A 
ATOM      2  C2  UNL d   1      -1.214   5.220  -2.914  0.00  0.00    -0.057 A 
ATOM      3  C3  UNL d   1      -1.484   5.994  -4.049  0.00  0.00     0.033 A 
ATOM      4  C4  UNL d   1      -1.923   5.390  -5.222  0.00  0.00    -0.042 A 
ATOM      5  C5  UNL d   1      -2.095   4.011  -5.259  0.00  0.00     0.033 A 
ATOM      6  C6  UNL d   1      -1.830   3.244  -4.120  0.00  0.00    -0.057 A 
ENDROOT
BRANCH   1   7
ATOM      7  N   UNL d   1      -1.060   2.997  -1.855  0.00  0.00    -0.732 N 
ATOM      8  C   UNL d   1       0.270   3.035  -1.288  0.00  0.00     0.284 C 
ATOM      9  H3  UNL d   1      -1.805   2.920  -1.165  0.00  0.00     0.395 HD
ENDBRANCH   1   7
TORSDOF 1
ENDMDL
