MODEL 1
REMARK minimizedAffinity 4.89908743
REMARK minimizedRMSD -1
REMARK  1 active torsions:
REMARK  status: ('A' for Active; 'I' for Inactive)
REMARK    1  A    between atoms: N_2  and  C1_3 
ROOT
ATOM      1  C1  UNL d   1       0.324  -2.192   2.859  0.00  0.00     0.143 A 
ATOM      2  C2  UNL d   1       0.225  -1.058   3.672  0.00  0.00    -0.057 A 
ATOM      3  C3  UNL d   1      -0.802  -0.928   4.615  0.00  0.00     0.033 A 
ATOM      4  C4  UNL d   1      -1.769  -1.920   4.740  0.00  0.00    -0.042 A 
ATOM      5  C5  UNL d   1      -1.705  -3.044   3.924  0.00  0.00     0.033 A 
ATOM      6  C6  UNL d   1      -0.673  -3.171   2.990  0.00  0.00    -0.057 A 
ENDROOT
BRANCH   1   7
ATOM      7  N   UNL d   1       1.264  -2.335   1.835  0.00  0.00    -0.732 N 
ATOM      8  C   UNL d   1       2.005  -1.191   1.349  0.00  0.00     0.284 C 
ATOM      9  H3  UNL d   1       1.822  -3.180   1.936  0.00  0.00     0.395 HD
ENDBRANCH   1   7
TORSDOF 1
ENDMDL
