MODEL 1
REMARK minimizedAffinity 7.83830786
REMARK minimizedRMSD -1
REMARK  1 active torsions:
REMARK  status: ('A' for Active; 'I' for Inactive)
REMARK    1  A    between atoms: N_2  and  C1_3 
ROOT
ATOM      1  C1  UNL d   1       0.686  -1.777   2.313  0.00  0.00     0.143 A 
ATOM      2  C2  UNL d   1       0.431  -0.805   3.286  0.00  0.00    -0.057 A 
ATOM      3  C3  UNL d   1      -0.727  -0.849   4.071  0.00  0.00     0.033 A 
ATOM      4  C4  UNL d   1      -1.669  -1.854   3.875  0.00  0.00    -0.042 A 
ATOM      5  C5  UNL d   1      -1.448  -2.817   2.897  0.00  0.00     0.033 A 
ATOM      6  C6  UNL d   1      -0.286  -2.771   2.122  0.00  0.00    -0.057 A 
ENDROOT
BRANCH   1   7
ATOM      7  N   UNL d   1       1.772  -1.733   1.435  0.00  0.00    -0.732 N 
ATOM      8  C   UNL d   1       2.727  -0.647   1.497  0.00  0.00     0.284 C 
ATOM      9  H3  UNL d   1       2.191  -2.648   1.289  0.00  0.00     0.395 HD
ENDBRANCH   1   7
TORSDOF 1
ENDMDL
