MODEL 1
REMARK minimizedAffinity 5.25777817
REMARK minimizedRMSD -1
REMARK  1 active torsions:
REMARK  status: ('A' for Active; 'I' for Inactive)
REMARK    1  A    between atoms: N_2  and  C1_3 
ROOT
ATOM      1  C1  UNL d   1       0.182  -0.871   3.229  0.00  0.00     0.143 A 
ATOM      2  C2  UNL d   1       1.269  -0.128   2.755  0.00  0.00    -0.057 A 
ATOM      3  C3  UNL d   1       2.128  -0.642   1.777  0.00  0.00     0.033 A 
ATOM      4  C4  UNL d   1       1.932  -1.924   1.274  0.00  0.00    -0.042 A 
ATOM      5  C5  UNL d   1       0.874  -2.690   1.749  0.00  0.00     0.033 A 
ATOM      6  C6  UNL d   1       0.015  -2.169   2.721  0.00  0.00    -0.057 A 
ENDROOT
BRANCH   1   7
ATOM      7  N   UNL d   1      -0.650  -0.454   4.271  0.00  0.00    -0.732 N 
ATOM      8  C   UNL d   1      -0.261  -0.657   5.650  0.00  0.00     0.284 C 
ATOM      9  H3  UNL d   1      -1.078   0.450   4.088  0.00  0.00     0.395 HD
ENDBRANCH   1   7
TORSDOF 1
ENDMDL
