MODEL 1
REMARK minimizedAffinity 7.15005493
REMARK minimizedRMSD -1
REMARK  1 active torsions:
REMARK  status: ('A' for Active; 'I' for Inactive)
REMARK    1  A    between atoms: N_2  and  C1_3 
ROOT
ATOM      1  C1  UNL d   1      -2.418   3.470  -2.534  0.00  0.00     0.143 A 
ATOM      2  C2  UNL d   1      -3.536   3.201  -1.737  0.00  0.00    -0.057 A 
ATOM      3  C3  UNL d   1      -4.335   4.235  -1.234  0.00  0.00     0.033 A 
ATOM      4  C4  UNL d   1      -4.011   5.562  -1.495  0.00  0.00    -0.042 A 
ATOM      5  C5  UNL d   1      -2.890   5.854  -2.264  0.00  0.00     0.033 A 
ATOM      6  C6  UNL d   1      -2.100   4.817  -2.769  0.00  0.00    -0.057 A 
ENDROOT
BRANCH   1   7
ATOM      7  N   UNL d   1      -1.528   2.491  -2.982  0.00  0.00    -0.732 N 
ATOM      8  C   UNL d   1      -0.317   2.202  -2.245  0.00  0.00     0.284 C 
ATOM      9  H3  UNL d   1      -2.006   1.665  -3.337  0.00  0.00     0.395 HD
ENDBRANCH   1   7
TORSDOF 1
ENDMDL
