MODEL 1
REMARK minimizedAffinity 12.5653458
REMARK minimizedRMSD -1
REMARK  1 active torsions:
REMARK  status: ('A' for Active; 'I' for Inactive)
REMARK    1  A    between atoms: N_2  and  C1_3 
ROOT
ATOM      1  C1  UNL d   1      -2.235   4.176  -3.530  0.00  0.00     0.143 A 
ATOM      2  C2  UNL d   1      -2.256   5.452  -2.956  0.00  0.00    -0.057 A 
ATOM      3  C3  UNL d   1      -2.981   5.711  -1.786  0.00  0.00     0.033 A 
ATOM      4  C4  UNL d   1      -3.724   4.701  -1.184  0.00  0.00    -0.042 A 
ATOM      5  C5  UNL d   1      -3.739   3.432  -1.751  0.00  0.00     0.033 A 
ATOM      6  C6  UNL d   1      -3.008   3.178  -2.915  0.00  0.00    -0.057 A 
ENDROOT
BRANCH   1   7
ATOM      7  N   UNL d   1      -1.614   3.879  -4.745  0.00  0.00    -0.732 N 
ATOM      8  C   UNL d   1      -2.238   4.241  -6.000  0.00  0.00     0.284 C 
ATOM      9  H3  UNL d   1      -0.610   4.042  -4.718  0.00  0.00     0.395 HD
ENDBRANCH   1   7
TORSDOF 1
ENDMDL
