MODEL 1
REMARK minimizedAffinity 7.95428419
REMARK minimizedRMSD -1
REMARK  1 active torsions:
REMARK  status: ('A' for Active; 'I' for Inactive)
REMARK    1  A    between atoms: N_2  and  C1_3 
ROOT
ATOM      1  C1  UNL d   1       0.293  -1.996   2.610  0.00  0.00     0.143 A 
ATOM      2  C2  UNL d   1      -0.092  -0.887   3.371  0.00  0.00    -0.057 A 
ATOM      3  C3  UNL d   1      -1.305  -0.872   4.069  0.00  0.00     0.033 A 
ATOM      4  C4  UNL d   1      -2.171  -1.958   3.995  0.00  0.00    -0.042 A 
ATOM      5  C5  UNL d   1      -1.820  -3.061   3.225  0.00  0.00     0.033 A 
ATOM      6  C6  UNL d   1      -0.604  -3.073   2.535  0.00  0.00    -0.057 A 
ENDROOT
BRANCH   1   7
ATOM      7  N   UNL d   1       1.441  -2.033   1.815  0.00  0.00    -0.732 N 
ATOM      8  C   UNL d   1       2.144  -0.814   1.477  0.00  0.00     0.284 C 
ATOM      9  H3  UNL d   1       2.051  -2.813   2.049  0.00  0.00     0.395 HD
ENDBRANCH   1   7
TORSDOF 1
ENDMDL
