MODEL 1
REMARK minimizedAffinity 10.7495842
REMARK minimizedRMSD -1
REMARK  1 active torsions:
REMARK  status: ('A' for Active; 'I' for Inactive)
REMARK    1  A    between atoms: N_2  and  C1_3 
ROOT
ATOM      1  C1  UNL d   1       0.289  -1.675   2.621  0.00  0.00     0.143 A 
ATOM      2  C2  UNL d   1       0.011  -0.594   3.464  0.00  0.00    -0.057 A 
ATOM      3  C3  UNL d   1      -1.156  -0.558   4.237  0.00  0.00     0.033 A 
ATOM      4  C4  UNL d   1      -2.083  -1.591   4.158  0.00  0.00    -0.042 A 
ATOM      5  C5  UNL d   1      -1.840  -2.664   3.307  0.00  0.00     0.033 A 
ATOM      6  C6  UNL d   1      -0.669  -2.698   2.542  0.00  0.00    -0.057 A 
ENDROOT
BRANCH   1   7
ATOM      7  N   UNL d   1       1.383  -1.724   1.753  0.00  0.00    -0.732 N 
ATOM      8  C   UNL d   1       2.083  -0.513   1.380  0.00  0.00     0.284 C 
ATOM      9  H3  UNL d   1       1.994  -2.515   1.943  0.00  0.00     0.395 HD
ENDBRANCH   1   7
TORSDOF 1
ENDMDL
