MODEL 1
REMARK minimizedAffinity 4.32432556
REMARK minimizedRMSD -1
REMARK  1 active torsions:
REMARK  status: ('A' for Active; 'I' for Inactive)
REMARK    1  A    between atoms: C3_4  and  O_7 
ROOT
ATOM      1  C   UNL d   1      -0.418   2.131   1.416  0.00  0.00    -0.033 A 
ATOM      2  C1  UNL d   1      -1.284   2.261   0.328  0.00  0.00     0.039 A 
ATOM      3  C2  UNL d   1      -0.852   2.893  -0.839  0.00  0.00    -0.080 A 
ATOM      4  C3  UNL d   1       0.447   3.390  -0.906  0.00  0.00     0.150 A 
ATOM      5  C4  UNL d   1       1.316   3.261   0.172  0.00  0.00    -0.007 A 
ATOM      6  C5  UNL d   1       0.882   2.630   1.337  0.00  0.00     0.039 A 
ENDROOT
BRANCH   4   7
ATOM      7  O   UNL d   1       0.912   4.019  -2.022  0.00  0.00    -0.526 OA
ATOM      8  H5  UNL d   1       0.194   4.060  -2.675  0.00  0.00     0.418 HD
ENDBRANCH   4   7
TORSDOF 1
ENDMDL
