MODEL 1
REMARK minimizedAffinity 7.66150713
REMARK minimizedRMSD -1
REMARK  1 active torsions:
REMARK  status: ('A' for Active; 'I' for Inactive)
REMARK    1  A    between atoms: C3_4  and  O_7 
ROOT
ATOM      1  C   UNL d   1       0.047   2.604   0.568  0.00  0.00    -0.033 A 
ATOM      2  C1  UNL d   1      -0.647   2.418  -0.629  0.00  0.00     0.039 A 
ATOM      3  C2  UNL d   1      -0.240   3.085  -1.786  0.00  0.00    -0.080 A 
ATOM      4  C3  UNL d   1       0.863   3.934  -1.733  0.00  0.00     0.150 A 
ATOM      5  C4  UNL d   1       1.562   4.121  -0.545  0.00  0.00    -0.007 A 
ATOM      6  C5  UNL d   1       1.152   3.455   0.610  0.00  0.00     0.039 A 
ENDROOT
BRANCH   4   7
ATOM      7  O   UNL d   1       1.295   4.610  -2.834  0.00  0.00    -0.526 OA
ATOM      8  H5  UNL d   1       0.700   4.406  -3.574  0.00  0.00     0.418 HD
ENDBRANCH   4   7
TORSDOF 1
ENDMDL
