MODEL 1
REMARK minimizedAffinity 4.82856321
REMARK minimizedRMSD -1
REMARK  1 active torsions:
REMARK  status: ('A' for Active; 'I' for Inactive)
REMARK    1  A    between atoms: C3_4  and  O_7 
ROOT
ATOM      1  C   UNL d   1      -0.955   2.318   1.518  0.00  0.00    -0.033 A 
ATOM      2  C1  UNL d   1      -1.511   2.789   0.328  0.00  0.00     0.039 A 
ATOM      3  C2  UNL d   1      -0.682   3.247  -0.699  0.00  0.00    -0.080 A 
ATOM      4  C3  UNL d   1       0.699   3.228  -0.522  0.00  0.00     0.150 A 
ATOM      5  C4  UNL d   1       1.259   2.756   0.660  0.00  0.00    -0.007 A 
ATOM      6  C5  UNL d   1       0.430   2.300   1.684  0.00  0.00     0.039 A 
ENDROOT
BRANCH   4   7
ATOM      7  O   UNL d   1       1.547   3.669  -1.494  0.00  0.00    -0.526 OA
ATOM      8  H5  UNL d   1       1.018   3.992  -2.242  0.00  0.00     0.418 HD
ENDBRANCH   4   7
TORSDOF 1
ENDMDL
