MODEL 1
REMARK minimizedAffinity 6.72442627
REMARK minimizedRMSD -1
REMARK  1 active torsions:
REMARK  status: ('A' for Active; 'I' for Inactive)
REMARK    1  A    between atoms: C3_4  and  O_7 
ROOT
ATOM      1  C   UNL d   1      -1.399   2.405  -0.053  0.00  0.00    -0.033 A 
ATOM      2  C1  UNL d   1      -0.224   1.654   0.007  0.00  0.00     0.039 A 
ATOM      3  C2  UNL d   1       0.882   2.021  -0.763  0.00  0.00    -0.080 A 
ATOM      4  C3  UNL d   1       0.800   3.140  -1.586  0.00  0.00     0.150 A 
ATOM      5  C4  UNL d   1      -0.367   3.896  -1.648  0.00  0.00    -0.007 A 
ATOM      6  C5  UNL d   1      -1.470   3.527  -0.879  0.00  0.00     0.039 A 
ENDROOT
BRANCH   4   7
ATOM      7  O   UNL d   1       1.851   3.534  -2.360  0.00  0.00    -0.526 OA
ATOM      8  H5  UNL d   1       2.578   2.902  -2.236  0.00  0.00     0.418 HD
ENDBRANCH   4   7
TORSDOF 1
ENDMDL
