MODEL 1
REMARK minimizedAffinity 6.11660528
REMARK minimizedRMSD -1
REMARK  1 active torsions:
REMARK  status: ('A' for Active; 'I' for Inactive)
REMARK    1  A    between atoms: C3_4  and  O_7 
ROOT
ATOM      1  C   UNL d   1      -0.643   2.253   2.124  0.00  0.00    -0.033 A 
ATOM      2  C1  UNL d   1      -1.365   2.929   1.139  0.00  0.00     0.039 A 
ATOM      3  C2  UNL d   1      -0.748   3.283  -0.063  0.00  0.00    -0.080 A 
ATOM      4  C3  UNL d   1       0.589   2.954  -0.267  0.00  0.00     0.150 A 
ATOM      5  C4  UNL d   1       1.314   2.277   0.709  0.00  0.00    -0.007 A 
ATOM      6  C5  UNL d   1       0.696   1.926   1.909  0.00  0.00     0.039 A 
ENDROOT
BRANCH   4   7
ATOM      7  O   UNL d   1       1.236   3.283  -1.421  0.00  0.00    -0.526 OA
ATOM      8  H5  UNL d   1       0.619   3.772  -1.990  0.00  0.00     0.418 HD
ENDBRANCH   4   7
TORSDOF 1
ENDMDL
