MODEL 1
REMARK minimizedAffinity 10.1855049
REMARK minimizedRMSD -1
REMARK  1 active torsions:
REMARK  status: ('A' for Active; 'I' for Inactive)
REMARK    1  A    between atoms: C3_4  and  O_7 
ROOT
ATOM      1  C   UNL d   1       0.329   4.863  -1.821  0.00  0.00    -0.033 A 
ATOM      2  C1  UNL d   1      -0.801   4.045  -1.876  0.00  0.00     0.039 A 
ATOM      3  C2  UNL d   1      -0.876   2.899  -1.081  0.00  0.00    -0.080 A 
ATOM      4  C3  UNL d   1       0.185   2.584  -0.236  0.00  0.00     0.150 A 
ATOM      5  C4  UNL d   1       1.312   3.397  -0.173  0.00  0.00    -0.007 A 
ATOM      6  C5  UNL d   1       1.385   4.540  -0.968  0.00  0.00     0.039 A 
ENDROOT
BRANCH   4   7
ATOM      7  O   UNL d   1       0.160   1.474   0.555  0.00  0.00    -0.526 OA
ATOM      8  H5  UNL d   1      -0.667   0.993   0.385  0.00  0.00     0.418 HD
ENDBRANCH   4   7
TORSDOF 1
ENDMDL
