MODEL 1
REMARK minimizedAffinity 7.09884214
REMARK minimizedRMSD -1
REMARK  1 active torsions:
REMARK  status: ('A' for Active; 'I' for Inactive)
REMARK    1  A    between atoms: C3_4  and  O_7 
ROOT
ATOM      1  C   UNL d   1      -0.312   2.041   0.699  0.00  0.00    -0.033 A 
ATOM      2  C1  UNL d   1       1.064   2.199   0.879  0.00  0.00     0.039 A 
ATOM      3  C2  UNL d   1       1.765   3.142   0.124  0.00  0.00    -0.080 A 
ATOM      4  C3  UNL d   1       1.079   3.920  -0.805  0.00  0.00     0.150 A 
ATOM      5  C4  UNL d   1      -0.292   3.771  -0.987  0.00  0.00    -0.007 A 
ATOM      6  C5  UNL d   1      -0.990   2.828  -0.233  0.00  0.00     0.039 A 
ENDROOT
BRANCH   4   7
ATOM      7  O   UNL d   1       1.721   4.850  -1.568  0.00  0.00    -0.526 OA
ATOM      8  H5  UNL d   1       2.669   4.822  -1.354  0.00  0.00     0.418 HD
ENDBRANCH   4   7
TORSDOF 1
ENDMDL
