MODEL 1
REMARK minimizedAffinity 1.74866056
REMARK minimizedRMSD -1
REMARK  1 active torsions:
REMARK  status: ('A' for Active; 'I' for Inactive)
REMARK    1  A    between atoms: C3_4  and  O_7 
ROOT
ATOM      1  C   UNL d   1       0.685   2.756  -0.159  0.00  0.00    -0.033 A 
ATOM      2  C1  UNL d   1       1.003   2.790   1.200  0.00  0.00     0.039 A 
ATOM      3  C2  UNL d   1      -0.014   2.812   2.156  0.00  0.00    -0.080 A 
ATOM      4  C3  UNL d   1      -1.343   2.799   1.741  0.00  0.00     0.150 A 
ATOM      5  C4  UNL d   1      -1.667   2.761   0.389  0.00  0.00    -0.007 A 
ATOM      6  C5  UNL d   1      -0.650   2.740  -0.565  0.00  0.00     0.039 A 
ENDROOT
BRANCH   4   7
ATOM      7  O   UNL d   1      -2.370   2.825   2.637  0.00  0.00    -0.526 OA
ATOM      8  H5  UNL d   1      -1.996   2.879   3.532  0.00  0.00     0.418 HD
ENDBRANCH   4   7
TORSDOF 1
ENDMDL
