MODEL 1
REMARK minimizedAffinity 7.03812885
REMARK minimizedRMSD -1
REMARK  1 active torsions:
REMARK  status: ('A' for Active; 'I' for Inactive)
REMARK    1  A    between atoms: C3_4  and  O_7 
ROOT
ATOM      1  C   UNL d   1      -0.535  -2.430  -2.714  0.00  0.00    -0.033 A 
ATOM      2  C1  UNL d   1      -0.739  -3.546  -3.529  0.00  0.00     0.039 A 
ATOM      3  C2  UNL d   1      -0.104  -4.754  -3.233  0.00  0.00    -0.080 A 
ATOM      4  C3  UNL d   1       0.730  -4.833  -2.121  0.00  0.00     0.150 A 
ATOM      5  C4  UNL d   1       0.935  -3.726  -1.303  0.00  0.00    -0.007 A 
ATOM      6  C5  UNL d   1       0.301  -2.520  -1.601  0.00  0.00     0.039 A 
ENDROOT
BRANCH   4   7
ATOM      7  O   UNL d   1       1.375  -5.989  -1.795  0.00  0.00    -0.526 OA
ATOM      8  H5  UNL d   1       1.161  -6.660  -2.464  0.00  0.00     0.418 HD
ENDBRANCH   4   7
TORSDOF 1
ENDMDL
