MODEL 1
REMARK minimizedAffinity 4.64838266
REMARK minimizedRMSD -1
REMARK  1 active torsions:
REMARK  status: ('A' for Active; 'I' for Inactive)
REMARK    1  A    between atoms: C3_4  and  O_7 
ROOT
ATOM      1  C   UNL d   1       0.961   0.473   2.846  0.00  0.00    -0.033 A 
ATOM      2  C1  UNL d   1       1.853   0.322   3.909  0.00  0.00     0.039 A 
ATOM      3  C2  UNL d   1       2.032  -0.930   4.500  0.00  0.00    -0.080 A 
ATOM      4  C3  UNL d   1       1.314  -2.022   4.019  0.00  0.00     0.150 A 
ATOM      5  C4  UNL d   1       0.427  -1.879   2.958  0.00  0.00    -0.007 A 
ATOM      6  C5  UNL d   1       0.249  -0.628   2.369  0.00  0.00     0.039 A 
ENDROOT
BRANCH   4   7
ATOM      7  O   UNL d   1       1.452  -3.262   4.567  0.00  0.00    -0.526 OA
ATOM      8  H5  UNL d   1       2.076  -3.204   5.309  0.00  0.00     0.418 HD
ENDBRANCH   4   7
TORSDOF 1
ENDMDL
