MODEL 1
REMARK minimizedAffinity 8.45857143
REMARK minimizedRMSD -1
REMARK  1 active torsions:
REMARK  status: ('A' for Active; 'I' for Inactive)
REMARK    1  A    between atoms: C3_4  and  O_7 
ROOT
ATOM      1  C   UNL d   1      -1.554   0.929   2.212  0.00  0.00    -0.033 A 
ATOM      2  C1  UNL d   1      -0.270   1.196   2.689  0.00  0.00     0.039 A 
ATOM      3  C2  UNL d   1       0.723   0.217   2.609  0.00  0.00    -0.080 A 
ATOM      4  C3  UNL d   1       0.420  -1.020   2.049  0.00  0.00     0.150 A 
ATOM      5  C4  UNL d   1      -0.857  -1.291   1.568  0.00  0.00    -0.007 A 
ATOM      6  C5  UNL d   1      -1.848  -0.313   1.650  0.00  0.00     0.039 A 
ENDROOT
BRANCH   4   7
ATOM      7  O   UNL d   1       1.354  -2.008   1.953  0.00  0.00    -0.526 OA
ATOM      8  H5  UNL d   1       2.181  -1.689   2.351  0.00  0.00     0.418 HD
ENDBRANCH   4   7
TORSDOF 1
ENDMDL
