MODEL 1
REMARK minimizedAffinity 3.73018503
REMARK minimizedRMSD -1
REMARK  1 active torsions:
REMARK  status: ('A' for Active; 'I' for Inactive)
REMARK    1  A    between atoms: C3_4  and  O_7 
ROOT
ATOM      1  C   UNL d   1       1.403  -0.502   3.151  0.00  0.00    -0.033 A 
ATOM      2  C1  UNL d   1       0.677   0.409   3.921  0.00  0.00     0.039 A 
ATOM      3  C2  UNL d   1      -0.665   0.659   3.629  0.00  0.00    -0.080 A 
ATOM      4  C3  UNL d   1      -1.269  -0.009   2.567  0.00  0.00     0.150 A 
ATOM      5  C4  UNL d   1      -0.553  -0.920   1.798  0.00  0.00    -0.007 A 
ATOM      6  C5  UNL d   1       0.788  -1.167   2.090  0.00  0.00     0.039 A 
ENDROOT
BRANCH   4   7
ATOM      7  O   UNL d   1      -2.575   0.206   2.241  0.00  0.00    -0.526 OA
ATOM      8  H5  UNL d   1      -2.935   0.881   2.840  0.00  0.00     0.418 HD
ENDBRANCH   4   7
TORSDOF 1
ENDMDL
