MODEL 1
REMARK minimizedAffinity 10.1771755
REMARK minimizedRMSD -1
REMARK  1 active torsions:
REMARK  status: ('A' for Active; 'I' for Inactive)
REMARK    1  A    between atoms: C3_4  and  O_7 
ROOT
ATOM      1  C   UNL d   1       0.927  -0.114   2.674  0.00  0.00    -0.033 A 
ATOM      2  C1  UNL d   1       1.702  -0.086   3.835  0.00  0.00     0.039 A 
ATOM      3  C2  UNL d   1       1.974  -1.269   4.524  0.00  0.00    -0.080 A 
ATOM      4  C3  UNL d   1       1.467  -2.473   4.041  0.00  0.00     0.150 A 
ATOM      5  C4  UNL d   1       0.698  -2.509   2.883  0.00  0.00    -0.007 A 
ATOM      6  C5  UNL d   1       0.426  -1.326   2.197  0.00  0.00     0.039 A 
ENDROOT
BRANCH   4   7
ATOM      7  O   UNL d   1       1.703  -3.653   4.682  0.00  0.00    -0.526 OA
ATOM      8  H5  UNL d   1       2.224  -3.470   5.482  0.00  0.00     0.418 HD
ENDBRANCH   4   7
TORSDOF 1
ENDMDL
