MODEL 1
REMARK minimizedAffinity 8.30360222
REMARK minimizedRMSD -1
REMARK  1 active torsions:
REMARK  status: ('A' for Active; 'I' for Inactive)
REMARK    1  A    between atoms: C3_4  and  O_7 
ROOT
ATOM      1  C   UNL d   1      -1.145  -1.328  -4.273  0.00  0.00    -0.033 A 
ATOM      2  C1  UNL d   1      -0.442  -1.281  -5.478  0.00  0.00     0.039 A 
ATOM      3  C2  UNL d   1       0.857  -0.772  -5.512  0.00  0.00    -0.080 A 
ATOM      4  C3  UNL d   1       1.443  -0.314  -4.335  0.00  0.00     0.150 A 
ATOM      5  C4  UNL d   1       0.750  -0.361  -3.129  0.00  0.00    -0.007 A 
ATOM      6  C5  UNL d   1      -0.548  -0.869  -3.098  0.00  0.00     0.039 A 
ENDROOT
BRANCH   4   7
ATOM      7  O   UNL d   1       2.707   0.196  -4.319  0.00  0.00    -0.526 OA
ATOM      8  H5  UNL d   1       3.051   0.192  -5.228  0.00  0.00     0.418 HD
ENDBRANCH   4   7
TORSDOF 1
ENDMDL
