MODEL 1
REMARK minimizedAffinity 3.39759779
REMARK minimizedRMSD -1
REMARK  1 active torsions:
REMARK  status: ('A' for Active; 'I' for Inactive)
REMARK    1  A    between atoms: C3_4  and  O_7 
ROOT
ATOM      1  C   UNL d   1       0.239  -0.253   2.759  0.00  0.00    -0.033 A 
ATOM      2  C1  UNL d   1       1.012   0.290   3.788  0.00  0.00     0.039 A 
ATOM      3  C2  UNL d   1       1.635  -0.549   4.714  0.00  0.00    -0.080 A 
ATOM      4  C3  UNL d   1       1.479  -1.928   4.599  0.00  0.00     0.150 A 
ATOM      5  C4  UNL d   1       0.714  -2.476   3.574  0.00  0.00    -0.007 A 
ATOM      6  C5  UNL d   1       0.092  -1.636   2.651  0.00  0.00     0.039 A 
ENDROOT
BRANCH   4   7
ATOM      7  O   UNL d   1       2.063  -2.787   5.481  0.00  0.00    -0.526 OA
ATOM      8  H5  UNL d   1       2.536  -2.266   6.151  0.00  0.00     0.418 HD
ENDBRANCH   4   7
TORSDOF 1
ENDMDL
