MODEL 1
REMARK minimizedAffinity 4.20642233
REMARK minimizedRMSD -1
REMARK  1 active torsions:
REMARK  status: ('A' for Active; 'I' for Inactive)
REMARK    1  A    between atoms: C3_4  and  O_7 
ROOT
ATOM      1  C   UNL d   1      -1.293  -2.484  -2.909  0.00  0.00    -0.033 A 
ATOM      2  C1  UNL d   1      -0.874  -2.341  -4.233  0.00  0.00     0.039 A 
ATOM      3  C2  UNL d   1       0.029  -1.334  -4.576  0.00  0.00    -0.080 A 
ATOM      4  C3  UNL d   1       0.506  -0.477  -3.587  0.00  0.00     0.150 A 
ATOM      5  C4  UNL d   1       0.095  -0.617  -2.265  0.00  0.00    -0.007 A 
ATOM      6  C5  UNL d   1      -0.808  -1.623  -1.925  0.00  0.00     0.039 A 
ENDROOT
BRANCH   4   7
ATOM      7  O   UNL d   1       1.385   0.524  -3.874  0.00  0.00    -0.526 OA
ATOM      8  H5  UNL d   1       1.557   0.518  -4.831  0.00  0.00     0.418 HD
ENDBRANCH   4   7
TORSDOF 1
ENDMDL
