MODEL 1
REMARK minimizedAffinity 5.62357235
REMARK minimizedRMSD -1
REMARK  1 active torsions:
REMARK  status: ('A' for Active; 'I' for Inactive)
REMARK    1  A    between atoms: C3_4  and  O_7 
ROOT
ATOM      1  C   UNL d   1      -1.427  -2.203  -3.184  0.00  0.00    -0.033 A 
ATOM      2  C1  UNL d   1      -0.606  -2.674  -4.211  0.00  0.00     0.039 A 
ATOM      3  C2  UNL d   1       0.425  -1.874  -4.706  0.00  0.00    -0.080 A 
ATOM      4  C3  UNL d   1       0.625  -0.606  -4.166  0.00  0.00     0.150 A 
ATOM      5  C4  UNL d   1      -0.187  -0.132  -3.141  0.00  0.00    -0.007 A 
ATOM      6  C5  UNL d   1      -1.216  -0.932  -2.648  0.00  0.00     0.039 A 
ENDROOT
BRANCH   4   7
ATOM      7  O   UNL d   1       1.616   0.213  -4.619  0.00  0.00    -0.526 OA
ATOM      8  H5  UNL d   1       2.077  -0.235  -5.347  0.00  0.00     0.418 HD
ENDBRANCH   4   7
TORSDOF 1
ENDMDL
