MODEL 1
REMARK minimizedAffinity 11.3496799
REMARK minimizedRMSD -1
REMARK  1 active torsions:
REMARK  status: ('A' for Active; 'I' for Inactive)
REMARK    1  A    between atoms: C3_4  and  O_7 
ROOT
ATOM      1  C   UNL d   1      -1.284  -2.128  -2.765  0.00  0.00    -0.033 A 
ATOM      2  C1  UNL d   1      -1.629  -1.961  -4.107  0.00  0.00     0.039 A 
ATOM      3  C2  UNL d   1      -0.851  -1.147  -4.933  0.00  0.00    -0.080 A 
ATOM      4  C3  UNL d   1       0.268  -0.508  -4.406  0.00  0.00     0.150 A 
ATOM      5  C4  UNL d   1       0.620  -0.674  -3.070  0.00  0.00    -0.007 A 
ATOM      6  C5  UNL d   1      -0.159  -1.486  -2.247  0.00  0.00     0.039 A 
ENDROOT
BRANCH   4   7
ATOM      7  O   UNL d   1       1.054   0.300  -5.172  0.00  0.00    -0.526 OA
ATOM      8  H5  UNL d   1       0.674   0.343  -6.065  0.00  0.00     0.418 HD
ENDBRANCH   4   7
TORSDOF 1
ENDMDL
