MODEL 1
REMARK minimizedAffinity 2.61107707
REMARK minimizedRMSD -1
REMARK  1 active torsions:
REMARK  status: ('A' for Active; 'I' for Inactive)
REMARK    1  A    between atoms: C3_4  and  O_7 
ROOT
ATOM      1  C   UNL d   1      -0.409   0.825   2.680  0.00  0.00    -0.033 A 
ATOM      2  C1  UNL d   1      -0.893  -0.392   2.194  0.00  0.00     0.039 A 
ATOM      3  C2  UNL d   1      -0.275  -1.588   2.563  0.00  0.00    -0.080 A 
ATOM      4  C3  UNL d   1       0.822  -1.555   3.419  0.00  0.00     0.150 A 
ATOM      5  C4  UNL d   1       1.307  -0.347   3.910  0.00  0.00    -0.007 A 
ATOM      6  C5  UNL d   1       0.690   0.847   3.540  0.00  0.00     0.039 A 
ENDROOT
BRANCH   4   7
ATOM      7  O   UNL d   1       1.461  -2.697   3.803  0.00  0.00    -0.526 OA
ATOM      8  H5  UNL d   1       1.034  -3.451   3.363  0.00  0.00     0.418 HD
ENDBRANCH   4   7
TORSDOF 1
ENDMDL
