MODEL 1
REMARK minimizedAffinity 5.50761986
REMARK minimizedRMSD -1
REMARK  0 active torsions:
REMARK  status: ('A' for Active; 'I' for Inactive)
ROOT
ATOM      1  C   UNL d   1      -3.532  -2.347  -5.992  0.00  0.00    -0.002 A 
ATOM      2  C1  UNL d   1      -4.897  -2.101  -5.995  0.00  0.00     0.010 A 
ATOM      3  C2  UNL d   1      -5.383  -0.792  -5.997  0.00  0.00     0.041 A 
ATOM      4  C3  UNL d   1      -4.465   0.276  -5.997  0.00  0.00    -0.075 A 
ATOM      5  S   UNL d   1      -4.830   1.961  -5.999  0.00  0.00     0.015 SA
ATOM      6  C4  UNL d   1      -3.181   2.394  -5.997  0.00  0.00     0.022 A 
ATOM      7  C5  UNL d   1      -2.359   1.293  -5.994  0.00  0.00     0.026 A 
ATOM      8  C6  UNL d   1      -3.085   0.054  -5.995  0.00  0.00    -0.082 A 
ATOM      9  C7  UNL d   1      -2.623  -1.285  -5.993  0.00  0.00     0.045 A 
ENDROOT
TORSDOF 0
ENDMDL
