MODEL 1
REMARK minimizedAffinity 5.94565535
REMARK minimizedRMSD -1
REMARK  0 active torsions:
REMARK  status: ('A' for Active; 'I' for Inactive)
ROOT
ATOM      1  C   UNL d   1      -4.597  -5.149  -5.991  0.00  0.00    -0.002 A 
ATOM      2  C1  UNL d   1      -3.247  -4.824  -5.990  0.00  0.00     0.010 A 
ATOM      3  C2  UNL d   1      -2.838  -3.489  -5.991  0.00  0.00     0.041 A 
ATOM      4  C3  UNL d   1      -3.818  -2.476  -5.991  0.00  0.00    -0.075 A 
ATOM      5  S   UNL d   1      -3.551  -0.773  -5.991  0.00  0.00     0.015 SA
ATOM      6  C4  UNL d   1      -5.222  -0.436  -5.991  0.00  0.00     0.022 A 
ATOM      7  C5  UNL d   1      -5.979  -1.583  -5.992  0.00  0.00     0.026 A 
ATOM      8  C6  UNL d   1      -5.182  -2.778  -5.991  0.00  0.00    -0.082 A 
ATOM      9  C7  UNL d   1      -5.565  -4.141  -5.991  0.00  0.00     0.045 A 
ENDROOT
TORSDOF 0
ENDMDL
