MODEL 1
REMARK minimizedAffinity -2.37107968
REMARK minimizedRMSD -1
REMARK  0 active torsions:
REMARK  status: ('A' for Active; 'I' for Inactive)
ROOT
ATOM      1  C   UNL d   1      -3.951  -3.849  -5.982  0.00  0.00    -0.002 A 
ATOM      2  C1  UNL d   1      -5.294  -3.497  -5.980  0.00  0.00     0.010 A 
ATOM      3  C2  UNL d   1      -5.676  -2.154  -5.982  0.00  0.00     0.041 A 
ATOM      4  C3  UNL d   1      -4.677  -1.161  -5.989  0.00  0.00    -0.075 A 
ATOM      5  S   UNL d   1      -4.910   0.547  -5.994  0.00  0.00     0.015 SA
ATOM      6  C4  UNL d   1      -3.232   0.850  -6.000  0.00  0.00     0.022 A 
ATOM      7  C5  UNL d   1      -2.498  -0.312  -5.998  0.00  0.00     0.026 A 
ATOM      8  C6  UNL d   1      -3.319  -1.491  -5.992  0.00  0.00    -0.082 A 
ATOM      9  C7  UNL d   1      -2.963  -2.861  -5.988  0.00  0.00     0.045 A 
ENDROOT
TORSDOF 0
ENDMDL
