MODEL 1
REMARK minimizedAffinity 6.97001839
REMARK minimizedRMSD -1
REMARK  0 active torsions:
REMARK  status: ('A' for Active; 'I' for Inactive)
ROOT
ATOM      1  C   UNL d   1      -2.202   1.922  -5.999  0.00  0.00    -0.002 A 
ATOM      2  C1  UNL d   1      -3.397   1.217  -5.998  0.00  0.00     0.010 A 
ATOM      3  C2  UNL d   1      -4.620   1.891  -5.993  0.00  0.00     0.041 A 
ATOM      4  C3  UNL d   1      -4.622   3.300  -5.991  0.00  0.00    -0.075 A 
ATOM      5  S   UNL d   1      -5.998   4.338  -5.985  0.00  0.00     0.015 SA
ATOM      6  C4  UNL d   1      -5.032   5.742  -5.985  0.00  0.00     0.022 A 
ATOM      7  C5  UNL d   1      -3.690   5.445  -5.989  0.00  0.00     0.026 A 
ATOM      8  C6  UNL d   1      -3.431   4.032  -5.993  0.00  0.00    -0.082 A 
ATOM      9  C7  UNL d   1      -2.208   3.320  -5.997  0.00  0.00     0.045 A 
ENDROOT
TORSDOF 0
ENDMDL
