MODEL 1
REMARK minimizedAffinity -1.04204011
REMARK minimizedRMSD -1
REMARK  0 active torsions:
REMARK  status: ('A' for Active; 'I' for Inactive)
ROOT
ATOM      1  C   UNL d   1      -5.316   5.419  -5.996  0.00  0.00    -0.002 A 
ATOM      2  C1  UNL d   1      -3.936   5.560  -5.993  0.00  0.00     0.010 A 
ATOM      3  C2  UNL d   1      -3.107   4.436  -5.991  0.00  0.00     0.041 A 
ATOM      4  C3  UNL d   1      -3.695   3.156  -5.994  0.00  0.00    -0.075 A 
ATOM      5  S   UNL d   1      -2.879   1.637  -5.993  0.00  0.00     0.015 SA
ATOM      6  C4  UNL d   1      -4.344   0.765  -5.998  0.00  0.00     0.022 A 
ATOM      7  C5  UNL d   1      -5.439   1.597  -6.000  0.00  0.00     0.026 A 
ATOM      8  C6  UNL d   1      -5.083   2.988  -5.998  0.00  0.00    -0.082 A 
ATOM      9  C7  UNL d   1      -5.896   4.147  -5.999  0.00  0.00     0.045 A 
ENDROOT
TORSDOF 0
ENDMDL
