MODEL 1
REMARK minimizedAffinity 27.2610416
REMARK minimizedRMSD -1
REMARK  0 active torsions:
REMARK  status: ('A' for Active; 'I' for Inactive)
ROOT
ATOM      1  C   UNL d   1      -0.214  -2.618  -0.859  0.00  0.00    -0.002 A 
ATOM      2  C1  UNL d   1       0.491  -1.530  -1.356  0.00  0.00     0.010 A 
ATOM      3  C2  UNL d   1      -0.035  -0.756  -2.392  0.00  0.00     0.041 A 
ATOM      4  C3  UNL d   1      -1.295  -1.095  -2.924  0.00  0.00    -0.075 A 
ATOM      5  S   UNL d   1      -2.137  -0.289  -4.195  0.00  0.00     0.015 SA
ATOM      6  C4  UNL d   1      -3.453  -1.369  -4.108  0.00  0.00     0.022 A 
ATOM      7  C5  UNL d   1      -3.271  -2.327  -3.139  0.00  0.00     0.026 A 
ATOM      8  C6  UNL d   1      -2.024  -2.184  -2.440  0.00  0.00    -0.082 A 
ATOM      9  C7  UNL d   1      -1.464  -2.950  -1.390  0.00  0.00     0.045 A 
ENDROOT
TORSDOF 0
ENDMDL
