MODEL 1
REMARK minimizedAffinity 15.3002653
REMARK minimizedRMSD -1
REMARK  0 active torsions:
REMARK  status: ('A' for Active; 'I' for Inactive)
ROOT
ATOM      1  C   UNL d   1      -3.551   3.276  -6.000  0.00  0.00    -0.002 A 
ATOM      2  C1  UNL d   1      -4.380   3.347  -4.890  0.00  0.00     0.010 A 
ATOM      3  C2  UNL d   1      -3.992   4.067  -3.758  0.00  0.00     0.041 A 
ATOM      4  C3  UNL d   1      -2.745   4.722  -3.762  0.00  0.00    -0.075 A 
ATOM      5  S   UNL d   1      -2.061   5.664  -2.490  0.00  0.00     0.015 SA
ATOM      6  C4  UNL d   1      -0.653   5.994  -3.390  0.00  0.00     0.022 A 
ATOM      7  C5  UNL d   1      -0.686   5.408  -4.633  0.00  0.00     0.026 A 
ATOM      8  C6  UNL d   1      -1.893   4.666  -4.868  0.00  0.00    -0.082 A 
ATOM      9  C7  UNL d   1      -2.314   3.927  -6.000  0.00  0.00     0.045 A 
ENDROOT
TORSDOF 0
ENDMDL
