MODEL 1
REMARK minimizedAffinity 9.81975937
REMARK minimizedRMSD -1
REMARK  0 active torsions:
REMARK  status: ('A' for Active; 'I' for Inactive)
ROOT
ATOM      1  C   UNL d   1      -3.848   2.975  -4.828  0.00  0.00    -0.002 A 
ATOM      2  C1  UNL d   1      -3.120   3.184  -5.991  0.00  0.00     0.010 A 
ATOM      3  C2  UNL d   1      -2.018   4.042  -5.995  0.00  0.00     0.041 A 
ATOM      4  C3  UNL d   1      -1.655   4.691  -4.798  0.00  0.00    -0.075 A 
ATOM      5  S   UNL d   1      -0.343   5.784  -4.565  0.00  0.00     0.015 SA
ATOM      6  C4  UNL d   1      -0.716   5.999  -2.916  0.00  0.00     0.022 A 
ATOM      7  C5  UNL d   1      -1.813   5.262  -2.536  0.00  0.00     0.026 A 
ATOM      8  C6  UNL d   1      -2.372   4.496  -3.614  0.00  0.00    -0.082 A 
ATOM      9  C7  UNL d   1      -3.484   3.621  -3.643  0.00  0.00     0.045 A 
ENDROOT
TORSDOF 0
ENDMDL
