MODEL 1
REMARK minimizedAffinity 2.15317345
REMARK minimizedRMSD -1
REMARK  0 active torsions:
REMARK  status: ('A' for Active; 'I' for Inactive)
ROOT
ATOM      1  C   UNL d   1       1.962   0.546  -1.669  0.00  0.00    -0.002 A 
ATOM      2  C1  UNL d   1       2.335  -0.720  -1.240  0.00  0.00     0.010 A 
ATOM      3  C2  UNL d   1       1.868  -1.223  -0.024  0.00  0.00     0.041 A 
ATOM      4  C3  UNL d   1       1.011  -0.427   0.760  0.00  0.00    -0.075 A 
ATOM      5  S   UNL d   1       0.316  -0.836   2.284  0.00  0.00     0.015 SA
ATOM      6  C4  UNL d   1      -0.493   0.659   2.400  0.00  0.00     0.022 A 
ATOM      7  C5  UNL d   1      -0.250   1.464   1.313  0.00  0.00     0.026 A 
ATOM      8  C6  UNL d   1       0.621   0.851   0.349  0.00  0.00    -0.082 A 
ATOM      9  C7  UNL d   1       1.111   1.334  -0.888  0.00  0.00     0.045 A 
ENDROOT
TORSDOF 0
ENDMDL
