MODEL 1
REMARK minimizedAffinity -4.88778973
REMARK minimizedRMSD -1
REMARK  0 active torsions:
REMARK  status: ('A' for Active; 'I' for Inactive)
ROOT
ATOM      1  C1  BNZ d   1       0.769  -3.463  -1.394  0.00  0.00     0.000 A 
ATOM      2  C2  BNZ d   1       1.511  -3.855  -0.312  0.00  0.00     0.000 A 
ATOM      3  C3  BNZ d   1       1.185  -4.983   0.389  0.00  0.00     0.000 A 
ATOM      4  C4  BNZ d   1       0.095  -5.693   0.032  0.00  0.00     0.000 A 
ATOM      5  C5  BNZ d   1      -0.668  -5.305  -1.051  0.00  0.00     0.000 A 
ATOM      6  C6  BNZ d   1      -0.314  -4.192  -1.777  0.00  0.00     0.000 A 
ENDROOT
TORSDOF 0
ENDMDL
