MODEL 1
REMARK minimizedAffinity -1.69629598
REMARK minimizedRMSD -1
REMARK  0 active torsions:
REMARK  status: ('A' for Active; 'I' for Inactive)
ROOT
ATOM      1  C1  BNZ d   1       0.025  -3.218  -1.536  0.00  0.00     0.000 A 
ATOM      2  C2  BNZ d   1       0.929  -3.160  -0.509  0.00  0.00     0.000 A 
ATOM      3  C3  BNZ d   1       1.312  -4.293   0.152  0.00  0.00     0.000 A 
ATOM      4  C4  BNZ d   1       0.761  -5.476  -0.187  0.00  0.00     0.000 A 
ATOM      5  C5  BNZ d   1      -0.159  -5.550  -1.215  0.00  0.00     0.000 A 
ATOM      6  C6  BNZ d   1      -0.512  -4.413  -1.904  0.00  0.00     0.000 A 
ENDROOT
TORSDOF 0
ENDMDL
