MODEL 1
REMARK minimizedAffinity -2.03258228
REMARK minimizedRMSD -1
REMARK  0 active torsions:
REMARK  status: ('A' for Active; 'I' for Inactive)
ROOT
ATOM      1  C1  BNZ d   1       0.843  -0.909  -0.781  0.00  0.00     0.000 A 
ATOM      2  C2  BNZ d   1       0.768  -0.745   0.577  0.00  0.00     0.000 A 
ATOM      3  C3  BNZ d   1       0.152   0.350   1.117  0.00  0.00     0.000 A 
ATOM      4  C4  BNZ d   1      -0.351   1.298   0.299  0.00  0.00     0.000 A 
ATOM      5  C5  BNZ d   1      -0.274   1.151  -1.071  0.00  0.00     0.000 A 
ATOM      6  C6  BNZ d   1       0.312   0.029  -1.611  0.00  0.00     0.000 A 
ENDROOT
TORSDOF 0
ENDMDL
