MODEL 1
REMARK minimizedAffinity -3.96486688
REMARK minimizedRMSD -1
REMARK  0 active torsions:
REMARK  status: ('A' for Active; 'I' for Inactive)
ROOT
ATOM      1  C1  BNZ d   1       0.238   1.151  -1.045  0.00  0.00     0.000 A 
ATOM      2  C2  BNZ d   1       0.321   0.234  -0.032  0.00  0.00     0.000 A 
ATOM      3  C3  BNZ d   1       0.155   0.614   1.271  0.00  0.00     0.000 A 
ATOM      4  C4  BNZ d   1      -0.054   1.914   1.561  0.00  0.00     0.000 A 
ATOM      5  C5  BNZ d   1      -0.131   2.852   0.551  0.00  0.00     0.000 A 
ATOM      6  C6  BNZ d   1      -0.002   2.461  -0.762  0.00  0.00     0.000 A 
ENDROOT
TORSDOF 0
ENDMDL
