MODEL 1
REMARK minimizedAffinity -2.78803253
REMARK minimizedRMSD -1
REMARK  0 active torsions:
REMARK  status: ('A' for Active; 'I' for Inactive)
ROOT
ATOM      1  C1  BNZ d   1       0.611   1.017  -1.576  0.00  0.00     0.000 A 
ATOM      2  C2  BNZ d   1      -0.005   1.975  -0.815  0.00  0.00     0.000 A 
ATOM      3  C3  BNZ d   1      -0.315   1.736   0.495  0.00  0.00     0.000 A 
ATOM      4  C4  BNZ d   1      -0.046   0.528   1.030  0.00  0.00     0.000 A 
ATOM      5  C5  BNZ d   1       0.567  -0.451   0.274  0.00  0.00     0.000 A 
ATOM      6  C6  BNZ d   1       0.913  -0.194  -1.033  0.00  0.00     0.000 A 
ENDROOT
TORSDOF 0
ENDMDL
