MODEL 1
REMARK minimizedAffinity -3.86305761
REMARK minimizedRMSD -1
REMARK  0 active torsions:
REMARK  status: ('A' for Active; 'I' for Inactive)
ROOT
ATOM      1  C1  BNZ d   1      -0.076   0.311  -1.096  0.00  0.00     0.000 A 
ATOM      2  C2  BNZ d   1      -0.772   1.473  -0.895  0.00  0.00     0.000 A 
ATOM      3  C3  BNZ d   1      -1.022   1.930   0.369  0.00  0.00     0.000 A 
ATOM      4  C4  BNZ d   1      -0.612   1.204   1.429  0.00  0.00     0.000 A 
ATOM      5  C5  BNZ d   1       0.083   0.026   1.243  0.00  0.00     0.000 A 
ATOM      6  C6  BNZ d   1       0.366  -0.411  -0.031  0.00  0.00     0.000 A 
ENDROOT
TORSDOF 0
ENDMDL
