MODEL 1
REMARK minimizedAffinity 11.6946278
REMARK minimizedRMSD -1
REMARK  0 active torsions:
REMARK  status: ('A' for Active; 'I' for Inactive)
ROOT
ATOM      1  C2' OXE d   1      -5.044   0.746  -0.166  0.00  0.00     0.078 C 
ATOM      2  C1' OXE d   1      -2.945  -0.010  -1.869  0.00  0.00     0.078 C 
ATOM      3  C1  OXE d   1      -3.990   0.932  -2.415  0.00  0.00    -0.078 A 
ATOM      4  C2  OXE d   1      -5.038   1.259  -1.589  0.00  0.00    -0.078 A 
ATOM      5  C3  OXE d   1      -6.000   2.167  -2.024  0.00  0.00     0.003 A 
ATOM      6  C4  OXE d   1      -5.993   2.629  -3.345  0.00  0.00    -0.002 A 
ATOM      7  C5  OXE d   1      -4.955   2.277  -4.215  0.00  0.00    -0.002 A 
ATOM      8  C6  OXE d   1      -3.925   1.465  -3.753  0.00  0.00     0.003 A 
ENDROOT
TORSDOF 0
ENDMDL
