MODEL 1
REMARK minimizedAffinity 7.36368799
REMARK minimizedRMSD -1
REMARK  0 active torsions:
REMARK  status: ('A' for Active; 'I' for Inactive)
ROOT
ATOM      1  C2' OXE d   1      -2.541   2.308   2.355  0.00  0.00     0.078 C 
ATOM      2  C1' OXE d   1      -0.417   2.840   0.598  0.00  0.00     0.078 C 
ATOM      3  C1  OXE d   1      -0.110   2.077   1.862  0.00  0.00    -0.078 A 
ATOM      4  C2  OXE d   1      -1.147   1.862   2.738  0.00  0.00    -0.078 A 
ATOM      5  C3  OXE d   1      -0.929   1.116   3.894  0.00  0.00     0.003 A 
ATOM      6  C4  OXE d   1       0.365   0.716   4.246  0.00  0.00    -0.002 A 
ATOM      7  C5  OXE d   1       1.442   0.959   3.387  0.00  0.00    -0.002 A 
ATOM      8  C6  OXE d   1       1.215   1.600   2.174  0.00  0.00     0.003 A 
ENDROOT
TORSDOF 0
ENDMDL
