MODEL 1
REMARK minimizedAffinity -3.81237006
REMARK minimizedRMSD -1
REMARK  0 active torsions:
REMARK  status: ('A' for Active; 'I' for Inactive)
ROOT
ATOM      1  C2' OXE d   1       0.956   1.903   0.342  0.00  0.00     0.078 C 
ATOM      2  C1' OXE d   1      -1.237   0.318  -0.403  0.00  0.00     0.078 C 
ATOM      3  C1  OXE d   1       0.099  -0.362  -0.238  0.00  0.00    -0.078 A 
ATOM      4  C2  OXE d   1       1.176   0.429   0.081  0.00  0.00    -0.078 A 
ATOM      5  C3  OXE d   1       2.420  -0.156   0.299  0.00  0.00     0.003 A 
ATOM      6  C4  OXE d   1       2.617  -1.519   0.046  0.00  0.00    -0.002 A 
ATOM      7  C5  OXE d   1       1.541  -2.336  -0.319  0.00  0.00    -0.002 A 
ATOM      8  C6  OXE d   1       0.270  -1.782  -0.423  0.00  0.00     0.003 A 
ENDROOT
TORSDOF 0
ENDMDL
