MODEL 1
REMARK minimizedAffinity -2.19644618
REMARK minimizedRMSD -1
REMARK  0 active torsions:
REMARK  status: ('A' for Active; 'I' for Inactive)
ROOT
ATOM      1  C2' OXE d   1       0.277   1.927  -0.242  0.00  0.00     0.078 C 
ATOM      2  C1' OXE d   1      -1.321   0.329  -1.908  0.00  0.00     0.078 C 
ATOM      3  C1  OXE d   1      -0.254  -0.355  -1.090  0.00  0.00    -0.078 A 
ATOM      4  C2  OXE d   1       0.554   0.441  -0.313  0.00  0.00    -0.078 A 
ATOM      5  C3  OXE d   1       1.519  -0.144   0.502  0.00  0.00     0.003 A 
ATOM      6  C4  OXE d   1       1.775  -1.519   0.423  0.00  0.00    -0.002 A 
ATOM      7  C5  OXE d   1       0.990  -2.342  -0.392  0.00  0.00    -0.002 A 
ATOM      8  C6  OXE d   1      -0.054  -1.783  -1.121  0.00  0.00     0.003 A 
ENDROOT
TORSDOF 0
ENDMDL
