MODEL 1
REMARK minimizedAffinity 1.73387992
REMARK minimizedRMSD -1
REMARK  0 active torsions:
REMARK  status: ('A' for Active; 'I' for Inactive)
ROOT
ATOM      1  C2' OXE d   1      -2.404   1.964   1.838  0.00  0.00     0.078 C 
ATOM      2  C1' OXE d   1      -0.420   0.970   3.557  0.00  0.00     0.078 C 
ATOM      3  C1  OXE d   1       0.006   1.443   2.190  0.00  0.00    -0.078 A 
ATOM      4  C2  OXE d   1      -0.978   1.884   1.338  0.00  0.00    -0.078 A 
ATOM      5  C3  OXE d   1      -0.633   2.383   0.085  0.00  0.00     0.003 A 
ATOM      6  C4  OXE d   1       0.687   2.297  -0.373  0.00  0.00    -0.002 A 
ATOM      7  C5  OXE d   1       1.699   1.814   0.464  0.00  0.00    -0.002 A 
ATOM      8  C6  OXE d   1       1.383   1.424   1.761  0.00  0.00     0.003 A 
ENDROOT
TORSDOF 0
ENDMDL
