MODEL 1
REMARK minimizedAffinity 0.905559599
REMARK minimizedRMSD -1
REMARK  0 active torsions:
REMARK  status: ('A' for Active; 'I' for Inactive)
ROOT
ATOM      1  C2' OXE d   1       2.311  -0.643  -0.629  0.00  0.00     0.078 C 
ATOM      2  C1' OXE d   1       2.040  -2.690   1.272  0.00  0.00     0.078 C 
ATOM      3  C1  OXE d   1       1.170  -2.753   0.042  0.00  0.00    -0.078 A 
ATOM      4  C2  OXE d   1       1.276  -1.722  -0.861  0.00  0.00    -0.078 A 
ATOM      5  C3  OXE d   1       0.536  -1.759  -2.039  0.00  0.00     0.003 A 
ATOM      6  C4  OXE d   1      -0.427  -2.756  -2.241  0.00  0.00    -0.002 A 
ATOM      7  C5  OXE d   1      -0.579  -3.794  -1.315  0.00  0.00    -0.002 A 
ATOM      8  C6  OXE d   1       0.240  -3.830  -0.192  0.00  0.00     0.003 A 
ENDROOT
TORSDOF 0
ENDMDL
