MODEL 1
REMARK minimizedAffinity 4.60147619
REMARK minimizedRMSD -1
REMARK  0 active torsions:
REMARK  status: ('A' for Active; 'I' for Inactive)
ROOT
ATOM      1  C2' OXE d   1       2.682  -1.758  -1.095  0.00  0.00     0.078 C 
ATOM      2  C1' OXE d   1       2.960  -1.950   1.692  0.00  0.00     0.078 C 
ATOM      3  C1  OXE d   1       2.541  -0.620   1.117  0.00  0.00    -0.078 A 
ATOM      4  C2  OXE d   1       2.453  -0.523  -0.251  0.00  0.00    -0.078 A 
ATOM      5  C3  OXE d   1       2.017   0.666  -0.831  0.00  0.00     0.003 A 
ATOM      6  C4  OXE d   1       1.817   1.806  -0.044  0.00  0.00    -0.002 A 
ATOM      7  C5  OXE d   1       1.940   1.739   1.348  0.00  0.00    -0.002 A 
ATOM      8  C6  OXE d   1       2.259   0.525   1.946  0.00  0.00     0.003 A 
ENDROOT
TORSDOF 0
ENDMDL
