MODEL 1
REMARK minimizedAffinity 5.08938265
REMARK minimizedRMSD -1
REMARK  0 active torsions:
REMARK  status: ('A' for Active; 'I' for Inactive)
ROOT
ATOM      1  C2' OXE d   1       4.267   0.655   0.569  0.00  0.00     0.078 C 
ATOM      2  C1' OXE d   1       2.465  -1.295  -0.341  0.00  0.00     0.078 C 
ATOM      3  C1  OXE d   1       1.979   0.131  -0.266  0.00  0.00    -0.078 A 
ATOM      4  C2  OXE d   1       2.853   1.071   0.225  0.00  0.00    -0.078 A 
ATOM      5  C3  OXE d   1       2.474   2.410   0.264  0.00  0.00     0.003 A 
ATOM      6  C4  OXE d   1       1.161   2.784  -0.046  0.00  0.00    -0.002 A 
ATOM      7  C5  OXE d   1       0.243   1.836  -0.510  0.00  0.00    -0.002 A 
ATOM      8  C6  OXE d   1       0.648   0.515  -0.666  0.00  0.00     0.003 A 
ENDROOT
TORSDOF 0
ENDMDL
