MODEL 1
REMARK minimizedAffinity -1.91404819
REMARK minimizedRMSD -1
REMARK  0 active torsions:
REMARK  status: ('A' for Active; 'I' for Inactive)
ROOT
ATOM      1  C2' OXE d   1      -0.127  -0.333  -0.674  0.00  0.00     0.078 C 
ATOM      2  C1' OXE d   1       0.551   1.535   1.309  0.00  0.00     0.078 C 
ATOM      3  C1  OXE d   1      -0.910   1.217   1.113  0.00  0.00    -0.078 A 
ATOM      4  C2  OXE d   1      -1.236   0.337   0.109  0.00  0.00    -0.078 A 
ATOM      5  C3  OXE d   1      -2.565  -0.032  -0.079  0.00  0.00     0.003 A 
ATOM      6  C4  OXE d   1      -3.585   0.600   0.642  0.00  0.00    -0.002 A 
ATOM      7  C5  OXE d   1      -3.278   1.528   1.642  0.00  0.00    -0.002 A 
ATOM      8  C6  OXE d   1      -1.945   1.815   1.919  0.00  0.00     0.003 A 
ENDROOT
TORSDOF 0
ENDMDL
