MODEL 1
REMARK minimizedAffinity -2.57316184
REMARK minimizedRMSD -1
REMARK  0 active torsions:
REMARK  status: ('A' for Active; 'I' for Inactive)
ROOT
ATOM      1  C2' OXE d   1       0.501   1.549  -0.786  0.00  0.00     0.078 C 
ATOM      2  C1' OXE d   1       3.086   0.459  -0.693  0.00  0.00     0.078 C 
ATOM      3  C1  OXE d   1       1.931  -0.487  -0.908  0.00  0.00    -0.078 A 
ATOM      4  C2  OXE d   1       0.666   0.049  -0.905  0.00  0.00    -0.078 A 
ATOM      5  C3  OXE d   1      -0.431  -0.770  -1.153  0.00  0.00     0.003 A 
ATOM      6  C4  OXE d   1      -0.271  -2.158  -1.252  0.00  0.00    -0.002 A 
ATOM      7  C5  OXE d   1       1.005  -2.730  -1.218  0.00  0.00    -0.002 A 
ATOM      8  C6  OXE d   1       2.118  -1.905  -1.089  0.00  0.00     0.003 A 
ENDROOT
TORSDOF 0
ENDMDL
