MODEL 1
REMARK minimizedAffinity 5.80792713
REMARK minimizedRMSD -1
REMARK  1 active torsions:
REMARK  status: ('A' for Active; 'I' for Inactive)
REMARK    1  A    between atoms: C1_2  and  C2_3 
ROOT
ATOM      1  C2  UNL d   1       1.496   2.074  -2.882  0.00  0.00    -0.076 A 
ATOM      2  C3  UNL d   1       1.145   0.902  -3.574  0.00  0.00     0.004 A 
ATOM      3  C4  UNL d   1       1.583  -0.347  -3.138  0.00  0.00    -0.003 A 
ATOM      4  C5  UNL d   1       2.379  -0.445  -2.002  0.00  0.00     0.000 A 
ATOM      5  C6  UNL d   1       2.722   0.705  -1.293  0.00  0.00     0.000 A 
ATOM      6  C7  UNL d   1       2.276   1.971  -1.710  0.00  0.00    -0.073 A 
ATOM      7  C8  UNL d   1       2.681   3.179  -0.910  0.00  0.00     0.078 C 
ENDROOT
BRANCH   1   8
ATOM      8  C1  UNL d   1       1.015   3.403  -3.417  0.00  0.00     0.053 C 
ATOM      9  C   UNL d   1      -0.490   3.432  -3.638  0.00  0.00     0.018 C 
ENDBRANCH   1   8
TORSDOF 1
ENDMDL
