MODEL 1
REMARK minimizedAffinity 8.59346867
REMARK minimizedRMSD -1
REMARK  1 active torsions:
REMARK  status: ('A' for Active; 'I' for Inactive)
REMARK    1  A    between atoms: C1_2  and  C2_3 
ROOT
ATOM      1  C2  UNL d   1       1.574   1.470  -2.191  0.00  0.00    -0.076 A 
ATOM      2  C3  UNL d   1       0.791   0.308  -2.309  0.00  0.00     0.004 A 
ATOM      3  C4  UNL d   1       0.966  -0.766  -1.439  0.00  0.00    -0.003 A 
ATOM      4  C5  UNL d   1       1.927  -0.697  -0.436  0.00  0.00     0.000 A 
ATOM      5  C6  UNL d   1       2.700   0.455  -0.293  0.00  0.00     0.000 A 
ATOM      6  C7  UNL d   1       2.525   1.554  -1.152  0.00  0.00    -0.073 A 
ATOM      7  C8  UNL d   1       3.391   2.768  -0.956  0.00  0.00     0.078 C 
ENDROOT
BRANCH   1   8
ATOM      8  C1  UNL d   1       1.358   2.593  -3.180  0.00  0.00     0.053 C 
ATOM      9  C   UNL d   1       0.003   3.264  -3.013  0.00  0.00     0.018 C 
ENDBRANCH   1   8
TORSDOF 1
ENDMDL
