MODEL 1
REMARK minimizedAffinity 7.04709673
REMARK minimizedRMSD -1
REMARK  1 active torsions:
REMARK  status: ('A' for Active; 'I' for Inactive)
REMARK    1  A    between atoms: C1_2  and  C2_3 
ROOT
ATOM      1  C2  UNL d   1       1.628  -1.040   1.982  0.00  0.00    -0.076 A 
ATOM      2  C3  UNL d   1       1.051  -2.315   2.108  0.00  0.00     0.004 A 
ATOM      3  C4  UNL d   1      -0.082  -2.515   2.894  0.00  0.00    -0.003 A 
ATOM      4  C5  UNL d   1      -0.658  -1.443   3.567  0.00  0.00     0.000 A 
ATOM      5  C6  UNL d   1      -0.109  -0.167   3.439  0.00  0.00     0.000 A 
ATOM      6  C7  UNL d   1       1.024   0.055   2.637  0.00  0.00    -0.073 A 
ATOM      7  C8  UNL d   1       1.578   1.450   2.540  0.00  0.00     0.078 C 
ENDROOT
BRANCH   1   8
ATOM      8  C1  UNL d   1       2.873  -0.888   1.137  0.00  0.00     0.053 C 
ATOM      9  C   UNL d   1       2.637  -1.256  -0.320  0.00  0.00     0.018 C 
ENDBRANCH   1   8
TORSDOF 1
ENDMDL
