MODEL 1
REMARK minimizedAffinity 7.70777416
REMARK minimizedRMSD -1
REMARK  1 active torsions:
REMARK  status: ('A' for Active; 'I' for Inactive)
REMARK    1  A    between atoms: C1_2  and  C2_3 
ROOT
ATOM      1  C2  UNL d   1      -1.636  -1.583   1.698  0.00  0.00    -0.076 A 
ATOM      2  C3  UNL d   1      -0.896  -2.772   1.576  0.00  0.00     0.004 A 
ATOM      3  C4  UNL d   1       0.399  -2.867   2.083  0.00  0.00    -0.003 A 
ATOM      4  C5  UNL d   1       0.975  -1.774   2.721  0.00  0.00     0.000 A 
ATOM      5  C6  UNL d   1       0.249  -0.592   2.867  0.00  0.00     0.000 A 
ATOM      6  C7  UNL d   1      -1.063  -0.485   2.376  0.00  0.00    -0.073 A 
ATOM      7  C8  UNL d   1      -1.798   0.815   2.556  0.00  0.00     0.078 C 
ENDROOT
BRANCH   1   8
ATOM      8  C1  UNL d   1      -3.025  -1.531   1.105  0.00  0.00     0.053 C 
ATOM      9  C   UNL d   1      -3.010  -1.534  -0.416  0.00  0.00     0.018 C 
ENDBRANCH   1   8
TORSDOF 1
ENDMDL
