MODEL 1
REMARK minimizedAffinity 3.2106061
REMARK minimizedRMSD -1
REMARK  1 active torsions:
REMARK  status: ('A' for Active; 'I' for Inactive)
REMARK    1  A    between atoms: C1_2  and  C2_3 
ROOT
ATOM      1  C2  UNL d   1       2.610  -1.027  -0.959  0.00  0.00    -0.076 A 
ATOM      2  C3  UNL d   1       1.876  -2.044  -0.325  0.00  0.00     0.004 A 
ATOM      3  C4  UNL d   1       2.065  -2.329   1.027  0.00  0.00    -0.003 A 
ATOM      4  C5  UNL d   1       2.991  -1.601   1.766  0.00  0.00     0.000 A 
ATOM      5  C6  UNL d   1       3.715  -0.576   1.157  0.00  0.00     0.000 A 
ATOM      6  C7  UNL d   1       3.525  -0.265  -0.201  0.00  0.00    -0.073 A 
ATOM      7  C8  UNL d   1       4.338   0.846  -0.807  0.00  0.00     0.078 C 
ENDROOT
BRANCH   1   8
ATOM      8  C1  UNL d   1       2.382  -0.781  -2.433  0.00  0.00     0.053 C 
ATOM      9  C   UNL d   1       1.024  -0.157  -2.717  0.00  0.00     0.018 C 
ENDBRANCH   1   8
TORSDOF 1
ENDMDL
