MODEL 1
REMARK minimizedAffinity 4.64448833
REMARK minimizedRMSD -1
REMARK  1 active torsions:
REMARK  status: ('A' for Active; 'I' for Inactive)
REMARK    1  A    between atoms: C1_2  and  C2_3 
ROOT
ATOM      1  C2  UNL d   1       2.268  -1.256  -0.613  0.00  0.00    -0.076 A 
ATOM      2  C3  UNL d   1       1.221  -1.004  -1.517  0.00  0.00     0.004 A 
ATOM      3  C4  UNL d   1       1.473  -0.449  -2.770  0.00  0.00    -0.003 A 
ATOM      4  C5  UNL d   1       2.776  -0.138  -3.141  0.00  0.00     0.000 A 
ATOM      5  C6  UNL d   1       3.829  -0.397  -2.264  0.00  0.00     0.000 A 
ATOM      6  C7  UNL d   1       3.594  -0.971  -1.003  0.00  0.00    -0.073 A 
ATOM      7  C8  UNL d   1       4.767  -1.224  -0.095  0.00  0.00     0.078 C 
ENDROOT
BRANCH   1   8
ATOM      8  C1  UNL d   1       1.932  -1.834   0.743  0.00  0.00     0.053 C 
ATOM      9  C   UNL d   1       0.847  -1.045   1.460  0.00  0.00     0.018 C 
ENDBRANCH   1   8
TORSDOF 1
ENDMDL
