MODEL 1
REMARK minimizedAffinity 19.8060112
REMARK minimizedRMSD -1
REMARK  1 active torsions:
REMARK  status: ('A' for Active; 'I' for Inactive)
REMARK    1  A    between atoms: C1_2  and  C2_3 
ROOT
ATOM      1  C2  UNL d   1      -0.476   5.316  -1.534  0.00  0.00    -0.076 A 
ATOM      2  C3  UNL d   1       0.834   5.511  -2.005  0.00  0.00     0.004 A 
ATOM      3  C4  UNL d   1       1.074   5.848  -3.336  0.00  0.00    -0.003 A 
ATOM      4  C5  UNL d   1       0.009   5.995  -4.217  0.00  0.00     0.000 A 
ATOM      5  C6  UNL d   1      -1.298   5.823  -3.763  0.00  0.00     0.000 A 
ATOM      6  C7  UNL d   1      -1.559   5.499  -2.420  0.00  0.00    -0.073 A 
ATOM      7  C8  UNL d   1      -2.987   5.318  -1.985  0.00  0.00     0.078 C 
ENDROOT
BRANCH   1   8
ATOM      8  C1  UNL d   1      -0.674   4.926  -0.086  0.00  0.00     0.053 C 
ATOM      9  C   UNL d   1       0.214   3.763   0.330  0.00  0.00     0.018 C 
ENDBRANCH   1   8
TORSDOF 1
ENDMDL
