MODEL 1
REMARK minimizedAffinity 6.6139183
REMARK minimizedRMSD -1
REMARK  1 active torsions:
REMARK  status: ('A' for Active; 'I' for Inactive)
REMARK    1  A    between atoms: C1_2  and  C2_3 
ROOT
ATOM      1  C2  UNL d   1       4.035  -2.127  -0.398  0.00  0.00    -0.076 A 
ATOM      2  C3  UNL d   1       4.907  -1.942  -1.485  0.00  0.00     0.004 A 
ATOM      3  C4  UNL d   1       5.847  -2.913  -1.824  0.00  0.00    -0.003 A 
ATOM      4  C5  UNL d   1       5.930  -4.086  -1.082  0.00  0.00     0.000 A 
ATOM      5  C6  UNL d   1       5.062  -4.294  -0.011  0.00  0.00     0.000 A 
ATOM      6  C7  UNL d   1       4.097  -3.332   0.334  0.00  0.00    -0.073 A 
ATOM      7  C8  UNL d   1       3.190  -3.606   1.502  0.00  0.00     0.078 C 
ENDROOT
BRANCH   1   8
ATOM      8  C1  UNL d   1       3.055  -1.027  -0.060  0.00  0.00     0.053 C 
ATOM      9  C   UNL d   1       1.971  -0.868  -1.115  0.00  0.00     0.018 C 
ENDBRANCH   1   8
TORSDOF 1
ENDMDL
