MODEL 1
REMARK minimizedAffinity 13.6027498
REMARK minimizedRMSD -1
REMARK  1 active torsions:
REMARK  status: ('A' for Active; 'I' for Inactive)
REMARK    1  A    between atoms: C1_2  and  C2_3 
ROOT
ATOM      1  C2  UNL d   1       4.515  -4.193  -2.608  0.00  0.00    -0.076 A 
ATOM      2  C3  UNL d   1       4.385  -4.126  -1.210  0.00  0.00     0.004 A 
ATOM      3  C4  UNL d   1       5.058  -3.153  -0.473  0.00  0.00    -0.003 A 
ATOM      4  C5  UNL d   1       5.871  -2.230  -1.122  0.00  0.00     0.000 A 
ATOM      5  C6  UNL d   1       5.997  -2.270  -2.510  0.00  0.00     0.000 A 
ATOM      6  C7  UNL d   1       5.313  -3.235  -3.270  0.00  0.00    -0.073 A 
ATOM      7  C8  UNL d   1       5.491  -3.236  -4.763  0.00  0.00     0.078 C 
ENDROOT
BRANCH   1   8
ATOM      8  C1  UNL d   1       3.784  -5.287  -3.352  0.00  0.00     0.053 C 
ATOM      9  C   UNL d   1       2.293  -5.299  -3.051  0.00  0.00     0.018 C 
ENDBRANCH   1   8
TORSDOF 1
ENDMDL
