MODEL 1
REMARK minimizedAffinity 5.16658115
REMARK minimizedRMSD -1
REMARK  1 active torsions:
REMARK  status: ('A' for Active; 'I' for Inactive)
REMARK    1  A    between atoms: C1_2  and  C2_3 
ROOT
ATOM      1  C2  UNL d   1       1.144   3.874   1.055  0.00  0.00    -0.076 A 
ATOM      2  C3  UNL d   1       1.841   5.091   0.953  0.00  0.00     0.004 A 
ATOM      3  C4  UNL d   1       1.552   6.000  -0.064  0.00  0.00    -0.003 A 
ATOM      4  C5  UNL d   1       0.563   5.706  -0.995  0.00  0.00     0.000 A 
ATOM      5  C6  UNL d   1      -0.150   4.511  -0.899  0.00  0.00     0.000 A 
ATOM      6  C7  UNL d   1       0.117   3.592   0.130  0.00  0.00    -0.073 A 
ATOM      7  C8  UNL d   1      -0.678   2.316   0.182  0.00  0.00     0.078 C 
ENDROOT
BRANCH   1   8
ATOM      8  C1  UNL d   1       1.519   2.916   2.163  0.00  0.00     0.053 C 
ATOM      9  C   UNL d   1       2.490   3.530   3.161  0.00  0.00     0.018 C 
ENDBRANCH   1   8
TORSDOF 1
ENDMDL
