MODEL 1
REMARK minimizedAffinity 13.2502918
REMARK minimizedRMSD -1
REMARK  1 active torsions:
REMARK  status: ('A' for Active; 'I' for Inactive)
REMARK    1  A    between atoms: C1_2  and  C2_3 
ROOT
ATOM      1  C2  UNL d   1      -1.348   0.094   4.267  0.00  0.00    -0.076 A 
ATOM      2  C3  UNL d   1      -2.224  -1.005   4.310  0.00  0.00     0.004 A 
ATOM      3  C4  UNL d   1      -3.506  -0.921   3.770  0.00  0.00    -0.003 A 
ATOM      4  C5  UNL d   1      -3.934   0.262   3.179  0.00  0.00     0.000 A 
ATOM      5  C6  UNL d   1      -3.072   1.356   3.112  0.00  0.00     0.000 A 
ATOM      6  C7  UNL d   1      -1.770   1.284   3.637  0.00  0.00    -0.073 A 
ATOM      7  C8  UNL d   1      -0.885   2.496   3.542  0.00  0.00     0.078 C 
ENDROOT
BRANCH   1   8
ATOM      8  C1  UNL d   1       0.021  -0.047   4.893  0.00  0.00     0.053 C 
ATOM      9  C   UNL d   1       0.486  -1.494   4.959  0.00  0.00     0.018 C 
ENDBRANCH   1   8
TORSDOF 1
ENDMDL
