MODEL 1
REMARK minimizedAffinity 12.3654366
REMARK minimizedRMSD -1
REMARK  1 active torsions:
REMARK  status: ('A' for Active; 'I' for Inactive)
REMARK    1  A    between atoms: C1_2  and  C2_3 
ROOT
ATOM      1  C2  UNL d   1      -0.155   2.493   0.141  0.00  0.00    -0.076 A 
ATOM      2  C3  UNL d   1       0.058   3.291  -0.996  0.00  0.00     0.004 A 
ATOM      3  C4  UNL d   1       0.250   4.667  -0.882  0.00  0.00    -0.003 A 
ATOM      4  C5  UNL d   1       0.233   5.267   0.373  0.00  0.00     0.000 A 
ATOM      5  C6  UNL d   1       0.041   4.489   1.513  0.00  0.00     0.000 A 
ATOM      6  C7  UNL d   1      -0.138   3.098   1.417  0.00  0.00    -0.073 A 
ATOM      7  C8  UNL d   1      -0.348   2.308   2.679  0.00  0.00     0.078 C 
ENDROOT
BRANCH   1   8
ATOM      8  C1  UNL d   1      -0.385   1.011  -0.047  0.00  0.00     0.053 C 
ATOM      9  C   UNL d   1       0.468   0.426  -1.162  0.00  0.00     0.018 C 
ENDBRANCH   1   8
TORSDOF 1
ENDMDL
