MODEL 1
REMARK minimizedAffinity -1.14365172
REMARK minimizedRMSD -1
REMARK  0 active torsions:
REMARK  status: ('A' for Active; 'I' for Inactive)
ROOT
ATOM      1  N1  IND d   1      -2.476   1.866   1.656  0.00  0.00    -0.196 N 
ATOM      2  C2  IND d   1      -3.604   1.492   0.980  0.00  0.00     0.054 A 
ATOM      3  C3  IND d   1      -3.291   0.633  -0.017  0.00  0.00    -0.031 A 
ATOM      4  C4  IND d   1      -1.007  -0.371  -0.654  0.00  0.00     0.051 A 
ATOM      5  C5  IND d   1       0.323  -0.301  -0.349  0.00  0.00    -0.031 A 
ATOM      6  C6  IND d   1       0.798   0.509   0.662  0.00  0.00     0.015 A 
ATOM      7  C7  IND d   1      -0.046   1.275   1.417  0.00  0.00    -0.016 A 
ATOM      8  C8  IND d   1      -1.397   1.211   1.105  0.00  0.00    -0.047 A 
ATOM      9  C9  IND d   1      -1.879   0.423   0.053  0.00  0.00    -0.096 A 
ATOM     10  HN1 IND d   1      -2.446   2.418   2.315  0.00  0.00     0.298 HD
ENDROOT
TORSDOF 0
ENDMDL
