MODEL 1
REMARK minimizedAffinity 3.31092739
REMARK minimizedRMSD -1
REMARK  0 active torsions:
REMARK  status: ('A' for Active; 'I' for Inactive)
ROOT
ATOM      1  N1  IND d   1       0.271   1.092   0.297  0.00  0.00    -0.196 N 
ATOM      2  C2  IND d   1      -0.967   1.279  -0.253  0.00  0.00     0.054 A 
ATOM      3  C3  IND d   1      -1.332   0.194  -0.971  0.00  0.00    -0.031 A 
ATOM      4  C4  IND d   1      -0.099  -2.043  -1.296  0.00  0.00     0.051 A 
ATOM      5  C5  IND d   1       1.082  -2.672  -1.017  0.00  0.00    -0.031 A 
ATOM      6  C6  IND d   1       2.071  -2.068  -0.269  0.00  0.00     0.015 A 
ATOM      7  C7  IND d   1       1.912  -0.811   0.241  0.00  0.00    -0.016 A 
ATOM      8  C8  IND d   1       0.717  -0.166  -0.046  0.00  0.00    -0.047 A 
ATOM      9  C9  IND d   1      -0.274  -0.757  -0.841  0.00  0.00    -0.096 A 
ATOM     10  HN1 IND d   1       0.698   1.663   0.777  0.00  0.00     0.298 HD
ENDROOT
TORSDOF 0
ENDMDL
