MODEL 1
REMARK minimizedAffinity -2.79812598
REMARK minimizedRMSD -1
REMARK  0 active torsions:
REMARK  status: ('A' for Active; 'I' for Inactive)
ROOT
ATOM      1  N1  IND d   1      -1.909  -0.351  -0.232  0.00  0.00    -0.196 N 
ATOM      2  C2  IND d   1      -2.069   0.994  -0.046  0.00  0.00     0.054 A 
ATOM      3  C3  IND d   1      -0.887   1.569   0.272  0.00  0.00    -0.031 A 
ATOM      4  C4  IND d   1       1.453   0.509   0.444  0.00  0.00     0.051 A 
ATOM      5  C5  IND d   1       2.096  -0.696   0.396  0.00  0.00    -0.031 A 
ATOM      6  C6  IND d   1       1.423  -1.871   0.129  0.00  0.00     0.015 A 
ATOM      7  C7  IND d   1       0.079  -1.883  -0.113  0.00  0.00    -0.016 A 
ATOM      8  C8  IND d   1      -0.579  -0.662  -0.059  0.00  0.00    -0.047 A 
ATOM      9  C9  IND d   1       0.091   0.528   0.254  0.00  0.00    -0.096 A 
ATOM     10  HN1 IND d   1      -2.535  -0.908  -0.424  0.00  0.00     0.298 HD
ENDROOT
TORSDOF 0
ENDMDL
