MODEL 1
REMARK minimizedAffinity -2.88092065
REMARK minimizedRMSD -1
REMARK  0 active torsions:
REMARK  status: ('A' for Active; 'I' for Inactive)
ROOT
ATOM      1  N1  IND d   1       2.154  -2.195  -0.142  0.00  0.00    -0.196 N 
ATOM      2  C2  IND d   1       2.819  -1.581   0.883  0.00  0.00     0.054 A 
ATOM      3  C3  IND d   1       2.140  -0.486   1.294  0.00  0.00    -0.031 A 
ATOM      4  C4  IND d   1      -0.131   0.425   0.497  0.00  0.00     0.051 A 
ATOM      5  C5  IND d   1      -1.103   0.224  -0.444  0.00  0.00    -0.031 A 
ATOM      6  C6  IND d   1      -1.038  -0.816  -1.348  0.00  0.00     0.015 A 
ATOM      7  C7  IND d   1      -0.000  -1.705  -1.338  0.00  0.00    -0.016 A 
ATOM      8  C8  IND d   1       0.991  -1.500  -0.389  0.00  0.00    -0.047 A 
ATOM      9  C9  IND d   1       0.952  -0.421   0.503  0.00  0.00    -0.096 A 
ATOM     10  HN1 IND d   1       2.418  -2.898  -0.561  0.00  0.00     0.298 HD
ENDROOT
TORSDOF 0
ENDMDL
