MODEL 1
REMARK minimizedAffinity 8.05458927
REMARK minimizedRMSD -1
REMARK  0 active torsions:
REMARK  status: ('A' for Active; 'I' for Inactive)
ROOT
ATOM      1  N1  IND d   1       2.523  -1.564  -0.902  0.00  0.00    -0.196 N 
ATOM      2  C2  IND d   1       2.247  -0.247  -1.144  0.00  0.00     0.054 A 
ATOM      3  C3  IND d   1       1.023   0.072  -0.668  0.00  0.00    -0.031 A 
ATOM      4  C4  IND d   1      -0.656  -1.382   0.633  0.00  0.00     0.051 A 
ATOM      5  C5  IND d   1      -0.865  -2.662   1.064  0.00  0.00    -0.031 A 
ATOM      6  C6  IND d   1       0.065  -3.661   0.861  0.00  0.00     0.015 A 
ATOM      7  C7  IND d   1       1.248  -3.413   0.225  0.00  0.00    -0.016 A 
ATOM      8  C8  IND d   1       1.461  -2.116  -0.220  0.00  0.00    -0.047 A 
ATOM      9  C9  IND d   1       0.503  -1.108  -0.054  0.00  0.00    -0.096 A 
ATOM     10  HN1 IND d   1       3.240  -1.977  -1.135  0.00  0.00     0.298 HD
ENDROOT
TORSDOF 0
ENDMDL
