MODEL 1
REMARK minimizedAffinity -4.33171129
REMARK minimizedRMSD -1
REMARK  0 active torsions:
REMARK  status: ('A' for Active; 'I' for Inactive)
ROOT
ATOM      1  N1  IND d   1       0.048   0.947   0.429  0.00  0.00    -0.196 N 
ATOM      2  C2  IND d   1      -0.936   0.463  -0.387  0.00  0.00     0.054 A 
ATOM      3  C3  IND d   1      -0.593  -0.754  -0.866  0.00  0.00    -0.031 A 
ATOM      4  C4  IND d   1       1.487  -2.184  -0.361  0.00  0.00     0.051 A 
ATOM      5  C5  IND d   1       2.683  -2.150   0.298  0.00  0.00    -0.031 A 
ATOM      6  C6  IND d   1       3.069  -1.061   1.053  0.00  0.00     0.015 A 
ATOM      7  C7  IND d   1       2.264   0.035   1.185  0.00  0.00    -0.016 A 
ATOM      8  C8  IND d   1       1.052   0.007   0.511  0.00  0.00    -0.047 A 
ATOM      9  C9  IND d   1       0.673  -1.078  -0.290  0.00  0.00    -0.096 A 
ATOM     10  HN1 IND d   1       0.042   1.711   0.825  0.00  0.00     0.298 HD
ENDROOT
TORSDOF 0
ENDMDL
