MODEL 1
REMARK minimizedAffinity -1.25877154
REMARK minimizedRMSD -1
REMARK  0 active torsions:
REMARK  status: ('A' for Active; 'I' for Inactive)
ROOT
ATOM      1  N1  IND d   1      -1.989   1.564  -0.245  0.00  0.00    -0.196 N 
ATOM      2  C2  IND d   1      -2.760   1.581   0.884  0.00  0.00     0.054 A 
ATOM      3  C3  IND d   1      -2.561   0.456   1.606  0.00  0.00    -0.031 A 
ATOM      4  C4  IND d   1      -0.943  -1.499   1.176  0.00  0.00     0.051 A 
ATOM      5  C5  IND d   1      -0.058  -1.982   0.253  0.00  0.00    -0.031 A 
ATOM      6  C6  IND d   1       0.237  -1.292  -0.905  0.00  0.00     0.015 A 
ATOM      7  C7  IND d   1      -0.337  -0.083  -1.179  0.00  0.00    -0.016 A 
ATOM      8  C8  IND d   1      -1.241   0.407  -0.248  0.00  0.00    -0.047 A 
ATOM      9  C9  IND d   1      -1.576  -0.309   0.909  0.00  0.00    -0.096 A 
ATOM     10  HN1 IND d   1      -1.974   2.173  -0.852  0.00  0.00     0.298 HD
ENDROOT
TORSDOF 0
ENDMDL
