MODEL 1
REMARK minimizedAffinity -4.31921101
REMARK minimizedRMSD -1
REMARK  0 active torsions:
REMARK  status: ('A' for Active; 'I' for Inactive)
ROOT
ATOM      1  N1  IND d   1      -0.986   1.443  -0.258  0.00  0.00    -0.196 N 
ATOM      2  C2  IND d   1      -2.173   0.881  -0.637  0.00  0.00     0.054 A 
ATOM      3  C3  IND d   1      -2.034  -0.455  -0.786  0.00  0.00    -0.031 A 
ATOM      4  C4  IND d   1       0.023  -1.943  -0.361  0.00  0.00     0.051 A 
ATOM      5  C5  IND d   1       1.350  -1.881  -0.038  0.00  0.00    -0.031 A 
ATOM      6  C6  IND d   1       1.977  -0.683   0.236  0.00  0.00     0.015 A 
ATOM      7  C7  IND d   1       1.296   0.501   0.209  0.00  0.00    -0.016 A 
ATOM      8  C8  IND d   1      -0.049   0.442  -0.126  0.00  0.00    -0.047 A 
ATOM      9  C9  IND d   1      -0.682  -0.766  -0.447  0.00  0.00    -0.096 A 
ATOM     10  HN1 IND d   1      -0.848   2.281  -0.125  0.00  0.00     0.298 HD
ENDROOT
TORSDOF 0
ENDMDL
