MODEL 1
REMARK minimizedAffinity -4.0251832
REMARK minimizedRMSD -1
REMARK  0 active torsions:
REMARK  status: ('A' for Active; 'I' for Inactive)
ROOT
ATOM      1  N1  IND d   1      -0.071   1.019   0.149  0.00  0.00    -0.196 N 
ATOM      2  C2  IND d   1      -0.715   0.203  -0.739  0.00  0.00     0.054 A 
ATOM      3  C3  IND d   1       0.065  -0.855  -1.056  0.00  0.00    -0.031 A 
ATOM      4  C4  IND d   1       2.389  -1.501  -0.157  0.00  0.00     0.051 A 
ATOM      5  C5  IND d   1       3.398  -1.047   0.645  0.00  0.00    -0.031 A 
ATOM      6  C6  IND d   1       3.299   0.141   1.339  0.00  0.00     0.015 A 
ATOM      7  C7  IND d   1       2.178   0.918   1.265  0.00  0.00    -0.016 A 
ATOM      8  C8  IND d   1       1.154   0.464   0.446  0.00  0.00    -0.047 A 
ATOM      9  C9  IND d   1       1.266  -0.720  -0.294  0.00  0.00    -0.096 A 
ATOM     10  HN1 IND d   1      -0.380   1.756   0.468  0.00  0.00     0.298 HD
ENDROOT
TORSDOF 0
ENDMDL
