MODEL 1
REMARK minimizedAffinity -3.01467061
REMARK minimizedRMSD -1
REMARK  0 active torsions:
REMARK  status: ('A' for Active; 'I' for Inactive)
ROOT
ATOM      1  N1  IND d   1       0.279   1.155   0.951  0.00  0.00    -0.196 N 
ATOM      2  C2  IND d   1      -1.003   1.440   0.573  0.00  0.00     0.054 A 
ATOM      3  C3  IND d   1      -1.455   0.511  -0.299  0.00  0.00    -0.031 A 
ATOM      4  C4  IND d   1      -0.297  -1.619  -1.164  0.00  0.00     0.051 A 
ATOM      5  C5  IND d   1       0.895  -2.287  -1.129  0.00  0.00    -0.031 A 
ATOM      6  C6  IND d   1       1.963  -1.834  -0.382  0.00  0.00     0.015 A 
ATOM      7  C7  IND d   1       1.875  -0.697   0.371  0.00  0.00    -0.016 A 
ATOM      8  C8  IND d   1       0.669  -0.013   0.332  0.00  0.00    -0.047 A 
ATOM      9  C9  IND d   1      -0.405  -0.445  -0.458  0.00  0.00    -0.096 A 
ATOM     10  HN1 IND d   1       0.761   1.625   1.486  0.00  0.00     0.298 HD
ENDROOT
TORSDOF 0
ENDMDL
