MODEL 1
REMARK minimizedAffinity -1.23947251
REMARK minimizedRMSD -1
REMARK  1 active torsions:
REMARK  status: ('A' for Active; 'I' for Inactive)
REMARK    1  A    between atoms: N_2  and  C1_3 
ROOT
ATOM      1  C1  UNL d   1      -0.676   3.602   0.941  0.00  0.00     0.143 A 
ATOM      2  C2  UNL d   1      -1.781   4.442   0.767  0.00  0.00    -0.057 A 
ATOM      3  C3  UNL d   1      -2.742   4.596   1.773  0.00  0.00     0.033 A 
ATOM      4  C4  UNL d   1      -2.630   3.887   2.965  0.00  0.00    -0.042 A 
ATOM      5  C5  UNL d   1      -1.553   3.028   3.150  0.00  0.00     0.033 A 
ATOM      6  C6  UNL d   1      -0.593   2.884   2.144  0.00  0.00    -0.057 A 
ENDROOT
BRANCH   1   7
ATOM      7  N   UNL d   1       0.260   3.332  -0.059  0.00  0.00    -0.732 N 
ATOM      8  C   UNL d   1       1.099   4.386  -0.589  0.00  0.00     0.284 C 
ATOM      9  H3  UNL d   1       0.746   2.450   0.091  0.00  0.00     0.395 HD
ENDBRANCH   1   7
TORSDOF 1
ENDMDL
