MODEL 1
REMARK minimizedAffinity 0.0736499652
REMARK minimizedRMSD -1
REMARK  1 active torsions:
REMARK  status: ('A' for Active; 'I' for Inactive)
REMARK    1  A    between atoms: N_2  and  C1_3 
ROOT
ATOM      1  C1  UNL d   1      -5.262   3.980  -3.463  0.00  0.00     0.143 A 
ATOM      2  C2  UNL d   1      -4.070   4.696  -3.610  0.00  0.00    -0.057 A 
ATOM      3  C3  UNL d   1      -3.652   5.162  -4.862  0.00  0.00     0.033 A 
ATOM      4  C4  UNL d   1      -4.409   4.894  -5.998  0.00  0.00    -0.042 A 
ATOM      5  C5  UNL d   1      -5.585   4.162  -5.880  0.00  0.00     0.033 A 
ATOM      6  C6  UNL d   1      -6.000   3.705  -4.625  0.00  0.00    -0.057 A 
ENDROOT
BRANCH   1   7
ATOM      7  N   UNL d   1      -5.681   3.405  -2.260  0.00  0.00    -0.732 N 
ATOM      8  C   UNL d   1      -5.929   1.982  -2.170  0.00  0.00     0.284 C 
ATOM      9  H3  UNL d   1      -5.198   3.795  -1.454  0.00  0.00     0.395 HD
ENDBRANCH   1   7
TORSDOF 1
ENDMDL
