MODEL 1
REMARK minimizedAffinity -2.50716996
REMARK minimizedRMSD -1
REMARK  1 active torsions:
REMARK  status: ('A' for Active; 'I' for Inactive)
REMARK    1  A    between atoms: N_2  and  C1_3 
ROOT
ATOM      1  C1  UNL d   1      -5.532   3.833  -3.359  0.00  0.00     0.143 A 
ATOM      2  C2  UNL d   1      -6.000   4.835  -4.216  0.00  0.00    -0.057 A 
ATOM      3  C3  UNL d   1      -5.487   4.979  -5.511  0.00  0.00     0.033 A 
ATOM      4  C4  UNL d   1      -4.474   4.140  -5.962  0.00  0.00    -0.042 A 
ATOM      5  C5  UNL d   1      -3.976   3.153  -5.118  0.00  0.00     0.033 A 
ATOM      6  C6  UNL d   1      -4.497   3.010  -3.829  0.00  0.00    -0.057 A 
ENDROOT
BRANCH   1   7
ATOM      7  N   UNL d   1      -5.932   3.701  -2.027  0.00  0.00    -0.732 N 
ATOM      8  C   UNL d   1      -5.999   2.396  -1.403  0.00  0.00     0.284 C 
ATOM      9  H3  UNL d   1      -5.541   4.427  -1.430  0.00  0.00     0.395 HD
ENDBRANCH   1   7
TORSDOF 1
ENDMDL
