MODEL 1
REMARK minimizedAffinity -1.87796104
REMARK minimizedRMSD -1
REMARK  1 active torsions:
REMARK  status: ('A' for Active; 'I' for Inactive)
REMARK    1  A    between atoms: N_2  and  C1_3 
ROOT
ATOM      1  C1  UNL d   1      -5.834   3.846  -3.338  0.00  0.00     0.143 A 
ATOM      2  C2  UNL d   1      -5.653   5.204  -3.621  0.00  0.00    -0.057 A 
ATOM      3  C3  UNL d   1      -5.671   5.681  -4.937  0.00  0.00     0.033 A 
ATOM      4  C4  UNL d   1      -5.842   4.800  -6.000  0.00  0.00    -0.042 A 
ATOM      5  C5  UNL d   1      -6.000   3.443  -5.744  0.00  0.00     0.033 A 
ATOM      6  C6  UNL d   1      -5.988   2.974  -4.427  0.00  0.00    -0.057 A 
ENDROOT
BRANCH   1   7
ATOM      7  N   UNL d   1      -5.729   3.297  -2.058  0.00  0.00    -0.732 N 
ATOM      8  C   UNL d   1      -5.852   1.869  -1.856  0.00  0.00     0.284 C 
ATOM      9  H3  UNL d   1      -4.991   3.732  -1.509  0.00  0.00     0.395 HD
ENDBRANCH   1   7
TORSDOF 1
ENDMDL
