MODEL 1
REMARK minimizedAffinity 1.65229964
REMARK minimizedRMSD -1
REMARK  1 active torsions:
REMARK  status: ('A' for Active; 'I' for Inactive)
REMARK    1  A    between atoms: N_2  and  C1_3 
ROOT
ATOM      1  C1  UNL d   1      -5.649   4.195  -3.535  0.00  0.00     0.143 A 
ATOM      2  C2  UNL d   1      -5.593   2.800  -3.456  0.00  0.00    -0.057 A 
ATOM      3  C3  UNL d   1      -5.727   2.136  -2.230  0.00  0.00     0.033 A 
ATOM      4  C4  UNL d   1      -5.890   2.861  -1.054  0.00  0.00    -0.042 A 
ATOM      5  C5  UNL d   1      -5.923   4.250  -1.106  0.00  0.00     0.033 A 
ATOM      6  C6  UNL d   1      -5.796   4.906  -2.334  0.00  0.00    -0.057 A 
ENDROOT
BRANCH   1   7
ATOM      7  N   UNL d   1      -5.424   4.917  -4.710  0.00  0.00    -0.732 N 
ATOM      8  C   UNL d   1      -5.462   4.259  -5.998  0.00  0.00     0.284 C 
ATOM      9  H3  UNL d   1      -5.873   5.830  -4.696  0.00  0.00     0.395 HD
ENDBRANCH   1   7
TORSDOF 1
ENDMDL
