MODEL 1
REMARK minimizedAffinity -4.54031944
REMARK minimizedRMSD -1
REMARK  1 active torsions:
REMARK  status: ('A' for Active; 'I' for Inactive)
REMARK    1  A    between atoms: N_2  and  C1_3 
ROOT
ATOM      1  C1  UNL d   1      -5.352   2.206  -4.487  0.00  0.00     0.143 A 
ATOM      2  C2  UNL d   1      -6.000   1.020  -4.847  0.00  0.00    -0.057 A 
ATOM      3  C3  UNL d   1      -5.325   0.004  -5.536  0.00  0.00     0.033 A 
ATOM      4  C4  UNL d   1      -3.994   0.170  -5.904  0.00  0.00    -0.042 A 
ATOM      5  C5  UNL d   1      -3.337   1.352  -5.578  0.00  0.00     0.033 A 
ATOM      6  C6  UNL d   1      -4.014   2.359  -4.884  0.00  0.00    -0.057 A 
ENDROOT
BRANCH   1   7
ATOM      7  N   UNL d   1      -5.994   3.293  -3.888  0.00  0.00    -0.732 N 
ATOM      8  C   UNL d   1      -5.530   4.643  -4.122  0.00  0.00     0.284 C 
ATOM      9  H3  UNL d   1      -7.007   3.195  -3.891  0.00  0.00     0.395 HD
ENDBRANCH   1   7
TORSDOF 1
ENDMDL
