MODEL 1
REMARK minimizedAffinity -3.72702789
REMARK minimizedRMSD -1
REMARK  1 active torsions:
REMARK  status: ('A' for Active; 'I' for Inactive)
REMARK    1  A    between atoms: N_2  and  C1_3 
ROOT
ATOM      1  C1  UNL d   1      -4.819   3.535  -5.024  0.00  0.00     0.143 A 
ATOM      2  C2  UNL d   1      -5.923   2.939  -4.404  0.00  0.00    -0.057 A 
ATOM      3  C3  UNL d   1      -5.946   1.566  -4.128  0.00  0.00     0.033 A 
ATOM      4  C4  UNL d   1      -4.874   0.759  -4.493  0.00  0.00    -0.042 A 
ATOM      5  C5  UNL d   1      -3.778   1.326  -5.133  0.00  0.00     0.033 A 
ATOM      6  C6  UNL d   1      -3.757   2.698  -5.400  0.00  0.00    -0.057 A 
ENDROOT
BRANCH   1   7
ATOM      7  N   UNL d   1      -4.777   4.876  -5.414  0.00  0.00    -0.732 N 
ATOM      8  C   UNL d   1      -6.000   5.622  -5.622  0.00  0.00     0.284 C 
ATOM      9  H3  UNL d   1      -4.049   5.398  -4.932  0.00  0.00     0.395 HD
ENDBRANCH   1   7
TORSDOF 1
ENDMDL
