MODEL 1
REMARK minimizedAffinity -2.18636823
REMARK minimizedRMSD -1
REMARK  1 active torsions:
REMARK  status: ('A' for Active; 'I' for Inactive)
REMARK    1  A    between atoms: N_2  and  C1_3 
ROOT
ATOM      1  C1  UNL d   1      -4.963   2.547  -4.152  0.00  0.00     0.143 A 
ATOM      2  C2  UNL d   1      -3.832   3.371  -4.166  0.00  0.00    -0.057 A 
ATOM      3  C3  UNL d   1      -2.778   3.141  -5.057  0.00  0.00     0.033 A 
ATOM      4  C4  UNL d   1      -2.823   2.063  -5.935  0.00  0.00    -0.042 A 
ATOM      5  C5  UNL d   1      -3.926   1.216  -5.922  0.00  0.00     0.033 A 
ATOM      6  C6  UNL d   1      -4.979   1.455  -5.033  0.00  0.00    -0.057 A 
ENDROOT
BRANCH   1   7
ATOM      7  N   UNL d   1      -6.000   2.665  -3.223  0.00  0.00    -0.732 N 
ATOM      8  C   UNL d   1      -5.988   1.886  -2.003  0.00  0.00     0.284 C 
ATOM      9  H3  UNL d   1      -6.302   3.628  -3.098  0.00  0.00     0.395 HD
ENDBRANCH   1   7
TORSDOF 1
ENDMDL
