MODEL 1
REMARK minimizedAffinity 8.61913109
REMARK minimizedRMSD -1
REMARK  2 active torsions:
REMARK  status: ('A' for Active; 'I' for Inactive)
REMARK    1  A    between atoms: C1_2  and  C2_3 
REMARK    2  A    between atoms: C2_3  and  C3_4 
ROOT
ATOM      1  C3  UNL d   1       1.339   0.040   1.295  0.00  0.00    -0.075 A 
ATOM      2  C4  UNL d   1       1.151   1.083   0.377  0.00  0.00     0.002 A 
ATOM      3  C5  UNL d   1       1.929   1.159  -0.779  0.00  0.00     0.002 A 
ATOM      4  C6  UNL d   1       2.910   0.201  -1.026  0.00  0.00    -0.004 A 
ATOM      5  C7  UNL d   1       3.117  -0.831  -0.112  0.00  0.00     0.002 A 
ATOM      6  C8  UNL d   1       2.337  -0.911   1.042  0.00  0.00     0.002 A 
ENDROOT
BRANCH   1   7
ATOM      7  C2  UNL d   1       0.480  -0.065   2.533  0.00  0.00     0.056 C 
BRANCH   7   8
ATOM      8  C1  UNL d   1      -1.024  -0.117   2.246  0.00  0.00     0.007 C 
ATOM      9  C   UNL d   1      -1.740   1.192   2.552  0.00  0.00     0.009 C 
ENDBRANCH   7   8
ENDBRANCH   1   7
TORSDOF 2
ENDMDL
