MODEL 1
REMARK minimizedAffinity 3.50029397
REMARK minimizedRMSD -1
REMARK  2 active torsions:
REMARK  status: ('A' for Active; 'I' for Inactive)
REMARK    1  A    between atoms: C1_2  and  C2_3 
REMARK    2  A    between atoms: C2_3  and  C3_4 
ROOT
ATOM      1  C3  UNL d   1       1.865  -0.113   0.911  0.00  0.00    -0.075 A 
ATOM      2  C4  UNL d   1       2.954  -0.631   1.627  0.00  0.00     0.002 A 
ATOM      3  C5  UNL d   1       2.924  -0.684   3.021  0.00  0.00     0.002 A 
ATOM      4  C6  UNL d   1       1.812  -0.213   3.715  0.00  0.00    -0.004 A 
ATOM      5  C7  UNL d   1       0.732   0.319   3.014  0.00  0.00     0.002 A 
ATOM      6  C8  UNL d   1       0.757   0.370   1.620  0.00  0.00     0.002 A 
ENDROOT
BRANCH   1   7
ATOM      7  C2  UNL d   1       1.880  -0.079  -0.599  0.00  0.00     0.056 C 
BRANCH   7   8
ATOM      8  C1  UNL d   1       2.903   0.895  -1.191  0.00  0.00     0.007 C 
ATOM      9  C   UNL d   1       2.515   2.357  -1.011  0.00  0.00     0.009 C 
ENDBRANCH   7   8
ENDBRANCH   1   7
TORSDOF 2
ENDMDL
