MODEL 1
REMARK minimizedAffinity 6.32053328
REMARK minimizedRMSD -1
REMARK  2 active torsions:
REMARK  status: ('A' for Active; 'I' for Inactive)
REMARK    1  A    between atoms: C1_2  and  C2_3 
REMARK    2  A    between atoms: C2_3  and  C3_4 
ROOT
ATOM      1  C3  UNL d   1       1.135  -1.468   4.105  0.00  0.00    -0.075 A 
ATOM      2  C4  UNL d   1       1.945  -0.364   3.802  0.00  0.00     0.002 A 
ATOM      3  C5  UNL d   1       1.419   0.734   3.121  0.00  0.00     0.002 A 
ATOM      4  C6  UNL d   1       0.083   0.738   2.726  0.00  0.00    -0.004 A 
ATOM      5  C7  UNL d   1      -0.726  -0.360   3.008  0.00  0.00     0.002 A 
ATOM      6  C8  UNL d   1      -0.204  -1.458   3.693  0.00  0.00     0.002 A 
ENDROOT
BRANCH   1   7
ATOM      7  C2  UNL d   1       1.691  -2.647   4.868  0.00  0.00     0.056 C 
BRANCH   7   8
ATOM      8  C1  UNL d   1       3.100  -2.421   5.427  0.00  0.00     0.007 C 
ATOM      9  C   UNL d   1       3.729  -3.684   5.998  0.00  0.00     0.009 C 
ENDBRANCH   7   8
ENDBRANCH   1   7
TORSDOF 2
ENDMDL
