MODEL 1
REMARK minimizedAffinity 11.456439
REMARK minimizedRMSD -1
REMARK  2 active torsions:
REMARK  status: ('A' for Active; 'I' for Inactive)
REMARK    1  A    between atoms: C1_2  and  C2_3 
REMARK    2  A    between atoms: C2_3  and  C3_4 
ROOT
ATOM      1  C3  UNL d   1      -1.309  -5.034  -2.940  0.00  0.00    -0.075 A 
ATOM      2  C4  UNL d   1      -2.165  -4.935  -4.047  0.00  0.00     0.002 A 
ATOM      3  C5  UNL d   1      -1.706  -5.241  -5.328  0.00  0.00     0.002 A 
ATOM      4  C6  UNL d   1      -0.385  -5.640  -5.521  0.00  0.00    -0.004 A 
ATOM      5  C7  UNL d   1       0.479  -5.727  -4.431  0.00  0.00     0.002 A 
ATOM      6  C8  UNL d   1       0.021  -5.425  -3.147  0.00  0.00     0.002 A 
ENDROOT
BRANCH   1   7
ATOM      7  C2  UNL d   1      -1.808  -4.732  -1.548  0.00  0.00     0.056 C 
BRANCH   7   8
ATOM      8  C1  UNL d   1      -1.486  -3.315  -1.063  0.00  0.00     0.007 C 
ATOM      9  C   UNL d   1      -2.441  -2.817   0.014  0.00  0.00     0.009 C 
ENDBRANCH   7   8
ENDBRANCH   1   7
TORSDOF 2
ENDMDL
