MODEL 1
REMARK minimizedAffinity 10.5610714
REMARK minimizedRMSD -1
REMARK  2 active torsions:
REMARK  status: ('A' for Active; 'I' for Inactive)
REMARK    1  A    between atoms: C1_2  and  C2_3 
REMARK    2  A    between atoms: C2_3  and  C3_4 
ROOT
ATOM      1  C3  UNL d   1       1.137   0.950   0.868  0.00  0.00    -0.075 A 
ATOM      2  C4  UNL d   1       1.130   2.316   0.549  0.00  0.00     0.002 A 
ATOM      3  C5  UNL d   1       1.522   2.749  -0.718  0.00  0.00     0.002 A 
ATOM      4  C6  UNL d   1       1.935   1.826  -1.676  0.00  0.00    -0.004 A 
ATOM      5  C7  UNL d   1       1.961   0.468  -1.365  0.00  0.00     0.002 A 
ATOM      6  C8  UNL d   1       1.566   0.032  -0.099  0.00  0.00     0.002 A 
ENDROOT
BRANCH   1   7
ATOM      7  C2  UNL d   1       0.686   0.472   2.228  0.00  0.00     0.056 C 
BRANCH   7   8
ATOM      8  C1  UNL d   1      -0.455   1.297   2.832  0.00  0.00     0.007 C 
ATOM      9  C   UNL d   1      -1.829   0.684   2.595  0.00  0.00     0.009 C 
ENDBRANCH   7   8
ENDBRANCH   1   7
TORSDOF 2
ENDMDL
