MODEL 1
REMARK minimizedAffinity -0.42678082
REMARK minimizedRMSD -1
REMARK  0 active torsions:
REMARK  status: ('A' for Active; 'I' for Inactive)
ROOT
ATOM      1  C4' PXY d   1       0.466  -0.039  -2.538  0.00  0.00     0.077 C 
ATOM      2  C1' PXY d   1      -1.219  -1.450   2.809  0.00  0.00     0.077 C 
ATOM      3  C1  PXY d   1      -0.765  -1.086   1.409  0.00  0.00    -0.082 A 
ATOM      4  C2  PXY d   1      -1.311  -0.050   0.793  0.00  0.00     0.003 A 
ATOM      5  C3  PXY d   1      -0.936   0.274  -0.485  0.00  0.00     0.003 A 
ATOM      6  C4  PXY d   1       0.046  -0.438  -1.120  0.00  0.00    -0.082 A 
ATOM      7  C5  PXY d   1       0.615  -1.490  -0.495  0.00  0.00     0.003 A 
ATOM      8  C6  PXY d   1       0.191  -1.827   0.787  0.00  0.00     0.003 A 
ENDROOT
TORSDOF 0
ENDMDL
