MODEL 1
REMARK minimizedAffinity -1.45351875
REMARK minimizedRMSD -1
REMARK  0 active torsions:
REMARK  status: ('A' for Active; 'I' for Inactive)
ROOT
ATOM      1  C4' PXY d   1       0.776   2.782   0.202  0.00  0.00     0.077 C 
ATOM      2  C1' PXY d   1      -1.331  -2.595  -0.056  0.00  0.00     0.077 C 
ATOM      3  C1  PXY d   1      -0.771  -1.187   0.001  0.00  0.00    -0.082 A 
ATOM      4  C2  PXY d   1      -0.780  -0.526   1.147  0.00  0.00     0.003 A 
ATOM      5  C3  PXY d   1      -0.307   0.759   1.210  0.00  0.00     0.003 A 
ATOM      6  C4  PXY d   1       0.229   1.355   0.099  0.00  0.00    -0.082 A 
ATOM      7  C5  PXY d   1       0.251   0.683  -1.071  0.00  0.00     0.003 A 
ATOM      8  C6  PXY d   1      -0.271  -0.606  -1.123  0.00  0.00     0.003 A 
ENDROOT
TORSDOF 0
ENDMDL
