MODEL 1
REMARK minimizedAffinity -1.60110533
REMARK minimizedRMSD -1
REMARK  0 active torsions:
REMARK  status: ('A' for Active; 'I' for Inactive)
ROOT
ATOM      1  C4' PXY d   1      -0.515  -2.033  -0.138  0.00  0.00     0.077 C 
ATOM      2  C1' PXY d   1       1.237   3.463   0.240  0.00  0.00     0.077 C 
ATOM      3  C1  PXY d   1       0.767   2.025   0.134  0.00  0.00    -0.082 A 
ATOM      4  C2  PXY d   1       1.194   1.131   1.011  0.00  0.00     0.003 A 
ATOM      5  C3  PXY d   1       0.804  -0.179   0.911  0.00  0.00     0.003 A 
ATOM      6  C4  PXY d   1      -0.074  -0.568  -0.064  0.00  0.00    -0.082 A 
ATOM      7  C5  PXY d   1      -0.523   0.340  -0.956  0.00  0.00     0.003 A 
ATOM      8  C6  PXY d   1      -0.082   1.657  -0.863  0.00  0.00     0.003 A 
ENDROOT
TORSDOF 0
ENDMDL
