MODEL 1
REMARK minimizedAffinity -4.47493744
REMARK minimizedRMSD -1
REMARK  0 active torsions:
REMARK  status: ('A' for Active; 'I' for Inactive)
ROOT
ATOM      1  C4' PXY d   1       0.490  -0.961  -2.124  0.00  0.00     0.077 C 
ATOM      2  C1' PXY d   1      -1.508  -0.744   3.296  0.00  0.00     0.077 C 
ATOM      3  C1  PXY d   1      -0.989  -0.789   1.872  0.00  0.00    -0.082 A 
ATOM      4  C2  PXY d   1      -0.717  -1.957   1.312  0.00  0.00     0.003 A 
ATOM      5  C3  PXY d   1      -0.217  -2.014   0.037  0.00  0.00     0.003 A 
ATOM      6  C4  PXY d   1      -0.044  -0.868  -0.692  0.00  0.00    -0.082 A 
ATOM      7  C5  PXY d   1      -0.330   0.326  -0.131  0.00  0.00     0.003 A 
ATOM      8  C6  PXY d   1      -0.798   0.366   1.179  0.00  0.00     0.003 A 
ENDROOT
TORSDOF 0
ENDMDL
