MODEL 1
REMARK minimizedAffinity -2.68886638
REMARK minimizedRMSD -1
REMARK  0 active torsions:
REMARK  status: ('A' for Active; 'I' for Inactive)
ROOT
ATOM      1  C4' PXY d   1      -1.207  -2.252   0.885  0.00  0.00     0.077 C 
ATOM      2  C1' PXY d   1       1.282   2.902   0.072  0.00  0.00     0.077 C 
ATOM      3  C1  PXY d   1       0.628   1.553   0.298  0.00  0.00    -0.082 A 
ATOM      4  C2  PXY d   1       0.849   0.568  -0.557  0.00  0.00     0.003 A 
ATOM      5  C3  PXY d   1       0.240  -0.649  -0.386  0.00  0.00     0.003 A 
ATOM      6  C4  PXY d   1      -0.560  -0.876   0.702  0.00  0.00    -0.082 A 
ATOM      7  C5  PXY d   1      -0.782   0.121   1.585  0.00  0.00     0.003 A 
ATOM      8  C6  PXY d   1      -0.187   1.361   1.370  0.00  0.00     0.003 A 
ENDROOT
TORSDOF 0
ENDMDL
