MODEL 1
REMARK minimizedAffinity -1.71023774
REMARK minimizedRMSD -1
REMARK  0 active torsions:
REMARK  status: ('A' for Active; 'I' for Inactive)
ROOT
ATOM      1  C4' PXY d   1       1.153   2.350   0.434  0.00  0.00     0.077 C 
ATOM      2  C1' PXY d   1      -1.443  -2.811   0.258  0.00  0.00     0.077 C 
ATOM      3  C1  PXY d   1      -0.758  -1.459   0.292  0.00  0.00    -0.082 A 
ATOM      4  C2  PXY d   1      -0.416  -0.929   1.455  0.00  0.00     0.003 A 
ATOM      5  C3  PXY d   1       0.176   0.307   1.506  0.00  0.00     0.003 A 
ATOM      6  C4  PXY d   1       0.468   0.984   0.351  0.00  0.00    -0.082 A 
ATOM      7  C5  PXY d   1       0.132   0.444  -0.839  0.00  0.00     0.003 A 
ATOM      8  C6  PXY d   1      -0.505  -0.793  -0.867  0.00  0.00     0.003 A 
ENDROOT
TORSDOF 0
ENDMDL
