MODEL 1
REMARK minimizedAffinity -0.418621182
REMARK minimizedRMSD -1
REMARK  0 active torsions:
REMARK  status: ('A' for Active; 'I' for Inactive)
ROOT
ATOM      1  C4' PXY d   1       0.153   2.601   1.013  0.00  0.00     0.077 C 
ATOM      2  C1' PXY d   1      -1.352  -2.946   0.392  0.00  0.00     0.077 C 
ATOM      3  C1  PXY d   1      -0.947  -1.493   0.548  0.00  0.00    -0.082 A 
ATOM      4  C2  PXY d   1      -1.370  -0.804   1.595  0.00  0.00     0.003 A 
ATOM      5  C3  PXY d   1      -1.040   0.519   1.735  0.00  0.00     0.003 A 
ATOM      6  C4  PXY d   1      -0.223   1.129   0.820  0.00  0.00    -0.082 A 
ATOM      7  C5  PXY d   1       0.222   0.430  -0.245  0.00  0.00     0.003 A 
ATOM      8  C6  PXY d   1      -0.159  -0.901  -0.390  0.00  0.00     0.003 A 
ENDROOT
TORSDOF 0
ENDMDL
