MODEL 1
REMARK minimizedAffinity 1.3799721
REMARK minimizedRMSD -1
REMARK  0 active torsions:
REMARK  status: ('A' for Active; 'I' for Inactive)
ROOT
ATOM      1  C4' PXY d   1      -2.182   0.359   1.408  0.00  0.00     0.077 C 
ATOM      2  C1' PXY d   1       1.192  -1.026  -3.077  0.00  0.00     0.077 C 
ATOM      3  C1  PXY d   1       0.303  -0.675  -1.901  0.00  0.00    -0.082 A 
ATOM      4  C2  PXY d   1      -0.031   0.587  -1.687  0.00  0.00     0.003 A 
ATOM      5  C3  PXY d   1      -0.808   0.926  -0.609  0.00  0.00     0.003 A 
ATOM      6  C4  PXY d   1      -1.293  -0.043   0.227  0.00  0.00    -0.082 A 
ATOM      7  C5  PXY d   1      -0.966  -1.334   0.010  0.00  0.00     0.003 A 
ATOM      8  C6  PXY d   1      -0.142  -1.653  -1.066  0.00  0.00     0.003 A 
ENDROOT
TORSDOF 0
ENDMDL
