MODEL 1
REMARK minimizedAffinity -1.59246206
REMARK minimizedRMSD -1
REMARK  0 active torsions:
REMARK  status: ('A' for Active; 'I' for Inactive)
ROOT
ATOM      1  C4' PXY d   1       0.941  -0.336  -3.752  0.00  0.00     0.077 C 
ATOM      2  C1' PXY d   1      -1.070  -0.237   1.667  0.00  0.00     0.077 C 
ATOM      3  C1  PXY d   1      -0.546  -0.250   0.244  0.00  0.00    -0.082 A 
ATOM      4  C2  PXY d   1      -0.460  -1.397  -0.410  0.00  0.00     0.003 A 
ATOM      5  C3  PXY d   1       0.042  -1.432  -1.686  0.00  0.00     0.003 A 
ATOM      6  C4  PXY d   1       0.409  -0.274  -2.317  0.00  0.00    -0.082 A 
ATOM      7  C5  PXY d   1       0.314   0.902  -1.660  0.00  0.00     0.003 A 
ATOM      8  C6  PXY d   1      -0.158   0.910  -0.351  0.00  0.00     0.003 A 
ENDROOT
TORSDOF 0
ENDMDL
