MODEL 1
REMARK minimizedAffinity -4.4385066
REMARK minimizedRMSD -1
REMARK  0 active torsions:
REMARK  status: ('A' for Active; 'I' for Inactive)
ROOT
ATOM      1  C4' PXY d   1      -1.554   0.204   1.823  0.00  0.00     0.077 C 
ATOM      2  C1' PXY d   1       0.835  -3.410  -2.005  0.00  0.00     0.077 C 
ATOM      3  C1  PXY d   1       0.216  -2.452  -1.006  0.00  0.00    -0.082 A 
ATOM      4  C2  PXY d   1      -0.323  -2.926   0.106  0.00  0.00     0.003 A 
ATOM      5  C3  PXY d   1      -0.915  -2.077   1.006  0.00  0.00     0.003 A 
ATOM      6  C4  PXY d   1      -0.909  -0.725   0.790  0.00  0.00    -0.082 A 
ATOM      7  C5  PXY d   1      -0.352  -0.233  -0.337  0.00  0.00     0.003 A 
ATOM      8  C6  PXY d   1       0.208  -1.115  -1.257  0.00  0.00     0.003 A 
ENDROOT
TORSDOF 0
ENDMDL
