MODEL 1
REMARK minimizedAffinity -5.67832279
REMARK minimizedRMSD -1
REMARK  0 active torsions:
REMARK  status: ('A' for Active; 'I' for Inactive)
ROOT
ATOM      1  C4' PXY d   1      -0.132   1.654  -0.183  0.00  0.00     0.077 C 
ATOM      2  C1' PXY d   1       0.543  -4.076   0.167  0.00  0.00     0.077 C 
ATOM      3  C1  PXY d   1       0.353  -2.575   0.077  0.00  0.00    -0.082 A 
ATOM      4  C2  PXY d   1       1.274  -1.834  -0.518  0.00  0.00     0.003 A 
ATOM      5  C3  PXY d   1       1.134  -0.471  -0.580  0.00  0.00     0.003 A 
ATOM      6  C4  PXY d   1       0.014   0.134  -0.077  0.00  0.00    -0.082 A 
ATOM      7  C5  PXY d   1      -0.936  -0.616   0.522  0.00  0.00     0.003 A 
ATOM      8  C6  PXY d   1      -0.755  -1.994   0.612  0.00  0.00     0.003 A 
ENDROOT
TORSDOF 0
ENDMDL
