MODEL 1
REMARK minimizedAffinity -0.964752555
REMARK minimizedRMSD -1
REMARK  0 active torsions:
REMARK  status: ('A' for Active; 'I' for Inactive)
ROOT
ATOM      1  C4' PXY d   1       0.427   2.691  -0.291  0.00  0.00     0.077 C 
ATOM      2  C1' PXY d   1      -1.154  -2.831   0.356  0.00  0.00     0.077 C 
ATOM      3  C1  PXY d   1      -0.729  -1.386   0.180  0.00  0.00    -0.082 A 
ATOM      4  C2  PXY d   1      -1.193  -0.463   1.006  0.00  0.00     0.003 A 
ATOM      5  C3  PXY d   1      -0.844   0.853   0.842  0.00  0.00     0.003 A 
ATOM      6  C4  PXY d   1       0.032   1.219  -0.146  0.00  0.00    -0.082 A 
ATOM      7  C5  PXY d   1       0.518   0.281  -0.986  0.00  0.00     0.003 A 
ATOM      8  C6  PXY d   1       0.118  -1.043  -0.827  0.00  0.00     0.003 A 
ENDROOT
TORSDOF 0
ENDMDL
