MODEL 1
REMARK minimizedAffinity -5.27375317
REMARK minimizedRMSD -1
REMARK  0 active torsions:
REMARK  status: ('A' for Active; 'I' for Inactive)
ROOT
ATOM      1  C4' PXY d   1      -0.004   2.858  -0.363  0.00  0.00     0.077 C 
ATOM      2  C1' PXY d   1      -0.220  -2.876   0.333  0.00  0.00     0.077 C 
ATOM      3  C1  PXY d   1      -0.152  -1.374   0.144  0.00  0.00    -0.082 A 
ATOM      4  C2  PXY d   1      -0.809  -0.580   0.974  0.00  0.00     0.003 A 
ATOM      5  C3  PXY d   1      -0.784   0.780   0.799  0.00  0.00     0.003 A 
ATOM      6  C4  PXY d   1      -0.037   1.335  -0.205  0.00  0.00    -0.082 A 
ATOM      7  C5  PXY d   1       0.644   0.533  -1.050  0.00  0.00     0.003 A 
ATOM      8  C6  PXY d   1       0.573  -0.847  -0.880  0.00  0.00     0.003 A 
ENDROOT
TORSDOF 0
ENDMDL
