MODEL 1
REMARK minimizedAffinity -4.6145792
REMARK minimizedRMSD -1
REMARK  0 active torsions:
REMARK  status: ('A' for Active; 'I' for Inactive)
ROOT
ATOM      1  C4' PXY d   1       0.756   2.431  -0.031  0.00  0.00     0.077 C 
ATOM      2  C1' PXY d   1      -1.298  -2.962   0.306  0.00  0.00     0.077 C 
ATOM      3  C1  PXY d   1      -0.753  -1.551   0.207  0.00  0.00    -0.082 A 
ATOM      4  C2  PXY d   1      -0.654  -0.810   1.299  0.00  0.00     0.003 A 
ATOM      5  C3  PXY d   1      -0.193   0.479   1.222  0.00  0.00     0.003 A 
ATOM      6  C4  PXY d   1       0.220   0.997   0.024  0.00  0.00    -0.082 A 
ATOM      7  C5  PXY d   1       0.132   0.244  -1.093  0.00  0.00     0.003 A 
ATOM      8  C6  PXY d   1      -0.377  -1.048  -1.000  0.00  0.00     0.003 A 
ENDROOT
TORSDOF 0
ENDMDL
