MODEL 1
REMARK minimizedAffinity -2.06102729
REMARK minimizedRMSD -1
REMARK  0 active torsions:
REMARK  status: ('A' for Active; 'I' for Inactive)
ROOT
ATOM      1  C4' PXY d   1      -0.887   0.742   2.493  0.00  0.00     0.077 C 
ATOM      2  C1' PXY d   1       0.631  -1.614  -2.563  0.00  0.00     0.077 C 
ATOM      3  C1  PXY d   1       0.240  -0.986  -1.240  0.00  0.00    -0.082 A 
ATOM      4  C2  PXY d   1      -0.105  -1.760  -0.224  0.00  0.00     0.003 A 
ATOM      5  C3  PXY d   1      -0.493  -1.208   0.969  0.00  0.00     0.003 A 
ATOM      6  C4  PXY d   1      -0.475   0.150   1.142  0.00  0.00    -0.082 A 
ATOM      7  C5  PXY d   1      -0.114   0.947   0.114  0.00  0.00     0.003 A 
ATOM      8  C6  PXY d   1       0.236   0.368  -1.102  0.00  0.00     0.003 A 
ENDROOT
TORSDOF 0
ENDMDL
