MODEL 1
REMARK minimizedAffinity -2.72248363
REMARK minimizedRMSD -1
REMARK  0 active torsions:
REMARK  status: ('A' for Active; 'I' for Inactive)
ROOT
ATOM      1  C4' PXY d   1       0.292   2.257  -0.690  0.00  0.00     0.077 C 
ATOM      2  C1' PXY d   1      -0.974  -3.335   0.045  0.00  0.00     0.077 C 
ATOM      3  C1  PXY d   1      -0.633  -1.872  -0.157  0.00  0.00    -0.082 A 
ATOM      4  C2  PXY d   1      -0.875  -1.005   0.813  0.00  0.00     0.003 A 
ATOM      5  C3  PXY d   1      -0.602   0.327   0.635  0.00  0.00     0.003 A 
ATOM      6  C4  PXY d   1      -0.027   0.768  -0.527  0.00  0.00    -0.082 A 
ATOM      7  C5  PXY d   1       0.232  -0.113  -1.516  0.00  0.00     0.003 A 
ATOM      8  C6  PXY d   1      -0.090  -1.454  -1.332  0.00  0.00     0.003 A 
ENDROOT
TORSDOF 0
ENDMDL
