MODEL 1
REMARK minimizedAffinity -5.05019808
REMARK minimizedRMSD -1
REMARK  0 active torsions:
REMARK  status: ('A' for Active; 'I' for Inactive)
ROOT
ATOM      1  C4' PXY d   1       1.858   3.409   1.305  0.00  0.00     0.077 C 
ATOM      2  C1' PXY d   1       0.417  -0.298  -2.890  0.00  0.00     0.077 C 
ATOM      3  C1  PXY d   1       0.783   0.680  -1.791  0.00  0.00    -0.082 A 
ATOM      4  C2  PXY d   1       2.057   0.918  -1.525  0.00  0.00     0.003 A 
ATOM      5  C3  PXY d   1       2.406   1.776  -0.514  0.00  0.00     0.003 A 
ATOM      6  C4  PXY d   1       1.441   2.437   0.198  0.00  0.00    -0.082 A 
ATOM      7  C5  PXY d   1       0.139   2.207  -0.075  0.00  0.00     0.003 A 
ATOM      8  C6  PXY d   1      -0.194   1.302  -1.078  0.00  0.00     0.003 A 
ENDROOT
TORSDOF 0
ENDMDL
