MODEL 1
REMARK minimizedAffinity 1.99759197
REMARK minimizedRMSD -1
REMARK  0 active torsions:
REMARK  status: ('A' for Active; 'I' for Inactive)
ROOT
ATOM      1  C4' PXY d   1       0.141   3.673   0.371  0.00  0.00     0.077 C 
ATOM      2  C1' PXY d   1       0.102  -1.796  -1.503  0.00  0.00     0.077 C 
ATOM      3  C1  PXY d   1       0.101  -0.364  -1.005  0.00  0.00    -0.082 A 
ATOM      4  C2  PXY d   1       0.747   0.567  -1.689  0.00  0.00     0.003 A 
ATOM      5  C3  PXY d   1       0.783   1.861  -1.236  0.00  0.00     0.003 A 
ATOM      6  C4  PXY d   1       0.107   2.216  -0.100  0.00  0.00    -0.082 A 
ATOM      7  C5  PXY d   1      -0.563   1.274   0.598  0.00  0.00     0.003 A 
ATOM      8  C6  PXY d   1      -0.554  -0.041   0.143  0.00  0.00     0.003 A 
ENDROOT
TORSDOF 0
ENDMDL
