MODEL 1
REMARK minimizedAffinity 0.265806049
REMARK minimizedRMSD -1
REMARK  0 active torsions:
REMARK  status: ('A' for Active; 'I' for Inactive)
ROOT
ATOM      1  C4' PXY d   1      -0.530  -2.036   0.157  0.00  0.00     0.077 C 
ATOM      2  C1' PXY d   1       0.891   3.441   1.341  0.00  0.00     0.077 C 
ATOM      3  C1  PXY d   1       0.520   2.007   1.018  0.00  0.00    -0.082 A 
ATOM      4  C2  PXY d   1      -0.231   1.320   1.862  0.00  0.00     0.003 A 
ATOM      5  C3  PXY d   1      -0.549   0.012   1.601  0.00  0.00     0.003 A 
ATOM      6  C4  PXY d   1      -0.139  -0.582   0.438  0.00  0.00    -0.082 A 
ATOM      7  C5  PXY d   1       0.619   0.116  -0.434  0.00  0.00     0.003 A 
ATOM      8  C6  PXY d   1       0.965   1.430  -0.131  0.00  0.00     0.003 A 
ENDROOT
TORSDOF 0
ENDMDL
