MODEL 1
REMARK minimizedAffinity -3.92620873
REMARK minimizedRMSD -1
REMARK  0 active torsions:
REMARK  status: ('A' for Active; 'I' for Inactive)
ROOT
ATOM      1  C4' PXY d   1       0.318   2.962  -0.263  0.00  0.00     0.077 C 
ATOM      2  C1' PXY d   1      -0.432  -2.750   0.204  0.00  0.00     0.077 C 
ATOM      3  C1  PXY d   1      -0.233  -1.254   0.069  0.00  0.00    -0.082 A 
ATOM      4  C2  PXY d   1       0.098  -0.539   1.133  0.00  0.00     0.003 A 
ATOM      5  C3  PXY d   1       0.250   0.820   1.035  0.00  0.00     0.003 A 
ATOM      6  C4  PXY d   1       0.116   1.447  -0.175  0.00  0.00    -0.082 A 
ATOM      7  C5  PXY d   1      -0.211   0.723  -1.267  0.00  0.00     0.003 A 
ATOM      8  C6  PXY d   1      -0.402  -0.649  -1.138  0.00  0.00     0.003 A 
ENDROOT
TORSDOF 0
ENDMDL
