MODEL 1
REMARK minimizedAffinity -3.43109989
REMARK minimizedRMSD -1
REMARK  0 active torsions:
REMARK  status: ('A' for Active; 'I' for Inactive)
ROOT
ATOM      1  C4' PXY d   1       1.406  -0.121  -3.629  0.00  0.00     0.077 C 
ATOM      2  C1' PXY d   1      -0.001  -0.391   1.971  0.00  0.00     0.077 C 
ATOM      3  C1  PXY d   1       0.355  -0.322   0.500  0.00  0.00    -0.082 A 
ATOM      4  C2  PXY d   1       1.576  -0.648   0.106  0.00  0.00     0.003 A 
ATOM      5  C3  PXY d   1       1.924  -0.560  -1.217  0.00  0.00     0.003 A 
ATOM      6  C4  PXY d   1       0.999  -0.185  -2.154  0.00  0.00    -0.082 A 
ATOM      7  C5  PXY d   1      -0.251   0.139  -1.762  0.00  0.00     0.003 A 
ATOM      8  C6  PXY d   1      -0.574   0.082  -0.409  0.00  0.00     0.003 A 
ENDROOT
TORSDOF 0
ENDMDL
