MODEL 1
REMARK minimizedAffinity -5.19640398
REMARK minimizedRMSD -1
REMARK  0 active torsions:
REMARK  status: ('A' for Active; 'I' for Inactive)
ROOT
ATOM      1  C4' PXY d   1      -0.207  -0.414   2.648  0.00  0.00     0.077 C 
ATOM      2  C1' PXY d   1       1.077  -0.225  -2.984  0.00  0.00     0.077 C 
ATOM      3  C1  PXY d   1       0.750  -0.283  -1.505  0.00  0.00    -0.082 A 
ATOM      4  C2  PXY d   1      -0.471   0.015  -1.093  0.00  0.00     0.003 A 
ATOM      5  C3  PXY d   1      -0.776  -0.001   0.244  0.00  0.00     0.003 A 
ATOM      6  C4  PXY d   1       0.165  -0.378   1.164  0.00  0.00    -0.082 A 
ATOM      7  C5  PXY d   1       1.411  -0.694   0.750  0.00  0.00     0.003 A 
ATOM      8  C6  PXY d   1       1.711  -0.632  -0.607  0.00  0.00     0.003 A 
ENDROOT
TORSDOF 0
ENDMDL
