MODEL 1
REMARK minimizedAffinity -2.37593651
REMARK minimizedRMSD -1
REMARK  0 active torsions:
REMARK  status: ('A' for Active; 'I' for Inactive)
ROOT
ATOM      1  C4' PXY d   1      -3.444   0.467   2.229  0.00  0.00     0.077 C 
ATOM      2  C1' PXY d   1       1.951  -1.342   1.211  0.00  0.00     0.077 C 
ATOM      3  C1  PXY d   1       0.536  -0.875   1.489  0.00  0.00    -0.082 A 
ATOM      4  C2  PXY d   1      -0.212  -0.426   0.494  0.00  0.00     0.003 A 
ATOM      5  C3  PXY d   1      -1.483   0.030   0.732  0.00  0.00     0.003 A 
ATOM      6  C4  PXY d   1      -2.013  -0.023   1.994  0.00  0.00    -0.082 A 
ATOM      7  C5  PXY d   1      -1.260  -0.490   3.012  0.00  0.00     0.003 A 
ATOM      8  C6  PXY d   1       0.042  -0.910   2.756  0.00  0.00     0.003 A 
ENDROOT
TORSDOF 0
ENDMDL
