MODEL 1
REMARK minimizedAffinity -5.14417267
REMARK minimizedRMSD -1
REMARK  0 active torsions:
REMARK  status: ('A' for Active; 'I' for Inactive)
ROOT
ATOM      1  C4' PXY d   1      -0.398  -0.375   1.619  0.00  0.00     0.077 C 
ATOM      2  C1' PXY d   1       1.154  -1.500  -3.835  0.00  0.00     0.077 C 
ATOM      3  C1  PXY d   1       0.750  -1.192  -2.406  0.00  0.00    -0.082 A 
ATOM      4  C2  PXY d   1       0.768  -2.156  -1.500  0.00  0.00     0.003 A 
ATOM      5  C3  PXY d   1       0.375  -1.902  -0.211  0.00  0.00     0.003 A 
ATOM      6  C4  PXY d   1       0.011  -0.638   0.167  0.00  0.00    -0.082 A 
ATOM      7  C5  PXY d   1      -0.000   0.353  -0.750  0.00  0.00     0.003 A 
ATOM      8  C6  PXY d   1       0.363   0.066  -2.063  0.00  0.00     0.003 A 
ENDROOT
TORSDOF 0
ENDMDL
