MODEL 1
REMARK minimizedAffinity -2.02418756
REMARK minimizedRMSD -1
REMARK  0 active torsions:
REMARK  status: ('A' for Active; 'I' for Inactive)
ROOT
ATOM      1  C4' PXY d   1       0.604  -0.066  -2.677  0.00  0.00     0.077 C 
ATOM      2  C1' PXY d   1      -0.053  -0.009   3.066  0.00  0.00     0.077 C 
ATOM      3  C1  PXY d   1       0.106  -0.026   1.558  0.00  0.00    -0.082 A 
ATOM      4  C2  PXY d   1       1.280  -0.330   1.028  0.00  0.00     0.003 A 
ATOM      5  C3  PXY d   1       1.450  -0.319  -0.332  0.00  0.00     0.003 A 
ATOM      6  C4  PXY d   1       0.395  -0.046  -1.161  0.00  0.00    -0.082 A 
ATOM      7  C5  PXY d   1      -0.809   0.255  -0.628  0.00  0.00     0.003 A 
ATOM      8  C6  PXY d   1      -0.950   0.278   0.757  0.00  0.00     0.003 A 
ENDROOT
TORSDOF 0
ENDMDL
