MODEL 1
REMARK minimizedAffinity -4.4168973
REMARK minimizedRMSD -1
REMARK  0 active torsions:
REMARK  status: ('A' for Active; 'I' for Inactive)
ROOT
ATOM      1  C4' PXY d   1       0.284  -0.215   2.787  0.00  0.00     0.077 C 
ATOM      2  C1' PXY d   1       0.598  -0.823  -2.953  0.00  0.00     0.077 C 
ATOM      3  C1  PXY d   1       0.523  -0.674  -1.446  0.00  0.00    -0.082 A 
ATOM      4  C2  PXY d   1      -0.492  -0.022  -0.903  0.00  0.00     0.003 A 
ATOM      5  C3  PXY d   1      -0.558   0.149   0.456  0.00  0.00     0.003 A 
ATOM      6  C4  PXY d   1       0.396  -0.398   1.271  0.00  0.00    -0.082 A 
ATOM      7  C5  PXY d   1       1.429  -1.074   0.725  0.00  0.00     0.003 A 
ATOM      8  C6  PXY d   1       1.500  -1.202  -0.659  0.00  0.00     0.003 A 
ENDROOT
TORSDOF 0
ENDMDL
