MODEL 1
REMARK minimizedAffinity -2.26326895
REMARK minimizedRMSD -1
REMARK  0 active torsions:
REMARK  status: ('A' for Active; 'I' for Inactive)
ROOT
ATOM      1  C4' PXY d   1       0.543  -1.191  -4.051  0.00  0.00     0.077 C 
ATOM      2  C1' PXY d   1       0.170   0.058   1.581  0.00  0.00     0.077 C 
ATOM      3  C1  PXY d   1       0.258  -0.261   0.102  0.00  0.00    -0.082 A 
ATOM      4  C2  PXY d   1       0.700  -1.446  -0.287  0.00  0.00     0.003 A 
ATOM      5  C3  PXY d   1       0.817  -1.739  -1.621  0.00  0.00     0.003 A 
ATOM      6  C4  PXY d   1       0.427  -0.829  -2.567  0.00  0.00    -0.082 A 
ATOM      7  C5  PXY d   1      -0.034   0.378  -2.179  0.00  0.00     0.003 A 
ATOM      8  C6  PXY d   1      -0.106   0.672  -0.820  0.00  0.00     0.003 A 
ENDROOT
TORSDOF 0
ENDMDL
