MODEL 1
REMARK minimizedAffinity -3.09534574
REMARK minimizedRMSD -1
REMARK  0 active torsions:
REMARK  status: ('A' for Active; 'I' for Inactive)
ROOT
ATOM      1  C4' PXY d   1       0.859  -0.141  -2.883  0.00  0.00     0.077 C 
ATOM      2  C1' PXY d   1      -0.352   0.142   2.762  0.00  0.00     0.077 C 
ATOM      3  C1  PXY d   1      -0.047   0.068   1.279  0.00  0.00    -0.082 A 
ATOM      4  C2  PXY d   1       1.118  -0.410   0.874  0.00  0.00     0.003 A 
ATOM      5  C3  PXY d   1       1.423  -0.455  -0.462  0.00  0.00     0.003 A 
ATOM      6  C4  PXY d   1       0.505  -0.056  -1.396  0.00  0.00    -0.082 A 
ATOM      7  C5  PXY d   1      -0.691   0.423  -0.991  0.00  0.00     0.003 A 
ATOM      8  C6  PXY d   1      -0.965   0.499   0.372  0.00  0.00     0.003 A 
ENDROOT
TORSDOF 0
ENDMDL
