MODEL 1
REMARK minimizedAffinity -3.94992614
REMARK minimizedRMSD -1
REMARK  0 active torsions:
REMARK  status: ('A' for Active; 'I' for Inactive)
ROOT
ATOM      1  C4' PXY d   1      -0.457  -0.465   3.235  0.00  0.00     0.077 C 
ATOM      2  C1' PXY d   1       0.938   0.125  -2.344  0.00  0.00     0.077 C 
ATOM      3  C1  PXY d   1       0.559  -0.027  -0.884  0.00  0.00    -0.082 A 
ATOM      4  C2  PXY d   1       1.481   0.137   0.051  0.00  0.00     0.003 A 
ATOM      5  C3  PXY d   1       1.163  -0.028   1.375  0.00  0.00     0.003 A 
ATOM      6  C4  PXY d   1      -0.123  -0.312   1.748  0.00  0.00    -0.082 A 
ATOM      7  C5  PXY d   1      -1.071  -0.471   0.801  0.00  0.00     0.003 A 
ATOM      8  C6  PXY d   1      -0.719  -0.340  -0.539  0.00  0.00     0.003 A 
ENDROOT
TORSDOF 0
ENDMDL
