MODEL 1
REMARK minimizedAffinity -3.57907438
REMARK minimizedRMSD -1
REMARK  0 active torsions:
REMARK  status: ('A' for Active; 'I' for Inactive)
ROOT
ATOM      1  C4' PXY d   1       0.951  -0.002  -2.766  0.00  0.00     0.077 C 
ATOM      2  C1' PXY d   1      -0.087   0.208   2.917  0.00  0.00     0.077 C 
ATOM      3  C1  PXY d   1       0.173   0.148   1.425  0.00  0.00    -0.082 A 
ATOM      4  C2  PXY d   1       1.418   0.113   0.979  0.00  0.00     0.003 A 
ATOM      5  C3  PXY d   1       1.673   0.090  -0.368  0.00  0.00     0.003 A 
ATOM      6  C4  PXY d   1       0.641   0.049  -1.267  0.00  0.00    -0.082 A 
ATOM      7  C5  PXY d   1      -0.633   0.074  -0.820  0.00  0.00     0.003 A 
ATOM      8  C6  PXY d   1      -0.869   0.139   0.550  0.00  0.00     0.003 A 
ENDROOT
TORSDOF 0
ENDMDL
