MODEL 1
REMARK minimizedAffinity -2.22680759
REMARK minimizedRMSD -1
REMARK  0 active torsions:
REMARK  status: ('A' for Active; 'I' for Inactive)
ROOT
ATOM      1  C4' PXY d   1       2.003  -1.844  -4.501  0.00  0.00     0.077 C 
ATOM      2  C1' PXY d   1      -1.685   0.179  -0.536  0.00  0.00     0.077 C 
ATOM      3  C1  PXY d   1      -0.722  -0.364  -1.574  0.00  0.00    -0.082 A 
ATOM      4  C2  PXY d   1       0.390   0.300  -1.845  0.00  0.00     0.003 A 
ATOM      5  C3  PXY d   1       1.256  -0.160  -2.803  0.00  0.00     0.003 A 
ATOM      6  C4  PXY d   1       1.007  -1.339  -3.454  0.00  0.00    -0.082 A 
ATOM      7  C5  PXY d   1      -0.120  -2.027  -3.176  0.00  0.00     0.003 A 
ATOM      8  C6  PXY d   1      -1.007  -1.522  -2.229  0.00  0.00     0.003 A 
ENDROOT
TORSDOF 0
ENDMDL
