MODEL 1
REMARK minimizedAffinity -4.96406651
REMARK minimizedRMSD -1
REMARK  0 active torsions:
REMARK  status: ('A' for Active; 'I' for Inactive)
ROOT
ATOM      1  C4' PXY d   1       0.377   0.366  -2.284  0.00  0.00     0.077 C 
ATOM      2  C1' PXY d   1      -0.416  -0.279   3.406  0.00  0.00     0.077 C 
ATOM      3  C1  PXY d   1      -0.199  -0.101   1.916  0.00  0.00    -0.082 A 
ATOM      4  C2  PXY d   1      -1.180  -0.380   1.074  0.00  0.00     0.003 A 
ATOM      5  C3  PXY d   1      -0.990  -0.255  -0.278  0.00  0.00     0.003 A 
ATOM      6  C4  PXY d   1       0.199   0.210  -0.771  0.00  0.00    -0.082 A 
ATOM      7  C5  PXY d   1       1.202   0.507   0.082  0.00  0.00     0.003 A 
ATOM      8  C6  PXY d   1       1.003   0.334   1.449  0.00  0.00     0.003 A 
ENDROOT
TORSDOF 0
ENDMDL
