MODEL 1
REMARK minimizedAffinity -3.35446954
REMARK minimizedRMSD -1
REMARK  0 active torsions:
REMARK  status: ('A' for Active; 'I' for Inactive)
ROOT
ATOM      1  C4' PXY d   1       0.666  -0.787  -3.006  0.00  0.00     0.077 C 
ATOM      2  C1' PXY d   1       0.477   0.260   2.675  0.00  0.00     0.077 C 
ATOM      3  C1  PXY d   1       0.525  -0.002   1.183  0.00  0.00    -0.082 A 
ATOM      4  C2  PXY d   1       0.271  -1.216   0.724  0.00  0.00     0.003 A 
ATOM      5  C3  PXY d   1       0.340  -1.479  -0.620  0.00  0.00     0.003 A 
ATOM      6  C4  PXY d   1       0.621  -0.475  -1.508  0.00  0.00    -0.082 A 
ATOM      7  C5  PXY d   1       0.871   0.770  -1.048  0.00  0.00     0.003 A 
ATOM      8  C6  PXY d   1       0.835   1.006   0.323  0.00  0.00     0.003 A 
ENDROOT
TORSDOF 0
ENDMDL
