MODEL 1
REMARK minimizedAffinity -4.22887754
REMARK minimizedRMSD -1
REMARK  0 active torsions:
REMARK  status: ('A' for Active; 'I' for Inactive)
ROOT
ATOM      1  C4' PXY d   1       5.237   1.844  -4.350  0.00  0.00     0.077 C 
ATOM      2  C1' PXY d   1       1.042  -2.062  -3.606  0.00  0.00     0.077 C 
ATOM      3  C1  PXY d   1       2.151  -1.047  -3.800  0.00  0.00    -0.082 A 
ATOM      4  C2  PXY d   1       1.929   0.226  -3.516  0.00  0.00     0.003 A 
ATOM      5  C3  PXY d   1       2.911   1.162  -3.716  0.00  0.00     0.003 A 
ATOM      6  C4  PXY d   1       4.149   0.783  -4.161  0.00  0.00    -0.082 A 
ATOM      7  C5  PXY d   1       4.386  -0.515  -4.443  0.00  0.00     0.003 A 
ATOM      8  C6  PXY d   1       3.364  -1.444  -4.272  0.00  0.00     0.003 A 
ENDROOT
TORSDOF 0
ENDMDL
