MODEL 1
REMARK minimizedAffinity -5.33022547
REMARK minimizedRMSD -1
REMARK  0 active torsions:
REMARK  status: ('A' for Active; 'I' for Inactive)
ROOT
ATOM      1  C4' PXY d   1       0.740  -0.173  -1.548  0.00  0.00     0.077 C 
ATOM      2  C1' PXY d   1      -1.353  -0.784   3.806  0.00  0.00     0.077 C 
ATOM      3  C1  PXY d   1      -0.799  -0.612   2.405  0.00  0.00    -0.082 A 
ATOM      4  C2  PXY d   1      -1.363  -1.256   1.396  0.00  0.00     0.003 A 
ATOM      5  C3  PXY d   1      -0.855  -1.137   0.128  0.00  0.00     0.003 A 
ATOM      6  C4  PXY d   1       0.208  -0.309  -0.118  0.00  0.00    -0.082 A 
ATOM      7  C5  PXY d   1       0.782   0.359   0.905  0.00  0.00     0.003 A 
ATOM      8  C6  PXY d   1       0.277   0.192   2.191  0.00  0.00     0.003 A 
ENDROOT
TORSDOF 0
ENDMDL
