MODEL 1
REMARK minimizedAffinity -4.15470076
REMARK minimizedRMSD -1
REMARK  0 active torsions:
REMARK  status: ('A' for Active; 'I' for Inactive)
ROOT
ATOM      1  C4' PXY d   1       0.249  -0.382   1.520  0.00  0.00     0.077 C 
ATOM      2  C1' PXY d   1       0.616  -0.026  -4.238  0.00  0.00     0.077 C 
ATOM      3  C1  PXY d   1       0.524  -0.106  -2.727  0.00  0.00    -0.082 A 
ATOM      4  C2  PXY d   1       0.648  -1.279  -2.125  0.00  0.00     0.003 A 
ATOM      5  C3  PXY d   1       0.535  -1.374  -0.762  0.00  0.00     0.003 A 
ATOM      6  C4  PXY d   1       0.345  -0.251  -0.002  0.00  0.00    -0.082 A 
ATOM      7  C5  PXY d   1       0.228   0.950  -0.607  0.00  0.00     0.003 A 
ATOM      8  C6  PXY d   1       0.305   1.020  -1.995  0.00  0.00     0.003 A 
ENDROOT
TORSDOF 0
ENDMDL
