MODEL 1
REMARK minimizedAffinity -2.26494145
REMARK minimizedRMSD -1
REMARK  0 active torsions:
REMARK  status: ('A' for Active; 'I' for Inactive)
ROOT
ATOM      1  C4' PXY d   1      -0.766  -0.004   3.618  0.00  0.00     0.077 C 
ATOM      2  C1' PXY d   1       0.529   0.140  -2.014  0.00  0.00     0.077 C 
ATOM      3  C1  PXY d   1       0.180   0.111  -0.539  0.00  0.00    -0.082 A 
ATOM      4  C2  PXY d   1       1.085  -0.289   0.340  0.00  0.00     0.003 A 
ATOM      5  C3  PXY d   1       0.776  -0.351   1.674  0.00  0.00     0.003 A 
ATOM      6  C4  PXY d   1      -0.455   0.050   2.120  0.00  0.00    -0.082 A 
ATOM      7  C5  PXY d   1      -1.380   0.469   1.231  0.00  0.00     0.003 A 
ATOM      8  C6  PXY d   1      -1.060   0.486  -0.123  0.00  0.00     0.003 A 
ENDROOT
TORSDOF 0
ENDMDL
