MODEL 1
REMARK minimizedAffinity -5.02455807
REMARK minimizedRMSD -1
REMARK  0 active torsions:
REMARK  status: ('A' for Active; 'I' for Inactive)
ROOT
ATOM      1  C4' PXY d   1       0.617  -1.231  -2.453  0.00  0.00     0.077 C 
ATOM      2  C1' PXY d   1      -0.774  -0.200   3.062  0.00  0.00     0.077 C 
ATOM      3  C1  PXY d   1      -0.422  -0.467   1.612  0.00  0.00    -0.082 A 
ATOM      4  C2  PXY d   1       0.578  -1.284   1.322  0.00  0.00     0.003 A 
ATOM      5  C3  PXY d   1       0.931  -1.511   0.016  0.00  0.00     0.003 A 
ATOM      6  C4  PXY d   1       0.219  -0.939  -1.004  0.00  0.00    -0.082 A 
ATOM      7  C5  PXY d   1      -0.809  -0.113  -0.716  0.00  0.00     0.003 A 
ATOM      8  C6  PXY d   1      -1.125   0.138   0.616  0.00  0.00     0.003 A 
ENDROOT
TORSDOF 0
ENDMDL
