MODEL 1
REMARK minimizedAffinity -4.24520636
REMARK minimizedRMSD -1
REMARK  0 active torsions:
REMARK  status: ('A' for Active; 'I' for Inactive)
ROOT
ATOM      1  C4' PXY d   1      -0.057   0.193   3.028  0.00  0.00     0.077 C 
ATOM      2  C1' PXY d   1       1.100  -1.212  -2.459  0.00  0.00     0.077 C 
ATOM      3  C1  PXY d   1       0.804  -0.853  -1.016  0.00  0.00    -0.082 A 
ATOM      4  C2  PXY d   1      -0.287  -0.164  -0.724  0.00  0.00     0.003 A 
ATOM      5  C3  PXY d   1      -0.554   0.196   0.572  0.00  0.00     0.003 A 
ATOM      6  C4  PXY d   1       0.277  -0.199   1.586  0.00  0.00    -0.082 A 
ATOM      7  C5  PXY d   1       1.387  -0.912   1.297  0.00  0.00     0.003 A 
ATOM      8  C6  PXY d   1       1.661  -1.232  -0.029  0.00  0.00     0.003 A 
ENDROOT
TORSDOF 0
ENDMDL
