MODEL 1
REMARK minimizedAffinity 2.48281574
REMARK minimizedRMSD -1
REMARK  1 active torsions:
REMARK  status: ('A' for Active; 'I' for Inactive)
REMARK    1  A    between atoms: C3_4  and  O_7 
ROOT
ATOM      1  C   UNL d   1      -4.338   5.661  -5.448  0.00  0.00    -0.033 A 
ATOM      2  C1  UNL d   1      -3.182   4.996  -5.033  0.00  0.00     0.039 A 
ATOM      3  C2  UNL d   1      -3.142   4.377  -3.783  0.00  0.00    -0.080 A 
ATOM      4  C3  UNL d   1      -4.263   4.428  -2.958  0.00  0.00     0.150 A 
ATOM      5  C4  UNL d   1      -5.418   5.086  -3.367  0.00  0.00    -0.007 A 
ATOM      6  C5  UNL d   1      -5.456   5.704  -4.616  0.00  0.00     0.039 A 
ENDROOT
BRANCH   4   7
ATOM      7  O   UNL d   1      -4.269   3.843  -1.727  0.00  0.00    -0.526 OA
ATOM      8  H5  UNL d   1      -3.394   3.452  -1.568  0.00  0.00     0.418 HD
ENDBRANCH   4   7
TORSDOF 1
ENDMDL
