MODEL 1
REMARK minimizedAffinity -1.69531202
REMARK minimizedRMSD -1
REMARK  1 active torsions:
REMARK  status: ('A' for Active; 'I' for Inactive)
REMARK    1  A    between atoms: C3_4  and  O_7 
ROOT
ATOM      1  C   UNL d   1      -4.510   2.663  -2.992  0.00  0.00    -0.033 A 
ATOM      2  C1  UNL d   1      -3.779   3.851  -2.924  0.00  0.00     0.039 A 
ATOM      3  C2  UNL d   1      -4.156   4.949  -3.700  0.00  0.00    -0.080 A 
ATOM      4  C3  UNL d   1      -5.264   4.846  -4.537  0.00  0.00     0.150 A 
ATOM      5  C4  UNL d   1      -5.998   3.667  -4.606  0.00  0.00    -0.007 A 
ATOM      6  C5  UNL d   1      -5.620   2.571  -3.831  0.00  0.00     0.039 A 
ENDROOT
BRANCH   4   7
ATOM      7  O   UNL d   1      -5.667   5.889  -5.317  0.00  0.00    -0.526 OA
ATOM      8  H5  UNL d   1      -5.049   6.628  -5.186  0.00  0.00     0.418 HD
ENDBRANCH   4   7
TORSDOF 1
ENDMDL
