MODEL 1
REMARK minimizedAffinity 4.25003099
REMARK minimizedRMSD -1
REMARK  1 active torsions:
REMARK  status: ('A' for Active; 'I' for Inactive)
REMARK    1  A    between atoms: C3_4  and  O_7 
ROOT
ATOM      1  C   UNL d   1      -1.532   3.115   1.324  0.00  0.00    -0.033 A 
ATOM      2  C1  UNL d   1      -0.149   2.943   1.406  0.00  0.00     0.039 A 
ATOM      3  C2  UNL d   1       0.389   2.018   2.303  0.00  0.00    -0.080 A 
ATOM      4  C3  UNL d   1      -0.465   1.273   3.111  0.00  0.00     0.150 A 
ATOM      5  C4  UNL d   1      -1.844   1.437   3.031  0.00  0.00    -0.007 A 
ATOM      6  C5  UNL d   1      -2.380   2.361   2.135  0.00  0.00     0.039 A 
ENDROOT
BRANCH   4   7
ATOM      7  O   UNL d   1       0.013   0.362   4.005  0.00  0.00    -0.526 OA
ATOM      8  H5  UNL d   1       0.984   0.377   3.970  0.00  0.00     0.418 HD
ENDBRANCH   4   7
TORSDOF 1
ENDMDL
