MODEL 1
REMARK minimizedAffinity 1.79704094
REMARK minimizedRMSD -1
REMARK  1 active torsions:
REMARK  status: ('A' for Active; 'I' for Inactive)
REMARK    1  A    between atoms: C3_4  and  O_7 
ROOT
ATOM      1  C   UNL d   1      -4.493   5.976  -6.000  0.00  0.00    -0.033 A 
ATOM      2  C1  UNL d   1      -3.286   6.000  -5.298  0.00  0.00     0.039 A 
ATOM      3  C2  UNL d   1      -3.252   5.636  -3.950  0.00  0.00    -0.080 A 
ATOM      4  C3  UNL d   1      -4.430   5.250  -3.317  0.00  0.00     0.150 A 
ATOM      5  C4  UNL d   1      -5.635   5.220  -4.011  0.00  0.00    -0.007 A 
ATOM      6  C5  UNL d   1      -5.667   5.584  -5.357  0.00  0.00     0.039 A 
ENDROOT
BRANCH   4   7
ATOM      7  O   UNL d   1      -4.448   4.891  -2.002  0.00  0.00    -0.526 OA
ATOM      8  H5  UNL d   1      -3.549   4.987  -1.645  0.00  0.00     0.418 HD
ENDBRANCH   4   7
TORSDOF 1
ENDMDL
