MODEL 1
REMARK minimizedAffinity 6.16445732
REMARK minimizedRMSD -1
REMARK  1 active torsions:
REMARK  status: ('A' for Active; 'I' for Inactive)
REMARK    1  A    between atoms: C3_4  and  O_7 
ROOT
ATOM      1  C   UNL d   1      -1.076   3.526  -1.487  0.00  0.00    -0.033 A 
ATOM      2  C1  UNL d   1      -0.517   4.424  -0.575  0.00  0.00     0.039 A 
ATOM      3  C2  UNL d   1      -0.354   4.053   0.761  0.00  0.00    -0.080 A 
ATOM      4  C3  UNL d   1      -0.752   2.784   1.172  0.00  0.00     0.150 A 
ATOM      5  C4  UNL d   1      -1.306   1.884   0.268  0.00  0.00    -0.007 A 
ATOM      6  C5  UNL d   1      -1.469   2.256  -1.066  0.00  0.00     0.039 A 
ENDROOT
BRANCH   4   7
ATOM      7  O   UNL d   1      -0.617   2.379   2.466  0.00  0.00    -0.526 OA
ATOM      8  H5  UNL d   1      -0.247   3.115   2.982  0.00  0.00     0.418 HD
ENDBRANCH   4   7
TORSDOF 1
ENDMDL
