MODEL 1
REMARK minimizedAffinity 1.17451859
REMARK minimizedRMSD -1
REMARK  1 active torsions:
REMARK  status: ('A' for Active; 'I' for Inactive)
REMARK    1  A    between atoms: C3_4  and  O_7 
ROOT
ATOM      1  C   UNL d   1      -0.384   0.112  -2.515  0.00  0.00    -0.033 A 
ATOM      2  C1  UNL d   1      -0.903   1.069  -1.640  0.00  0.00     0.039 A 
ATOM      3  C2  UNL d   1      -2.114   0.835  -0.986  0.00  0.00    -0.080 A 
ATOM      4  C3  UNL d   1      -2.795  -0.358  -1.214  0.00  0.00     0.150 A 
ATOM      5  C4  UNL d   1      -2.281  -1.317  -2.081  0.00  0.00    -0.007 A 
ATOM      6  C5  UNL d   1      -1.072  -1.081  -2.734  0.00  0.00     0.039 A 
ENDROOT
BRANCH   4   7
ATOM      7  O   UNL d   1      -3.982  -0.629  -0.602  0.00  0.00    -0.526 OA
ATOM      8  H5  UNL d   1      -4.228   0.135  -0.055  0.00  0.00     0.418 HD
ENDBRANCH   4   7
TORSDOF 1
ENDMDL
