MODEL 1
REMARK minimizedAffinity 12.3022499
REMARK minimizedRMSD -1
REMARK  0 active torsions:
REMARK  status: ('A' for Active; 'I' for Inactive)
ROOT
ATOM      1  C4' PXY d   1      -1.960   0.573  -0.278  0.00  0.00     0.077 C 
ATOM      2  C1' PXY d   1      -1.894   1.908  -5.902  0.00  0.00     0.077 C 
ATOM      3  C1  PXY d   1      -1.922   1.550  -4.429  0.00  0.00    -0.082 A 
ATOM      4  C2  PXY d   1      -1.418   2.392  -3.541  0.00  0.00     0.003 A 
ATOM      5  C3  PXY d   1      -1.406   2.070  -2.209  0.00  0.00     0.003 A 
ATOM      6  C4  PXY d   1      -1.963   0.898  -1.774  0.00  0.00    -0.082 A 
ATOM      7  C5  PXY d   1      -2.488   0.038  -2.672  0.00  0.00     0.003 A 
ATOM      8  C6  PXY d   1      -2.454   0.365  -4.025  0.00  0.00     0.003 A 
ENDROOT
TORSDOF 0
ENDMDL
