MODEL 1
REMARK minimizedAffinity 6.3708353
REMARK minimizedRMSD -1
REMARK  0 active torsions:
REMARK  status: ('A' for Active; 'I' for Inactive)
ROOT
ATOM      1  C4' PXY d   1      -1.139   0.802   0.955  0.00  0.00     0.077 C 
ATOM      2  C1' PXY d   1      -3.361   0.056  -4.329  0.00  0.00     0.077 C 
ATOM      3  C1  PXY d   1      -2.788   0.244  -2.938  0.00  0.00    -0.082 A 
ATOM      4  C2  PXY d   1      -2.061   1.316  -2.670  0.00  0.00     0.003 A 
ATOM      5  C3  PXY d   1      -1.508   1.486  -1.427  0.00  0.00     0.003 A 
ATOM      6  C4  PXY d   1      -1.746   0.576  -0.432  0.00  0.00    -0.082 A 
ATOM      7  C5  PXY d   1      -2.496  -0.516  -0.695  0.00  0.00     0.003 A 
ATOM      8  C6  PXY d   1      -3.014  -0.690  -1.975  0.00  0.00     0.003 A 
ENDROOT
TORSDOF 0
ENDMDL
