MODEL 1
REMARK minimizedAffinity 5.36375237
REMARK minimizedRMSD -1
REMARK  0 active torsions:
REMARK  status: ('A' for Active; 'I' for Inactive)
ROOT
ATOM      1  C4' PXY d   1      -1.874  -0.747  -4.112  0.00  0.00     0.077 C 
ATOM      2  C1' PXY d   1       2.672   1.647  -1.463  0.00  0.00     0.077 C 
ATOM      3  C1  PXY d   1       1.488   1.012  -2.165  0.00  0.00    -0.082 A 
ATOM      4  C2  PXY d   1       0.335   1.659  -2.218  0.00  0.00     0.003 A 
ATOM      5  C3  PXY d   1      -0.755   1.086  -2.821  0.00  0.00     0.003 A 
ATOM      6  C4  PXY d   1      -0.649  -0.140  -3.422  0.00  0.00    -0.082 A 
ATOM      7  C5  PXY d   1       0.526  -0.802  -3.381  0.00  0.00     0.003 A 
ATOM      8  C6  PXY d   1       1.610  -0.220  -2.729  0.00  0.00     0.003 A 
ENDROOT
TORSDOF 0
ENDMDL
