MODEL 1
REMARK minimizedAffinity 6.59940386
REMARK minimizedRMSD -1
REMARK  0 active torsions:
REMARK  status: ('A' for Active; 'I' for Inactive)
ROOT
ATOM      1  C4' PXY d   1      -0.465   1.634   0.570  0.00  0.00     0.077 C 
ATOM      2  C1' PXY d   1      -5.993  -0.030   0.863  0.00  0.00     0.077 C 
ATOM      3  C1  PXY d   1      -4.539   0.394   0.783  0.00  0.00    -0.082 A 
ATOM      4  C2  PXY d   1      -4.131   1.458   1.455  0.00  0.00     0.003 A 
ATOM      5  C3  PXY d   1      -2.827   1.874   1.368  0.00  0.00     0.003 A 
ATOM      6  C4  PXY d   1      -1.920   1.163   0.629  0.00  0.00    -0.082 A 
ATOM      7  C5  PXY d   1      -2.328   0.070  -0.051  0.00  0.00     0.003 A 
ATOM      8  C6  PXY d   1      -3.664  -0.312   0.017  0.00  0.00     0.003 A 
ENDROOT
TORSDOF 0
ENDMDL
