MODEL 1
REMARK minimizedAffinity 0.268098861
REMARK minimizedRMSD -1
REMARK  0 active torsions:
REMARK  status: ('A' for Active; 'I' for Inactive)
ROOT
ATOM      1  C4' PXY d   1       2.993  -2.567  -1.909  0.00  0.00     0.077 C 
ATOM      2  C1' PXY d   1       1.703   2.837  -3.504  0.00  0.00     0.077 C 
ATOM      3  C1  PXY d   1       2.044   1.417  -3.098  0.00  0.00    -0.082 A 
ATOM      4  C2  PXY d   1       1.486   0.893  -2.019  0.00  0.00     0.003 A 
ATOM      5  C3  PXY d   1       1.808  -0.379  -1.620  0.00  0.00     0.003 A 
ATOM      6  C4  PXY d   1       2.670  -1.141  -2.362  0.00  0.00    -0.082 A 
ATOM      7  C5  PXY d   1       3.235  -0.617  -3.471  0.00  0.00     0.003 A 
ATOM      8  C6  PXY d   1       2.927   0.690  -3.836  0.00  0.00     0.003 A 
ENDROOT
TORSDOF 0
ENDMDL
