MODEL 1
REMARK minimizedAffinity 7.99711227
REMARK minimizedRMSD -1
REMARK  0 active torsions:
REMARK  status: ('A' for Active; 'I' for Inactive)
ROOT
ATOM      1  C4' PXY d   1      -6.000   1.320   2.644  0.00  0.00     0.077 C 
ATOM      2  C1' PXY d   1      -1.795   0.427  -1.221  0.00  0.00     0.077 C 
ATOM      3  C1  PXY d   1      -2.906   0.654  -0.215  0.00  0.00    -0.082 A 
ATOM      4  C2  PXY d   1      -2.853   1.701   0.592  0.00  0.00     0.003 A 
ATOM      5  C3  PXY d   1      -3.833   1.904   1.530  0.00  0.00     0.003 A 
ATOM      6  C4  PXY d   1      -4.905   1.057   1.606  0.00  0.00    -0.082 A 
ATOM      7  C5  PXY d   1      -4.972  -0.008   0.779  0.00  0.00     0.003 A 
ATOM      8  C6  PXY d   1      -3.946  -0.219  -0.138  0.00  0.00     0.003 A 
ENDROOT
TORSDOF 0
ENDMDL
