MODEL 1
REMARK minimizedAffinity 17.3753204
REMARK minimizedRMSD -1
REMARK  0 active torsions:
REMARK  status: ('A' for Active; 'I' for Inactive)
ROOT
ATOM      1  C4' PXY d   1      -5.717  -1.779   3.498  0.00  0.00     0.077 C 
ATOM      2  C1' PXY d   1      -5.427   3.534   5.756  0.00  0.00     0.077 C 
ATOM      3  C1  PXY d   1      -5.499   2.136   5.175  0.00  0.00    -0.082 A 
ATOM      4  C2  PXY d   1      -5.461   1.970   3.863  0.00  0.00     0.003 A 
ATOM      5  C3  PXY d   1      -5.557   0.715   3.319  0.00  0.00     0.003 A 
ATOM      6  C4  PXY d   1      -5.638  -0.386   4.129  0.00  0.00    -0.082 A 
ATOM      7  C5  PXY d   1      -5.666  -0.226   5.469  0.00  0.00     0.003 A 
ATOM      8  C6  PXY d   1      -5.609   1.059   6.000  0.00  0.00     0.003 A 
ENDROOT
TORSDOF 0
ENDMDL
