MODEL 1
REMARK minimizedAffinity 10.7146349
REMARK minimizedRMSD -1
REMARK  0 active torsions:
REMARK  status: ('A' for Active; 'I' for Inactive)
ROOT
ATOM      1  C4' PXY d   1       3.136  -5.973   1.956  0.00  0.00     0.077 C 
ATOM      2  C1' PXY d   1      -2.531  -6.000   0.816  0.00  0.00     0.077 C 
ATOM      3  C1  PXY d   1      -1.048  -5.988   1.126  0.00  0.00    -0.082 A 
ATOM      4  C2  PXY d   1      -0.172  -5.976   0.135  0.00  0.00     0.003 A 
ATOM      5  C3  PXY d   1       1.174  -5.997   0.397  0.00  0.00     0.003 A 
ATOM      6  C4  PXY d   1       1.628  -5.976   1.689  0.00  0.00    -0.082 A 
ATOM      7  C5  PXY d   1       0.741  -5.977   2.706  0.00  0.00     0.003 A 
ATOM      8  C6  PXY d   1      -0.621  -5.998   2.418  0.00  0.00     0.003 A 
ENDROOT
TORSDOF 0
ENDMDL
