MODEL 1
REMARK minimizedAffinity 4.71831369
REMARK minimizedRMSD -1
REMARK  0 active torsions:
REMARK  status: ('A' for Active; 'I' for Inactive)
ROOT
ATOM      1  C4' PXY d   1      -3.484   0.046  -5.945  0.00  0.00     0.077 C 
ATOM      2  C1' PXY d   1       0.218   2.272  -2.104  0.00  0.00     0.077 C 
ATOM      3  C1  PXY d   1      -0.755   1.679  -3.103  0.00  0.00    -0.082 A 
ATOM      4  C2  PXY d   1      -0.609   1.938  -4.392  0.00  0.00     0.003 A 
ATOM      5  C3  PXY d   1      -1.500   1.435  -5.306  0.00  0.00     0.003 A 
ATOM      6  C4  PXY d   1      -2.519   0.616  -4.902  0.00  0.00    -0.082 A 
ATOM      7  C5  PXY d   1      -2.669   0.339  -3.589  0.00  0.00     0.003 A 
ATOM      8  C6  PXY d   1      -1.779   0.892  -2.673  0.00  0.00     0.003 A 
ENDROOT
TORSDOF 0
ENDMDL
