MODEL 1
REMARK minimizedAffinity -0.499014616
REMARK minimizedRMSD -1
REMARK  0 active torsions:
REMARK  status: ('A' for Active; 'I' for Inactive)
ROOT
ATOM      1  C4' PXY d   1      -1.574  -0.415  -4.382  0.00  0.00     0.077 C 
ATOM      2  C1' PXY d   1       2.667   1.625  -1.025  0.00  0.00     0.077 C 
ATOM      3  C1  PXY d   1       1.564   1.083  -1.912  0.00  0.00    -0.082 A 
ATOM      4  C2  PXY d   1       0.429   1.754  -2.029  0.00  0.00     0.003 A 
ATOM      5  C3  PXY d   1      -0.591   1.263  -2.802  0.00  0.00     0.003 A 
ATOM      6  C4  PXY d   1      -0.429   0.099  -3.505  0.00  0.00    -0.082 A 
ATOM      7  C5  PXY d   1       0.730  -0.586  -3.400  0.00  0.00     0.003 A 
ATOM      8  C6  PXY d   1       1.738  -0.091  -2.578  0.00  0.00     0.003 A 
ENDROOT
TORSDOF 0
ENDMDL
