MODEL 1
REMARK minimizedAffinity 0.0451774187
REMARK minimizedRMSD -1
REMARK  0 active torsions:
REMARK  status: ('A' for Active; 'I' for Inactive)
ROOT
ATOM      1  C4' PXY d   1       2.916  -0.005  -3.398  0.00  0.00     0.077 C 
ATOM      2  C1' PXY d   1      -2.645   1.571  -3.498  0.00  0.00     0.077 C 
ATOM      3  C1  PXY d   1      -1.183   1.170  -3.473  0.00  0.00    -0.082 A 
ATOM      4  C2  PXY d   1      -0.837  -0.063  -3.805  0.00  0.00     0.003 A 
ATOM      5  C3  PXY d   1       0.477  -0.451  -3.758  0.00  0.00     0.003 A 
ATOM      6  C4  PXY d   1       1.453   0.447  -3.418  0.00  0.00    -0.082 A 
ATOM      7  C5  PXY d   1       1.109   1.710  -3.088  0.00  0.00     0.003 A 
ATOM      8  C6  PXY d   1      -0.235   2.073  -3.103  0.00  0.00     0.003 A 
ENDROOT
TORSDOF 0
ENDMDL
