MODEL 1
REMARK minimizedAffinity 1.86822903
REMARK minimizedRMSD -1
REMARK  0 active torsions:
REMARK  status: ('A' for Active; 'I' for Inactive)
ROOT
ATOM      1  C4' PXY d   1      -2.427  -0.246  -5.113  0.00  0.00     0.077 C 
ATOM      2  C1' PXY d   1      -1.338   1.307   0.347  0.00  0.00     0.077 C 
ATOM      3  C1  PXY d   1      -1.626   0.913  -1.088  0.00  0.00    -0.082 A 
ATOM      4  C2  PXY d   1      -2.056  -0.310  -1.357  0.00  0.00     0.003 A 
ATOM      5  C3  PXY d   1      -2.290  -0.694  -2.652  0.00  0.00     0.003 A 
ATOM      6  C4  PXY d   1      -2.133   0.199  -3.678  0.00  0.00    -0.082 A 
ATOM      7  C5  PXY d   1      -1.705   1.451  -3.411  0.00  0.00     0.003 A 
ATOM      8  C6  PXY d   1      -1.433   1.809  -2.094  0.00  0.00     0.003 A 
ENDROOT
TORSDOF 0
ENDMDL
