MODEL 1
REMARK minimizedAffinity 1.74785197
REMARK minimizedRMSD -1
REMARK  0 active torsions:
REMARK  status: ('A' for Active; 'I' for Inactive)
ROOT
ATOM      1  C4' PXY d   1      -4.165  -0.346   6.000  0.00  0.00     0.077 C 
ATOM      2  C1' PXY d   1      -2.892   0.744   0.467  0.00  0.00     0.077 C 
ATOM      3  C1  PXY d   1      -3.233   0.469   1.918  0.00  0.00    -0.082 A 
ATOM      4  C2  PXY d   1      -2.410  -0.257   2.658  0.00  0.00     0.003 A 
ATOM      5  C3  PXY d   1      -2.719  -0.543   3.963  0.00  0.00     0.003 A 
ATOM      6  C4  PXY d   1      -3.856  -0.035   4.532  0.00  0.00    -0.082 A 
ATOM      7  C5  PXY d   1      -4.696   0.715   3.788  0.00  0.00     0.003 A 
ATOM      8  C6  PXY d   1      -4.384   0.959   2.453  0.00  0.00     0.003 A 
ENDROOT
TORSDOF 0
ENDMDL
