MODEL 1
REMARK minimizedAffinity -2.30169773
REMARK minimizedRMSD -1
REMARK  0 active torsions:
REMARK  status: ('A' for Active; 'I' for Inactive)
ROOT
ATOM      1  C4' PXY d   1      -0.735   1.477  -2.427  0.00  0.00     0.077 C 
ATOM      2  C1' PXY d   1       4.128  -0.858  -4.504  0.00  0.00     0.077 C 
ATOM      3  C1  PXY d   1       2.860  -0.237  -3.952  0.00  0.00    -0.082 A 
ATOM      4  C2  PXY d   1       1.738  -0.938  -3.945  0.00  0.00     0.003 A 
ATOM      5  C3  PXY d   1       0.574  -0.382  -3.479  0.00  0.00     0.003 A 
ATOM      6  C4  PXY d   1       0.571   0.888  -2.966  0.00  0.00    -0.082 A 
ATOM      7  C5  PXY d   1       1.714   1.606  -2.959  0.00  0.00     0.003 A 
ATOM      8  C6  PXY d   1       2.875   1.037  -3.475  0.00  0.00     0.003 A 
ENDROOT
TORSDOF 0
ENDMDL
