MODEL 1
REMARK minimizedAffinity 11.4497719
REMARK minimizedRMSD -1
REMARK  0 active torsions:
REMARK  status: ('A' for Active; 'I' for Inactive)
ROOT
ATOM      1  C4' PXY d   1       3.234  -5.940   3.321  0.00  0.00     0.077 C 
ATOM      2  C1' PXY d   1      -1.729  -5.999   0.358  0.00  0.00     0.077 C 
ATOM      3  C1  PXY d   1      -0.434  -5.978   1.145  0.00  0.00    -0.082 A 
ATOM      4  C2  PXY d   1       0.723  -5.986   0.502  0.00  0.00     0.003 A 
ATOM      5  C3  PXY d   1       1.904  -6.000   1.199  0.00  0.00     0.003 A 
ATOM      6  C4  PXY d   1       1.902  -5.951   2.567  0.00  0.00    -0.082 A 
ATOM      7  C5  PXY d   1       0.726  -5.931   3.230  0.00  0.00     0.003 A 
ATOM      8  C6  PXY d   1      -0.462  -5.959   2.505  0.00  0.00     0.003 A 
ENDROOT
TORSDOF 0
ENDMDL
