MODEL 1
REMARK minimizedAffinity 10.2589302
REMARK minimizedRMSD -1
REMARK  0 active torsions:
REMARK  status: ('A' for Active; 'I' for Inactive)
ROOT
ATOM      1  C4' PXY d   1       2.326  -3.384   2.232  0.00  0.00     0.077 C 
ATOM      2  C1' PXY d   1      -2.628  -5.998   0.803  0.00  0.00     0.077 C 
ATOM      3  C1  PXY d   1      -1.327  -5.320   1.188  0.00  0.00    -0.082 A 
ATOM      4  C2  PXY d   1      -1.106  -4.070   0.816  0.00  0.00     0.003 A 
ATOM      5  C3  PXY d   1       0.078  -3.453   1.128  0.00  0.00     0.003 A 
ATOM      6  C4  PXY d   1       1.024  -4.105   1.874  0.00  0.00    -0.082 A 
ATOM      7  C5  PXY d   1       0.801  -5.377   2.266  0.00  0.00     0.003 A 
ATOM      8  C6  PXY d   1      -0.391  -5.999   1.904  0.00  0.00     0.003 A 
ENDROOT
TORSDOF 0
ENDMDL
