MODEL 1
REMARK minimizedAffinity 4.32058907
REMARK minimizedRMSD -1
REMARK  0 active torsions:
REMARK  status: ('A' for Active; 'I' for Inactive)
ROOT
ATOM      1  C4' PXY d   1      -3.898   0.680  -5.133  0.00  0.00     0.077 C 
ATOM      2  C1' PXY d   1       0.685   1.845  -1.808  0.00  0.00     0.077 C 
ATOM      3  C1  PXY d   1      -0.511   1.528  -2.684  0.00  0.00    -0.082 A 
ATOM      4  C2  PXY d   1      -1.311   2.506  -3.077  0.00  0.00     0.003 A 
ATOM      5  C3  PXY d   1      -2.415   2.234  -3.843  0.00  0.00     0.003 A 
ATOM      6  C4  PXY d   1      -2.674   0.954  -4.256  0.00  0.00    -0.082 A 
ATOM      7  C5  PXY d   1      -1.856  -0.048  -3.868  0.00  0.00     0.003 A 
ATOM      8  C6  PXY d   1      -0.764   0.244  -3.056  0.00  0.00     0.003 A 
ENDROOT
TORSDOF 0
ENDMDL
