MODEL 1
REMARK minimizedAffinity 9.53906155
REMARK minimizedRMSD -1
REMARK  0 active torsions:
REMARK  status: ('A' for Active; 'I' for Inactive)
ROOT
ATOM      1  C4' PXY d   1      -3.140  -0.343  -5.515  0.00  0.00     0.077 C 
ATOM      2  C1' PXY d   1       0.385   2.813  -2.194  0.00  0.00     0.077 C 
ATOM      3  C1  PXY d   1      -0.533   1.975  -3.062  0.00  0.00    -0.082 A 
ATOM      4  C2  PXY d   1      -1.217   2.550  -4.038  0.00  0.00     0.003 A 
ATOM      5  C3  PXY d   1      -2.075   1.813  -4.812  0.00  0.00     0.003 A 
ATOM      6  C4  PXY d   1      -2.195   0.463  -4.620  0.00  0.00    -0.082 A 
ATOM      7  C5  PXY d   1      -1.493  -0.134  -3.633  0.00  0.00     0.003 A 
ATOM      8  C6  PXY d   1      -0.658   0.640  -2.832  0.00  0.00     0.003 A 
ENDROOT
TORSDOF 0
ENDMDL
