MODEL 1
REMARK minimizedAffinity -2.44063663
REMARK minimizedRMSD -1
REMARK  0 active torsions:
REMARK  status: ('A' for Active; 'I' for Inactive)
ROOT
ATOM      1  C4' PXY d   1      -2.320   0.740  -5.323  0.00  0.00     0.077 C 
ATOM      2  C1' PXY d   1       2.164   0.910  -1.678  0.00  0.00     0.077 C 
ATOM      3  C1  PXY d   1       0.983   0.877  -2.629  0.00  0.00    -0.082 A 
ATOM      4  C2  PXY d   1       0.576  -0.280  -3.125  0.00  0.00     0.003 A 
ATOM      5  C3  PXY d   1      -0.470  -0.325  -4.011  0.00  0.00     0.003 A 
ATOM      6  C4  PXY d   1      -1.139   0.820  -4.352  0.00  0.00    -0.082 A 
ATOM      7  C5  PXY d   1      -0.736   2.003  -3.842  0.00  0.00     0.003 A 
ATOM      8  C6  PXY d   1       0.354   2.032  -2.976  0.00  0.00     0.003 A 
ENDROOT
TORSDOF 0
ENDMDL
