MODEL 1
REMARK minimizedAffinity 7.27377844
REMARK minimizedRMSD -1
REMARK  0 active torsions:
REMARK  status: ('A' for Active; 'I' for Inactive)
ROOT
ATOM      1  C4' PXY d   1       2.324   4.122  -5.435  0.00  0.00     0.077 C 
ATOM      2  C1' PXY d   1       3.182   0.950  -0.679  0.00  0.00     0.077 C 
ATOM      3  C1  PXY d   1       2.970   1.780  -1.929  0.00  0.00    -0.082 A 
ATOM      4  C2  PXY d   1       1.946   2.616  -1.993  0.00  0.00     0.003 A 
ATOM      5  C3  PXY d   1       1.721   3.352  -3.128  0.00  0.00     0.003 A 
ATOM      6  C4  PXY d   1       2.583   3.270  -4.189  0.00  0.00    -0.082 A 
ATOM      7  C5  PXY d   1       3.636   2.428  -4.127  0.00  0.00     0.003 A 
ATOM      8  C6  PXY d   1       3.823   1.659  -2.982  0.00  0.00     0.003 A 
ENDROOT
TORSDOF 0
ENDMDL
