MODEL 1
REMARK minimizedAffinity -5.40217876
REMARK minimizedRMSD -1
REMARK  1 active torsions:
REMARK  status: ('A' for Active; 'I' for Inactive)
REMARK    1  A    between atoms: C1_2  and  C2_3 
ROOT
ATOM      1  C2  UNL d   1       0.586  -0.387  -0.649  0.00  0.00    -0.073 A 
ATOM      2  C3  UNL d   1       1.779  -0.738  -0.006  0.00  0.00    -0.002 A 
ATOM      3  C4  UNL d   1       1.923  -0.541   1.368  0.00  0.00     0.004 A 
ATOM      4  C5  UNL d   1       0.876   0.000   2.114  0.00  0.00    -0.004 A 
ATOM      5  C6  UNL d   1      -0.328   0.346   1.492  0.00  0.00    -0.075 A 
ATOM      6  C7  UNL d   1      -1.463   0.931   2.279  0.00  0.00     0.076 C 
ATOM      7  C8  UNL d   1      -0.464   0.148   0.111  0.00  0.00     0.001 A 
ENDROOT
BRANCH   1   8
ATOM      8  C1  UNL d   1       0.423  -0.603  -2.131  0.00  0.00     0.053 C 
ATOM      9  C   UNL d   1       1.344   0.294  -2.942  0.00  0.00     0.018 C 
ENDBRANCH   1   8
TORSDOF 1
ENDMDL
