MODEL 1
REMARK minimizedAffinity -3.07204199
REMARK minimizedRMSD -1
REMARK  1 active torsions:
REMARK  status: ('A' for Active; 'I' for Inactive)
REMARK    1  A    between atoms: C1_2  and  C2_3 
ROOT
ATOM      1  C2  UNL d   1       0.410  -0.332  -0.661  0.00  0.00    -0.073 A 
ATOM      2  C3  UNL d   1       1.653  -0.746  -0.169  0.00  0.00    -0.002 A 
ATOM      3  C4  UNL d   1       1.949  -0.626   1.190  0.00  0.00     0.004 A 
ATOM      4  C5  UNL d   1       1.006  -0.096   2.070  0.00  0.00    -0.004 A 
ATOM      5  C6  UNL d   1      -0.246   0.313   1.599  0.00  0.00    -0.075 A 
ATOM      6  C7  UNL d   1      -1.272   0.886   2.533  0.00  0.00     0.076 C 
ATOM      7  C8  UNL d   1      -0.535   0.191   0.233  0.00  0.00     0.001 A 
ENDROOT
BRANCH   1   8
ATOM      8  C1  UNL d   1       0.083  -0.466  -2.125  0.00  0.00     0.053 C 
ATOM      9  C   UNL d   1       1.117   0.219  -3.005  0.00  0.00     0.018 C 
ENDBRANCH   1   8
TORSDOF 1
ENDMDL
