MODEL 1
REMARK minimizedAffinity -0.692618668
REMARK minimizedRMSD -1
REMARK  1 active torsions:
REMARK  status: ('A' for Active; 'I' for Inactive)
REMARK    1  A    between atoms: C1_2  and  C2_3 
ROOT
ATOM      1  C2  UNL d   1       0.319   0.236   0.841  0.00  0.00    -0.073 A 
ATOM      2  C3  UNL d   1      -0.873   0.935   1.064  0.00  0.00    -0.002 A 
ATOM      3  C4  UNL d   1      -1.435   0.982   2.341  0.00  0.00     0.004 A 
ATOM      4  C5  UNL d   1      -0.809   0.337   3.407  0.00  0.00    -0.004 A 
ATOM      5  C6  UNL d   1       0.389  -0.357   3.207  0.00  0.00    -0.075 A 
ATOM      6  C7  UNL d   1       1.074  -1.058   4.343  0.00  0.00     0.076 C 
ATOM      7  C8  UNL d   1       0.946  -0.401   1.922  0.00  0.00     0.001 A 
ENDROOT
BRANCH   1   8
ATOM      8  C1  UNL d   1       0.933   0.189  -0.534  0.00  0.00     0.053 C 
ATOM      9  C   UNL d   1       0.305  -0.891  -1.401  0.00  0.00     0.018 C 
ENDBRANCH   1   8
TORSDOF 1
ENDMDL
