MODEL 1
REMARK minimizedAffinity -2.01356339
REMARK minimizedRMSD -1
REMARK  1 active torsions:
REMARK  status: ('A' for Active; 'I' for Inactive)
REMARK    1  A    between atoms: C1_2  and  C2_3 
ROOT
ATOM      1  C2  UNL d   1       0.353  -0.321  -1.912  0.00  0.00    -0.073 A 
ATOM      2  C3  UNL d   1      -1.008  -0.177  -1.620  0.00  0.00    -0.002 A 
ATOM      3  C4  UNL d   1      -1.448  -0.166  -0.295  0.00  0.00     0.004 A 
ATOM      4  C5  UNL d   1      -0.532  -0.291   0.749  0.00  0.00    -0.004 A 
ATOM      5  C6  UNL d   1       0.833  -0.424   0.478  0.00  0.00    -0.075 A 
ATOM      6  C7  UNL d   1       1.831  -0.562   1.591  0.00  0.00     0.076 C 
ATOM      7  C8  UNL d   1       1.267  -0.437  -0.854  0.00  0.00     0.001 A 
ENDROOT
BRANCH   1   8
ATOM      8  C1  UNL d   1       0.833  -0.327  -3.340  0.00  0.00     0.053 C 
ATOM      9  C   UNL d   1       2.083   0.519  -3.525  0.00  0.00     0.018 C 
ENDBRANCH   1   8
TORSDOF 1
ENDMDL
