MODEL 1
REMARK minimizedAffinity -3.78177619
REMARK minimizedRMSD -1
REMARK  1 active torsions:
REMARK  status: ('A' for Active; 'I' for Inactive)
REMARK    1  A    between atoms: C1_2  and  C2_3 
ROOT
ATOM      1  C2  UNL d   1       0.031  -0.241  -1.143  0.00  0.00    -0.073 A 
ATOM      2  C3  UNL d   1       0.767  -0.380   0.039  0.00  0.00    -0.002 A 
ATOM      3  C4  UNL d   1       0.191  -0.064   1.270  0.00  0.00     0.004 A 
ATOM      4  C5  UNL d   1      -1.127   0.387   1.333  0.00  0.00    -0.004 A 
ATOM      5  C6  UNL d   1      -1.883   0.522   0.164  0.00  0.00    -0.075 A 
ATOM      6  C7  UNL d   1      -3.302   1.008   0.215  0.00  0.00     0.076 C 
ATOM      7  C8  UNL d   1      -1.297   0.205  -1.068  0.00  0.00     0.001 A 
ENDROOT
BRANCH   1   8
ATOM      8  C1  UNL d   1       0.646  -0.587  -2.474  0.00  0.00     0.053 C 
ATOM      9  C   UNL d   1       1.203   0.639  -3.180  0.00  0.00     0.018 C 
ENDBRANCH   1   8
TORSDOF 1
ENDMDL
