MODEL 1
REMARK minimizedAffinity -0.550267756
REMARK minimizedRMSD -1
REMARK  1 active torsions:
REMARK  status: ('A' for Active; 'I' for Inactive)
REMARK    1  A    between atoms: C1_2  and  C2_3 
ROOT
ATOM      1  C2  UNL d   1      -0.190  -0.154  -0.437  0.00  0.00    -0.073 A 
ATOM      2  C3  UNL d   1      -1.355   0.340   0.161  0.00  0.00    -0.002 A 
ATOM      3  C4  UNL d   1      -1.387   0.599   1.532  0.00  0.00     0.004 A 
ATOM      4  C5  UNL d   1      -0.256   0.374   2.316  0.00  0.00    -0.004 A 
ATOM      5  C6  UNL d   1       0.921  -0.109   1.734  0.00  0.00    -0.075 A 
ATOM      6  C7  UNL d   1       2.145  -0.359   2.564  0.00  0.00     0.076 C 
ATOM      7  C8  UNL d   1       0.945  -0.369   0.358  0.00  0.00     0.001 A 
ENDROOT
BRANCH   1   8
ATOM      8  C1  UNL d   1      -0.148  -0.429  -1.918  0.00  0.00     0.053 C 
ATOM      9  C   UNL d   1       0.970   0.335  -2.609  0.00  0.00     0.018 C 
ENDBRANCH   1   8
TORSDOF 1
ENDMDL
