MODEL 1
REMARK minimizedAffinity 16.7991505
REMARK minimizedRMSD -1
REMARK  1 active torsions:
REMARK  status: ('A' for Active; 'I' for Inactive)
REMARK    1  A    between atoms: C1_2  and  C2_3 
ROOT
ATOM      1  C2  UNL d   1      -1.546   5.692  -2.233  0.00  0.00    -0.076 A 
ATOM      2  C3  UNL d   1      -0.651   5.626  -1.151  0.00  0.00     0.004 A 
ATOM      3  C4  UNL d   1       0.724   5.735  -1.350  0.00  0.00    -0.003 A 
ATOM      4  C5  UNL d   1       1.226   5.913  -2.635  0.00  0.00     0.000 A 
ATOM      5  C6  UNL d   1       0.352   5.999  -3.717  0.00  0.00     0.000 A 
ATOM      6  C7  UNL d   1      -1.038   5.907  -3.532  0.00  0.00    -0.073 A 
ATOM      7  C8  UNL d   1      -1.935   6.000  -4.736  0.00  0.00     0.078 C 
ENDROOT
BRANCH   1   8
ATOM      8  C1  UNL d   1      -3.026   5.541  -1.959  0.00  0.00     0.053 C 
ATOM      9  C   UNL d   1      -3.528   4.133  -2.239  0.00  0.00     0.018 C 
ENDBRANCH   1   8
TORSDOF 1
ENDMDL
