MODEL 1
REMARK minimizedAffinity 17.4304085
REMARK minimizedRMSD -1
REMARK  1 active torsions:
REMARK  status: ('A' for Active; 'I' for Inactive)
REMARK    1  A    between atoms: C1_2  and  C2_3 
ROOT
ATOM      1  C2  UNL d   1       0.456  -5.231  -4.479  0.00  0.00    -0.076 A 
ATOM      2  C3  UNL d   1       1.639  -5.991  -4.447  0.00  0.00     0.004 A 
ATOM      3  C4  UNL d   1       2.469  -5.979  -3.328  0.00  0.00    -0.003 A 
ATOM      4  C5  UNL d   1       2.130  -5.208  -2.221  0.00  0.00     0.000 A 
ATOM      5  C6  UNL d   1       0.952  -4.462  -2.229  0.00  0.00     0.000 A 
ATOM      6  C7  UNL d   1       0.095  -4.476  -3.343  0.00  0.00    -0.073 A 
ATOM      7  C8  UNL d   1      -1.159  -3.647  -3.299  0.00  0.00     0.078 C 
ENDROOT
BRANCH   1   8
ATOM      8  C1  UNL d   1      -0.391  -5.262  -5.731  0.00  0.00     0.053 C 
ATOM      9  C   UNL d   1      -1.732  -5.944  -5.511  0.00  0.00     0.018 C 
ENDBRANCH   1   8
TORSDOF 1
ENDMDL
