MODEL 1
REMARK minimizedAffinity 9.35138226
REMARK minimizedRMSD -1
REMARK  1 active torsions:
REMARK  status: ('A' for Active; 'I' for Inactive)
REMARK    1  A    between atoms: C1_2  and  C2_3 
ROOT
ATOM      1  C2  UNL d   1       0.862  -3.359  -1.755  0.00  0.00    -0.076 A 
ATOM      2  C3  UNL d   1       1.746  -2.372  -1.285  0.00  0.00     0.004 A 
ATOM      3  C4  UNL d   1       1.328  -1.051  -1.128  0.00  0.00    -0.003 A 
ATOM      4  C5  UNL d   1       0.020  -0.696  -1.439  0.00  0.00     0.000 A 
ATOM      5  C6  UNL d   1      -0.875  -1.666  -1.890  0.00  0.00     0.000 A 
ATOM      6  C7  UNL d   1      -0.474  -3.006  -2.038  0.00  0.00    -0.073 A 
ATOM      7  C8  UNL d   1      -1.479  -4.009  -2.533  0.00  0.00     0.078 C 
ENDROOT
BRANCH   1   8
ATOM      8  C1  UNL d   1       1.379  -4.769  -1.930  0.00  0.00     0.053 C 
ATOM      9  C   UNL d   1       2.648  -4.825  -2.767  0.00  0.00     0.018 C 
ENDBRANCH   1   8
TORSDOF 1
ENDMDL
