MODEL 1
REMARK minimizedAffinity 16.143446
REMARK minimizedRMSD -1
REMARK  1 active torsions:
REMARK  status: ('A' for Active; 'I' for Inactive)
REMARK    1  A    between atoms: C1_2  and  C2_3 
ROOT
ATOM      1  C2  UNL d   1       4.790  -4.071  -1.895  0.00  0.00    -0.076 A 
ATOM      2  C3  UNL d   1       4.523  -3.562  -0.612  0.00  0.00     0.004 A 
ATOM      3  C4  UNL d   1       4.952  -2.289  -0.241  0.00  0.00    -0.003 A 
ATOM      4  C5  UNL d   1       5.656  -1.504  -1.148  0.00  0.00     0.000 A 
ATOM      5  C6  UNL d   1       5.915  -1.986  -2.431  0.00  0.00     0.000 A 
ATOM      6  C7  UNL d   1       5.475  -3.260  -2.826  0.00  0.00    -0.073 A 
ATOM      7  C8  UNL d   1       5.787  -3.732  -4.220  0.00  0.00     0.078 C 
ENDROOT
BRANCH   1   8
ATOM      8  C1  UNL d   1       4.323  -5.469  -2.232  0.00  0.00     0.053 C 
ATOM      9  C   UNL d   1       2.846  -5.520  -2.590  0.00  0.00     0.018 C 
ENDBRANCH   1   8
TORSDOF 1
ENDMDL
