MODEL 1
REMARK minimizedAffinity 19.8130322
REMARK minimizedRMSD -1
REMARK  1 active torsions:
REMARK  status: ('A' for Active; 'I' for Inactive)
REMARK    1  A    between atoms: C1_2  and  C2_3 
ROOT
ATOM      1  C2  UNL d   1      -0.716   3.320   0.740  0.00  0.00    -0.076 A 
ATOM      2  C3  UNL d   1      -1.273   4.397   0.028  0.00  0.00     0.004 A 
ATOM      3  C4  UNL d   1      -0.481   5.462  -0.398  0.00  0.00    -0.003 A 
ATOM      4  C5  UNL d   1       0.881   5.466  -0.120  0.00  0.00     0.000 A 
ATOM      5  C6  UNL d   1       1.454   4.398   0.569  0.00  0.00     0.000 A 
ATOM      6  C7  UNL d   1       0.672   3.309   0.991  0.00  0.00    -0.073 A 
ATOM      7  C8  UNL d   1       1.341   2.186   1.736  0.00  0.00     0.078 C 
ENDROOT
BRANCH   1   8
ATOM      8  C1  UNL d   1      -1.630   2.207   1.200  0.00  0.00     0.053 C 
ATOM      9  C   UNL d   1      -2.129   2.413   2.622  0.00  0.00     0.018 C 
ENDBRANCH   1   8
TORSDOF 1
ENDMDL
