MODEL 1
REMARK minimizedAffinity 15.6526051
REMARK minimizedRMSD -1
REMARK  1 active torsions:
REMARK  status: ('A' for Active; 'I' for Inactive)
REMARK    1  A    between atoms: C1_2  and  C2_3 
ROOT
ATOM      1  C2  UNL d   1      -1.277   3.088   0.312  0.00  0.00    -0.076 A 
ATOM      2  C3  UNL d   1      -0.001   2.667   0.725  0.00  0.00     0.004 A 
ATOM      3  C4  UNL d   1       1.104   3.509   0.613  0.00  0.00    -0.003 A 
ATOM      4  C5  UNL d   1       0.951   4.788   0.087  0.00  0.00     0.000 A 
ATOM      5  C6  UNL d   1      -0.311   5.229  -0.310  0.00  0.00     0.000 A 
ATOM      6  C7  UNL d   1      -1.438   4.398  -0.189  0.00  0.00    -0.073 A 
ATOM      7  C8  UNL d   1      -2.774   4.923  -0.640  0.00  0.00     0.078 C 
ENDROOT
BRANCH   1   8
ATOM      8  C1  UNL d   1      -2.433   2.121   0.432  0.00  0.00     0.053 C 
ATOM      9  C   UNL d   1      -2.611   1.269  -0.815  0.00  0.00     0.018 C 
ENDBRANCH   1   8
TORSDOF 1
ENDMDL
