MODEL 1
REMARK minimizedAffinity 6.33891296
REMARK minimizedRMSD -1
REMARK  1 active torsions:
REMARK  status: ('A' for Active; 'I' for Inactive)
REMARK    1  A    between atoms: C1_2  and  C2_3 
ROOT
ATOM      1  C2  UNL d   1       5.171  -4.729  -2.012  0.00  0.00    -0.076 A 
ATOM      2  C3  UNL d   1       5.718  -3.569  -1.437  0.00  0.00     0.004 A 
ATOM      3  C4  UNL d   1       5.917  -2.417  -2.196  0.00  0.00    -0.003 A 
ATOM      4  C5  UNL d   1       5.571  -2.407  -3.543  0.00  0.00     0.000 A 
ATOM      5  C6  UNL d   1       5.011  -3.543  -4.126  0.00  0.00     0.000 A 
ATOM      6  C7  UNL d   1       4.789  -4.707  -3.370  0.00  0.00    -0.073 A 
ATOM      7  C8  UNL d   1       4.187  -5.906  -4.051  0.00  0.00     0.078 C 
ENDROOT
BRANCH   1   8
ATOM      8  C1  UNL d   1       5.004  -5.957  -1.145  0.00  0.00     0.053 C 
ATOM      9  C   UNL d   1       5.999  -5.998   0.005  0.00  0.00     0.018 C 
ENDBRANCH   1   8
TORSDOF 1
ENDMDL
