MODEL 1
REMARK minimizedAffinity 13.1599312
REMARK minimizedRMSD -1
REMARK  1 active torsions:
REMARK  status: ('A' for Active; 'I' for Inactive)
REMARK    1  A    between atoms: C1_2  and  C2_3 
ROOT
ATOM      1  C2  UNL d   1      -4.074  -1.274  -3.463  0.00  0.00    -0.081 A 
ATOM      2  C3  UNL d   1      -3.240  -0.211  -3.831  0.00  0.00     0.006 A 
ATOM      3  C4  UNL d   1      -3.220   0.967  -3.080  0.00  0.00     0.002 A 
ATOM      4  C5  UNL d   1      -4.026   1.098  -1.944  0.00  0.00    -0.080 A 
ATOM      5  C6  UNL d   1      -3.992   2.345  -1.112  0.00  0.00     0.076 C 
ATOM      6  C7  UNL d   1      -4.872   0.043  -1.586  0.00  0.00     0.002 A 
ATOM      7  C8  UNL d   1      -4.893  -1.134  -2.337  0.00  0.00     0.006 A 
ENDROOT
BRANCH   1   8
ATOM      8  C1  UNL d   1      -4.050  -2.569  -4.233  0.00  0.00     0.054 C 
ATOM      9  C   UNL d   1      -5.151  -2.608  -5.283  0.00  0.00     0.018 C 
ENDBRANCH   1   8
TORSDOF 1
ENDMDL
