MODEL 1
REMARK minimizedAffinity 18.6031475
REMARK minimizedRMSD -1
REMARK  1 active torsions:
REMARK  status: ('A' for Active; 'I' for Inactive)
REMARK    1  A    between atoms: C1_2  and  C2_3 
ROOT
ATOM      1  C2  UNL d   1       1.534   0.299   1.766  0.00  0.00    -0.081 A 
ATOM      2  C3  UNL d   1       0.623  -0.271   2.664  0.00  0.00     0.006 A 
ATOM      3  C4  UNL d   1       0.579  -1.655   2.845  0.00  0.00     0.002 A 
ATOM      4  C5  UNL d   1       1.449  -2.492   2.138  0.00  0.00    -0.080 A 
ATOM      5  C6  UNL d   1       1.433  -3.977   2.346  0.00  0.00     0.076 C 
ATOM      6  C7  UNL d   1       2.348  -1.924   1.228  0.00  0.00     0.002 A 
ATOM      7  C8  UNL d   1       2.392  -0.540   1.046  0.00  0.00     0.006 A 
ENDROOT
BRANCH   1   8
ATOM      8  C1  UNL d   1       1.628   1.796   1.616  0.00  0.00     0.054 C 
ATOM      9  C   UNL d   1       1.056   2.511   2.832  0.00  0.00     0.018 C 
ENDBRANCH   1   8
TORSDOF 1
ENDMDL
