MODEL 1
REMARK minimizedAffinity 18.6032295
REMARK minimizedRMSD -1
REMARK  1 active torsions:
REMARK  status: ('A' for Active; 'I' for Inactive)
REMARK    1  A    between atoms: C1_2  and  C2_3 
ROOT
ATOM      1  C2  UNL d   1      -4.938   2.972  -3.426  0.00  0.00    -0.081 A 
ATOM      2  C3  UNL d   1      -5.366   3.574  -2.236  0.00  0.00     0.006 A 
ATOM      3  C4  UNL d   1      -4.792   3.213  -1.015  0.00  0.00     0.002 A 
ATOM      4  C5  UNL d   1      -3.777   2.252  -0.963  0.00  0.00    -0.080 A 
ATOM      5  C6  UNL d   1      -3.133   1.878   0.339  0.00  0.00     0.076 C 
ATOM      6  C7  UNL d   1      -3.362   1.639  -2.149  0.00  0.00     0.002 A 
ATOM      7  C8  UNL d   1      -3.935   1.998  -3.371  0.00  0.00     0.006 A 
ENDROOT
BRANCH   1   8
ATOM      8  C1  UNL d   1      -5.508   3.405  -4.753  0.00  0.00     0.054 C 
ATOM      9  C   UNL d   1      -5.212   2.385  -5.842  0.00  0.00     0.018 C 
ENDBRANCH   1   8
TORSDOF 1
ENDMDL
