MODEL 1
REMARK minimizedAffinity 16.8721924
REMARK minimizedRMSD -1
REMARK  1 active torsions:
REMARK  status: ('A' for Active; 'I' for Inactive)
REMARK    1  A    between atoms: C1_2  and  C2_3 
ROOT
ATOM      1  C2  UNL d   1      -3.787   1.988  -1.968  0.00  0.00    -0.081 A 
ATOM      2  C3  UNL d   1      -5.183   2.025  -2.064  0.00  0.00     0.006 A 
ATOM      3  C4  UNL d   1      -5.904   3.083  -1.506  0.00  0.00     0.002 A 
ATOM      4  C5  UNL d   1      -5.240   4.125  -0.848  0.00  0.00    -0.080 A 
ATOM      5  C6  UNL d   1      -6.000   5.282  -0.271  0.00  0.00     0.076 C 
ATOM      6  C7  UNL d   1      -3.847   4.079  -0.736  0.00  0.00     0.002 A 
ATOM      7  C8  UNL d   1      -3.126   3.021  -1.294  0.00  0.00     0.006 A 
ENDROOT
BRANCH   1   8
ATOM      8  C1  UNL d   1      -3.002   0.881  -2.625  0.00  0.00     0.054 C 
ATOM      9  C   UNL d   1      -3.883  -0.326  -2.914  0.00  0.00     0.018 C 
ENDBRANCH   1   8
TORSDOF 1
ENDMDL
