MODEL 1
REMARK minimizedAffinity 17.5291805
REMARK minimizedRMSD -1
REMARK  1 active torsions:
REMARK  status: ('A' for Active; 'I' for Inactive)
REMARK    1  A    between atoms: C1_2  and  C2_3 
ROOT
ATOM      1  C2  UNL d   1       1.281  -1.511   3.141  0.00  0.00    -0.081 A 
ATOM      2  C3  UNL d   1       1.002  -0.267   2.562  0.00  0.00     0.006 A 
ATOM      3  C4  UNL d   1       1.755   0.196   1.480  0.00  0.00     0.002 A 
ATOM      4  C5  UNL d   1       2.795  -0.580   0.956  0.00  0.00    -0.080 A 
ATOM      5  C6  UNL d   1       3.592  -0.109  -0.224  0.00  0.00     0.076 C 
ATOM      6  C7  UNL d   1       3.085  -1.815   1.546  0.00  0.00     0.002 A 
ATOM      7  C8  UNL d   1       2.332  -2.278   2.627  0.00  0.00     0.006 A 
ENDROOT
BRANCH   1   8
ATOM      8  C1  UNL d   1       0.429  -2.041   4.266  0.00  0.00     0.054 C 
ATOM      9  C   UNL d   1       0.807  -1.403   5.595  0.00  0.00     0.018 C 
ENDBRANCH   1   8
TORSDOF 1
ENDMDL
