MODEL 1
REMARK minimizedAffinity 13.8879385
REMARK minimizedRMSD -1
REMARK  1 active torsions:
REMARK  status: ('A' for Active; 'I' for Inactive)
REMARK    1  A    between atoms: C1_2  and  C2_3 
ROOT
ATOM      1  C2  UNL d   1      -3.676   3.607   1.070  0.00  0.00    -0.081 A 
ATOM      2  C3  UNL d   1      -2.541   3.606   1.889  0.00  0.00     0.006 A 
ATOM      3  C4  UNL d   1      -1.271   3.797   1.340  0.00  0.00     0.002 A 
ATOM      4  C5  UNL d   1      -1.116   4.001  -0.035  0.00  0.00    -0.080 A 
ATOM      5  C6  UNL d   1       0.239   4.239  -0.634  0.00  0.00     0.076 C 
ATOM      6  C7  UNL d   1      -2.248   3.985  -0.856  0.00  0.00     0.002 A 
ATOM      7  C8  UNL d   1      -3.518   3.793  -0.308  0.00  0.00     0.006 A 
ENDROOT
BRANCH   1   8
ATOM      8  C1  UNL d   1      -5.053   3.465   1.667  0.00  0.00     0.054 C 
ATOM      9  C   UNL d   1      -5.995   4.540   1.147  0.00  0.00     0.018 C 
ENDBRANCH   1   8
TORSDOF 1
ENDMDL
