MODEL 1
REMARK minimizedAffinity 14.6759119
REMARK minimizedRMSD -1
REMARK  1 active torsions:
REMARK  status: ('A' for Active; 'I' for Inactive)
REMARK    1  A    between atoms: C1_2  and  C2_3 
ROOT
ATOM      1  C2  UNL d   1       1.133  -0.734   2.412  0.00  0.00    -0.081 A 
ATOM      2  C3  UNL d   1       0.356  -0.237   3.466  0.00  0.00     0.006 A 
ATOM      3  C4  UNL d   1      -0.083  -1.087   4.484  0.00  0.00     0.002 A 
ATOM      4  C5  UNL d   1       0.255  -2.445   4.470  0.00  0.00    -0.080 A 
ATOM      5  C6  UNL d   1      -0.184  -3.361   5.573  0.00  0.00     0.076 C 
ATOM      6  C7  UNL d   1       1.017  -2.944   3.409  0.00  0.00     0.002 A 
ATOM      7  C8  UNL d   1       1.455  -2.095   2.390  0.00  0.00     0.006 A 
ENDROOT
BRANCH   1   8
ATOM      8  C1  UNL d   1       1.662   0.193   1.347  0.00  0.00     0.054 C 
ATOM      9  C   UNL d   1       1.678   1.637   1.828  0.00  0.00     0.018 C 
ENDBRANCH   1   8
TORSDOF 1
ENDMDL
