MODEL 1
REMARK minimizedAffinity 3.72157311
REMARK minimizedRMSD -1
REMARK  2 active torsions:
REMARK  status: ('A' for Active; 'I' for Inactive)
REMARK    1  A    between atoms: C1_2  and  C2_3 
REMARK    2  A    between atoms: C2_3  and  C3_4 
ROOT
ATOM      1  C3  UNL d   1       1.516   2.844  -4.428  0.00  0.00    -0.075 A 
ATOM      2  C4  UNL d   1       1.122   1.566  -4.005  0.00  0.00     0.002 A 
ATOM      3  C5  UNL d   1       1.469   1.101  -2.736  0.00  0.00     0.002 A 
ATOM      4  C6  UNL d   1       2.223   1.902  -1.880  0.00  0.00    -0.004 A 
ATOM      5  C7  UNL d   1       2.634   3.166  -2.296  0.00  0.00     0.002 A 
ATOM      6  C8  UNL d   1       2.284   3.635  -3.564  0.00  0.00     0.002 A 
ENDROOT
BRANCH   1   7
ATOM      7  C2  UNL d   1       1.118   3.364  -5.789  0.00  0.00     0.056 C 
BRANCH   7   8
ATOM      8  C1  UNL d   1       1.408   4.854  -5.996  0.00  0.00     0.007 C 
ATOM      9  C   UNL d   1       0.153   5.716  -5.997  0.00  0.00     0.009 C 
ENDBRANCH   7   8
ENDBRANCH   1   7
TORSDOF 2
ENDMDL
