MODEL 1
REMARK minimizedAffinity 8.26112938
REMARK minimizedRMSD -1
REMARK  2 active torsions:
REMARK  status: ('A' for Active; 'I' for Inactive)
REMARK    1  A    between atoms: C1_2  and  C2_3 
REMARK    2  A    between atoms: C2_3  and  C3_4 
ROOT
ATOM      1  C3  UNL d   1      -1.493  -4.484   0.842  0.00  0.00    -0.075 A 
ATOM      2  C4  UNL d   1      -2.183  -3.546   1.623  0.00  0.00     0.002 A 
ATOM      3  C5  UNL d   1      -3.008  -2.594   1.024  0.00  0.00     0.002 A 
ATOM      4  C6  UNL d   1      -3.146  -2.561  -0.362  0.00  0.00    -0.004 A 
ATOM      5  C7  UNL d   1      -2.452  -3.477  -1.149  0.00  0.00     0.002 A 
ATOM      6  C8  UNL d   1      -1.629  -4.433  -0.552  0.00  0.00     0.002 A 
ENDROOT
BRANCH   1   7
ATOM      7  C2  UNL d   1      -0.621  -5.535   1.486  0.00  0.00     0.056 C 
BRANCH   7   8
ATOM      8  C1  UNL d   1       0.698  -4.994   2.047  0.00  0.00     0.007 C 
ATOM      9  C   UNL d   1       1.857  -5.103   1.066  0.00  0.00     0.009 C 
ENDBRANCH   7   8
ENDBRANCH   1   7
TORSDOF 2
ENDMDL
