MODEL 1
REMARK minimizedAffinity 3.36155748
REMARK minimizedRMSD -1
REMARK  2 active torsions:
REMARK  status: ('A' for Active; 'I' for Inactive)
REMARK    1  A    between atoms: C1_2  and  C2_3 
REMARK    2  A    between atoms: C2_3  and  C3_4 
ROOT
ATOM      1  C3  UNL d   1       2.773   1.057  -3.768  0.00  0.00    -0.075 A 
ATOM      2  C4  UNL d   1       1.541   1.216  -4.419  0.00  0.00     0.002 A 
ATOM      3  C5  UNL d   1       0.373   0.694  -3.862  0.00  0.00     0.002 A 
ATOM      4  C6  UNL d   1       0.423  -0.001  -2.656  0.00  0.00    -0.004 A 
ATOM      5  C7  UNL d   1       1.644  -0.179  -2.009  0.00  0.00     0.002 A 
ATOM      6  C8  UNL d   1       2.814   0.346  -2.561  0.00  0.00     0.002 A 
ENDROOT
BRANCH   1   7
ATOM      7  C2  UNL d   1       4.036   1.645  -4.351  0.00  0.00     0.056 C 
BRANCH   7   8
ATOM      8  C1  UNL d   1       5.280   0.773  -4.150  0.00  0.00     0.007 C 
ATOM      9  C   UNL d   1       5.998   0.442  -5.451  0.00  0.00     0.009 C 
ENDBRANCH   7   8
ENDBRANCH   1   7
TORSDOF 2
ENDMDL
