MODEL 1
REMARK minimizedAffinity 10.4527082
REMARK minimizedRMSD -1
REMARK  2 active torsions:
REMARK  status: ('A' for Active; 'I' for Inactive)
REMARK    1  A    between atoms: C1_2  and  C2_3 
REMARK    2  A    between atoms: C2_3  and  C3_4 
ROOT
ATOM      1  C3  UNL d   1      -0.180   0.816  -1.672  0.00  0.00    -0.075 A 
ATOM      2  C4  UNL d   1       0.872   1.108  -0.793  0.00  0.00     0.002 A 
ATOM      3  C5  UNL d   1       2.195   1.084  -1.237  0.00  0.00     0.002 A 
ATOM      4  C6  UNL d   1       2.482   0.757  -2.561  0.00  0.00    -0.004 A 
ATOM      5  C7  UNL d   1       1.445   0.448  -3.439  0.00  0.00     0.002 A 
ATOM      6  C8  UNL d   1       0.121   0.477  -2.998  0.00  0.00     0.002 A 
ENDROOT
BRANCH   1   7
ATOM      7  C2  UNL d   1      -1.615   0.870  -1.205  0.00  0.00     0.056 C 
BRANCH   7   8
ATOM      8  C1  UNL d   1      -1.990  -0.236  -0.213  0.00  0.00     0.007 C 
ATOM      9  C   UNL d   1      -2.362   0.295   1.166  0.00  0.00     0.009 C 
ENDBRANCH   7   8
ENDBRANCH   1   7
TORSDOF 2
ENDMDL
