MODEL 1
REMARK minimizedAffinity 9.41737652
REMARK minimizedRMSD -1
REMARK  2 active torsions:
REMARK  status: ('A' for Active; 'I' for Inactive)
REMARK    1  A    between atoms: C1_2  and  C2_3 
REMARK    2  A    between atoms: C2_3  and  C3_4 
ROOT
ATOM      1  C3  UNL d   1      -2.852   3.812   4.294  0.00  0.00    -0.075 A 
ATOM      2  C4  UNL d   1      -4.114   3.873   4.904  0.00  0.00     0.002 A 
ATOM      3  C5  UNL d   1      -4.462   4.961   5.703  0.00  0.00     0.002 A 
ATOM      4  C6  UNL d   1      -3.553   5.996   5.912  0.00  0.00    -0.004 A 
ATOM      5  C7  UNL d   1      -2.291   5.938   5.324  0.00  0.00     0.002 A 
ATOM      6  C8  UNL d   1      -1.941   4.852   4.520  0.00  0.00     0.002 A 
ENDROOT
BRANCH   1   7
ATOM      7  C2  UNL d   1      -2.480   2.651   3.403  0.00  0.00     0.056 C 
BRANCH   7   8
ATOM      8  C1  UNL d   1      -3.479   1.490   3.442  0.00  0.00     0.007 C 
ATOM      9  C   UNL d   1      -2.907   0.188   2.896  0.00  0.00     0.009 C 
ENDBRANCH   7   8
ENDBRANCH   1   7
TORSDOF 2
ENDMDL
