MODEL 1
REMARK minimizedAffinity 11.2306604
REMARK minimizedRMSD -1
REMARK  2 active torsions:
REMARK  status: ('A' for Active; 'I' for Inactive)
REMARK    1  A    between atoms: C1_2  and  C2_3 
REMARK    2  A    between atoms: C2_3  and  C3_4 
ROOT
ATOM      1  C3  UNL d   1       1.925   2.966  -3.701  0.00  0.00    -0.075 A 
ATOM      2  C4  UNL d   1       2.041   1.906  -2.789  0.00  0.00     0.002 A 
ATOM      3  C5  UNL d   1       1.251   0.764  -2.926  0.00  0.00     0.002 A 
ATOM      4  C6  UNL d   1       0.331   0.671  -3.968  0.00  0.00    -0.004 A 
ATOM      5  C7  UNL d   1       0.196   1.724  -4.869  0.00  0.00     0.002 A 
ATOM      6  C8  UNL d   1       0.988   2.866  -4.737  0.00  0.00     0.002 A 
ENDROOT
BRANCH   1   7
ATOM      7  C2  UNL d   1       2.798   4.192  -3.575  0.00  0.00     0.056 C 
BRANCH   7   8
ATOM      8  C1  UNL d   1       2.680   4.905  -2.224  0.00  0.00     0.007 C 
ATOM      9  C   UNL d   1       3.968   4.871  -1.413  0.00  0.00     0.009 C 
ENDBRANCH   7   8
ENDBRANCH   1   7
TORSDOF 2
ENDMDL
