MODEL 1
REMARK minimizedAffinity 10.5970325
REMARK minimizedRMSD -1
REMARK  2 active torsions:
REMARK  status: ('A' for Active; 'I' for Inactive)
REMARK    1  A    between atoms: C1_2  and  C2_3 
REMARK    2  A    between atoms: C2_3  and  C3_4 
ROOT
ATOM      1  C3  UNL d   1       2.215  -3.624  -1.051  0.00  0.00    -0.075 A 
ATOM      2  C4  UNL d   1       3.097  -2.561  -0.806  0.00  0.00     0.002 A 
ATOM      3  C5  UNL d   1       2.975  -1.364  -1.513  0.00  0.00     0.002 A 
ATOM      4  C6  UNL d   1       1.980  -1.218  -2.477  0.00  0.00    -0.004 A 
ATOM      5  C7  UNL d   1       1.110  -2.273  -2.739  0.00  0.00     0.002 A 
ATOM      6  C8  UNL d   1       1.226  -3.471  -2.031  0.00  0.00     0.002 A 
ENDROOT
BRANCH   1   7
ATOM      7  C2  UNL d   1       2.322  -4.912  -0.269  0.00  0.00     0.056 C 
BRANCH   7   8
ATOM      8  C1  UNL d   1       1.604  -4.882   1.084  0.00  0.00     0.007 C 
ATOM      9  C   UNL d   1       0.167  -5.382   1.012  0.00  0.00     0.009 C 
ENDBRANCH   7   8
ENDBRANCH   1   7
TORSDOF 2
ENDMDL
