MODEL 1
REMARK minimizedAffinity 1.29065561
REMARK minimizedRMSD -1
REMARK  2 active torsions:
REMARK  status: ('A' for Active; 'I' for Inactive)
REMARK    1  A    between atoms: C1_2  and  C2_3 
REMARK    2  A    between atoms: C2_3  and  C3_4 
ROOT
ATOM      1  C3  UNL d   1       1.633   1.334  -2.322  0.00  0.00    -0.075 A 
ATOM      2  C4  UNL d   1       2.419   2.382  -2.826  0.00  0.00     0.002 A 
ATOM      3  C5  UNL d   1       2.581   2.547  -4.201  0.00  0.00     0.002 A 
ATOM      4  C6  UNL d   1       1.970   1.665  -5.089  0.00  0.00    -0.004 A 
ATOM      5  C7  UNL d   1       1.201   0.611  -4.600  0.00  0.00     0.002 A 
ATOM      6  C8  UNL d   1       1.034   0.445  -3.224  0.00  0.00     0.002 A 
ENDROOT
BRANCH   1   7
ATOM      7  C2  UNL d   1       1.429   1.167  -0.836  0.00  0.00     0.056 C 
BRANCH   7   8
ATOM      8  C1  UNL d   1       2.081   2.266   0.011  0.00  0.00     0.007 C 
ATOM      9  C   UNL d   1       2.540   1.778   1.378  0.00  0.00     0.009 C 
ENDBRANCH   7   8
ENDBRANCH   1   7
TORSDOF 2
ENDMDL
