MODEL 1
REMARK minimizedAffinity 15.1161289
REMARK minimizedRMSD -1
REMARK  2 active torsions:
REMARK  status: ('A' for Active; 'I' for Inactive)
REMARK    1  A    between atoms: C1_2  and  C2_3 
REMARK    2  A    between atoms: C2_3  and  C3_4 
ROOT
ATOM      1  C3  UNL d   1       3.049   1.517  -2.883  0.00  0.00    -0.075 A 
ATOM      2  C4  UNL d   1       2.918   0.709  -1.745  0.00  0.00     0.002 A 
ATOM      3  C5  UNL d   1       1.942  -0.286  -1.691  0.00  0.00     0.002 A 
ATOM      4  C6  UNL d   1       1.078  -0.478  -2.767  0.00  0.00    -0.004 A 
ATOM      5  C7  UNL d   1       1.188   0.330  -3.896  0.00  0.00     0.002 A 
ATOM      6  C8  UNL d   1       2.167   1.324  -3.955  0.00  0.00     0.002 A 
ENDROOT
BRANCH   1   7
ATOM      7  C2  UNL d   1       4.122   2.576  -2.960  0.00  0.00     0.056 C 
BRANCH   7   8
ATOM      8  C1  UNL d   1       3.625   3.992  -2.651  0.00  0.00     0.007 C 
ATOM      9  C   UNL d   1       4.656   4.845  -1.924  0.00  0.00     0.009 C 
ENDBRANCH   7   8
ENDBRANCH   1   7
TORSDOF 2
ENDMDL
