MODEL 1
REMARK minimizedAffinity 7.37868929
REMARK minimizedRMSD -1
REMARK  2 active torsions:
REMARK  status: ('A' for Active; 'I' for Inactive)
REMARK    1  A    between atoms: C1_2  and  C2_3 
REMARK    2  A    between atoms: C2_3  and  C3_4 
ROOT
ATOM      1  C3  UNL d   1       2.164  -1.933  -1.756  0.00  0.00    -0.075 A 
ATOM      2  C4  UNL d   1       2.077  -0.999  -2.798  0.00  0.00     0.002 A 
ATOM      3  C5  UNL d   1       2.876   0.145  -2.793  0.00  0.00     0.002 A 
ATOM      4  C6  UNL d   1       3.763   0.374  -1.744  0.00  0.00    -0.004 A 
ATOM      5  C7  UNL d   1       3.847  -0.540  -0.695  0.00  0.00     0.002 A 
ATOM      6  C8  UNL d   1       3.051  -1.687  -0.699  0.00  0.00     0.002 A 
ENDROOT
BRANCH   1   7
ATOM      7  C2  UNL d   1       1.323  -3.187  -1.770  0.00  0.00     0.056 C 
BRANCH   7   8
ATOM      8  C1  UNL d   1       0.769  -3.551  -3.152  0.00  0.00     0.007 C 
ATOM      9  C   UNL d   1       1.623  -4.570  -3.893  0.00  0.00     0.009 C 
ENDBRANCH   7   8
ENDBRANCH   1   7
TORSDOF 2
ENDMDL
