MODEL 1
REMARK minimizedAffinity 7.53250265
REMARK minimizedRMSD -1
REMARK  2 active torsions:
REMARK  status: ('A' for Active; 'I' for Inactive)
REMARK    1  A    between atoms: C1_2  and  C2_3 
REMARK    2  A    between atoms: C2_3  and  C3_4 
ROOT
ATOM      1  C3  UNL d   1      -0.460  -0.366  -1.686  0.00  0.00    -0.075 A 
ATOM      2  C4  UNL d   1       0.558   0.141  -0.866  0.00  0.00     0.002 A 
ATOM      3  C5  UNL d   1       1.300   1.254  -1.264  0.00  0.00     0.002 A 
ATOM      4  C6  UNL d   1       1.042   1.865  -2.489  0.00  0.00    -0.004 A 
ATOM      5  C7  UNL d   1       0.045   1.359  -3.319  0.00  0.00     0.002 A 
ATOM      6  C8  UNL d   1      -0.703   0.249  -2.921  0.00  0.00     0.002 A 
ENDROOT
BRANCH   1   7
ATOM      7  C2  UNL d   1      -1.287  -1.551  -1.248  0.00  0.00     0.056 C 
BRANCH   7   8
ATOM      8  C1  UNL d   1      -1.788  -1.462   0.198  0.00  0.00     0.007 C 
ATOM      9  C   UNL d   1      -1.273  -2.590   1.082  0.00  0.00     0.009 C 
ENDBRANCH   7   8
ENDBRANCH   1   7
TORSDOF 2
ENDMDL
