MODEL 1
REMARK minimizedAffinity 10.3629398
REMARK minimizedRMSD -1
REMARK  2 active torsions:
REMARK  status: ('A' for Active; 'I' for Inactive)
REMARK    1  A    between atoms: C1_2  and  C2_3 
REMARK    2  A    between atoms: C2_3  and  C3_4 
ROOT
ATOM      1  C3  UNL d   1       0.779   1.203  -2.814  0.00  0.00    -0.075 A 
ATOM      2  C4  UNL d   1       0.889   2.493  -2.273  0.00  0.00     0.002 A 
ATOM      3  C5  UNL d   1       1.981   2.836  -1.476  0.00  0.00     0.002 A 
ATOM      4  C6  UNL d   1       2.969   1.893  -1.200  0.00  0.00    -0.004 A 
ATOM      5  C7  UNL d   1       2.861   0.604  -1.717  0.00  0.00     0.002 A 
ATOM      6  C8  UNL d   1       1.772   0.260  -2.519  0.00  0.00     0.002 A 
ENDROOT
BRANCH   1   7
ATOM      7  C2  UNL d   1      -0.385   0.834  -3.702  0.00  0.00     0.056 C 
BRANCH   7   8
ATOM      8  C1  UNL d   1      -0.003   0.607  -5.168  0.00  0.00     0.007 C 
ATOM      9  C   UNL d   1      -0.008   1.885  -5.995  0.00  0.00     0.009 C 
ENDBRANCH   7   8
ENDBRANCH   1   7
TORSDOF 2
ENDMDL
