MODEL 1
REMARK minimizedAffinity -5.82651711
REMARK minimizedRMSD -1
REMARK  2 active torsions:
REMARK  status: ('A' for Active; 'I' for Inactive)
REMARK    1  A    between atoms: C1_2  and  C2_3 
REMARK    2  A    between atoms: C2_3  and  C3_4 
ROOT
ATOM      1  C3  UNL d   1      -3.291   0.662   1.798  0.00  0.00    -0.075 A 
ATOM      2  C4  UNL d   1      -3.060   1.973   2.241  0.00  0.00     0.002 A 
ATOM      3  C5  UNL d   1      -3.239   2.308   3.583  0.00  0.00     0.002 A 
ATOM      4  C6  UNL d   1      -3.660   1.343   4.496  0.00  0.00    -0.004 A 
ATOM      5  C7  UNL d   1      -3.908   0.042   4.064  0.00  0.00     0.002 A 
ATOM      6  C8  UNL d   1      -3.726  -0.298   2.722  0.00  0.00     0.002 A 
ENDROOT
BRANCH   1   7
ATOM      7  C2  UNL d   1      -3.070   0.285   0.352  0.00  0.00     0.056 C 
BRANCH   7   8
ATOM      8  C1  UNL d   1      -3.352  -1.189   0.042  0.00  0.00     0.007 C 
ATOM      9  C   UNL d   1      -2.135  -2.085   0.226  0.00  0.00     0.009 C 
ENDBRANCH   7   8
ENDBRANCH   1   7
TORSDOF 2
ENDMDL
