MODEL 1
REMARK minimizedAffinity 11.2352619
REMARK minimizedRMSD -1
REMARK  1 active torsions:
REMARK  status: ('A' for Active; 'I' for Inactive)
REMARK    1  A    between atoms: C1_2  and  C2_3 
ROOT
ATOM      1  C2  UNL d   1       1.060   4.262   3.078  0.00  0.00    -0.073 A 
ATOM      2  C3  UNL d   1       0.701   5.180   2.085  0.00  0.00    -0.002 A 
ATOM      3  C4  UNL d   1       1.667   6.000   1.500  0.00  0.00     0.004 A 
ATOM      4  C5  UNL d   1       3.001   5.906   1.897  0.00  0.00    -0.004 A 
ATOM      5  C6  UNL d   1       3.381   4.987   2.879  0.00  0.00    -0.075 A 
ATOM      6  C7  UNL d   1       4.811   4.875   3.319  0.00  0.00     0.076 C 
ATOM      7  C8  UNL d   1       2.405   4.169   3.464  0.00  0.00     0.001 A 
ENDROOT
BRANCH   1   8
ATOM      8  C1  UNL d   1       0.021   3.370   3.708  0.00  0.00     0.053 C 
ATOM      9  C   UNL d   1       0.376   3.006   5.141  0.00  0.00     0.018 C 
ENDBRANCH   1   8
TORSDOF 1
ENDMDL
