MODEL 1
REMARK minimizedAffinity 5.23811293
REMARK minimizedRMSD -1
REMARK  1 active torsions:
REMARK  status: ('A' for Active; 'I' for Inactive)
REMARK    1  A    between atoms: C1_2  and  C2_3 
ROOT
ATOM      1  C2  UNL d   1       4.922   1.849  -1.808  0.00  0.00    -0.073 A 
ATOM      2  C3  UNL d   1       5.236   2.080  -0.463  0.00  0.00    -0.002 A 
ATOM      3  C4  UNL d   1       4.472   1.497   0.549  0.00  0.00     0.004 A 
ATOM      4  C5  UNL d   1       3.394   0.673   0.228  0.00  0.00    -0.004 A 
ATOM      5  C6  UNL d   1       3.072   0.420  -1.109  0.00  0.00    -0.075 A 
ATOM      6  C7  UNL d   1       1.914  -0.463  -1.470  0.00  0.00     0.076 C 
ATOM      7  C8  UNL d   1       3.842   1.012  -2.120  0.00  0.00     0.001 A 
ENDROOT
BRANCH   1   8
ATOM      8  C1  UNL d   1       5.747   2.472  -2.904  0.00  0.00     0.053 C 
ATOM      9  C   UNL d   1       5.640   3.988  -2.907  0.00  0.00     0.018 C 
ENDBRANCH   1   8
TORSDOF 1
ENDMDL
