MODEL 1
REMARK minimizedAffinity 0.313780874
REMARK minimizedRMSD -1
REMARK  1 active torsions:
REMARK  status: ('A' for Active; 'I' for Inactive)
REMARK    1  A    between atoms: C1_2  and  C2_3 
ROOT
ATOM      1  C2  UNL d   1       4.630   1.881  -2.088  0.00  0.00    -0.073 A 
ATOM      2  C3  UNL d   1       3.737   1.106  -2.836  0.00  0.00    -0.002 A 
ATOM      3  C4  UNL d   1       2.729   0.381  -2.200  0.00  0.00     0.004 A 
ATOM      4  C5  UNL d   1       2.598   0.430  -0.812  0.00  0.00    -0.004 A 
ATOM      5  C6  UNL d   1       3.473   1.208  -0.048  0.00  0.00    -0.075 A 
ATOM      6  C7  UNL d   1       3.348   1.270   1.446  0.00  0.00     0.076 C 
ATOM      7  C8  UNL d   1       4.485   1.931  -0.694  0.00  0.00     0.001 A 
ENDROOT
BRANCH   1   8
ATOM      8  C1  UNL d   1       5.717   2.670  -2.771  0.00  0.00     0.053 C 
ATOM      9  C   UNL d   1       5.164   3.875  -3.516  0.00  0.00     0.018 C 
ENDBRANCH   1   8
TORSDOF 1
ENDMDL
