MODEL 1
REMARK minimizedAffinity -1.14674139
REMARK minimizedRMSD -1
REMARK  1 active torsions:
REMARK  status: ('A' for Active; 'I' for Inactive)
REMARK    1  A    between atoms: C1_2  and  C2_3 
ROOT
ATOM      1  C2  UNL d   1      -3.801   0.122  -3.854  0.00  0.00    -0.073 A 
ATOM      2  C3  UNL d   1      -5.124  -0.250  -4.119  0.00  0.00    -0.002 A 
ATOM      3  C4  UNL d   1      -5.933   0.552  -4.926  0.00  0.00     0.004 A 
ATOM      4  C5  UNL d   1      -5.427   1.727  -5.480  0.00  0.00    -0.004 A 
ATOM      5  C6  UNL d   1      -4.104   2.110  -5.237  0.00  0.00    -0.075 A 
ATOM      6  C7  UNL d   1      -3.545   3.372  -5.824  0.00  0.00     0.076 C 
ATOM      7  C8  UNL d   1      -3.298   1.301  -4.424  0.00  0.00     0.001 A 
ENDROOT
BRANCH   1   8
ATOM      8  C1  UNL d   1      -2.921  -0.743  -2.989  0.00  0.00     0.053 C 
ATOM      9  C   UNL d   1      -1.612  -0.054  -2.639  0.00  0.00     0.018 C 
ENDBRANCH   1   8
TORSDOF 1
ENDMDL
