MODEL 1
REMARK minimizedAffinity 16.083786
REMARK minimizedRMSD -1
REMARK  1 active torsions:
REMARK  status: ('A' for Active; 'I' for Inactive)
REMARK    1  A    between atoms: C1_2  and  C2_3 
ROOT
ATOM      1  C2  UNL d   1      -5.513  -0.164  -3.126  0.00  0.00    -0.073 A 
ATOM      2  C3  UNL d   1      -6.000   0.954  -3.814  0.00  0.00    -0.002 A 
ATOM      3  C4  UNL d   1      -5.874   1.037  -5.201  0.00  0.00     0.004 A 
ATOM      4  C5  UNL d   1      -5.267   0.004  -5.915  0.00  0.00    -0.004 A 
ATOM      5  C6  UNL d   1      -4.785  -1.127  -5.247  0.00  0.00    -0.075 A 
ATOM      6  C7  UNL d   1      -4.129  -2.246  -5.999  0.00  0.00     0.076 C 
ATOM      7  C8  UNL d   1      -4.913  -1.202  -3.853  0.00  0.00     0.001 A 
ENDROOT
BRANCH   1   8
ATOM      8  C1  UNL d   1      -5.653  -0.262  -1.629  0.00  0.00     0.053 C 
ATOM      9  C   UNL d   1      -4.470   0.362  -0.904  0.00  0.00     0.018 C 
ENDBRANCH   1   8
TORSDOF 1
ENDMDL
