MODEL 1
REMARK minimizedAffinity 13.1585789
REMARK minimizedRMSD -1
REMARK  0 active torsions:
REMARK  status: ('A' for Active; 'I' for Inactive)
ROOT
ATOM      1  O1  BZF d   1      -5.889   3.831  -5.971  0.00  0.00    -0.204 OA
ATOM      2  C2  BZF d   1      -5.878   5.212  -5.957  0.00  0.00     0.174 A 
ATOM      3  C3  BZF d   1      -4.615   5.680  -5.894  0.00  0.00    -0.012 A 
ATOM      4  C3A BZF d   1      -3.780   4.520  -5.961  0.00  0.00    -0.107 A 
ATOM      5  C4  BZF d   1      -2.427   4.335  -5.959  0.00  0.00     0.055 A 
ATOM      6  C5  BZF d   1      -1.934   3.069  -5.961  0.00  0.00    -0.016 A 
ATOM      7  C6  BZF d   1      -2.762   1.966  -5.960  0.00  0.00     0.022 A 
ATOM      8  C7  BZF d   1      -4.111   2.099  -5.967  0.00  0.00     0.029 A 
ATOM      9  C7A BZF d   1      -4.613   3.377  -5.998  0.00  0.00     0.058 A 
ENDROOT
TORSDOF 0
ENDMDL
