MODEL 1
REMARK minimizedAffinity 17.2056332
REMARK minimizedRMSD -1
REMARK  0 active torsions:
REMARK  status: ('A' for Active; 'I' for Inactive)
ROOT
ATOM      1  O1  BZF d   1       3.129  -0.761  -0.748  0.00  0.00    -0.204 OA
ATOM      2  C2  BZF d   1       2.238   0.143  -1.294  0.00  0.00     0.174 A 
ATOM      3  C3  BZF d   1       1.202  -0.497  -1.874  0.00  0.00    -0.012 A 
ATOM      4  C3A BZF d   1       1.414  -1.885  -1.598  0.00  0.00    -0.107 A 
ATOM      5  C4  BZF d   1       0.716  -3.019  -1.899  0.00  0.00     0.055 A 
ATOM      6  C5  BZF d   1       1.233  -4.225  -1.546  0.00  0.00    -0.016 A 
ATOM      7  C6  BZF d   1       2.446  -4.334  -0.897  0.00  0.00     0.022 A 
ATOM      8  C7  BZF d   1       3.172  -3.237  -0.573  0.00  0.00     0.029 A 
ATOM      9  C7A BZF d   1       2.637  -2.014  -0.899  0.00  0.00     0.058 A 
ENDROOT
TORSDOF 0
ENDMDL
