MODEL 1
REMARK minimizedAffinity 13.1334791
REMARK minimizedRMSD -1
REMARK  0 active torsions:
REMARK  status: ('A' for Active; 'I' for Inactive)
ROOT
ATOM      1  O1  BZF d   1       1.038  -0.044   3.730  0.00  0.00    -0.204 OA
ATOM      2  C2  BZF d   1       0.739  -0.751   4.879  0.00  0.00     0.174 A 
ATOM      3  C3  BZF d   1       1.426  -0.265   5.933  0.00  0.00    -0.012 A 
ATOM      4  C3A BZF d   1       2.134   0.872   5.429  0.00  0.00    -0.107 A 
ATOM      5  C4  BZF d   1       2.977   1.782   6.000  0.00  0.00     0.055 A 
ATOM      6  C5  BZF d   1       3.557   2.728   5.215  0.00  0.00    -0.016 A 
ATOM      7  C6  BZF d   1       3.322   2.789   3.857  0.00  0.00     0.022 A 
ATOM      8  C7  BZF d   1       2.489   1.911   3.247  0.00  0.00     0.029 A 
ATOM      9  C7A BZF d   1       1.875   0.975   4.042  0.00  0.00     0.058 A 
ENDROOT
TORSDOF 0
ENDMDL
