MODEL 1
REMARK minimizedAffinity 16.7624245
REMARK minimizedRMSD -1
REMARK  0 active torsions:
REMARK  status: ('A' for Active; 'I' for Inactive)
ROOT
ATOM      1  O1  BZF d   1       2.982  -2.620  -0.382  0.00  0.00    -0.204 OA
ATOM      2  C2  BZF d   1       1.674  -2.955  -0.092  0.00  0.00     0.174 A 
ATOM      3  C3  BZF d   1       1.378  -4.182  -0.568  0.00  0.00    -0.012 A 
ATOM      4  C3A BZF d   1       2.603  -4.679  -1.114  0.00  0.00    -0.107 A 
ATOM      5  C4  BZF d   1       2.954  -5.852  -1.719  0.00  0.00     0.055 A 
ATOM      6  C5  BZF d   1       4.215  -5.994  -2.204  0.00  0.00    -0.016 A 
ATOM      7  C6  BZF d   1       5.149  -4.984  -2.106  0.00  0.00     0.022 A 
ATOM      8  C7  BZF d   1       4.849  -3.804  -1.509  0.00  0.00     0.029 A 
ATOM      9  C7A BZF d   1       3.585  -3.670  -0.989  0.00  0.00     0.058 A 
ENDROOT
TORSDOF 0
ENDMDL
