MODEL 1
REMARK minimizedAffinity 9.65243149
REMARK minimizedRMSD -1
REMARK  0 active torsions:
REMARK  status: ('A' for Active; 'I' for Inactive)
ROOT
ATOM      1  O1  BZF d   1       1.057  -3.383  -1.073  0.00  0.00    -0.204 OA
ATOM      2  C2  BZF d   1       0.146  -3.896  -1.976  0.00  0.00     0.174 A 
ATOM      3  C3  BZF d   1      -0.141  -2.989  -2.933  0.00  0.00    -0.012 A 
ATOM      4  C3A BZF d   1       0.709  -1.871  -2.659  0.00  0.00    -0.107 A 
ATOM      5  C4  BZF d   1       0.898  -0.664  -3.269  0.00  0.00     0.055 A 
ATOM      6  C5  BZF d   1       1.750   0.233  -2.708  0.00  0.00    -0.016 A 
ATOM      7  C6  BZF d   1       2.425  -0.041  -1.536  0.00  0.00     0.022 A 
ATOM      8  C7  BZF d   1       2.274  -1.227  -0.898  0.00  0.00     0.029 A 
ATOM      9  C7A BZF d   1       1.439  -2.149  -1.480  0.00  0.00     0.058 A 
ENDROOT
TORSDOF 0
ENDMDL
