MODEL 1
REMARK minimizedAffinity 3.11274409
REMARK minimizedRMSD -1
REMARK  0 active torsions:
REMARK  status: ('A' for Active; 'I' for Inactive)
ROOT
ATOM      1  O1  BZF d   1       1.098  -2.577  -0.372  0.00  0.00    -0.204 OA
ATOM      2  C2  BZF d   1       0.054  -2.964  -1.190  0.00  0.00     0.174 A 
ATOM      3  C3  BZF d   1      -0.157  -2.051  -2.160  0.00  0.00    -0.012 A 
ATOM      4  C3A BZF d   1       0.875  -1.075  -1.990  0.00  0.00    -0.107 A 
ATOM      5  C4  BZF d   1       1.205   0.069  -2.658  0.00  0.00     0.055 A 
ATOM      6  C5  BZF d   1       2.227   0.835  -2.193  0.00  0.00    -0.016 A 
ATOM      7  C6  BZF d   1       2.935   0.490  -1.060  0.00  0.00     0.022 A 
ATOM      8  C7  BZF d   1       2.648  -0.639  -0.366  0.00  0.00     0.029 A 
ATOM      9  C7A BZF d   1       1.637  -1.431  -0.853  0.00  0.00     0.058 A 
ENDROOT
TORSDOF 0
ENDMDL
