MODEL 1
REMARK minimizedAffinity 15.6596346
REMARK minimizedRMSD -1
REMARK  0 active torsions:
REMARK  status: ('A' for Active; 'I' for Inactive)
ROOT
ATOM      1  O1  BZF d   1       0.716   1.615  -3.000  0.00  0.00    -0.204 OA
ATOM      2  C2  BZF d   1       0.909   2.972  -2.830  0.00  0.00     0.174 A 
ATOM      3  C3  BZF d   1       1.778   3.210  -1.826  0.00  0.00    -0.012 A 
ATOM      4  C3A BZF d   1       2.222   1.919  -1.399  0.00  0.00    -0.107 A 
ATOM      5  C4  BZF d   1       3.102   1.498  -0.444  0.00  0.00     0.055 A 
ATOM      6  C5  BZF d   1       3.256   0.165  -0.229  0.00  0.00    -0.016 A 
ATOM      7  C6  BZF d   1       2.542  -0.773  -0.946  0.00  0.00     0.022 A 
ATOM      8  C7  BZF d   1       1.661  -0.404  -1.907  0.00  0.00     0.029 A 
ATOM      9  C7A BZF d   1       1.528   0.942  -2.149  0.00  0.00     0.058 A 
ENDROOT
TORSDOF 0
ENDMDL
