MODEL 1
REMARK minimizedAffinity 10.068903
REMARK minimizedRMSD -1
REMARK  0 active torsions:
REMARK  status: ('A' for Active; 'I' for Inactive)
ROOT
ATOM      1  O1  BZF d   1      -1.517   3.438   2.673  0.00  0.00    -0.204 OA
ATOM      2  C2  BZF d   1      -2.577   2.591   2.933  0.00  0.00     0.174 A 
ATOM      3  C3  BZF d   1      -2.244   1.312   2.669  0.00  0.00    -0.012 A 
ATOM      4  C3A BZF d   1      -0.861   1.351   2.303  0.00  0.00    -0.107 A 
ATOM      5  C4  BZF d   1       0.043   0.392   1.945  0.00  0.00     0.055 A 
ATOM      6  C5  BZF d   1       1.295   0.769   1.577  0.00  0.00    -0.016 A 
ATOM      7  C6  BZF d   1       1.676   2.095   1.551  0.00  0.00     0.022 A 
ATOM      8  C7  BZF d   1       0.816   3.081   1.903  0.00  0.00     0.029 A 
ATOM      9  C7A BZF d   1      -0.441   2.701   2.307  0.00  0.00     0.058 A 
ENDROOT
TORSDOF 0
ENDMDL
