MODEL 1
REMARK minimizedAffinity 11.0875311
REMARK minimizedRMSD -1
REMARK  0 active torsions:
REMARK  status: ('A' for Active; 'I' for Inactive)
ROOT
ATOM      1  O1  BZF d   1       5.057   3.408   1.099  0.00  0.00    -0.204 OA
ATOM      2  C2  BZF d   1       4.603   4.370   1.979  0.00  0.00     0.174 A 
ATOM      3  C3  BZF d   1       3.393   4.035   2.472  0.00  0.00    -0.012 A 
ATOM      4  C3A BZF d   1       3.113   2.740   1.932  0.00  0.00    -0.107 A 
ATOM      5  C4  BZF d   1       2.067   1.873   2.068  0.00  0.00     0.055 A 
ATOM      6  C5  BZF d   1       2.067   0.720   1.348  0.00  0.00    -0.016 A 
ATOM      7  C6  BZF d   1       3.093   0.405   0.481  0.00  0.00     0.022 A 
ATOM      8  C7  BZF d   1       4.155   1.231   0.317  0.00  0.00     0.029 A 
ATOM      9  C7A BZF d   1       4.173   2.382   1.068  0.00  0.00     0.058 A 
ENDROOT
TORSDOF 0
ENDMDL
