MODEL 1
REMARK minimizedAffinity 3.37263775
REMARK minimizedRMSD -1
REMARK  0 active torsions:
REMARK  status: ('A' for Active; 'I' for Inactive)
ROOT
ATOM      1  O1  BZF d   1       3.050   2.886   2.493  0.00  0.00    -0.204 OA
ATOM      2  C2  BZF d   1       2.675   2.178   1.368  0.00  0.00     0.174 A 
ATOM      3  C3  BZF d   1       2.044   1.036   1.709  0.00  0.00    -0.012 A 
ATOM      4  C3A BZF d   1       1.942   1.075   3.136  0.00  0.00    -0.107 A 
ATOM      5  C4  BZF d   1       1.400   0.229   4.062  0.00  0.00     0.055 A 
ATOM      6  C5  BZF d   1       1.532   0.524   5.382  0.00  0.00    -0.016 A 
ATOM      7  C6  BZF d   1       2.202   1.650   5.811  0.00  0.00     0.022 A 
ATOM      8  C7  BZF d   1       2.752   2.521   4.930  0.00  0.00     0.029 A 
ATOM      9  C7A BZF d   1       2.592   2.244   3.594  0.00  0.00     0.058 A 
ENDROOT
TORSDOF 0
ENDMDL
