MODEL 1
REMARK minimizedAffinity 18.0104179
REMARK minimizedRMSD -1
REMARK  0 active torsions:
REMARK  status: ('A' for Active; 'I' for Inactive)
ROOT
ATOM      1  O1  BZF d   1      -3.078  -2.475  -1.756  0.00  0.00    -0.204 OA
ATOM      2  C2  BZF d   1      -2.246  -1.768  -2.603  0.00  0.00     0.174 A 
ATOM      3  C3  BZF d   1      -1.172  -2.508  -2.946  0.00  0.00    -0.012 A 
ATOM      4  C3A BZF d   1      -1.390  -3.788  -2.345  0.00  0.00    -0.107 A 
ATOM      5  C4  BZF d   1      -0.680  -4.955  -2.338  0.00  0.00     0.055 A 
ATOM      6  C5  BZF d   1      -1.132  -5.999  -1.594  0.00  0.00    -0.016 A 
ATOM      7  C6  BZF d   1      -2.285  -5.908  -0.842  0.00  0.00     0.022 A 
ATOM      8  C7  BZF d   1      -3.025  -4.773  -0.821  0.00  0.00     0.029 A 
ATOM      9  C7A BZF d   1      -2.589  -3.728  -1.598  0.00  0.00     0.058 A 
ENDROOT
TORSDOF 0
ENDMDL
