MODEL 1
REMARK minimizedAffinity 2.08330488
REMARK minimizedRMSD -1
REMARK  0 active torsions:
REMARK  status: ('A' for Active; 'I' for Inactive)
ROOT
ATOM      1  O1  BZF d   1      -2.472  -5.035  -4.158  0.00  0.00    -0.204 OA
ATOM      2  C2  BZF d   1      -1.485  -5.975  -3.933  0.00  0.00     0.174 A 
ATOM      3  C3  BZF d   1      -0.493  -5.456  -3.180  0.00  0.00    -0.012 A 
ATOM      4  C3A BZF d   1      -0.929  -4.136  -2.841  0.00  0.00    -0.107 A 
ATOM      5  C4  BZF d   1      -0.384  -3.129  -2.097  0.00  0.00     0.055 A 
ATOM      6  C5  BZF d   1      -1.033  -1.937  -2.022  0.00  0.00    -0.016 A 
ATOM      7  C6  BZF d   1      -2.223  -1.716  -2.683  0.00  0.00     0.022 A 
ATOM      8  C7  BZF d   1      -2.806  -2.686  -3.429  0.00  0.00     0.029 A 
ATOM      9  C7A BZF d   1      -2.170  -3.902  -3.479  0.00  0.00     0.058 A 
ENDROOT
TORSDOF 0
ENDMDL
