MODEL 1
REMARK minimizedAffinity 13.7728119
REMARK minimizedRMSD -1
REMARK  0 active torsions:
REMARK  status: ('A' for Active; 'I' for Inactive)
ROOT
ATOM      1  O1  BZF d   1      -3.583  -2.160  -2.988  0.00  0.00    -0.204 OA
ATOM      2  C2  BZF d   1      -3.184  -0.840  -2.901  0.00  0.00     0.174 A 
ATOM      3  C3  BZF d   1      -1.924  -0.751  -2.427  0.00  0.00    -0.012 A 
ATOM      4  C3A BZF d   1      -1.478  -2.104  -2.290  0.00  0.00    -0.107 A 
ATOM      5  C4  BZF d   1      -0.304  -2.668  -1.879  0.00  0.00     0.055 A 
ATOM      6  C5  BZF d   1      -0.216  -4.021  -1.792  0.00  0.00    -0.016 A 
ATOM      7  C6  BZF d   1      -1.283  -4.839  -2.103  0.00  0.00     0.022 A 
ATOM      8  C7  BZF d   1      -2.466  -4.326  -2.521  0.00  0.00     0.029 A 
ATOM      9  C7A BZF d   1      -2.547  -2.960  -2.641  0.00  0.00     0.058 A 
ENDROOT
TORSDOF 0
ENDMDL
