MODEL 1
REMARK minimizedAffinity 19.1933002
REMARK minimizedRMSD -1
REMARK  0 active torsions:
REMARK  status: ('A' for Active; 'I' for Inactive)
ROOT
ATOM      1  O1  BZF d   1       4.023   2.730   0.383  0.00  0.00    -0.204 OA
ATOM      2  C2  BZF d   1       4.243   1.944  -0.732  0.00  0.00     0.174 A 
ATOM      3  C3  BZF d   1       3.390   0.900  -0.757  0.00  0.00    -0.012 A 
ATOM      4  C3A BZF d   1       2.526   1.093   0.367  0.00  0.00    -0.107 A 
ATOM      5  C4  BZF d   1       1.463   0.395   0.864  0.00  0.00     0.055 A 
ATOM      6  C5  BZF d   1       0.882   0.811   2.021  0.00  0.00    -0.016 A 
ATOM      7  C6  BZF d   1       1.342   1.915   2.708  0.00  0.00     0.022 A 
ATOM      8  C7  BZF d   1       2.391   2.643   2.251  0.00  0.00     0.029 A 
ATOM      9  C7A BZF d   1       2.958   2.244   1.065  0.00  0.00     0.058 A 
ENDROOT
TORSDOF 0
ENDMDL
