MODEL 1
REMARK minimizedAffinity 9.33490181
REMARK minimizedRMSD -1
REMARK  0 active torsions:
REMARK  status: ('A' for Active; 'I' for Inactive)
ROOT
ATOM      1  O1  BZF d   1       3.808   3.231   1.533  0.00  0.00    -0.204 OA
ATOM      2  C2  BZF d   1       2.905   3.906   2.333  0.00  0.00     0.174 A 
ATOM      3  C3  BZF d   1       1.775   3.187   2.489  0.00  0.00    -0.012 A 
ATOM      4  C3A BZF d   1       2.020   1.948   1.817  0.00  0.00    -0.107 A 
ATOM      5  C4  BZF d   1       1.278   0.816   1.635  0.00  0.00     0.055 A 
ATOM      6  C5  BZF d   1       1.781  -0.186   0.866  0.00  0.00    -0.016 A 
ATOM      7  C6  BZF d   1       3.017  -0.087   0.262  0.00  0.00     0.022 A 
ATOM      8  C7  BZF d   1       3.791   1.014   0.418  0.00  0.00     0.029 A 
ATOM      9  C7A BZF d   1       3.300   2.015   1.220  0.00  0.00     0.058 A 
ENDROOT
TORSDOF 0
ENDMDL
