MODEL 1
REMARK minimizedAffinity 5.73276615
REMARK minimizedRMSD -1
REMARK  0 active torsions:
REMARK  status: ('A' for Active; 'I' for Inactive)
ROOT
ATOM      1  O1  BZF d   1      -0.234  -3.729  -1.109  0.00  0.00    -0.204 OA
ATOM      2  C2  BZF d   1      -1.085  -3.781  -2.196  0.00  0.00     0.174 A 
ATOM      3  C3  BZF d   1      -0.747  -2.852  -3.114  0.00  0.00    -0.012 A 
ATOM      4  C3A BZF d   1       0.443  -2.240  -2.608  0.00  0.00    -0.107 A 
ATOM      5  C4  BZF d   1       1.265  -1.256  -3.078  0.00  0.00     0.055 A 
ATOM      6  C5  BZF d   1       2.304  -0.839  -2.307  0.00  0.00    -0.016 A 
ATOM      7  C6  BZF d   1       2.546  -1.379  -1.061  0.00  0.00     0.022 A 
ATOM      8  C7  BZF d   1       1.761  -2.360  -0.554  0.00  0.00     0.029 A 
ATOM      9  C7A BZF d   1       0.730  -2.807  -1.345  0.00  0.00     0.058 A 
ENDROOT
TORSDOF 0
ENDMDL
