MODEL 1
REMARK minimizedAffinity 13.5411091
REMARK minimizedRMSD -1
REMARK  0 active torsions:
REMARK  status: ('A' for Active; 'I' for Inactive)
ROOT
ATOM      1  O1  BZF d   1       0.563   2.150  -3.450  0.00  0.00    -0.204 OA
ATOM      2  C2  BZF d   1       0.876   3.402  -2.957  0.00  0.00     0.174 A 
ATOM      3  C3  BZF d   1       1.634   3.303  -1.846  0.00  0.00    -0.012 A 
ATOM      4  C3A BZF d   1       1.884   1.904  -1.684  0.00  0.00    -0.107 A 
ATOM      5  C4  BZF d   1       2.591   1.176  -0.770  0.00  0.00     0.055 A 
ATOM      6  C5  BZF d   1       2.576  -0.180  -0.852  0.00  0.00    -0.016 A 
ATOM      7  C6  BZF d   1       1.862  -0.841  -1.830  0.00  0.00     0.022 A 
ATOM      8  C7  BZF d   1       1.149  -0.162  -2.762  0.00  0.00     0.029 A 
ATOM      9  C7A BZF d   1       1.189   1.210  -2.702  0.00  0.00     0.058 A 
ENDROOT
TORSDOF 0
ENDMDL
