MODEL 1
REMARK minimizedAffinity 7.88265324
REMARK minimizedRMSD -1
REMARK  0 active torsions:
REMARK  status: ('A' for Active; 'I' for Inactive)
ROOT
ATOM      1  O1  BZF d   1       0.376  -3.821  -0.521  0.00  0.00    -0.204 OA
ATOM      2  C2  BZF d   1      -0.531  -4.224  -1.483  0.00  0.00     0.174 A 
ATOM      3  C3  BZF d   1      -0.642  -3.296  -2.455  0.00  0.00    -0.012 A 
ATOM      4  C3A BZF d   1       0.319  -2.289  -2.125  0.00  0.00    -0.107 A 
ATOM      5  C4  BZF d   1       0.694  -1.118  -2.720  0.00  0.00     0.055 A 
ATOM      6  C5  BZF d   1       1.612  -0.328  -2.104  0.00  0.00    -0.016 A 
ATOM      7  C6  BZF d   1       2.171  -0.675  -0.891  0.00  0.00     0.022 A 
ATOM      8  C7  BZF d   1       1.835  -1.829  -0.265  0.00  0.00     0.029 A 
ATOM      9  C7A BZF d   1       0.932  -2.645  -0.902  0.00  0.00     0.058 A 
ENDROOT
TORSDOF 0
ENDMDL
