MODEL 1
REMARK minimizedAffinity 21.695509
REMARK minimizedRMSD -1
REMARK  0 active torsions:
REMARK  status: ('A' for Active; 'I' for Inactive)
ROOT
ATOM      1  O1  BZF d   1       3.043  -0.400  -0.775  0.00  0.00    -0.204 OA
ATOM      2  C2  BZF d   1       3.725   0.538  -0.024  0.00  0.00     0.174 A 
ATOM      3  C3  BZF d   1       3.513   1.780  -0.504  0.00  0.00    -0.012 A 
ATOM      4  C3A BZF d   1       2.572   1.617  -1.569  0.00  0.00    -0.107 A 
ATOM      5  C4  BZF d   1       1.960   2.490  -2.423  0.00  0.00     0.055 A 
ATOM      6  C5  BZF d   1       1.149   2.001  -3.397  0.00  0.00    -0.016 A 
ATOM      7  C6  BZF d   1       0.933   0.647  -3.550  0.00  0.00     0.022 A 
ATOM      8  C7  BZF d   1       1.513  -0.257  -2.724  0.00  0.00     0.029 A 
ATOM      9  C7A BZF d   1       2.307   0.236  -1.718  0.00  0.00     0.058 A 
ENDROOT
TORSDOF 0
ENDMDL
