MODEL 1
REMARK minimizedAffinity 0.595581949
REMARK minimizedRMSD -1
REMARK  1 active torsions:
REMARK  status: ('A' for Active; 'I' for Inactive)
REMARK    1  A    between atoms: C1_2  and  C2_3 
ROOT
ATOM      1  C2  UNL d   1       2.029   1.224  -1.949  0.00  0.00    -0.073 A 
ATOM      2  C3  UNL d   1       3.345   1.619  -2.217  0.00  0.00    -0.002 A 
ATOM      3  C4  UNL d   1       4.396   0.712  -2.076  0.00  0.00     0.004 A 
ATOM      4  C5  UNL d   1       4.143  -0.599  -1.673  0.00  0.00    -0.004 A 
ATOM      5  C6  UNL d   1       2.834  -1.016  -1.412  0.00  0.00    -0.075 A 
ATOM      6  C7  UNL d   1       2.544  -2.422  -0.975  0.00  0.00     0.076 C 
ATOM      7  C8  UNL d   1       1.784  -0.098  -1.553  0.00  0.00     0.001 A 
ENDROOT
BRANCH   1   8
ATOM      8  C1  UNL d   1       0.890   2.198  -2.106  0.00  0.00     0.053 C 
ATOM      9  C   UNL d   1      -0.149   2.042  -1.008  0.00  0.00     0.018 C 
ENDBRANCH   1   8
TORSDOF 1
ENDMDL
