MODEL 1
REMARK minimizedAffinity 10.5073156
REMARK minimizedRMSD -1
REMARK  1 active torsions:
REMARK  status: ('A' for Active; 'I' for Inactive)
REMARK    1  A    between atoms: C1_2  and  C2_3 
ROOT
ATOM      1  C2  UNL d   1       1.691  -2.957   0.352  0.00  0.00    -0.073 A 
ATOM      2  C3  UNL d   1       2.715  -2.359  -0.391  0.00  0.00    -0.002 A 
ATOM      3  C4  UNL d   1       2.413  -1.433  -1.391  0.00  0.00     0.004 A 
ATOM      4  C5  UNL d   1       1.087  -1.092  -1.654  0.00  0.00    -0.004 A 
ATOM      5  C6  UNL d   1       0.050  -1.670  -0.915  0.00  0.00    -0.075 A 
ATOM      6  C7  UNL d   1      -1.383  -1.315  -1.187  0.00  0.00     0.076 C 
ATOM      7  C8  UNL d   1       0.361  -2.600   0.086  0.00  0.00     0.001 A 
ENDROOT
BRANCH   1   8
ATOM      8  C1  UNL d   1       2.012  -3.952   1.437  0.00  0.00     0.053 C 
ATOM      9  C   UNL d   1       0.835  -4.865   1.739  0.00  0.00     0.018 C 
ENDBRANCH   1   8
TORSDOF 1
ENDMDL
