MODEL 1
REMARK minimizedAffinity 5.18403864
REMARK minimizedRMSD -1
REMARK  1 active torsions:
REMARK  status: ('A' for Active; 'I' for Inactive)
REMARK    1  A    between atoms: C1_2  and  C2_3 
ROOT
ATOM      1  C2  UNL d   1       1.912   0.089  -1.674  0.00  0.00    -0.073 A 
ATOM      2  C3  UNL d   1       1.113   0.783  -0.758  0.00  0.00    -0.002 A 
ATOM      3  C4  UNL d   1       0.556   2.016  -1.101  0.00  0.00     0.004 A 
ATOM      4  C5  UNL d   1       0.786   2.564  -2.363  0.00  0.00    -0.004 A 
ATOM      5  C6  UNL d   1       1.572   1.880  -3.296  0.00  0.00    -0.075 A 
ATOM      6  C7  UNL d   1       1.831   2.456  -4.657  0.00  0.00     0.076 C 
ATOM      7  C8  UNL d   1       2.130   0.643  -2.943  0.00  0.00     0.001 A 
ENDROOT
BRANCH   1   8
ATOM      8  C1  UNL d   1       2.509  -1.245  -1.310  0.00  0.00     0.053 C 
ATOM      9  C   UNL d   1       1.522  -2.128  -0.563  0.00  0.00     0.018 C 
ENDBRANCH   1   8
TORSDOF 1
ENDMDL
