MODEL 1
REMARK minimizedAffinity 5.62128782
REMARK minimizedRMSD -1
REMARK  1 active torsions:
REMARK  status: ('A' for Active; 'I' for Inactive)
REMARK    1  A    between atoms: C1_2  and  C2_3 
ROOT
ATOM      1  C2  UNL d   1       0.839  -1.625  -3.317  0.00  0.00    -0.073 A 
ATOM      2  C3  UNL d   1       0.905  -1.718  -1.922  0.00  0.00    -0.002 A 
ATOM      3  C4  UNL d   1       1.074  -0.569  -1.147  0.00  0.00     0.004 A 
ATOM      4  C5  UNL d   1       1.170   0.681  -1.757  0.00  0.00    -0.004 A 
ATOM      5  C6  UNL d   1       1.094   0.795  -3.149  0.00  0.00    -0.075 A 
ATOM      6  C7  UNL d   1       1.199   2.133  -3.820  0.00  0.00     0.076 C 
ATOM      7  C8  UNL d   1       0.928  -0.363  -3.920  0.00  0.00     0.001 A 
ENDROOT
BRANCH   1   8
ATOM      8  C1  UNL d   1       0.650  -2.862  -4.158  0.00  0.00     0.053 C 
ATOM      9  C   UNL d   1       0.979  -4.130  -3.387  0.00  0.00     0.018 C 
ENDBRANCH   1   8
TORSDOF 1
ENDMDL
