MODEL 1
REMARK minimizedAffinity -2.14858913
REMARK minimizedRMSD -1
REMARK  1 active torsions:
REMARK  status: ('A' for Active; 'I' for Inactive)
REMARK    1  A    between atoms: C1_2  and  C2_3 
ROOT
ATOM      1  C2  UNL d   1       1.231  -0.592  -1.248  0.00  0.00    -0.073 A 
ATOM      2  C3  UNL d   1       2.469  -1.198  -1.494  0.00  0.00    -0.002 A 
ATOM      3  C4  UNL d   1       3.427  -0.551  -2.277  0.00  0.00     0.004 A 
ATOM      4  C5  UNL d   1       3.161   0.709  -2.814  0.00  0.00    -0.004 A 
ATOM      5  C6  UNL d   1       1.935   1.335  -2.569  0.00  0.00    -0.075 A 
ATOM      6  C7  UNL d   1       1.632   2.689  -3.141  0.00  0.00     0.076 C 
ATOM      7  C8  UNL d   1       0.977   0.678  -1.785  0.00  0.00     0.001 A 
ENDROOT
BRANCH   1   8
ATOM      8  C1  UNL d   1       0.196  -1.283  -0.399  0.00  0.00     0.053 C 
ATOM      9  C   UNL d   1      -1.191  -0.692  -0.596  0.00  0.00     0.018 C 
ENDBRANCH   1   8
TORSDOF 1
ENDMDL
